MODEL 1
REMARK VINA RESULT:    -5.474      0.000      0.000
REMARK INTER + INTRA:          -6.723
REMARK INTER:                  -6.434
REMARK INTRA:                  -0.288
REMARK UNBOUND:                -0.288
REMARK SMILES O=c1c(O)c(-c2ccc(O)cc2)oc2cc(O)cc(O)c12
REMARK SMILES IDX 5 1 3 2 2 3 1 4 21 5 19 6 18 7 16 8 15 9 14 10 13 11 6 12
REMARK SMILES IDX 7 13 8 14 9 15 12 16 11 17 10 18 4 20 20 22 17 24
REMARK H PARENT 10 19 4 21 20 23 17 25
REMARK Flexibility Score: inf
ROOT
ATOM      1  C   UNL     1    -105.675 187.201  50.049  1.00  0.00     0.180 A 
ATOM      2  C   UNL     1    -105.882 186.070  50.858  1.00  0.00     0.208 A 
ATOM      3  C   UNL     1    -104.836 185.146  51.016  1.00  0.00     0.238 A 
ATOM      4  O   UNL     1    -105.044 184.107  51.696  1.00  0.00    -0.285 OA
ATOM      5  C   UNL     1    -103.593 185.372  50.378  1.00  0.00     0.111 A 
ATOM      6  C   UNL     1    -102.452 184.523  50.500  1.00  0.00     0.134 A 
ATOM      7  C   UNL     1    -101.317 184.774  49.720  1.00  0.00     0.093 A 
ATOM      8  C   UNL     1    -101.258 185.882  48.870  1.00  0.00     0.123 A 
ATOM      9  C   UNL     1    -102.344 186.750  48.788  1.00  0.00     0.094 A 
ATOM     10  C   UNL     1    -103.504 186.506  49.527  1.00  0.00     0.146 A 
ATOM     11  O   UNL     1    -104.519 187.352  49.411  1.00  0.00    -0.452 OA
ENDROOT
BRANCH   1  12
ATOM     12  C   UNL     1    -106.720 188.233  49.856  1.00  0.00     0.021 A 
ATOM     13  C   UNL     1    -107.652 188.086  48.814  1.00  0.00     0.016 A 
ATOM     14  C   UNL     1    -108.633 189.058  48.599  1.00  0.00     0.047 A 
ATOM     15  C   UNL     1    -108.685 190.196  49.413  1.00  0.00     0.115 A 
ATOM     16  C   UNL     1    -106.766 189.388  50.656  1.00  0.00     0.016 A 
ATOM     17  C   UNL     1    -107.749 190.360  50.438  1.00  0.00     0.047 A 
BRANCH  15  18
ATOM     18  O   UNL     1    -109.659 191.172  49.209  1.00  0.00    -0.508 OA
ATOM     19  H   UNL     1    -109.415 192.105  48.895  1.00  0.00     0.293 HD
ENDBRANCH  15  18
ENDBRANCH   1  12
BRANCH   2  20
ATOM     20  O   UNL     1    -107.124 185.854  51.461  1.00  0.00    -0.502 OA
ATOM     21  H   UNL     1    -107.568 184.944  51.480  1.00  0.00     0.293 HD
ENDBRANCH   2  20
BRANCH   6  22
ATOM     22  O   UNL     1    -102.374 183.444  51.386  1.00  0.00    -0.507 OA
ATOM     23  H   UNL     1    -103.053 183.240  52.103  1.00  0.00     0.293 HD
ENDBRANCH   6  22
BRANCH   8  24
ATOM     24  O   UNL     1    -100.118 186.134  48.109  1.00  0.00    -0.508 OA
ATOM     25  H   UNL     1     -99.273 185.585  48.222  1.00  0.00     0.293 HD
ENDBRANCH   8  24
TORSDOF 5
ENDMDL
MODEL 2
REMARK VINA RESULT:    -5.397      0.442      1.144
REMARK INTER + INTRA:          -6.632
REMARK INTER:                  -6.357
REMARK INTRA:                  -0.274
REMARK UNBOUND:                -0.288
REMARK SMILES O=c1c(O)c(-c2ccc(O)cc2)oc2cc(O)cc(O)c12
REMARK SMILES IDX 5 1 3 2 2 3 1 4 21 5 19 6 18 7 16 8 15 9 14 10 13 11 6 12
REMARK SMILES IDX 7 13 8 14 9 15 12 16 11 17 10 18 4 20 20 22 17 24
REMARK H PARENT 10 19 4 21 20 23 17 25
REMARK Flexibility Score: inf
ROOT
ATOM      1  C   UNL     1    -105.848 186.969  49.766  1.00  0.00     0.180 A 
ATOM      2  C   UNL     1    -106.003 185.865  50.623  1.00  0.00     0.208 A 
ATOM      3  C   UNL     1    -104.899 185.030  50.862  1.00  0.00     0.238 A 
ATOM      4  O   UNL     1    -105.057 184.013  51.586  1.00  0.00    -0.285 OA
ATOM      5  C   UNL     1    -103.653 185.317  50.255  1.00  0.00     0.111 A 
ATOM      6  C   UNL     1    -102.459 184.562  50.458  1.00  0.00     0.134 A 
ATOM      7  C   UNL     1    -101.317 184.859  49.704  1.00  0.00     0.093 A 
ATOM      8  C   UNL     1    -101.307 185.927  48.802  1.00  0.00     0.123 A 
ATOM      9  C   UNL     1    -102.450 186.706  48.641  1.00  0.00     0.094 A 
ATOM     10  C   UNL     1    -103.616 186.412  49.352  1.00  0.00     0.146 A 
ATOM     11  O   UNL     1    -104.684 187.174  49.160  1.00  0.00    -0.452 OA
ENDROOT
BRANCH   1  12
ATOM     12  C   UNL     1    -106.958 187.909  49.486  1.00  0.00     0.021 A 
ATOM     13  C   UNL     1    -107.080 189.082  50.251  1.00  0.00     0.016 A 
ATOM     14  C   UNL     1    -108.131 189.973  50.019  1.00  0.00     0.047 A 
ATOM     15  C   UNL     1    -109.083 189.696  49.029  1.00  0.00     0.115 A 
ATOM     16  C   UNL     1    -107.928 187.628  48.507  1.00  0.00     0.016 A 
ATOM     17  C   UNL     1    -108.980 188.522  48.278  1.00  0.00     0.047 A 
BRANCH  15  18
ATOM     18  O   UNL     1    -110.135 190.577  48.788  1.00  0.00    -0.508 OA
ATOM     19  H   UNL     1    -110.280 191.399  49.364  1.00  0.00     0.293 HD
ENDBRANCH  15  18
ENDBRANCH   1  12
BRANCH   2  20
ATOM     20  O   UNL     1    -107.247 185.587  51.195  1.00  0.00    -0.502 OA
ATOM     21  H   UNL     1    -107.380 184.847  51.873  1.00  0.00     0.293 HD
ENDBRANCH   2  20
BRANCH   6  22
ATOM     22  O   UNL     1    -102.336 183.536  51.400  1.00  0.00    -0.507 OA
ATOM     23  H   UNL     1    -102.419 182.553  51.192  1.00  0.00     0.293 HD
ENDBRANCH   6  22
BRANCH   8  24
ATOM     24  O   UNL     1    -100.162 186.226  48.068  1.00  0.00    -0.508 OA
ATOM     25  H   UNL     1     -99.349 185.619  48.081  1.00  0.00     0.293 HD
ENDBRANCH   8  24
TORSDOF 5
ENDMDL
MODEL 3
REMARK VINA RESULT:    -5.346      3.489      6.587
REMARK INTER + INTRA:          -6.572
REMARK INTER:                  -6.414
REMARK INTRA:                  -0.158
REMARK UNBOUND:                -0.288
REMARK SMILES O=c1c(O)c(-c2ccc(O)cc2)oc2cc(O)cc(O)c12
REMARK SMILES IDX 5 1 3 2 2 3 1 4 21 5 19 6 18 7 16 8 15 9 14 10 13 11 6 12
REMARK SMILES IDX 7 13 8 14 9 15 12 16 11 17 10 18 4 20 20 22 17 24
REMARK H PARENT 10 19 4 21 20 23 17 25
REMARK Flexibility Score: inf
ROOT
ATOM      1  C   UNL     1    -104.955 184.503  51.409  1.00  0.00     0.180 A 
ATOM      2  C   UNL     1    -106.178 184.100  50.844  1.00  0.00     0.208 A 
ATOM      3  C   UNL     1    -107.212 183.673  51.693  1.00  0.00     0.238 A 
ATOM      4  O   UNL     1    -108.285 183.262  51.180  1.00  0.00    -0.285 OA
ATOM      5  C   UNL     1    -107.016 183.670  53.095  1.00  0.00     0.111 A 
ATOM      6  C   UNL     1    -108.008 183.295  54.051  1.00  0.00     0.134 A 
ATOM      7  C   UNL     1    -107.662 183.204  55.405  1.00  0.00     0.093 A 
ATOM      8  C   UNL     1    -106.378 183.538  55.845  1.00  0.00     0.123 A 
ATOM      9  C   UNL     1    -105.421 183.962  54.927  1.00  0.00     0.094 A 
ATOM     10  C   UNL     1    -105.725 184.028  53.565  1.00  0.00     0.146 A 
ATOM     11  O   UNL     1    -104.780 184.427  52.723  1.00  0.00    -0.452 OA
ENDROOT
BRANCH   1  12
ATOM     12  C   UNL     1    -103.828 184.990  50.581  1.00  0.00     0.021 A 
ATOM     13  C   UNL     1    -102.609 184.289  50.590  1.00  0.00     0.016 A 
ATOM     14  C   UNL     1    -101.525 184.743  49.833  1.00  0.00     0.047 A 
ATOM     15  C   UNL     1    -101.640 185.912  49.070  1.00  0.00     0.115 A 
ATOM     16  C   UNL     1    -103.929 186.174  49.828  1.00  0.00     0.016 A 
ATOM     17  C   UNL     1    -102.842 186.626  49.073  1.00  0.00     0.047 A 
BRANCH  15  18
ATOM     18  O   UNL     1    -100.567 186.374  48.312  1.00  0.00    -0.508 OA
ATOM     19  H   UNL     1    -100.704 186.783  47.394  1.00  0.00     0.293 HD
ENDBRANCH  15  18
ENDBRANCH   1  12
BRANCH   2  20
ATOM     20  O   UNL     1    -106.342 184.090  49.456  1.00  0.00    -0.502 OA
ATOM     21  H   UNL     1    -106.550 183.244  48.940  1.00  0.00     0.293 HD
ENDBRANCH   2  20
BRANCH   6  22
ATOM     22  O   UNL     1    -109.342 183.031  53.728  1.00  0.00    -0.507 OA
ATOM     23  H   UNL     1    -109.649 182.579  52.881  1.00  0.00     0.293 HD
ENDBRANCH   6  22
BRANCH   8  24
ATOM     24  O   UNL     1    -106.047 183.460  57.196  1.00  0.00    -0.508 OA
ATOM     25  H   UNL     1    -105.354 184.074  57.609  1.00  0.00     0.293 HD
ENDBRANCH   8  24
TORSDOF 5
ENDMDL
MODEL 4
REMARK VINA RESULT:    -5.086      2.978      5.845
REMARK INTER + INTRA:          -6.267
REMARK INTER:                  -5.987
REMARK INTRA:                  -0.280
REMARK UNBOUND:                -0.288
REMARK SMILES O=c1c(O)c(-c2ccc(O)cc2)oc2cc(O)cc(O)c12
REMARK SMILES IDX 5 1 3 2 2 3 1 4 21 5 19 6 18 7 16 8 15 9 14 10 13 11 6 12
REMARK SMILES IDX 7 13 8 14 9 15 12 16 11 17 10 18 4 20 20 22 17 24
REMARK H PARENT 10 19 4 21 20 23 17 25
REMARK Flexibility Score: inf
ROOT
ATOM      1  C   UNL     1    -105.457 184.360  52.183  1.00  0.00     0.180 A 
ATOM      2  C   UNL     1    -106.464 185.042  51.478  1.00  0.00     0.208 A 
ATOM      3  C   UNL     1    -106.136 185.678  50.269  1.00  0.00     0.238 A 
ATOM      4  O   UNL     1    -107.028 186.333  49.670  1.00  0.00    -0.285 OA
ATOM      5  C   UNL     1    -104.812 185.612  49.774  1.00  0.00     0.111 A 
ATOM      6  C   UNL     1    -104.377 186.186  48.542  1.00  0.00     0.134 A 
ATOM      7  C   UNL     1    -103.015 186.171  48.215  1.00  0.00     0.093 A 
ATOM      8  C   UNL     1    -102.082 185.545  49.046  1.00  0.00     0.123 A 
ATOM      9  C   UNL     1    -102.505 184.930  50.222  1.00  0.00     0.094 A 
ATOM     10  C   UNL     1    -103.852 184.960  50.593  1.00  0.00     0.146 A 
ATOM     11  O   UNL     1    -104.210 184.370  51.726  1.00  0.00    -0.452 OA
ENDROOT
BRANCH   1  12
ATOM     12  C   UNL     1    -105.731 183.642  53.450  1.00  0.00     0.021 A 
ATOM     13  C   UNL     1    -105.365 184.233  54.672  1.00  0.00     0.016 A 
ATOM     14  C   UNL     1    -105.594 183.565  55.878  1.00  0.00     0.047 A 
ATOM     15  C   UNL     1    -106.178 182.291  55.877  1.00  0.00     0.115 A 
ATOM     16  C   UNL     1    -106.298 182.355  53.456  1.00  0.00     0.016 A 
ATOM     17  C   UNL     1    -106.525 181.689  54.664  1.00  0.00     0.047 A 
BRANCH  15  18
ATOM     18  O   UNL     1    -106.411 181.615  57.073  1.00  0.00    -0.508 OA
ATOM     19  H   UNL     1    -106.823 180.689  57.085  1.00  0.00     0.293 HD
ENDBRANCH  15  18
ENDBRANCH   1  12
BRANCH   2  20
ATOM     20  O   UNL     1    -107.760 185.114  51.995  1.00  0.00    -0.502 OA
ATOM     21  H   UNL     1    -108.087 185.908  52.533  1.00  0.00     0.293 HD
ENDBRANCH   2  20
BRANCH   6  22
ATOM     22  O   UNL     1    -105.239 186.754  47.599  1.00  0.00    -0.507 OA
ATOM     23  H   UNL     1    -106.203 186.993  47.773  1.00  0.00     0.293 HD
ENDBRANCH   6  22
BRANCH   8  24
ATOM     24  O   UNL     1    -100.731 185.521  48.705  1.00  0.00    -0.508 OA
ATOM     25  H   UNL     1    -100.175 184.679  48.802  1.00  0.00     0.293 HD
ENDBRANCH   8  24
TORSDOF 5
ENDMDL
MODEL 5
REMARK VINA RESULT:    -4.870      3.377      6.592
REMARK INTER + INTRA:          -6.012
REMARK INTER:                  -5.713
REMARK INTRA:                  -0.299
REMARK UNBOUND:                -0.288
REMARK SMILES O=c1c(O)c(-c2ccc(O)cc2)oc2cc(O)cc(O)c12
REMARK SMILES IDX 5 1 3 2 2 3 1 4 21 5 19 6 18 7 16 8 15 9 14 10 13 11 6 12
REMARK SMILES IDX 7 13 8 14 9 15 12 16 11 17 10 18 4 20 20 22 17 24
REMARK H PARENT 10 19 4 21 20 23 17 25
REMARK Flexibility Score: inf
ROOT
ATOM      1  C   UNL     1    -105.375 185.242  51.194  1.00  0.00     0.180 A 
ATOM      2  C   UNL     1    -106.500 184.606  50.640  1.00  0.00     0.208 A 
ATOM      3  C   UNL     1    -107.670 184.501  51.409  1.00  0.00     0.238 A 
ATOM      4  O   UNL     1    -108.656 183.883  50.929  1.00  0.00    -0.285 OA
ATOM      5  C   UNL     1    -107.706 185.047  52.715  1.00  0.00     0.111 A 
ATOM      6  C   UNL     1    -108.851 185.033  53.568  1.00  0.00     0.134 A 
ATOM      7  C   UNL     1    -108.734 185.486  54.888  1.00  0.00     0.093 A 
ATOM      8  C   UNL     1    -107.530 186.012  55.365  1.00  0.00     0.123 A 
ATOM      9  C   UNL     1    -106.424 186.085  54.521  1.00  0.00     0.094 A 
ATOM     10  C   UNL     1    -106.499 185.608  53.211  1.00  0.00     0.146 A 
ATOM     11  O   UNL     1    -105.419 185.686  52.445  1.00  0.00    -0.452 OA
ENDROOT
BRANCH   1  12
ATOM     12  C   UNL     1    -104.115 185.414  50.435  1.00  0.00     0.021 A 
ATOM     13  C   UNL     1    -103.080 184.475  50.590  1.00  0.00     0.016 A 
ATOM     14  C   UNL     1    -101.874 184.629  49.901  1.00  0.00     0.047 A 
ATOM     15  C   UNL     1    -101.681 185.732  49.060  1.00  0.00     0.115 A 
ATOM     16  C   UNL     1    -103.905 186.530  49.604  1.00  0.00     0.016 A 
ATOM     17  C   UNL     1    -102.697 186.682  48.917  1.00  0.00     0.047 A 
BRANCH  15  18
ATOM     18  O   UNL     1    -100.482 185.897  48.368  1.00  0.00    -0.508 OA
ATOM     19  H   UNL     1     -99.678 186.338  48.800  1.00  0.00     0.293 HD
ENDBRANCH  15  18
ENDBRANCH   1  12
BRANCH   2  20
ATOM     20  O   UNL     1    -106.436 184.055  49.357  1.00  0.00    -0.502 OA
ATOM     21  H   UNL     1    -105.607 183.591  49.005  1.00  0.00     0.293 HD
ENDBRANCH   2  20
BRANCH   6  22
ATOM     22  O   UNL     1    -110.121 184.614  53.162  1.00  0.00    -0.507 OA
ATOM     23  H   UNL     1    -110.989 184.974  53.528  1.00  0.00     0.293 HD
ENDBRANCH   6  22
BRANCH   8  24
ATOM     24  O   UNL     1    -107.427 186.475  56.675  1.00  0.00    -0.508 OA
ATOM     25  H   UNL     1    -107.741 185.917  57.461  1.00  0.00     0.293 HD
ENDBRANCH   8  24
TORSDOF 5
ENDMDL
MODEL 6
REMARK VINA RESULT:    -4.818      2.078      6.864
REMARK INTER + INTRA:          -5.951
REMARK INTER:                  -5.661
REMARK INTRA:                  -0.290
REMARK UNBOUND:                -0.288
REMARK SMILES O=c1c(O)c(-c2ccc(O)cc2)oc2cc(O)cc(O)c12
REMARK SMILES IDX 5 1 3 2 2 3 1 4 21 5 19 6 18 7 16 8 15 9 14 10 13 11 6 12
REMARK SMILES IDX 7 13 8 14 9 15 12 16 11 17 10 18 4 20 20 22 17 24
REMARK H PARENT 10 19 4 21 20 23 17 25
REMARK Flexibility Score: inf
ROOT
ATOM      1  C   UNL     1    -105.337 187.898  50.302  1.00  0.00     0.180 A 
ATOM      2  C   UNL     1    -106.377 188.077  49.374  1.00  0.00     0.208 A 
ATOM      3  C   UNL     1    -107.096 189.283  49.382  1.00  0.00     0.238 A 
ATOM      4  O   UNL     1    -108.062 189.417  48.586  1.00  0.00    -0.285 OA
ATOM      5  C   UNL     1    -106.755 190.301  50.305  1.00  0.00     0.111 A 
ATOM      6  C   UNL     1    -107.390 191.578  50.375  1.00  0.00     0.134 A 
ATOM      7  C   UNL     1    -107.059 192.457  51.413  1.00  0.00     0.093 A 
ATOM      8  C   UNL     1    -106.070 192.132  52.346  1.00  0.00     0.123 A 
ATOM      9  C   UNL     1    -105.404 190.913  52.250  1.00  0.00     0.094 A 
ATOM     10  C   UNL     1    -105.736 189.999  51.247  1.00  0.00     0.146 A 
ATOM     11  O   UNL     1    -105.084 188.846  51.198  1.00  0.00    -0.452 OA
ENDROOT
BRANCH   1  12
ATOM     12  C   UNL     1    -104.517 186.665  50.339  1.00  0.00     0.021 A 
ATOM     13  C   UNL     1    -104.933 185.581  51.132  1.00  0.00     0.016 A 
ATOM     14  C   UNL     1    -104.163 184.416  51.198  1.00  0.00     0.047 A 
ATOM     15  C   UNL     1    -102.961 184.325  50.485  1.00  0.00     0.115 A 
ATOM     16  C   UNL     1    -103.299 186.574  49.641  1.00  0.00     0.016 A 
ATOM     17  C   UNL     1    -102.531 185.407  49.711  1.00  0.00     0.047 A 
BRANCH  15  18
ATOM     18  O   UNL     1    -102.186 183.169  50.543  1.00  0.00    -0.508 OA
ATOM     19  H   UNL     1    -102.515 182.291  50.158  1.00  0.00     0.293 HD
ENDBRANCH  15  18
ENDBRANCH   1  12
BRANCH   2  20
ATOM     20  O   UNL     1    -106.712 187.051  48.486  1.00  0.00    -0.502 OA
ATOM     21  H   UNL     1    -107.583 186.538  48.551  1.00  0.00     0.293 HD
ENDBRANCH   2  20
BRANCH   6  22
ATOM     22  O   UNL     1    -108.324 192.037  49.441  1.00  0.00    -0.507 OA
ATOM     23  H   UNL     1    -108.813 192.916  49.503  1.00  0.00     0.293 HD
ENDBRANCH   6  22
BRANCH   8  24
ATOM     24  O   UNL     1    -105.736 193.020  53.366  1.00  0.00    -0.508 OA
ATOM     25  H   UNL     1    -104.980 192.824  54.012  1.00  0.00     0.293 HD
ENDBRANCH   8  24
TORSDOF 5
ENDMDL
MODEL 7
REMARK VINA RESULT:    -4.666      3.141      6.639
REMARK INTER + INTRA:          -5.773
REMARK INTER:                  -5.518
REMARK INTRA:                  -0.255
REMARK UNBOUND:                -0.288
REMARK SMILES O=c1c(O)c(-c2ccc(O)cc2)oc2cc(O)cc(O)c12
REMARK SMILES IDX 5 1 3 2 2 3 1 4 21 5 19 6 18 7 16 8 15 9 14 10 13 11 6 12
REMARK SMILES IDX 7 13 8 14 9 15 12 16 11 17 10 18 4 20 20 22 17 24
REMARK H PARENT 10 19 4 21 20 23 17 25
REMARK Flexibility Score: inf
ROOT
ATOM      1  C   UNL     1    -105.537 184.978  50.821  1.00  0.00     0.180 A 
ATOM      2  C   UNL     1    -106.051 185.851  51.795  1.00  0.00     0.208 A 
ATOM      3  C   UNL     1    -107.285 185.549  52.395  1.00  0.00     0.238 A 
ATOM      4  O   UNL     1    -107.767 186.362  53.227  1.00  0.00    -0.285 OA
ATOM      5  C   UNL     1    -107.979 184.372  52.027  1.00  0.00     0.111 A 
ATOM      6  C   UNL     1    -109.217 183.948  52.598  1.00  0.00     0.134 A 
ATOM      7  C   UNL     1    -109.878 182.836  52.065  1.00  0.00     0.093 A 
ATOM      8  C   UNL     1    -109.316 182.094  51.023  1.00  0.00     0.123 A 
ATOM      9  C   UNL     1    -108.080 182.466  50.498  1.00  0.00     0.094 A 
ATOM     10  C   UNL     1    -107.413 183.592  50.985  1.00  0.00     0.146 A 
ATOM     11  O   UNL     1    -106.243 183.916  50.449  1.00  0.00    -0.452 OA
ENDROOT
BRANCH   1  12
ATOM     12  C   UNL     1    -104.231 185.214  50.162  1.00  0.00     0.021 A 
ATOM     13  C   UNL     1    -103.090 184.536  50.625  1.00  0.00     0.016 A 
ATOM     14  C   UNL     1    -101.844 184.760  50.033  1.00  0.00     0.047 A 
ATOM     15  C   UNL     1    -101.720 185.676  48.981  1.00  0.00     0.115 A 
ATOM     16  C   UNL     1    -104.095 186.147  49.118  1.00  0.00     0.016 A 
ATOM     17  C   UNL     1    -102.846 186.370  48.529  1.00  0.00     0.047 A 
BRANCH  15  18
ATOM     18  O   UNL     1    -100.483 185.908  48.382  1.00  0.00    -0.508 OA
ATOM     19  H   UNL     1    -100.319 186.724  47.804  1.00  0.00     0.293 HD
ENDBRANCH  15  18
ENDBRANCH   1  12
BRANCH   2  20
ATOM     20  O   UNL     1    -105.360 187.019  52.128  1.00  0.00    -0.502 OA
ATOM     21  H   UNL     1    -104.674 187.439  51.514  1.00  0.00     0.293 HD
ENDBRANCH   2  20
BRANCH   6  22
ATOM     22  O   UNL     1    -109.818 184.564  53.700  1.00  0.00    -0.507 OA
ATOM     23  H   UNL     1    -110.143 185.518  53.718  1.00  0.00     0.293 HD
ENDBRANCH   6  22
BRANCH   8  24
ATOM     24  O   UNL     1    -109.974 180.979  50.508  1.00  0.00    -0.508 OA
ATOM     25  H   UNL     1    -110.951 181.016  50.240  1.00  0.00     0.293 HD
ENDBRANCH   8  24
TORSDOF 5
ENDMDL
MODEL 8
REMARK VINA RESULT:    -4.590      1.821      2.314
REMARK INTER + INTRA:          -5.684
REMARK INTER:                  -5.432
REMARK INTRA:                  -0.252
REMARK UNBOUND:                -0.288
REMARK SMILES O=c1c(O)c(-c2ccc(O)cc2)oc2cc(O)cc(O)c12
REMARK SMILES IDX 5 1 3 2 2 3 1 4 21 5 19 6 18 7 16 8 15 9 14 10 13 11 6 12
REMARK SMILES IDX 7 13 8 14 9 15 12 16 11 17 10 18 4 20 20 22 17 24
REMARK H PARENT 10 19 4 21 20 23 17 25
REMARK Flexibility Score: inf
ROOT
ATOM      1  C   UNL     1    -105.725 188.634  51.131  1.00  0.00     0.180 A 
ATOM      2  C   UNL     1    -106.274 187.737  52.064  1.00  0.00     0.208 A 
ATOM      3  C   UNL     1    -105.778 186.424  52.118  1.00  0.00     0.238 A 
ATOM      4  O   UNL     1    -106.311 185.609  52.917  1.00  0.00    -0.285 OA
ATOM      5  C   UNL     1    -104.730 186.030  51.253  1.00  0.00     0.111 A 
ATOM      6  C   UNL     1    -104.124 184.737  51.248  1.00  0.00     0.134 A 
ATOM      7  C   UNL     1    -103.185 184.418  50.261  1.00  0.00     0.093 A 
ATOM      8  C   UNL     1    -102.782 185.365  49.316  1.00  0.00     0.123 A 
ATOM      9  C   UNL     1    -103.324 186.648  49.349  1.00  0.00     0.094 A 
ATOM     10  C   UNL     1    -104.290 186.986  50.300  1.00  0.00     0.146 A 
ATOM     11  O   UNL     1    -104.787 188.216  50.288  1.00  0.00    -0.452 OA
ENDROOT
BRANCH   1  12
ATOM     12  C   UNL     1    -106.177 190.041  51.032  1.00  0.00     0.021 A 
ATOM     13  C   UNL     1    -106.967 190.438  49.939  1.00  0.00     0.016 A 
ATOM     14  C   UNL     1    -107.386 191.766  49.813  1.00  0.00     0.047 A 
ATOM     15  C   UNL     1    -107.008 192.716  50.770  1.00  0.00     0.115 A 
ATOM     16  C   UNL     1    -105.785 191.006  51.978  1.00  0.00     0.016 A 
ATOM     17  C   UNL     1    -106.205 192.333  51.848  1.00  0.00     0.047 A 
BRANCH  15  18
ATOM     18  O   UNL     1    -107.420 194.043  50.656  1.00  0.00    -0.508 OA
ATOM     19  H   UNL     1    -106.896 194.714  50.105  1.00  0.00     0.293 HD
ENDBRANCH  15  18
ENDBRANCH   1  12
BRANCH   2  20
ATOM     20  O   UNL     1    -107.323 188.140  52.894  1.00  0.00    -0.502 OA
ATOM     21  H   UNL     1    -107.807 189.021  52.770  1.00  0.00     0.293 HD
ENDBRANCH   2  20
BRANCH   6  22
ATOM     22  O   UNL     1    -104.388 183.750  52.202  1.00  0.00    -0.507 OA
ATOM     23  H   UNL     1    -104.862 183.909  53.078  1.00  0.00     0.293 HD
ENDBRANCH   6  22
BRANCH   8  24
ATOM     24  O   UNL     1    -101.835 185.044  48.346  1.00  0.00    -0.508 OA
ATOM     25  H   UNL     1    -101.071 184.406  48.541  1.00  0.00     0.293 HD
ENDBRANCH   8  24
TORSDOF 5
ENDMDL
MODEL 9
REMARK VINA RESULT:    -4.219      3.021      5.392
REMARK INTER + INTRA:          -5.247
REMARK INTER:                  -4.960
REMARK INTRA:                  -0.287
REMARK UNBOUND:                -0.288
REMARK SMILES O=c1c(O)c(-c2ccc(O)cc2)oc2cc(O)cc(O)c12
REMARK SMILES IDX 5 1 3 2 2 3 1 4 21 5 19 6 18 7 16 8 15 9 14 10 13 11 6 12
REMARK SMILES IDX 7 13 8 14 9 15 12 16 11 17 10 18 4 20 20 22 17 24
REMARK H PARENT 10 19 4 21 20 23 17 25
REMARK Flexibility Score: inf
ROOT
ATOM      1  C   UNL     1    -105.439 186.303  50.242  1.00  0.00     0.180 A 
ATOM      2  C   UNL     1    -106.018 185.136  50.769  1.00  0.00     0.208 A 
ATOM      3  C   UNL     1    -106.467 185.140  52.100  1.00  0.00     0.238 A 
ATOM      4  O   UNL     1    -106.934 184.077  52.584  1.00  0.00    -0.285 OA
ATOM      5  C   UNL     1    -106.346 186.315  52.881  1.00  0.00     0.111 A 
ATOM      6  C   UNL     1    -106.802 186.445  54.227  1.00  0.00     0.134 A 
ATOM      7  C   UNL     1    -106.512 187.611  54.945  1.00  0.00     0.093 A 
ATOM      8  C   UNL     1    -105.839 188.679  54.345  1.00  0.00     0.123 A 
ATOM      9  C   UNL     1    -105.442 188.584  53.013  1.00  0.00     0.094 A 
ATOM     10  C   UNL     1    -105.685 187.420  52.281  1.00  0.00     0.146 A 
ATOM     11  O   UNL     1    -105.280 187.368  51.019  1.00  0.00    -0.452 OA
ENDROOT
BRANCH   1  12
ATOM     12  C   UNL     1    -104.967 186.383  48.840  1.00  0.00     0.021 A 
ATOM     13  C   UNL     1    -103.596 186.243  48.563  1.00  0.00     0.016 A 
ATOM     14  C   UNL     1    -103.125 186.337  47.251  1.00  0.00     0.047 A 
ATOM     15  C   UNL     1    -104.017 186.588  46.200  1.00  0.00     0.115 A 
ATOM     16  C   UNL     1    -105.853 186.656  47.782  1.00  0.00     0.016 A 
ATOM     17  C   UNL     1    -105.379 186.751  46.470  1.00  0.00     0.047 A 
BRANCH  15  18
ATOM     18  O   UNL     1    -103.559 186.685  44.887  1.00  0.00    -0.508 OA
ATOM     19  H   UNL     1    -103.429 187.584  44.437  1.00  0.00     0.293 HD
ENDBRANCH  15  18
ENDBRANCH   1  12
BRANCH   2  20
ATOM     20  O   UNL     1    -106.108 183.980  49.989  1.00  0.00    -0.502 OA
ATOM     21  H   UNL     1    -106.993 183.539  49.771  1.00  0.00     0.293 HD
ENDBRANCH   2  20
BRANCH   6  22
ATOM     22  O   UNL     1    -107.562 185.476  54.890  1.00  0.00    -0.507 OA
ATOM     23  H   UNL     1    -108.526 185.263  54.685  1.00  0.00     0.293 HD
ENDBRANCH   6  22
BRANCH   8  24
ATOM     24  O   UNL     1    -105.569 189.842  55.062  1.00  0.00    -0.508 OA
ATOM     25  H   UNL     1    -106.301 190.349  55.546  1.00  0.00     0.293 HD
ENDBRANCH   8  24
TORSDOF 5
ENDMDL
