MODEL 1
REMARK VINA RESULT:    -3.939      0.000      0.000
REMARK INTER + INTRA:          -4.735
REMARK INTER:                  -4.629
REMARK INTRA:                  -0.106
REMARK UNBOUND:                -0.106
REMARK SMILES O=C([O-])CCC(=O)[O-]
REMARK SMILES IDX 4 1 2 2 1 3 3 4 5 5 6 6 7 7 8 8
REMARK H PARENT
REMARK Flexibility Score: inf
ROOT
ATOM      1  C   UNL     1      -8.664 -39.138  -8.032  1.00  0.00     0.059 C 
ENDROOT
BRANCH   1   2
ATOM      2  C   UNL     1      -9.940 -39.922  -8.090  1.00  0.00     0.042 C 
ATOM      3  O   UNL     1     -10.797 -39.805  -7.175  1.00  0.00    -0.550 OA
ATOM      4  O   UNL     1     -10.163 -40.812  -9.133  1.00  0.00    -0.550 OA
ENDBRANCH   1   2
BRANCH   1   5
ATOM      5  C   UNL     1      -8.111 -38.856  -9.433  1.00  0.00     0.059 C 
BRANCH   5   6
ATOM      6  C   UNL     1      -6.902 -39.690  -9.727  1.00  0.00     0.042 C 
ATOM      7  O   UNL     1      -6.082 -39.327 -10.611  1.00  0.00    -0.550 OA
ATOM      8  O   UNL     1      -6.660 -40.846  -8.997  1.00  0.00    -0.550 OA
ENDBRANCH   5   6
ENDBRANCH   1   5
TORSDOF 3
ENDMDL
MODEL 2
REMARK VINA RESULT:    -3.913      0.153      1.625
REMARK INTER + INTRA:          -4.706
REMARK INTER:                  -4.612
REMARK INTRA:                  -0.093
REMARK UNBOUND:                -0.106
REMARK SMILES O=C([O-])CCC(=O)[O-]
REMARK SMILES IDX 4 1 2 2 1 3 3 4 5 5 6 6 7 7 8 8
REMARK H PARENT
REMARK Flexibility Score: inf
ROOT
ATOM      1  C   UNL     1      -8.769 -39.175  -7.938  1.00  0.00     0.059 C 
ENDROOT
BRANCH   1   2
ATOM      2  C   UNL     1     -10.028 -39.985  -8.021  1.00  0.00     0.042 C 
ATOM      3  O   UNL     1     -10.198 -40.795  -8.970  1.00  0.00    -0.550 OA
ATOM      4  O   UNL     1     -11.028 -39.814  -7.073  1.00  0.00    -0.550 OA
ENDBRANCH   1   2
BRANCH   1   5
ATOM      5  C   UNL     1      -8.200 -38.874  -9.329  1.00  0.00     0.059 C 
BRANCH   5   6
ATOM      6  C   UNL     1      -6.978 -39.693  -9.614  1.00  0.00     0.042 C 
ATOM      7  O   UNL     1      -6.761 -40.752  -8.969  1.00  0.00    -0.550 OA
ATOM      8  O   UNL     1      -6.101 -39.306 -10.618  1.00  0.00    -0.550 OA
ENDBRANCH   5   6
ENDBRANCH   1   5
TORSDOF 3
ENDMDL
MODEL 3
REMARK VINA RESULT:    -3.883      0.311      3.861
REMARK INTER + INTRA:          -4.671
REMARK INTER:                  -4.562
REMARK INTRA:                  -0.108
REMARK UNBOUND:                -0.106
REMARK SMILES O=C([O-])CCC(=O)[O-]
REMARK SMILES IDX 4 1 2 2 1 3 3 4 5 5 6 6 7 7 8 8
REMARK H PARENT
REMARK Flexibility Score: inf
ROOT
ATOM      1  C   UNL     1      -8.280 -38.980  -9.208  1.00  0.00     0.059 C 
ENDROOT
BRANCH   1   2
ATOM      2  C   UNL     1      -7.036 -39.757  -9.515  1.00  0.00     0.042 C 
ATOM      3  O   UNL     1      -6.260 -39.374 -10.430  1.00  0.00    -0.550 OA
ATOM      4  O   UNL     1      -6.757 -40.927  -8.820  1.00  0.00    -0.550 OA
ENDBRANCH   1   2
BRANCH   1   5
ATOM      5  C   UNL     1      -8.873 -39.377  -7.851  1.00  0.00     0.059 C 
BRANCH   5   6
ATOM      6  C   UNL     1     -10.139 -40.161  -8.011  1.00  0.00     0.042 C 
ATOM      7  O   UNL     1     -10.309 -40.892  -9.022  1.00  0.00    -0.550 OA
ATOM      8  O   UNL     1     -11.115 -40.114  -7.024  1.00  0.00    -0.550 OA
ENDBRANCH   5   6
ENDBRANCH   1   5
TORSDOF 3
ENDMDL
MODEL 4
REMARK VINA RESULT:    -3.617      1.607      3.851
REMARK INTER + INTRA:          -4.358
REMARK INTER:                  -4.291
REMARK INTRA:                  -0.066
REMARK UNBOUND:                -0.106
REMARK SMILES O=C([O-])CCC(=O)[O-]
REMARK SMILES IDX 4 1 2 2 1 3 3 4 5 5 6 6 7 7 8 8
REMARK H PARENT
REMARK Flexibility Score: inf
ROOT
ATOM      1  C   UNL     1      -7.817 -40.598  -8.903  1.00  0.00     0.059 C 
ENDROOT
BRANCH   1   2
ATOM      2  C   UNL     1      -7.397 -39.347  -9.615  1.00  0.00     0.042 C 
ATOM      3  O   UNL     1      -8.077 -38.293  -9.497  1.00  0.00    -0.550 OA
ATOM      4  O   UNL     1      -6.280 -39.358 -10.440  1.00  0.00    -0.550 OA
ENDBRANCH   1   2
BRANCH   1   5
ATOM      5  C   UNL     1      -9.282 -40.529  -8.458  1.00  0.00     0.059 C 
BRANCH   5   6
ATOM      6  C   UNL     1     -10.061 -41.715  -8.939  1.00  0.00     0.042 C 
ATOM      7  O   UNL     1     -10.701 -42.426  -8.121  1.00  0.00    -0.550 OA
ATOM      8  O   UNL     1     -10.112 -42.010 -10.295  1.00  0.00    -0.550 OA
ENDBRANCH   5   6
ENDBRANCH   1   5
TORSDOF 3
ENDMDL
MODEL 5
REMARK VINA RESULT:    -3.617      1.469      1.780
REMARK INTER + INTRA:          -4.357
REMARK INTER:                  -4.234
REMARK INTRA:                  -0.123
REMARK UNBOUND:                -0.106
REMARK SMILES O=C([O-])CCC(=O)[O-]
REMARK SMILES IDX 4 1 2 2 1 3 3 4 5 5 6 6 7 7 8 8
REMARK H PARENT
REMARK Flexibility Score: inf
ROOT
ATOM      1  C   UNL     1      -9.425 -40.864  -9.078  1.00  0.00     0.059 C 
ENDROOT
BRANCH   1   2
ATOM      2  C   UNL     1     -10.403 -40.658  -7.960  1.00  0.00     0.042 C 
ATOM      3  O   UNL     1     -10.639 -39.498  -7.531  1.00  0.00    -0.550 OA
ATOM      4  O   UNL     1     -11.021 -41.751  -7.367  1.00  0.00    -0.550 OA
ENDBRANCH   1   2
BRANCH   1   5
ATOM      5  C   UNL     1      -8.020 -40.393  -8.691  1.00  0.00     0.059 C 
BRANCH   5   6
ATOM      6  C   UNL     1      -7.576 -39.233  -9.528  1.00  0.00     0.042 C 
ATOM      7  O   UNL     1      -8.164 -38.124  -9.436  1.00  0.00    -0.550 OA
ATOM      8  O   UNL     1      -6.489 -39.367 -10.382  1.00  0.00    -0.550 OA
ENDBRANCH   5   6
ENDBRANCH   1   5
TORSDOF 3
ENDMDL
MODEL 6
REMARK VINA RESULT:    -3.411      3.345      4.432
REMARK INTER + INTRA:          -4.115
REMARK INTER:                  -3.993
REMARK INTRA:                  -0.122
REMARK UNBOUND:                -0.106
REMARK SMILES O=C([O-])CCC(=O)[O-]
REMARK SMILES IDX 4 1 2 2 1 3 3 4 5 5 6 6 7 7 8 8
REMARK H PARENT
REMARK Flexibility Score: inf
ROOT
ATOM      1  C   UNL     1     -12.124 -43.160  -9.498  1.00  0.00     0.059 C 
ENDROOT
BRANCH   1   2
ATOM      2  C   UNL     1     -13.301 -42.664  -8.713  1.00  0.00     0.042 C 
ATOM      3  O   UNL     1     -13.233 -42.574  -7.459  1.00  0.00    -0.550 OA
ATOM      4  O   UNL     1     -14.486 -42.343  -9.363  1.00  0.00    -0.550 OA
ENDBRANCH   1   2
BRANCH   1   5
ATOM      5  C   UNL     1     -11.264 -42.002 -10.016  1.00  0.00     0.059 C 
BRANCH   5   6
ATOM      6  C   UNL     1     -10.152 -41.674  -9.067  1.00  0.00     0.042 C 
ATOM      7  O   UNL     1      -9.741 -42.539  -8.250  1.00  0.00    -0.550 OA
ATOM      8  O   UNL     1      -9.545 -40.426  -9.112  1.00  0.00    -0.550 OA
ENDBRANCH   5   6
ENDBRANCH   1   5
TORSDOF 3
ENDMDL
MODEL 7
REMARK VINA RESULT:    -3.399      2.000      3.372
REMARK INTER + INTRA:          -4.101
REMARK INTER:                  -3.959
REMARK INTRA:                  -0.142
REMARK UNBOUND:                -0.106
REMARK SMILES O=C([O-])CCC(=O)[O-]
REMARK SMILES IDX 4 1 2 2 1 3 3 4 5 5 6 6 7 7 8 8
REMARK H PARENT
REMARK Flexibility Score: inf
ROOT
ATOM      1  C   UNL     1      -9.075 -41.560  -9.401  1.00  0.00     0.059 C 
ENDROOT
BRANCH   1   2
ATOM      2  C   UNL     1      -7.876 -41.961  -8.595  1.00  0.00     0.042 C 
ATOM      3  O   UNL     1      -6.747 -41.468  -8.852  1.00  0.00    -0.550 OA
ATOM      4  O   UNL     1      -8.001 -42.910  -7.589  1.00  0.00    -0.550 OA
ENDBRANCH   1   2
BRANCH   1   5
ATOM      5  C   UNL     1     -10.009 -40.642  -8.604  1.00  0.00     0.059 C 
BRANCH   5   6
ATOM      6  C   UNL     1      -9.353 -39.335  -8.280  1.00  0.00     0.042 C 
ATOM      7  O   UNL     1      -8.901 -38.607  -9.203  1.00  0.00    -0.550 OA
ATOM      8  O   UNL     1      -9.276 -38.903  -6.962  1.00  0.00    -0.550 OA
ENDBRANCH   5   6
ENDBRANCH   1   5
TORSDOF 3
ENDMDL
MODEL 8
REMARK VINA RESULT:    -3.341      2.362      3.228
REMARK INTER + INTRA:          -4.033
REMARK INTER:                  -3.910
REMARK INTRA:                  -0.123
REMARK UNBOUND:                -0.106
REMARK SMILES O=C([O-])CCC(=O)[O-]
REMARK SMILES IDX 4 1 2 2 1 3 3 4 5 5 6 6 7 7 8 8
REMARK H PARENT
REMARK Flexibility Score: inf
ROOT
ATOM      1  C   UNL     1     -10.591 -41.653  -9.898  1.00  0.00     0.059 C 
ENDROOT
BRANCH   1   2
ATOM      2  C   UNL     1     -11.809 -42.225  -9.239  1.00  0.00     0.042 C 
ATOM      3  O   UNL     1     -12.436 -41.556  -8.376  1.00  0.00    -0.550 OA
ATOM      4  O   UNL     1     -12.226 -43.514  -9.547  1.00  0.00    -0.550 OA
ENDBRANCH   1   2
BRANCH   1   5
ATOM      5  C   UNL     1      -9.459 -41.424  -8.890  1.00  0.00     0.059 C 
BRANCH   5   6
ATOM      6  C   UNL     1      -9.178 -39.966  -8.698  1.00  0.00     0.042 C 
ATOM      7  O   UNL     1      -9.968 -39.252  -8.026  1.00  0.00    -0.550 OA
ATOM      8  O   UNL     1      -8.023 -39.404  -9.226  1.00  0.00    -0.550 OA
ENDBRANCH   5   6
ENDBRANCH   1   5
TORSDOF 3
ENDMDL
MODEL 9
REMARK VINA RESULT:    -3.299      2.339      3.901
REMARK INTER + INTRA:          -3.983
REMARK INTER:                  -3.869
REMARK INTRA:                  -0.114
REMARK UNBOUND:                -0.106
REMARK SMILES O=C([O-])CCC(=O)[O-]
REMARK SMILES IDX 4 1 2 2 1 3 3 4 5 5 6 6 7 7 8 8
REMARK H PARENT
REMARK Flexibility Score: inf
ROOT
ATOM      1  C   UNL     1      -9.726 -41.235  -7.710  1.00  0.00     0.059 C 
ENDROOT
BRANCH   1   2
ATOM      2  C   UNL     1      -9.502 -39.762  -7.872  1.00  0.00     0.042 C 
ATOM      3  O   UNL     1      -9.579 -38.997  -6.875  1.00  0.00    -0.550 OA
ATOM      4  O   UNL     1      -9.248 -39.231  -9.130  1.00  0.00    -0.550 OA
ENDBRANCH   1   2
BRANCH   1   5
ATOM      5  C   UNL     1     -11.170 -41.625  -8.042  1.00  0.00     0.059 C 
BRANCH   5   6
ATOM      6  C   UNL     1     -11.254 -42.396  -9.324  1.00  0.00     0.042 C 
ATOM      7  O   UNL     1     -10.399 -42.213 -10.229  1.00  0.00    -0.550 OA
ATOM      8  O   UNL     1     -12.253 -43.344  -9.502  1.00  0.00    -0.550 OA
ENDBRANCH   5   6
ENDBRANCH   1   5
TORSDOF 3
ENDMDL
