MODEL 1
REMARK VINA RESULT:    -3.225      0.000      0.000
REMARK INTER + INTRA:          -6.496
REMARK INTER:                  -5.110
REMARK INTRA:                  -1.386
REMARK UNBOUND:                -1.386
REMARK SMILES CCCCCCCCCCCC(=O)[O-]
REMARK SMILES IDX 7 1 8 2 9 3 10 4 11 5 12 6 13 7 14 8 6 9 5 10 4 11 3 12 2 13
REMARK SMILES IDX 1 14
REMARK H PARENT
REMARK Flexibility Score: inf
ROOT
ATOM      1  C   UNL     1      -1.928  -5.324  33.056  1.00  0.00     0.000 C 
ENDROOT
BRANCH   1   2
ATOM      2  C   UNL     1      -1.230  -5.807  31.773  1.00  0.00     0.000 C 
BRANCH   2   3
ATOM      3  C   UNL     1      -1.795  -7.109  31.171  1.00  0.00     0.000 C 
BRANCH   3   4
ATOM      4  C   UNL     1      -3.303  -7.091  30.855  1.00  0.00     0.006 C 
BRANCH   4   5
ATOM      5  C   UNL     1      -3.720  -8.065  29.739  1.00  0.00     0.053 C 
BRANCH   5   6
ATOM      6  C   UNL     1      -4.309  -9.334  30.276  1.00  0.00     0.041 C 
ATOM      7  O   UNL     1      -5.436  -9.729  29.876  1.00  0.00    -0.550 OA
ATOM      8  O   UNL     1      -3.632 -10.061  31.247  1.00  0.00    -0.550 OA
ENDBRANCH   5   6
ENDBRANCH   4   5
ENDBRANCH   3   4
ENDBRANCH   2   3
ENDBRANCH   1   2
BRANCH   1   9
ATOM      9  C   UNL     1      -2.544  -3.925  32.912  1.00  0.00     0.000 C 
BRANCH   9  10
ATOM     10  C   UNL     1      -4.071  -4.005  32.796  1.00  0.00    -0.000 C 
BRANCH  10  11
ATOM     11  C   UNL     1      -4.536  -3.647  31.379  1.00  0.00    -0.000 C 
BRANCH  11  12
ATOM     12  C   UNL     1      -3.382  -3.051  30.558  1.00  0.00    -0.000 C 
BRANCH  12  13
ATOM     13  C   UNL     1      -3.140  -3.810  29.244  1.00  0.00    -0.003 C 
ATOM     14  C   UNL     1      -1.748  -3.558  28.664  1.00  0.00     0.004 C 
ENDBRANCH  12  13
ENDBRANCH  11  12
ENDBRANCH  10  11
ENDBRANCH   9  10
ENDBRANCH   1   9
TORSDOF 10
ENDMDL
MODEL 2
REMARK VINA RESULT:    -3.041      4.193      5.851
REMARK INTER + INTRA:          -6.205
REMARK INTER:                  -5.804
REMARK INTRA:                  -0.401
REMARK UNBOUND:                -1.386
REMARK SMILES CCCCCCCCCCCC(=O)[O-]
REMARK SMILES IDX 7 1 8 2 9 3 10 4 11 5 12 6 13 7 14 8 6 9 5 10 4 11 3 12 2 13
REMARK SMILES IDX 1 14
REMARK H PARENT
REMARK Flexibility Score: inf
ROOT
ATOM      1  C   UNL     1      -4.291  -1.931  33.688  1.00  0.00     0.000 C 
ENDROOT
BRANCH   1   2
ATOM      2  C   UNL     1      -4.130  -3.371  33.171  1.00  0.00     0.000 C 
BRANCH   2   3
ATOM      3  C   UNL     1      -2.706  -3.751  32.722  1.00  0.00     0.000 C 
BRANCH   3   4
ATOM      4  C   UNL     1      -2.255  -5.177  33.092  1.00  0.00     0.006 C 
BRANCH   4   5
ATOM      5  C   UNL     1      -1.203  -5.768  32.137  1.00  0.00     0.053 C 
BRANCH   5   6
ATOM      6  C   UNL     1      -1.817  -6.584  31.041  1.00  0.00     0.041 C 
ATOM      7  O   UNL     1      -1.759  -6.189  29.847  1.00  0.00    -0.550 OA
ATOM      8  O   UNL     1      -2.489  -7.763  31.342  1.00  0.00    -0.550 OA
ENDBRANCH   5   6
ENDBRANCH   4   5
ENDBRANCH   3   4
ENDBRANCH   2   3
ENDBRANCH   1   2
BRANCH   1   9
ATOM      9  C   UNL     1      -2.978  -1.135  33.663  1.00  0.00     0.000 C 
BRANCH   9  10
ATOM     10  C   UNL     1      -3.172   0.265  34.256  1.00  0.00    -0.000 C 
BRANCH  10  11
ATOM     11  C   UNL     1      -2.712   0.313  35.718  1.00  0.00    -0.000 C 
BRANCH  11  12
ATOM     12  C   UNL     1      -3.877   0.682  36.649  1.00  0.00    -0.000 C 
BRANCH  12  13
ATOM     13  C   UNL     1      -3.458   0.734  38.127  1.00  0.00    -0.003 C 
ATOM     14  C   UNL     1      -3.803   2.067  38.792  1.00  0.00     0.004 C 
ENDBRANCH  12  13
ENDBRANCH  11  12
ENDBRANCH  10  11
ENDBRANCH   9  10
ENDBRANCH   1   9
TORSDOF 10
ENDMDL
MODEL 3
REMARK VINA RESULT:    -3.041     13.067     14.557
REMARK INTER + INTRA:          -6.205
REMARK INTER:                  -5.002
REMARK INTRA:                  -1.203
REMARK UNBOUND:                -1.386
REMARK SMILES CCCCCCCCCCCC(=O)[O-]
REMARK SMILES IDX 7 1 8 2 9 3 10 4 11 5 12 6 13 7 14 8 6 9 5 10 4 11 3 12 2 13
REMARK SMILES IDX 1 14
REMARK H PARENT
REMARK Flexibility Score: inf
ROOT
ATOM      1  C   UNL     1     -11.396   5.013  33.603  1.00  0.00     0.000 C 
ENDROOT
BRANCH   1   2
ATOM      2  C   UNL     1     -10.075   4.931  34.387  1.00  0.00     0.000 C 
BRANCH   2   3
ATOM      3  C   UNL     1     -10.088   5.616  35.767  1.00  0.00     0.000 C 
BRANCH   3   4
ATOM      4  C   UNL     1      -9.430   4.815  36.908  1.00  0.00     0.006 C 
BRANCH   4   5
ATOM      5  C   UNL     1      -8.336   5.589  37.665  1.00  0.00     0.053 C 
BRANCH   5   6
ATOM      6  C   UNL     1      -7.435   4.687  38.452  1.00  0.00     0.041 C 
ATOM      7  O   UNL     1      -6.872   3.709  37.893  1.00  0.00    -0.550 OA
ATOM      8  O   UNL     1      -7.246   4.902  39.811  1.00  0.00    -0.550 OA
ENDBRANCH   5   6
ENDBRANCH   4   5
ENDBRANCH   3   4
ENDBRANCH   2   3
ENDBRANCH   1   2
BRANCH   1   9
ATOM      9  C   UNL     1     -12.366   3.871  33.943  1.00  0.00     0.000 C 
BRANCH   9  10
ATOM     10  C   UNL     1     -11.612   2.655  34.494  1.00  0.00    -0.000 C 
BRANCH  10  11
ATOM     11  C   UNL     1     -12.320   2.081  35.727  1.00  0.00    -0.000 C 
BRANCH  11  12
ATOM     12  C   UNL     1     -13.263   3.120  36.352  1.00  0.00    -0.000 C 
BRANCH  12  13
ATOM     13  C   UNL     1     -12.813   3.557  37.755  1.00  0.00    -0.003 C 
ATOM     14  C   UNL     1     -11.938   2.511  38.448  1.00  0.00     0.004 C 
ENDBRANCH  12  13
ENDBRANCH  11  12
ENDBRANCH  10  11
ENDBRANCH   9  10
ENDBRANCH   1   9
TORSDOF 10
ENDMDL
MODEL 4
REMARK VINA RESULT:    -3.013      5.759      7.750
REMARK INTER + INTRA:          -6.160
REMARK INTER:                  -5.609
REMARK INTRA:                  -0.552
REMARK UNBOUND:                -1.386
REMARK SMILES CCCCCCCCCCCC(=O)[O-]
REMARK SMILES IDX 7 1 8 2 9 3 10 4 11 5 12 6 13 7 14 8 6 9 5 10 4 11 3 12 2 13
REMARK SMILES IDX 1 14
REMARK H PARENT
REMARK Flexibility Score: inf
ROOT
ATOM      1  C   UNL     1      -3.667  -1.171  32.451  1.00  0.00     0.000 C 
ENDROOT
BRANCH   1   2
ATOM      2  C   UNL     1      -3.017  -1.026  33.838  1.00  0.00     0.000 C 
BRANCH   2   3
ATOM      3  C   UNL     1      -2.825   0.424  34.324  1.00  0.00     0.000 C 
BRANCH   3   4
ATOM      4  C   UNL     1      -2.979   0.638  35.843  1.00  0.00     0.006 C 
BRANCH   4   5
ATOM      5  C   UNL     1      -4.286   0.068  36.425  1.00  0.00     0.053 C 
BRANCH   5   6
ATOM      6  C   UNL     1      -4.291   0.062  37.923  1.00  0.00     0.041 C 
ATOM      7  O   UNL     1      -5.125  -0.642  38.552  1.00  0.00    -0.550 OA
ATOM      8  O   UNL     1      -3.400   0.863  38.627  1.00  0.00    -0.550 OA
ENDBRANCH   5   6
ENDBRANCH   4   5
ENDBRANCH   3   4
ENDBRANCH   2   3
ENDBRANCH   1   2
BRANCH   1   9
ATOM      9  C   UNL     1      -3.657  -2.616  31.933  1.00  0.00     0.000 C 
BRANCH   9  10
ATOM     10  C   UNL     1      -3.499  -3.613  33.087  1.00  0.00    -0.000 C 
BRANCH  10  11
ATOM     11  C   UNL     1      -2.340  -4.583  32.824  1.00  0.00    -0.000 C 
BRANCH  11  12
ATOM     12  C   UNL     1      -2.021  -4.661  31.323  1.00  0.00    -0.000 C 
BRANCH  12  13
ATOM     13  C   UNL     1      -1.292  -5.959  30.942  1.00  0.00    -0.003 C 
ATOM     14  C   UNL     1      -2.157  -7.203  31.141  1.00  0.00     0.004 C 
ENDBRANCH  12  13
ENDBRANCH  11  12
ENDBRANCH  10  11
ENDBRANCH   9  10
ENDBRANCH   1   9
TORSDOF 10
ENDMDL
MODEL 5
REMARK VINA RESULT:    -3.001     13.434     15.059
REMARK INTER + INTRA:          -6.141
REMARK INTER:                  -5.180
REMARK INTRA:                  -0.962
REMARK UNBOUND:                -1.386
REMARK SMILES CCCCCCCCCCCC(=O)[O-]
REMARK SMILES IDX 7 1 8 2 9 3 10 4 11 5 12 6 13 7 14 8 6 9 5 10 4 11 3 12 2 13
REMARK SMILES IDX 1 14
REMARK H PARENT
REMARK Flexibility Score: inf
ROOT
ATOM      1  C   UNL     1     -12.678   5.662  28.489  1.00  0.00     0.000 C 
ENDROOT
BRANCH   1   2
ATOM      2  C   UNL     1     -12.835   6.165  29.935  1.00  0.00     0.000 C 
BRANCH   2   3
ATOM      3  C   UNL     1     -11.834   5.573  30.946  1.00  0.00     0.000 C 
BRANCH   3   4
ATOM      4  C   UNL     1     -12.425   5.206  32.322  1.00  0.00     0.006 C 
BRANCH   4   5
ATOM      5  C   UNL     1     -11.378   5.112  33.447  1.00  0.00     0.053 C 
BRANCH   5   6
ATOM      6  C   UNL     1     -11.720   4.065  34.462  1.00  0.00     0.041 C 
ATOM      7  O   UNL     1     -11.138   4.049  35.579  1.00  0.00    -0.550 OA
ATOM      8  O   UNL     1     -12.656   3.082  34.162  1.00  0.00    -0.550 OA
ENDBRANCH   5   6
ENDBRANCH   4   5
ENDBRANCH   3   4
ENDBRANCH   2   3
ENDBRANCH   1   2
BRANCH   1   9
ATOM      9  C   UNL     1     -12.910   6.763  27.444  1.00  0.00     0.000 C 
BRANCH   9  10
ATOM     10  C   UNL     1     -12.110   8.025  27.788  1.00  0.00    -0.000 C 
BRANCH  10  11
ATOM     11  C   UNL     1     -10.656   7.901  27.318  1.00  0.00    -0.000 C 
BRANCH  11  12
ATOM     12  C   UNL     1      -9.685   8.018  28.503  1.00  0.00    -0.000 C 
BRANCH  12  13
ATOM     13  C   UNL     1      -8.549   6.983  28.440  1.00  0.00    -0.003 C 
ATOM     14  C   UNL     1      -9.062   5.543  28.442  1.00  0.00     0.004 C 
ENDBRANCH  12  13
ENDBRANCH  11  12
ENDBRANCH  10  11
ENDBRANCH   9  10
ENDBRANCH   1   9
TORSDOF 10
ENDMDL
MODEL 6
REMARK VINA RESULT:    -2.948      3.334      6.070
REMARK INTER + INTRA:          -6.058
REMARK INTER:                  -5.507
REMARK INTRA:                  -0.550
REMARK UNBOUND:                -1.386
REMARK SMILES CCCCCCCCCCCC(=O)[O-]
REMARK SMILES IDX 7 1 8 2 9 3 10 4 11 5 12 6 13 7 14 8 6 9 5 10 4 11 3 12 2 13
REMARK SMILES IDX 1 14
REMARK H PARENT
REMARK Flexibility Score: inf
ROOT
ATOM      1  C   UNL     1      -4.779  -8.005  30.003  1.00  0.00     0.000 C 
ENDROOT
BRANCH   1   2
ATOM      2  C   UNL     1      -3.474  -7.197  29.897  1.00  0.00     0.000 C 
BRANCH   2   3
ATOM      3  C   UNL     1      -2.457  -7.443  31.028  1.00  0.00     0.000 C 
BRANCH   3   4
ATOM      4  C   UNL     1      -1.271  -6.460  31.075  1.00  0.00     0.006 C 
BRANCH   4   5
ATOM      5  C   UNL     1      -1.683  -4.993  31.288  1.00  0.00     0.053 C 
BRANCH   5   6
ATOM      6  C   UNL     1      -2.330  -4.768  32.621  1.00  0.00     0.041 C 
ATOM      7  O   UNL     1      -3.325  -4.002  32.722  1.00  0.00    -0.550 OA
ATOM      8  O   UNL     1      -1.813  -5.373  33.759  1.00  0.00    -0.550 OA
ENDBRANCH   5   6
ENDBRANCH   4   5
ENDBRANCH   3   4
ENDBRANCH   2   3
ENDBRANCH   1   2
BRANCH   1   9
ATOM      9  C   UNL     1      -4.620  -9.463  29.547  1.00  0.00     0.000 C 
BRANCH   9  10
ATOM     10  C   UNL     1      -5.788  -9.890  28.651  1.00  0.00    -0.000 C 
BRANCH  10  11
ATOM     11  C   UNL     1      -5.292 -10.319  27.265  1.00  0.00    -0.000 C 
BRANCH  11  12
ATOM     12  C   UNL     1      -3.776 -10.105  27.135  1.00  0.00    -0.000 C 
BRANCH  12  13
ATOM     13  C   UNL     1      -3.113 -11.134  26.205  1.00  0.00    -0.003 C 
ATOM     14  C   UNL     1      -2.775 -10.557  24.831  1.00  0.00     0.004 C 
ENDBRANCH  12  13
ENDBRANCH  11  12
ENDBRANCH  10  11
ENDBRANCH   9  10
ENDBRANCH   1   9
TORSDOF 10
ENDMDL
MODEL 7
REMARK VINA RESULT:    -2.937      3.023      4.618
REMARK INTER + INTRA:          -6.041
REMARK INTER:                  -5.484
REMARK INTRA:                  -0.557
REMARK UNBOUND:                -1.386
REMARK SMILES CCCCCCCCCCCC(=O)[O-]
REMARK SMILES IDX 7 1 8 2 9 3 10 4 11 5 12 6 13 7 14 8 6 9 5 10 4 11 3 12 2 13
REMARK SMILES IDX 1 14
REMARK H PARENT
REMARK Flexibility Score: inf
ROOT
ATOM      1  C   UNL     1      -4.035  -8.369  30.544  1.00  0.00     0.000 C 
ENDROOT
BRANCH   1   2
ATOM      2  C   UNL     1      -3.913  -9.354  29.368  1.00  0.00     0.000 C 
BRANCH   2   3
ATOM      3  C   UNL     1      -4.624  -8.917  28.072  1.00  0.00     0.000 C 
BRANCH   3   4
ATOM      4  C   UNL     1      -4.990 -10.059  27.103  1.00  0.00     0.006 C 
BRANCH   4   5
ATOM      5  C   UNL     1      -4.470  -9.853  25.669  1.00  0.00     0.053 C 
BRANCH   5   6
ATOM      6  C   UNL     1      -3.135 -10.494  25.446  1.00  0.00     0.041 C 
ATOM      7  O   UNL     1      -2.664 -11.293  26.298  1.00  0.00    -0.550 OA
ATOM      8  O   UNL     1      -2.391 -10.181  24.314  1.00  0.00    -0.550 OA
ENDBRANCH   5   6
ENDBRANCH   4   5
ENDBRANCH   3   4
ENDBRANCH   2   3
ENDBRANCH   1   2
BRANCH   1   9
ATOM      9  C   UNL     1      -3.208  -7.091  30.343  1.00  0.00     0.000 C 
BRANCH   9  10
ATOM     10  C   UNL     1      -1.904  -7.147  31.146  1.00  0.00    -0.000 C 
BRANCH  10  11
ATOM     11  C   UNL     1      -1.379  -5.737  31.444  1.00  0.00    -0.000 C 
BRANCH  11  12
ATOM     12  C   UNL     1      -1.696  -5.328  32.891  1.00  0.00    -0.000 C 
BRANCH  12  13
ATOM     13  C   UNL     1      -2.874  -4.345  32.981  1.00  0.00    -0.003 C 
ATOM     14  C   UNL     1      -3.098  -3.571  31.682  1.00  0.00     0.004 C 
ENDBRANCH  12  13
ENDBRANCH  11  12
ENDBRANCH  10  11
ENDBRANCH   9  10
ENDBRANCH   1   9
TORSDOF 10
ENDMDL
MODEL 8
REMARK VINA RESULT:    -2.922     13.238     14.117
REMARK INTER + INTRA:          -6.016
REMARK INTER:                  -4.670
REMARK INTRA:                  -1.347
REMARK UNBOUND:                -1.386
REMARK SMILES CCCCCCCCCCCC(=O)[O-]
REMARK SMILES IDX 7 1 8 2 9 3 10 4 11 5 12 6 13 7 14 8 6 9 5 10 4 11 3 12 2 13
REMARK SMILES IDX 1 14
REMARK H PARENT
REMARK Flexibility Score: inf
ROOT
ATOM      1  C   UNL     1     -10.295   3.432  35.993  1.00  0.00     0.000 C 
ENDROOT
BRANCH   1   2
ATOM      2  C   UNL     1     -11.120   2.795  37.125  1.00  0.00     0.000 C 
BRANCH   2   3
ATOM      3  C   UNL     1     -12.402   3.559  37.511  1.00  0.00     0.000 C 
BRANCH   3   4
ATOM      4  C   UNL     1     -13.709   2.998  36.915  1.00  0.00     0.006 C 
BRANCH   4   5
ATOM      5  C   UNL     1     -13.640   1.503  36.554  1.00  0.00     0.053 C 
BRANCH   5   6
ATOM      6  C   UNL     1     -14.509   0.661  37.437  1.00  0.00     0.041 C 
ATOM      7  O   UNL     1     -15.699   0.413  37.107  1.00  0.00    -0.550 OA
ATOM      8  O   UNL     1     -14.019   0.178  38.644  1.00  0.00    -0.550 OA
ENDBRANCH   5   6
ENDBRANCH   4   5
ENDBRANCH   3   4
ENDBRANCH   2   3
ENDBRANCH   1   2
BRANCH   1   9
ATOM      9  C   UNL     1     -10.353   4.966  36.000  1.00  0.00     0.000 C 
BRANCH   9  10
ATOM     10  C   UNL     1     -10.239   5.527  34.577  1.00  0.00    -0.000 C 
BRANCH  10  11
ATOM     11  C   UNL     1     -10.724   4.504  33.542  1.00  0.00    -0.000 C 
BRANCH  11  12
ATOM     12  C   UNL     1     -12.052   4.950  32.912  1.00  0.00    -0.000 C 
BRANCH  12  13
ATOM     13  C   UNL     1     -13.240   4.084  33.362  1.00  0.00    -0.003 C 
ATOM     14  C   UNL     1     -13.018   2.595  33.098  1.00  0.00     0.004 C 
ENDBRANCH  12  13
ENDBRANCH  11  12
ENDBRANCH  10  11
ENDBRANCH   9  10
ENDBRANCH   1   9
TORSDOF 10
ENDMDL
MODEL 9
REMARK VINA RESULT:    -2.917     13.154     14.074
REMARK INTER + INTRA:          -6.009
REMARK INTER:                  -4.764
REMARK INTRA:                  -1.245
REMARK UNBOUND:                -1.386
REMARK SMILES CCCCCCCCCCCC(=O)[O-]
REMARK SMILES IDX 7 1 8 2 9 3 10 4 11 5 12 6 13 7 14 8 6 9 5 10 4 11 3 12 2 13
REMARK SMILES IDX 1 14
REMARK H PARENT
REMARK Flexibility Score: inf
ROOT
ATOM      1  C   UNL     1     -10.270   5.618  35.265  1.00  0.00     0.000 C 
ENDROOT
BRANCH   1   2
ATOM      2  C   UNL     1     -10.400   4.731  34.015  1.00  0.00     0.000 C 
BRANCH   2   3
ATOM      3  C   UNL     1     -11.677   4.954  33.182  1.00  0.00     0.000 C 
BRANCH   3   4
ATOM      4  C   UNL     1     -12.902   4.125  33.617  1.00  0.00     0.006 C 
BRANCH   4   5
ATOM      5  C   UNL     1     -12.743   2.610  33.394  1.00  0.00     0.053 C 
BRANCH   5   6
ATOM      6  C   UNL     1     -13.696   2.079  32.368  1.00  0.00     0.041 C 
ATOM      7  O   UNL     1     -13.789   2.634  31.241  1.00  0.00    -0.550 OA
ATOM      8  O   UNL     1     -14.509   0.993  32.667  1.00  0.00    -0.550 OA
ENDBRANCH   5   6
ENDBRANCH   4   5
ENDBRANCH   3   4
ENDBRANCH   2   3
ENDBRANCH   1   2
BRANCH   1   9
ATOM      9  C   UNL     1      -9.947   4.818  36.536  1.00  0.00     0.000 C 
BRANCH   9  10
ATOM     10  C   UNL     1     -10.465   3.379  36.427  1.00  0.00    -0.000 C 
BRANCH  10  11
ATOM     11  C   UNL     1     -11.249   2.980  37.683  1.00  0.00    -0.000 C 
BRANCH  11  12
ATOM     12  C   UNL     1     -12.655   3.598  37.671  1.00  0.00    -0.000 C 
BRANCH  12  13
ATOM     13  C   UNL     1     -13.681   2.717  36.940  1.00  0.00    -0.003 C 
ATOM     14  C   UNL     1     -13.450   1.224  37.172  1.00  0.00     0.004 C 
ENDBRANCH  12  13
ENDBRANCH  11  12
ENDBRANCH  10  11
ENDBRANCH   9  10
ENDBRANCH   1   9
TORSDOF 10
ENDMDL
