MODEL 1
REMARK VINA RESULT:    -4.819      0.000      0.000
REMARK INTER + INTRA:          -5.420
REMARK INTER:                  -5.383
REMARK INTRA:                  -0.037
REMARK UNBOUND:                -0.037
REMARK SMILES O=C([O-])c1ccc(O)c(O)c1
REMARK SMILES IDX 4 1 11 2 5 3 9 4 6 5 7 6 2 7 1 8 3 9 10 10 8 12
REMARK H PARENT 10 11 8 13
REMARK Flexibility Score: inf
ROOT
ATOM      1  C   UNL     1      21.170   0.709 -20.705  1.00  0.00     0.001 A 
ATOM      2  C   UNL     1      19.989  -0.055 -20.709  1.00  0.00     0.060 A 
ATOM      3  C   UNL     1      21.755   1.054 -19.474  1.00  0.00     0.014 A 
ATOM      4  C   UNL     1      19.402  -0.466 -19.503  1.00  0.00     0.158 A 
ATOM      5  C   UNL     1      21.171   0.644 -18.274  1.00  0.00     0.051 A 
ATOM      6  C   UNL     1      19.997  -0.114 -18.280  1.00  0.00     0.157 A 
ENDROOT
BRANCH   1   7
ATOM      7  C   UNL     1      21.785   1.141 -21.980  1.00  0.00     0.072 C 
ATOM      8  O   UNL     1      21.826   2.361 -22.290  1.00  0.00    -0.545 OA
ATOM      9  O   UNL     1      22.326   0.205 -22.853  1.00  0.00    -0.545 OA
ENDBRANCH   1   7
BRANCH   4  10
ATOM     10  O   UNL     1      18.231  -1.223 -19.518  1.00  0.00    -0.504 OA
ATOM     11  H   UNL     1      18.183  -2.118 -19.989  1.00  0.00     0.293 HD
ENDBRANCH   4  10
BRANCH   6  12
ATOM     12  O   UNL     1      19.437  -0.510 -17.065  1.00  0.00    -0.504 OA
ATOM     13  H   UNL     1      18.849   0.107 -16.517  1.00  0.00     0.293 HD
ENDBRANCH   6  12
TORSDOF 3
ENDMDL
MODEL 2
REMARK VINA RESULT:    -4.809      1.548      4.306
REMARK INTER + INTRA:          -5.408
REMARK INTER:                  -5.371
REMARK INTRA:                  -0.038
REMARK UNBOUND:                -0.037
REMARK SMILES O=C([O-])c1ccc(O)c(O)c1
REMARK SMILES IDX 4 1 11 2 5 3 9 4 6 5 7 6 2 7 1 8 3 9 10 10 8 12
REMARK H PARENT 10 11 8 13
REMARK Flexibility Score: inf
ROOT
ATOM      1  C   UNL     1      20.964   0.185 -18.858  1.00  0.00     0.001 A 
ATOM      2  C   UNL     1      21.427   1.014 -19.895  1.00  0.00     0.060 A 
ATOM      3  C   UNL     1      20.478  -1.096 -19.174  1.00  0.00     0.014 A 
ATOM      4  C   UNL     1      21.403   0.571 -21.227  1.00  0.00     0.158 A 
ATOM      5  C   UNL     1      20.455  -1.536 -20.500  1.00  0.00     0.051 A 
ATOM      6  C   UNL     1      20.915  -0.711 -21.529  1.00  0.00     0.157 A 
ENDROOT
BRANCH   1   7
ATOM      7  C   UNL     1      20.991   0.656 -17.456  1.00  0.00     0.072 C 
ATOM      8  O   UNL     1      22.082   0.951 -16.900  1.00  0.00    -0.545 OA
ATOM      9  O   UNL     1      19.811   0.782 -16.733  1.00  0.00    -0.545 OA
ENDBRANCH   1   7
BRANCH   4  10
ATOM     10  O   UNL     1      21.865   1.401 -22.248  1.00  0.00    -0.504 OA
ATOM     11  H   UNL     1      21.306   1.592 -23.071  1.00  0.00     0.293 HD
ENDBRANCH   4  10
BRANCH   6  12
ATOM     12  O   UNL     1      20.880  -1.178 -22.842  1.00  0.00    -0.504 OA
ATOM     13  H   UNL     1      20.822  -2.165 -23.061  1.00  0.00     0.293 HD
ENDBRANCH   6  12
TORSDOF 3
ENDMDL
MODEL 3
REMARK VINA RESULT:    -4.751     17.059     18.523
REMARK INTER + INTRA:          -5.343
REMARK INTER:                  -5.306
REMARK INTRA:                  -0.037
REMARK UNBOUND:                -0.037
REMARK SMILES O=C([O-])c1ccc(O)c(O)c1
REMARK SMILES IDX 4 1 11 2 5 3 9 4 6 5 7 6 2 7 1 8 3 9 10 10 8 12
REMARK H PARENT 10 11 8 13
REMARK Flexibility Score: inf
ROOT
ATOM      1  C   UNL     1       9.269  -6.916  -8.257  1.00  0.00     0.001 A 
ATOM      2  C   UNL     1      10.055  -6.043  -7.484  1.00  0.00     0.060 A 
ATOM      3  C   UNL     1       7.933  -7.143  -7.883  1.00  0.00     0.014 A 
ATOM      4  C   UNL     1       9.515  -5.408  -6.354  1.00  0.00     0.158 A 
ATOM      5  C   UNL     1       7.396  -6.511  -6.759  1.00  0.00     0.051 A 
ATOM      6  C   UNL     1       8.179  -5.644  -5.991  1.00  0.00     0.157 A 
ENDROOT
BRANCH   1   7
ATOM      7  C   UNL     1       9.842  -7.582  -9.446  1.00  0.00     0.072 C 
ATOM      8  O   UNL     1       9.394  -7.336 -10.598  1.00  0.00    -0.545 OA
ATOM      9  O   UNL     1      10.886  -8.491  -9.310  1.00  0.00    -0.545 OA
ENDBRANCH   1   7
BRANCH   4  10
ATOM     10  O   UNL     1      10.303  -4.544  -5.595  1.00  0.00    -0.504 OA
ATOM     11  H   UNL     1       9.951  -3.652  -5.269  1.00  0.00     0.293 HD
ENDBRANCH   4  10
BRANCH   6  12
ATOM     12  O   UNL     1       7.615  -5.027  -4.875  1.00  0.00    -0.504 OA
ATOM     13  H   UNL     1       8.177  -4.539  -4.188  1.00  0.00     0.293 HD
ENDBRANCH   6  12
TORSDOF 3
ENDMDL
MODEL 4
REMARK VINA RESULT:    -4.736      0.859      2.014
REMARK INTER + INTRA:          -5.327
REMARK INTER:                  -5.289
REMARK INTRA:                  -0.038
REMARK UNBOUND:                -0.037
REMARK SMILES O=C([O-])c1ccc(O)c(O)c1
REMARK SMILES IDX 4 1 11 2 5 3 9 4 6 5 7 6 2 7 1 8 3 9 10 10 8 12
REMARK H PARENT 10 11 8 13
REMARK Flexibility Score: inf
ROOT
ATOM      1  C   UNL     1      20.962   0.420 -20.639  1.00  0.00     0.001 A 
ATOM      2  C   UNL     1      21.424   0.749 -19.352  1.00  0.00     0.060 A 
ATOM      3  C   UNL     1      19.853  -0.434 -20.768  1.00  0.00     0.014 A 
ATOM      4  C   UNL     1      20.788   0.233 -18.212  1.00  0.00     0.158 A 
ATOM      5  C   UNL     1      19.220  -0.948 -19.633  1.00  0.00     0.051 A 
ATOM      6  C   UNL     1      19.681  -0.619 -18.355  1.00  0.00     0.157 A 
ENDROOT
BRANCH   1   7
ATOM      7  C   UNL     1      21.636   0.966 -21.837  1.00  0.00     0.072 C 
ATOM      8  O   UNL     1      21.723   2.211 -22.011  1.00  0.00    -0.545 OA
ATOM      9  O   UNL     1      22.184   0.113 -22.788  1.00  0.00    -0.545 OA
ENDBRANCH   1   7
BRANCH   4  10
ATOM     10  O   UNL     1      21.254   0.566 -16.941  1.00  0.00    -0.504 OA
ATOM     11  H   UNL     1      21.909  -0.025 -16.443  1.00  0.00     0.293 HD
ENDBRANCH   4  10
BRANCH   6  12
ATOM     12  O   UNL     1      19.028  -1.147 -17.241  1.00  0.00    -0.504 OA
ATOM     13  H   UNL     1      18.281  -1.826 -17.326  1.00  0.00     0.293 HD
ENDBRANCH   6  12
TORSDOF 3
ENDMDL
MODEL 5
REMARK VINA RESULT:    -4.560      1.177      4.197
REMARK INTER + INTRA:          -5.131
REMARK INTER:                  -5.086
REMARK INTRA:                  -0.044
REMARK UNBOUND:                -0.037
REMARK SMILES O=C([O-])c1ccc(O)c(O)c1
REMARK SMILES IDX 4 1 11 2 5 3 9 4 6 5 7 6 2 7 1 8 3 9 10 10 8 12
REMARK H PARENT 10 11 8 13
REMARK Flexibility Score: inf
ROOT
ATOM      1  C   UNL     1      20.415  -0.291 -19.382  1.00  0.00     0.001 A 
ATOM      2  C   UNL     1      20.315  -1.031 -20.574  1.00  0.00     0.060 A 
ATOM      3  C   UNL     1      21.156   0.904 -19.382  1.00  0.00     0.014 A 
ATOM      4  C   UNL     1      20.946  -0.586 -21.745  1.00  0.00     0.158 A 
ATOM      5  C   UNL     1      21.784   1.347 -20.548  1.00  0.00     0.051 A 
ATOM      6  C   UNL     1      21.684   0.610 -21.731  1.00  0.00     0.157 A 
ENDROOT
BRANCH   1   7
ATOM      7  C   UNL     1      19.748  -0.765 -18.150  1.00  0.00     0.072 C 
ATOM      8  O   UNL     1      19.799  -0.084 -17.091  1.00  0.00    -0.545 OA
ATOM      9  O   UNL     1      19.055  -1.970 -18.143  1.00  0.00    -0.545 OA
ENDBRANCH   1   7
BRANCH   4  10
ATOM     10  O   UNL     1      20.840  -1.327 -22.922  1.00  0.00    -0.504 OA
ATOM     11  H   UNL     1      21.582  -1.337 -23.612  1.00  0.00     0.293 HD
ENDBRANCH   4  10
BRANCH   6  12
ATOM     12  O   UNL     1      22.321   1.077 -22.880  1.00  0.00    -0.504 OA
ATOM     13  H   UNL     1      21.910   1.790 -23.471  1.00  0.00     0.293 HD
ENDBRANCH   6  12
TORSDOF 3
ENDMDL
MODEL 6
REMARK VINA RESULT:    -4.560     17.752     19.907
REMARK INTER + INTRA:          -5.130
REMARK INTER:                  -5.086
REMARK INTRA:                  -0.043
REMARK UNBOUND:                -0.037
REMARK SMILES O=C([O-])c1ccc(O)c(O)c1
REMARK SMILES IDX 4 1 11 2 5 3 9 4 6 5 7 6 2 7 1 8 3 9 10 10 8 12
REMARK H PARENT 10 11 8 13
REMARK Flexibility Score: inf
ROOT
ATOM      1  C   UNL     1       8.020  -6.662  -7.479  1.00  0.00     0.001 A 
ATOM      2  C   UNL     1       8.036  -5.565  -6.598  1.00  0.00     0.060 A 
ATOM      3  C   UNL     1       7.790  -7.949  -6.961  1.00  0.00     0.014 A 
ATOM      4  C   UNL     1       7.828  -5.752  -5.223  1.00  0.00     0.158 A 
ATOM      5  C   UNL     1       7.582  -8.134  -5.592  1.00  0.00     0.051 A 
ATOM      6  C   UNL     1       7.599  -7.043  -4.719  1.00  0.00     0.157 A 
ENDROOT
BRANCH   1   7
ATOM      7  C   UNL     1       8.241  -6.460  -8.927  1.00  0.00     0.072 C 
ATOM      8  O   UNL     1       7.856  -7.324  -9.761  1.00  0.00    -0.545 OA
ATOM      9  O   UNL     1       8.876  -5.314  -9.390  1.00  0.00    -0.545 OA
ENDBRANCH   1   7
BRANCH   4  10
ATOM     10  O   UNL     1       7.846  -4.658  -4.359  1.00  0.00    -0.504 OA
ATOM     11  H   UNL     1       8.396  -4.662  -3.508  1.00  0.00     0.293 HD
ENDBRANCH   4  10
BRANCH   6  12
ATOM     12  O   UNL     1       7.388  -7.259  -3.358  1.00  0.00    -0.504 OA
ATOM     13  H   UNL     1       6.568  -7.741  -3.010  1.00  0.00     0.293 HD
ENDBRANCH   6  12
TORSDOF 3
ENDMDL
MODEL 7
REMARK VINA RESULT:    -4.476     16.091     17.791
REMARK INTER + INTRA:          -5.036
REMARK INTER:                  -5.000
REMARK INTRA:                  -0.036
REMARK UNBOUND:                -0.037
REMARK SMILES O=C([O-])c1ccc(O)c(O)c1
REMARK SMILES IDX 4 1 11 2 5 3 9 4 6 5 7 6 2 7 1 8 3 9 10 10 8 12
REMARK H PARENT 10 11 8 13
REMARK Flexibility Score: inf
ROOT
ATOM      1  C   UNL     1       9.744  -6.125  -8.764  1.00  0.00     0.001 A 
ATOM      2  C   UNL     1       9.226  -5.981  -7.465  1.00  0.00     0.060 A 
ATOM      3  C   UNL     1       9.002  -5.635  -9.853  1.00  0.00     0.014 A 
ATOM      4  C   UNL     1       7.986  -5.359  -7.257  1.00  0.00     0.158 A 
ATOM      5  C   UNL     1       7.767  -5.015  -9.645  1.00  0.00     0.051 A 
ATOM      6  C   UNL     1       7.254  -4.874  -8.353  1.00  0.00     0.157 A 
ENDROOT
BRANCH   1   7
ATOM      7  C   UNL     1      11.052  -6.782  -8.978  1.00  0.00     0.072 C 
ATOM      8  O   UNL     1      12.078  -6.098  -9.239  1.00  0.00    -0.545 OA
ATOM      9  O   UNL     1      11.168  -8.165  -8.894  1.00  0.00    -0.545 OA
ENDBRANCH   1   7
BRANCH   4  10
ATOM     10  O   UNL     1       7.481  -5.221  -5.964  1.00  0.00    -0.504 OA
ATOM     11  H   UNL     1       6.558  -5.557  -5.716  1.00  0.00     0.293 HD
ENDBRANCH   4  10
BRANCH   6  12
ATOM     12  O   UNL     1       6.019  -4.250  -8.177  1.00  0.00    -0.504 OA
ATOM     13  H   UNL     1       5.596  -4.142  -7.263  1.00  0.00     0.293 HD
ENDBRANCH   6  12
TORSDOF 3
ENDMDL
MODEL 8
REMARK VINA RESULT:    -4.461     15.386     17.431
REMARK INTER + INTRA:          -5.020
REMARK INTER:                  -4.980
REMARK INTRA:                  -0.040
REMARK UNBOUND:                -0.037
REMARK SMILES O=C([O-])c1ccc(O)c(O)c1
REMARK SMILES IDX 4 1 11 2 5 3 9 4 6 5 7 6 2 7 1 8 3 9 10 10 8 12
REMARK H PARENT 10 11 8 13
REMARK Flexibility Score: inf
ROOT
ATOM      1  C   UNL     1       9.276  -5.701  -9.562  1.00  0.00     0.001 A 
ATOM      2  C   UNL     1       7.969  -5.197  -9.445  1.00  0.00     0.060 A 
ATOM      3  C   UNL     1       9.987  -6.030  -8.394  1.00  0.00     0.014 A 
ATOM      4  C   UNL     1       7.382  -5.022  -8.182  1.00  0.00     0.158 A 
ATOM      5  C   UNL     1       9.403  -5.856  -7.138  1.00  0.00     0.051 A 
ATOM      6  C   UNL     1       8.104  -5.355  -7.024  1.00  0.00     0.157 A 
ENDROOT
BRANCH   1   7
ATOM      7  C   UNL     1       9.890  -5.883 -10.895  1.00  0.00     0.072 C 
ATOM      8  O   UNL     1       9.251  -6.445 -11.824  1.00  0.00    -0.545 OA
ATOM      9  O   UNL     1      11.183  -5.435 -11.142  1.00  0.00    -0.545 OA
ENDBRANCH   1   7
BRANCH   4  10
ATOM     10  O   UNL     1       6.085  -4.521  -8.077  1.00  0.00    -0.504 OA
ATOM     11  H   UNL     1       5.465  -4.805  -7.328  1.00  0.00     0.293 HD
ENDBRANCH   4  10
BRANCH   6  12
ATOM     12  O   UNL     1       7.546  -5.193  -5.756  1.00  0.00    -0.504 OA
ATOM     13  H   UNL     1       7.752  -5.826  -4.992  1.00  0.00     0.293 HD
ENDBRANCH   6  12
TORSDOF 3
ENDMDL
MODEL 9
REMARK VINA RESULT:    -4.454     17.032     18.101
REMARK INTER + INTRA:          -5.012
REMARK INTER:                  -4.976
REMARK INTRA:                  -0.036
REMARK UNBOUND:                -0.037
REMARK SMILES O=C([O-])c1ccc(O)c(O)c1
REMARK SMILES IDX 4 1 11 2 5 3 9 4 6 5 7 6 2 7 1 8 3 9 10 10 8 12
REMARK H PARENT 10 11 8 13
REMARK Flexibility Score: inf
ROOT
ATOM      1  C   UNL     1       8.475  -7.038  -9.459  1.00  0.00     0.001 A 
ATOM      2  C   UNL     1       7.685  -6.408  -8.481  1.00  0.00     0.060 A 
ATOM      3  C   UNL     1       9.876  -6.975  -9.349  1.00  0.00     0.014 A 
ATOM      4  C   UNL     1       8.285  -5.725  -7.412  1.00  0.00     0.158 A 
ATOM      5  C   UNL     1      10.472  -6.294  -8.285  1.00  0.00     0.051 A 
ATOM      6  C   UNL     1       9.685  -5.668  -7.315  1.00  0.00     0.157 A 
ENDROOT
BRANCH   1   7
ATOM      7  C   UNL     1       7.839  -7.758 -10.584  1.00  0.00     0.072 C 
ATOM      8  O   UNL     1       7.334  -8.899 -10.411  1.00  0.00    -0.545 OA
ATOM      9  O   UNL     1       7.787  -7.183 -11.848  1.00  0.00    -0.545 OA
ENDBRANCH   1   7
BRANCH   4  10
ATOM     10  O   UNL     1       7.492  -5.103  -6.447  1.00  0.00    -0.504 OA
ATOM     11  H   UNL     1       7.882  -4.443  -5.785  1.00  0.00     0.293 HD
ENDBRANCH   4  10
BRANCH   6  12
ATOM     12  O   UNL     1      10.309  -4.997  -6.264  1.00  0.00    -0.504 OA
ATOM     13  H   UNL     1      10.564  -5.465  -5.402  1.00  0.00     0.293 HD
ENDBRANCH   6  12
TORSDOF 3
ENDMDL
