MODEL 1
REMARK VINA RESULT:    -5.126      0.000      0.000
REMARK INTER + INTRA:          -5.126
REMARK INTER:                  -5.126
REMARK INTRA:                   0.000
REMARK UNBOUND:                 0.000
REMARK SMILES C=C1[C@H]2CC[C@H](C2)C1(C)C
REMARK SMILES IDX 9 1 8 2 6 3 5 4 4 5 3 6 7 7 2 8 1 9 10 10
REMARK H PARENT
REMARK Flexibility Score: inf
ROOT
ATOM      1  C   UNL     1     103.815 107.129 126.861  1.00  0.00     0.016 C 
ATOM      2  C   UNL     1     102.963 106.758 128.095  1.00  0.00    -0.012 C 
ATOM      3  C   UNL     1     101.439 107.024 127.835  1.00  0.00    -0.001 C 
ATOM      4  C   UNL     1     100.610 106.836 129.130  1.00  0.00     0.005 C 
ATOM      5  C   UNL     1     100.710 105.318 129.385  1.00  0.00     0.008 C 
ATOM      6  C   UNL     1     101.485 104.812 128.154  1.00  0.00     0.015 C 
ATOM      7  C   UNL     1     101.008 105.768 127.085  1.00  0.00     0.012 C 
ATOM      8  C   UNL     1     102.914 105.263 128.304  1.00  0.00    -0.068 C 
ATOM      9  C   UNL     1     103.943 104.471 128.623  1.00  0.00     0.008 C 
ATOM     10  C   UNL     1     103.525 107.493 129.334  1.00  0.00     0.016 C 
ENDROOT
TORSDOF 0
ENDMDL
MODEL 2
REMARK VINA RESULT:    -5.116      6.754      8.731
REMARK INTER + INTRA:          -5.116
REMARK INTER:                  -5.116
REMARK INTRA:                   0.000
REMARK UNBOUND:                 0.000
REMARK SMILES C=C1[C@H]2CC[C@H](C2)C1(C)C
REMARK SMILES IDX 9 1 8 2 6 3 5 4 4 5 3 6 7 7 2 8 1 9 10 10
REMARK H PARENT
REMARK Flexibility Score: inf
ROOT
ATOM      1  C   UNL     1     108.889 105.261 126.815  1.00  0.00     0.016 C 
ATOM      2  C   UNL     1     109.674 105.683 128.078  1.00  0.00    -0.012 C 
ATOM      3  C   UNL     1     111.220 105.519 127.868  1.00  0.00    -0.001 C 
ATOM      4  C   UNL     1     111.992 105.757 129.189  1.00  0.00     0.005 C 
ATOM      5  C   UNL     1     111.783 107.264 129.443  1.00  0.00     0.008 C 
ATOM      6  C   UNL     1     111.017 107.722 128.188  1.00  0.00     0.015 C 
ATOM      7  C   UNL     1     111.591 106.804 127.134  1.00  0.00     0.012 C 
ATOM      8  C   UNL     1     109.617 107.177 128.290  1.00  0.00    -0.068 C 
ATOM      9  C   UNL     1     108.528 107.899 128.576  1.00  0.00     0.008 C 
ATOM     10  C   UNL     1     109.122 104.908 129.296  1.00  0.00     0.016 C 
ENDROOT
TORSDOF 0
ENDMDL
MODEL 3
REMARK VINA RESULT:    -5.088      4.220      6.183
REMARK INTER + INTRA:          -5.088
REMARK INTER:                  -5.088
REMARK INTRA:                   0.000
REMARK UNBOUND:                 0.000
REMARK SMILES C=C1[C@H]2CC[C@H](C2)C1(C)C
REMARK SMILES IDX 9 1 8 2 6 3 5 4 4 5 3 6 7 7 2 8 1 9 10 10
REMARK H PARENT
REMARK Flexibility Score: inf
ROOT
ATOM      1  C   UNL     1     105.293 103.577 126.743  1.00  0.00     0.016 C 
ATOM      2  C   UNL     1     105.715 102.839 128.033  1.00  0.00    -0.012 C 
ATOM      3  C   UNL     1     105.474 101.294 127.910  1.00  0.00    -0.001 C 
ATOM      4  C   UNL     1     105.714 100.582 129.264  1.00  0.00     0.005 C 
ATOM      5  C   UNL     1     107.237 100.731 129.465  1.00  0.00     0.008 C 
ATOM      6  C   UNL     1     107.692 101.408 128.160  1.00  0.00     0.015 C 
ATOM      7  C   UNL     1     106.718 100.824 127.163  1.00  0.00     0.012 C 
ATOM      8  C   UNL     1     107.216 102.836 128.201  1.00  0.00    -0.068 C 
ATOM      9  C   UNL     1     107.995 103.903 128.410  1.00  0.00     0.008 C 
ATOM     10  C   UNL     1     105.003 103.491 129.241  1.00  0.00     0.016 C 
ENDROOT
TORSDOF 0
ENDMDL
MODEL 4
REMARK VINA RESULT:    -5.080      4.205      6.090
REMARK INTER + INTRA:          -5.080
REMARK INTER:                  -5.080
REMARK INTRA:                   0.000
REMARK UNBOUND:                 0.000
REMARK SMILES C=C1[C@H]2CC[C@H](C2)C1(C)C
REMARK SMILES IDX 9 1 8 2 6 3 5 4 4 5 3 6 7 7 2 8 1 9 10 10
REMARK H PARENT
REMARK Flexibility Score: inf
ROOT
ATOM      1  C   UNL     1     107.306 108.868 126.791  1.00  0.00     0.016 C 
ATOM      2  C   UNL     1     106.816 109.622 128.048  1.00  0.00    -0.012 C 
ATOM      3  C   UNL     1     106.964 111.174 127.873  1.00  0.00    -0.001 C 
ATOM      4  C   UNL     1     106.656 111.917 129.197  1.00  0.00     0.005 C 
ATOM      5  C   UNL     1     105.143 111.679 129.380  1.00  0.00     0.008 C 
ATOM      6  C   UNL     1     104.752 110.930 128.094  1.00  0.00     0.015 C 
ATOM      7  C   UNL     1     105.706 111.539 127.091  1.00  0.00     0.012 C 
ATOM      8  C   UNL     1     105.316 109.537 128.193  1.00  0.00    -0.068 C 
ATOM      9  C   UNL     1     104.601 108.431 128.428  1.00  0.00     0.008 C 
ATOM     10  C   UNL     1     107.547 109.059 129.288  1.00  0.00     0.016 C 
ENDROOT
TORSDOF 0
ENDMDL
MODEL 5
REMARK VINA RESULT:    -5.052      7.111      8.610
REMARK INTER + INTRA:          -5.052
REMARK INTER:                  -5.052
REMARK INTRA:                   0.000
REMARK UNBOUND:                 0.000
REMARK SMILES C=C1[C@H]2CC[C@H](C2)C1(C)C
REMARK SMILES IDX 9 1 8 2 6 3 5 4 4 5 3 6 7 7 2 8 1 9 10 10
REMARK H PARENT
REMARK Flexibility Score: inf
ROOT
ATOM      1  C   UNL     1     111.234 107.751 126.331  1.00  0.00     0.016 C 
ATOM      2  C   UNL     1     110.455 107.135 127.515  1.00  0.00    -0.012 C 
ATOM      3  C   UNL     1     110.015 105.662 127.201  1.00  0.00    -0.001 C 
ATOM      4  C   UNL     1     109.073 105.113 128.301  1.00  0.00     0.005 C 
ATOM      5  C   UNL     1     110.007 104.997 129.525  1.00  0.00     0.008 C 
ATOM      6  C   UNL     1     111.380 105.386 128.949  1.00  0.00     0.015 C 
ATOM      7  C   UNL     1     111.271 104.864 127.534  1.00  0.00     0.012 C 
ATOM      8  C   UNL     1     111.360 106.869 128.694  1.00  0.00    -0.068 C 
ATOM      9  C   UNL     1     111.996 107.787 129.431  1.00  0.00     0.008 C 
ATOM     10  C   UNL     1     109.284 108.072 127.889  1.00  0.00     0.016 C 
ENDROOT
TORSDOF 0
ENDMDL
MODEL 6
REMARK VINA RESULT:    -4.968      7.085      8.622
REMARK INTER + INTRA:          -4.968
REMARK INTER:                  -4.968
REMARK INTRA:                   0.000
REMARK UNBOUND:                 0.000
REMARK SMILES C=C1[C@H]2CC[C@H](C2)C1(C)C
REMARK SMILES IDX 9 1 8 2 6 3 5 4 4 5 3 6 7 7 2 8 1 9 10 10
REMARK H PARENT
REMARK Flexibility Score: inf
ROOT
ATOM      1  C   UNL     1     112.045 107.711 129.271  1.00  0.00     0.016 C 
ATOM      2  C   UNL     1     111.209 107.029 128.165  1.00  0.00    -0.012 C 
ATOM      3  C   UNL     1     111.349 105.468 128.228  1.00  0.00    -0.001 C 
ATOM      4  C   UNL     1     110.670 104.797 127.008  1.00  0.00     0.005 C 
ATOM      5  C   UNL     1     109.172 105.073 127.253  1.00  0.00     0.008 C 
ATOM      6  C   UNL     1     109.170 105.765 128.628  1.00  0.00     0.015 C 
ATOM      7  C   UNL     1     110.339 105.090 129.307  1.00  0.00     0.012 C 
ATOM      8  C   UNL     1     109.729 107.150 128.437  1.00  0.00    -0.068 C 
ATOM      9  C   UNL     1     109.013 108.280 128.452  1.00  0.00     0.008 C 
ATOM     10  C   UNL     1     111.594 107.638 126.797  1.00  0.00     0.016 C 
ENDROOT
TORSDOF 0
ENDMDL
MODEL 7
REMARK VINA RESULT:    -4.932      4.193      6.421
REMARK INTER + INTRA:          -4.932
REMARK INTER:                  -4.932
REMARK INTRA:                   0.000
REMARK UNBOUND:                 0.000
REMARK SMILES C=C1[C@H]2CC[C@H](C2)C1(C)C
REMARK SMILES IDX 9 1 8 2 6 3 5 4 4 5 3 6 7 7 2 8 1 9 10 10
REMARK H PARENT
REMARK Flexibility Score: inf
ROOT
ATOM      1  C   UNL     1     104.856 112.006 129.255  1.00  0.00     0.016 C 
ATOM      2  C   UNL     1     105.472 111.122 128.148  1.00  0.00    -0.012 C 
ATOM      3  C   UNL     1     107.040 111.173 128.185  1.00  0.00    -0.001 C 
ATOM      4  C   UNL     1     107.651 110.445 126.962  1.00  0.00     0.005 C 
ATOM      5  C   UNL     1     107.296 108.968 127.230  1.00  0.00     0.008 C 
ATOM      6  C   UNL     1     106.627 109.019 128.615  1.00  0.00     0.015 C 
ATOM      7  C   UNL     1     107.378 110.156 129.270  1.00  0.00     0.012 C 
ATOM      8  C   UNL     1     105.273 109.654 128.439  1.00  0.00    -0.068 C 
ATOM      9  C   UNL     1     104.105 109.003 128.481  1.00  0.00     0.008 C 
ATOM     10  C   UNL     1     104.864 111.525 126.785  1.00  0.00     0.016 C 
ENDROOT
TORSDOF 0
ENDMDL
MODEL 8
REMARK VINA RESULT:    -4.930      0.801      2.941
REMARK INTER + INTRA:          -4.930
REMARK INTER:                  -4.930
REMARK INTRA:                   0.000
REMARK UNBOUND:                 0.000
REMARK SMILES C=C1[C@H]2CC[C@H](C2)C1(C)C
REMARK SMILES IDX 9 1 8 2 6 3 5 4 4 5 3 6 7 7 2 8 1 9 10 10
REMARK H PARENT
REMARK Flexibility Score: inf
ROOT
ATOM      1  C   UNL     1     100.472 104.751 129.251  1.00  0.00     0.016 C 
ATOM      2  C   UNL     1     101.326 105.438 128.162  1.00  0.00    -0.012 C 
ATOM      3  C   UNL     1     101.175 106.998 128.220  1.00  0.00    -0.001 C 
ATOM      4  C   UNL     1     101.875 107.673 127.015  1.00  0.00     0.005 C 
ATOM      5  C   UNL     1     103.369 107.407 127.292  1.00  0.00     0.008 C 
ATOM      6  C   UNL     1     103.347 106.716 128.667  1.00  0.00     0.015 C 
ATOM      7  C   UNL     1     102.159 107.384 129.321  1.00  0.00     0.012 C 
ATOM      8  C   UNL     1     102.801 105.327 128.466  1.00  0.00    -0.068 C 
ATOM      9  C   UNL     1     103.524 104.202 128.497  1.00  0.00     0.008 C 
ATOM     10  C   UNL     1     100.975 104.825 126.787  1.00  0.00     0.016 C 
ENDROOT
TORSDOF 0
ENDMDL
MODEL 9
REMARK VINA RESULT:    -4.766      4.406      6.271
REMARK INTER + INTRA:          -4.766
REMARK INTER:                  -4.766
REMARK INTRA:                   0.000
REMARK UNBOUND:                 0.000
REMARK SMILES C=C1[C@H]2CC[C@H](C2)C1(C)C
REMARK SMILES IDX 9 1 8 2 6 3 5 4 4 5 3 6 7 7 2 8 1 9 10 10
REMARK H PARENT
REMARK Flexibility Score: inf
ROOT
ATOM      1  C   UNL     1     104.909 111.904 128.821  1.00  0.00     0.016 C 
ATOM      2  C   UNL     1     105.157 110.659 127.940  1.00  0.00    -0.012 C 
ATOM      3  C   UNL     1     104.790 110.940 126.441  1.00  0.00    -0.001 C 
ATOM      4  C   UNL     1     104.854 109.643 125.597  1.00  0.00     0.005 C 
ATOM      5  C   UNL     1     106.362 109.317 125.583  1.00  0.00     0.008 C 
ATOM      6  C   UNL     1     106.982 110.517 126.320  1.00  0.00     0.015 C 
ATOM      7  C   UNL     1     106.044 111.633 125.919  1.00  0.00     0.012 C 
ATOM      8  C   UNL     1     106.633 110.381 127.778  1.00  0.00    -0.068 C 
ATOM      9  C   UNL     1     107.484 110.019 128.745  1.00  0.00     0.008 C 
ATOM     10  C   UNL     1     104.409 109.452 128.552  1.00  0.00     0.016 C 
ENDROOT
TORSDOF 0
ENDMDL
