MODEL 1
REMARK VINA RESULT:    -3.397      0.000      0.000
REMARK INTER + INTRA:          -4.362
REMARK INTER:                  -4.192
REMARK INTRA:                  -0.170
REMARK UNBOUND:                -0.170
REMARK SMILES CCCCC=CC(C)=O
REMARK SMILES IDX 4 1 3 2 2 3 1 4 5 5 6 6 7 7 9 8 8 9
REMARK H PARENT
REMARK Flexibility Score: inf
ROOT
ATOM      1  C   UNL     1       2.393 -15.415  11.155  1.00  0.00     0.027 C 
ENDROOT
BRANCH   1   2
ATOM      2  C   UNL     1       1.318 -15.068  10.115  1.00  0.00     0.004 C 
BRANCH   2   3
ATOM      3  C   UNL     1       0.870 -16.291   9.299  1.00  0.00    -0.003 C 
ATOM      4  C   UNL     1      -0.384 -16.021   8.468  1.00  0.00     0.004 C 
ENDBRANCH   2   3
ENDBRANCH   1   2
BRANCH   1   5
ATOM      5  C   UNL     1       2.040 -16.670  11.900  1.00  0.00    -0.023 C 
ATOM      6  C   UNL     1       2.006 -16.703  13.237  1.00  0.00     0.042 C 
BRANCH   6   7
ATOM      7  C   UNL     1       1.648 -17.921  13.989  1.00  0.00     0.152 C 
ATOM      8  O   UNL     1       2.327 -18.977  13.866  1.00  0.00    -0.295 OA
ATOM      9  C   UNL     1       0.472 -17.903  14.909  1.00  0.00     0.093 C 
ENDBRANCH   6   7
ENDBRANCH   1   5
TORSDOF 4
ENDMDL
MODEL 2
REMARK VINA RESULT:    -3.388      4.045      6.250
REMARK INTER + INTRA:          -4.349
REMARK INTER:                  -4.066
REMARK INTRA:                  -0.284
REMARK UNBOUND:                -0.170
REMARK SMILES CCCCC=CC(C)=O
REMARK SMILES IDX 4 1 3 2 2 3 1 4 5 5 6 6 7 7 9 8 8 9
REMARK H PARENT
REMARK Flexibility Score: inf
ROOT
ATOM      1  C   UNL     1       0.538 -14.208   9.589  1.00  0.00     0.027 C 
ENDROOT
BRANCH   1   2
ATOM      2  C   UNL     1       0.181 -15.565   8.965  1.00  0.00     0.004 C 
BRANCH   2   3
ATOM      3  C   UNL     1       1.178 -16.669   9.349  1.00  0.00    -0.003 C 
ATOM      4  C   UNL     1       1.911 -16.376  10.658  1.00  0.00     0.004 C 
ENDBRANCH   2   3
ENDBRANCH   1   2
BRANCH   1   5
ATOM      5  C   UNL     1       1.268 -13.336   8.608  1.00  0.00    -0.023 C 
ATOM      6  C   UNL     1       2.605 -13.309   8.557  1.00  0.00     0.042 C 
BRANCH   6   7
ATOM      7  C   UNL     1       3.342 -12.470   7.593  1.00  0.00     0.152 C 
ATOM      8  O   UNL     1       4.551 -12.171   7.791  1.00  0.00    -0.295 OA
ATOM      9  C   UNL     1       2.650 -11.972   6.366  1.00  0.00     0.093 C 
ENDBRANCH   6   7
ENDBRANCH   1   5
TORSDOF 4
ENDMDL
MODEL 3
REMARK VINA RESULT:    -3.309      1.328      1.378
REMARK INTER + INTRA:          -4.252
REMARK INTER:                  -4.077
REMARK INTRA:                  -0.176
REMARK UNBOUND:                -0.170
REMARK SMILES CCCCC=CC(C)=O
REMARK SMILES IDX 4 1 3 2 2 3 1 4 5 5 6 6 7 7 9 8 8 9
REMARK H PARENT
REMARK Flexibility Score: inf
ROOT
ATOM      1  C   UNL     1       2.879 -16.063  10.816  1.00  0.00     0.027 C 
ENDROOT
BRANCH   1   2
ATOM      2  C   UNL     1       1.987 -16.447   9.626  1.00  0.00     0.004 C 
BRANCH   2   3
ATOM      3  C   UNL     1       0.745 -15.550   9.508  1.00  0.00    -0.003 C 
ATOM      4  C   UNL     1      -0.262 -16.068   8.480  1.00  0.00     0.004 C 
ENDBRANCH   2   3
ENDBRANCH   1   2
BRANCH   1   5
ATOM      5  C   UNL     1       2.107 -16.089  12.103  1.00  0.00    -0.023 C 
ATOM      6  C   UNL     1       2.074 -17.180  12.877  1.00  0.00     0.042 C 
BRANCH   6   7
ATOM      7  C   UNL     1       1.333 -17.223  14.152  1.00  0.00     0.152 C 
ATOM      8  O   UNL     1       0.749 -16.195  14.593  1.00  0.00    -0.295 OA
ATOM      9  C   UNL     1       1.270 -18.497  14.928  1.00  0.00     0.093 C 
ENDBRANCH   6   7
ENDBRANCH   1   5
TORSDOF 4
ENDMDL
MODEL 4
REMARK VINA RESULT:    -3.296      2.210      3.163
REMARK INTER + INTRA:          -4.236
REMARK INTER:                  -4.000
REMARK INTRA:                  -0.237
REMARK UNBOUND:                -0.170
REMARK SMILES CCCCC=CC(C)=O
REMARK SMILES IDX 4 1 3 2 2 3 1 4 5 5 6 6 7 7 9 8 8 9
REMARK H PARENT
REMARK Flexibility Score: inf
ROOT
ATOM      1  C   UNL     1       0.645 -16.509   9.100  1.00  0.00     0.027 C 
ENDROOT
BRANCH   1   2
ATOM      2  C   UNL     1      -0.094 -15.272   8.569  1.00  0.00     0.004 C 
BRANCH   2   3
ATOM      3  C   UNL     1       0.643 -13.963   8.893  1.00  0.00    -0.003 C 
ATOM      4  C   UNL     1       0.558 -12.940   7.759  1.00  0.00     0.004 C 
ENDBRANCH   2   3
ENDBRANCH   1   2
BRANCH   1   5
ATOM      5  C   UNL     1       1.874 -16.118   9.869  1.00  0.00    -0.023 C 
ATOM      6  C   UNL     1       2.038 -16.464  11.150  1.00  0.00     0.042 C 
BRANCH   6   7
ATOM      7  C   UNL     1       3.244 -16.103  11.919  1.00  0.00     0.152 C 
ATOM      8  O   UNL     1       3.497 -16.661  13.022  1.00  0.00    -0.295 OA
ATOM      9  C   UNL     1       4.178 -15.066  11.386  1.00  0.00     0.093 C 
ENDBRANCH   6   7
ENDBRANCH   1   5
TORSDOF 4
ENDMDL
MODEL 5
REMARK VINA RESULT:    -3.281      1.582      1.804
REMARK INTER + INTRA:          -4.217
REMARK INTER:                  -3.941
REMARK INTRA:                  -0.276
REMARK UNBOUND:                -0.170
REMARK SMILES CCCCC=CC(C)=O
REMARK SMILES IDX 4 1 3 2 2 3 1 4 5 5 6 6 7 7 9 8 8 9
REMARK H PARENT
REMARK Flexibility Score: inf
ROOT
ATOM      1  C   UNL     1       2.259 -16.042  10.316  1.00  0.00     0.027 C 
ENDROOT
BRANCH   1   2
ATOM      2  C   UNL     1       1.374 -16.815   9.328  1.00  0.00     0.004 C 
BRANCH   2   3
ATOM      3  C   UNL     1       0.175 -15.988   8.840  1.00  0.00    -0.003 C 
ATOM      4  C   UNL     1       0.376 -14.484   9.032  1.00  0.00     0.004 C 
ENDBRANCH   2   3
ENDBRANCH   1   2
BRANCH   1   5
ATOM      5  C   UNL     1       2.075 -16.547  11.719  1.00  0.00    -0.023 C 
ATOM      6  C   UNL     1       1.598 -15.759  12.689  1.00  0.00     0.042 C 
BRANCH   6   7
ATOM      7  C   UNL     1       1.397 -16.238  14.069  1.00  0.00     0.152 C 
ATOM      8  O   UNL     1       1.282 -15.423  15.025  1.00  0.00    -0.295 OA
ATOM      9  C   UNL     1       1.324 -17.706  14.339  1.00  0.00     0.093 C 
ENDBRANCH   6   7
ENDBRANCH   1   5
TORSDOF 4
ENDMDL
MODEL 6
REMARK VINA RESULT:    -3.134      2.426      5.089
REMARK INTER + INTRA:          -4.036
REMARK INTER:                  -3.892
REMARK INTRA:                  -0.144
REMARK UNBOUND:                -0.170
REMARK SMILES CCCCC=CC(C)=O
REMARK SMILES IDX 4 1 3 2 2 3 1 4 5 5 6 6 7 7 9 8 8 9
REMARK H PARENT
REMARK Flexibility Score: inf
ROOT
ATOM      1  C   UNL     1       2.620 -16.236  12.008  1.00  0.00     0.027 C 
ENDROOT
BRANCH   1   2
ATOM      2  C   UNL     1       2.014 -16.494  13.395  1.00  0.00     0.004 C 
BRANCH   2   3
ATOM      3  C   UNL     1       1.944 -17.990  13.738  1.00  0.00    -0.003 C 
ATOM      4  C   UNL     1       0.932 -18.298  14.843  1.00  0.00     0.004 C 
ENDBRANCH   2   3
ENDBRANCH   1   2
BRANCH   1   5
ATOM      5  C   UNL     1       1.627 -15.570  11.099  1.00  0.00    -0.023 C 
ATOM      6  C   UNL     1       1.344 -16.066   9.889  1.00  0.00     0.042 C 
BRANCH   6   7
ATOM      7  C   UNL     1       0.363 -15.436   8.986  1.00  0.00     0.152 C 
ATOM      8  O   UNL     1      -0.591 -16.105   8.502  1.00  0.00    -0.295 OA
ATOM      9  C   UNL     1       0.496 -13.988   8.643  1.00  0.00     0.093 C 
ENDBRANCH   6   7
ENDBRANCH   1   5
TORSDOF 4
ENDMDL
MODEL 7
REMARK VINA RESULT:    -3.011      3.449      4.473
REMARK INTER + INTRA:          -3.885
REMARK INTER:                  -3.683
REMARK INTRA:                  -0.202
REMARK UNBOUND:                -0.170
REMARK SMILES CCCCC=CC(C)=O
REMARK SMILES IDX 4 1 3 2 2 3 1 4 5 5 6 6 7 7 9 8 8 9
REMARK H PARENT
REMARK Flexibility Score: inf
ROOT
ATOM      1  C   UNL     1       1.312 -16.134  10.139  1.00  0.00     0.027 C 
ENDROOT
BRANCH   1   2
ATOM      2  C   UNL     1       0.424 -15.358   9.156  1.00  0.00     0.004 C 
BRANCH   2   3
ATOM      3  C   UNL     1       0.548 -13.836   9.325  1.00  0.00    -0.003 C 
ATOM      4  C   UNL     1       0.555 -13.091   7.990  1.00  0.00     0.004 C 
ENDBRANCH   2   3
ENDBRANCH   1   2
BRANCH   1   5
ATOM      5  C   UNL     1       2.686 -16.352   9.572  1.00  0.00    -0.023 C 
ATOM      6  C   UNL     1       3.763 -15.764  10.105  1.00  0.00     0.042 C 
BRANCH   6   7
ATOM      7  C   UNL     1       5.123 -15.975   9.573  1.00  0.00     0.152 C 
ATOM      8  O   UNL     1       5.320 -16.750   8.597  1.00  0.00    -0.295 OA
ATOM      9  C   UNL     1       6.279 -15.260  10.193  1.00  0.00     0.093 C 
ENDBRANCH   6   7
ENDBRANCH   1   5
TORSDOF 4
ENDMDL
MODEL 8
REMARK VINA RESULT:    -3.008      2.294      3.452
REMARK INTER + INTRA:          -3.881
REMARK INTER:                  -3.710
REMARK INTRA:                  -0.171
REMARK UNBOUND:                -0.170
REMARK SMILES CCCCC=CC(C)=O
REMARK SMILES IDX 4 1 3 2 2 3 1 4 5 5 6 6 7 7 9 8 8 9
REMARK H PARENT
REMARK Flexibility Score: inf
ROOT
ATOM      1  C   UNL     1       0.294 -14.842   8.853  1.00  0.00     0.027 C 
ENDROOT
BRANCH   1   2
ATOM      2  C   UNL     1       0.498 -13.322   8.924  1.00  0.00     0.004 C 
BRANCH   2   3
ATOM      3  C   UNL     1       0.426 -12.654   7.542  1.00  0.00    -0.003 C 
ATOM      4  C   UNL     1       1.797 -12.224   7.020  1.00  0.00     0.004 C 
ENDBRANCH   2   3
ENDBRANCH   1   2
BRANCH   1   5
ATOM      5  C   UNL     1       1.360 -15.568   9.622  1.00  0.00    -0.023 C 
ATOM      6  C   UNL     1       1.405 -15.533  10.959  1.00  0.00     0.042 C 
BRANCH   6   7
ATOM      7  C   UNL     1       2.434 -16.250  11.734  1.00  0.00     0.152 C 
ATOM      8  O   UNL     1       2.112 -17.151  12.556  1.00  0.00    -0.295 OA
ATOM      9  C   UNL     1       3.876 -15.908  11.543  1.00  0.00     0.093 C 
ENDBRANCH   6   7
ENDBRANCH   1   5
TORSDOF 4
ENDMDL
MODEL 9
REMARK VINA RESULT:    -3.003     12.146     13.089
REMARK INTER + INTRA:          -3.875
REMARK INTER:                  -3.719
REMARK INTRA:                  -0.157
REMARK UNBOUND:                -0.170
REMARK SMILES CCCCC=CC(C)=O
REMARK SMILES IDX 4 1 3 2 2 3 1 4 5 5 6 6 7 7 9 8 8 9
REMARK H PARENT
REMARK Flexibility Score: inf
ROOT
ATOM      1  C   UNL     1       2.280 -29.188   9.676  1.00  0.00     0.027 C 
ENDROOT
BRANCH   1   2
ATOM      2  C   UNL     1       1.141 -28.220   9.326  1.00  0.00     0.004 C 
BRANCH   2   3
ATOM      3  C   UNL     1       1.298 -26.854  10.012  1.00  0.00    -0.003 C 
ATOM      4  C   UNL     1       0.829 -26.865  11.468  1.00  0.00     0.004 C 
ENDBRANCH   2   3
ENDBRANCH   1   2
BRANCH   1   5
ATOM      5  C   UNL     1       3.537 -28.838   8.933  1.00  0.00    -0.023 C 
ATOM      6  C   UNL     1       3.963 -29.569   7.896  1.00  0.00     0.042 C 
BRANCH   6   7
ATOM      7  C   UNL     1       5.187 -29.234   7.144  1.00  0.00     0.152 C 
ATOM      8  O   UNL     1       6.104 -28.551   7.676  1.00  0.00    -0.295 OA
ATOM      9  C   UNL     1       5.344 -29.712   5.737  1.00  0.00     0.093 C 
ENDBRANCH   6   7
ENDBRANCH   1   5
TORSDOF 4
ENDMDL
