MODEL 1
REMARK VINA RESULT:    -4.203      0.000      0.000
REMARK INTER + INTRA:          -7.654
REMARK INTER:                  -6.660
REMARK INTRA:                  -0.994
REMARK UNBOUND:                -0.994
REMARK SMILES CCCCCCCCCCCC(=O)[O-]
REMARK SMILES IDX 7 1 8 2 9 3 10 4 11 5 12 6 13 7 14 8 6 9 5 10 4 11 3 12 2 13
REMARK SMILES IDX 1 14
REMARK H PARENT
REMARK Flexibility Score: inf
ROOT
ATOM      1  C   UNL     1      32.486   8.433  48.050  1.00  0.00     0.000 C 
ENDROOT
BRANCH   1   2
ATOM      2  C   UNL     1      33.846   8.021  48.639  1.00  0.00     0.000 C 
BRANCH   2   3
ATOM      3  C   UNL     1      33.846   6.579  49.170  1.00  0.00     0.000 C 
BRANCH   3   4
ATOM      4  C   UNL     1      33.513   5.548  48.077  1.00  0.00     0.006 C 
BRANCH   4   5
ATOM      5  C   UNL     1      34.768   4.836  47.552  1.00  0.00     0.053 C 
BRANCH   5   6
ATOM      6  C   UNL     1      34.900   4.964  46.066  1.00  0.00     0.041 C 
ATOM      7  O   UNL     1      35.446   4.048  45.397  1.00  0.00    -0.550 OA
ATOM      8  O   UNL     1      34.386   6.079  45.415  1.00  0.00    -0.550 OA
ENDBRANCH   5   6
ENDBRANCH   4   5
ENDBRANCH   3   4
ENDBRANCH   2   3
ENDBRANCH   1   2
BRANCH   1   9
ATOM      9  C   UNL     1      31.516   8.964  49.119  1.00  0.00     0.000 C 
BRANCH   9  10
ATOM     10  C   UNL     1      30.169   8.226  49.113  1.00  0.00    -0.000 C 
BRANCH  10  11
ATOM     11  C   UNL     1      30.252   6.929  49.931  1.00  0.00    -0.000 C 
BRANCH  11  12
ATOM     12  C   UNL     1      29.325   5.828  49.392  1.00  0.00    -0.000 C 
BRANCH  12  13
ATOM     13  C   UNL     1      28.965   6.029  47.913  1.00  0.00    -0.003 C 
ATOM     14  C   UNL     1      27.698   5.259  47.547  1.00  0.00     0.004 C 
ENDBRANCH  12  13
ENDBRANCH  11  12
ENDBRANCH  10  11
ENDBRANCH   9  10
ENDBRANCH   1   9
TORSDOF 10
ENDMDL
MODEL 2
REMARK VINA RESULT:    -4.190      2.470      4.513
REMARK INTER + INTRA:          -7.634
REMARK INTER:                  -6.738
REMARK INTRA:                  -0.896
REMARK UNBOUND:                -0.994
REMARK SMILES CCCCCCCCCCCC(=O)[O-]
REMARK SMILES IDX 7 1 8 2 9 3 10 4 11 5 12 6 13 7 14 8 6 9 5 10 4 11 3 12 2 13
REMARK SMILES IDX 1 14
REMARK H PARENT
REMARK Flexibility Score: inf
ROOT
ATOM      1  C   UNL     1      31.988   8.364  48.961  1.00  0.00     0.000 C 
ENDROOT
BRANCH   1   2
ATOM      2  C   UNL     1      31.025   7.442  48.193  1.00  0.00     0.000 C 
BRANCH   2   3
ATOM      3  C   UNL     1      31.749   6.264  47.521  1.00  0.00     0.000 C 
BRANCH   3   4
ATOM      4  C   UNL     1      33.279   6.354  47.662  1.00  0.00     0.006 C 
BRANCH   4   5
ATOM      5  C   UNL     1      34.000   6.041  46.344  1.00  0.00     0.053 C 
BRANCH   5   6
ATOM      6  C   UNL     1      35.011   4.949  46.508  1.00  0.00     0.041 C 
ATOM      7  O   UNL     1      35.451   4.336  45.500  1.00  0.00    -0.550 OA
ATOM      8  O   UNL     1      35.497   4.634  47.771  1.00  0.00    -0.550 OA
ENDBRANCH   5   6
ENDBRANCH   4   5
ENDBRANCH   3   4
ENDBRANCH   2   3
ENDBRANCH   1   2
BRANCH   1   9
ATOM      9  C   UNL     1      32.008   9.796  48.398  1.00  0.00     0.000 C 
BRANCH   9  10
ATOM     10  C   UNL     1      33.429  10.284  48.078  1.00  0.00    -0.000 C 
BRANCH  10  11
ATOM     11  C   UNL     1      33.900   9.745  46.720  1.00  0.00    -0.000 C 
BRANCH  11  12
ATOM     12  C   UNL     1      34.794  10.739  45.964  1.00  0.00    -0.000 C 
BRANCH  12  13
ATOM     13  C   UNL     1      34.741  10.545  44.442  1.00  0.00    -0.003 C 
ATOM     14  C   UNL     1      34.606   9.068  44.081  1.00  0.00     0.004 C 
ENDBRANCH  12  13
ENDBRANCH  11  12
ENDBRANCH  10  11
ENDBRANCH   9  10
ENDBRANCH   1   9
TORSDOF 10
ENDMDL
MODEL 3
REMARK VINA RESULT:    -4.186      1.174      3.443
REMARK INTER + INTRA:          -7.627
REMARK INTER:                  -6.680
REMARK INTRA:                  -0.947
REMARK UNBOUND:                -0.994
REMARK SMILES CCCCCCCCCCCC(=O)[O-]
REMARK SMILES IDX 7 1 8 2 9 3 10 4 11 5 12 6 13 7 14 8 6 9 5 10 4 11 3 12 2 13
REMARK SMILES IDX 1 14
REMARK H PARENT
REMARK Flexibility Score: inf
ROOT
ATOM      1  C   UNL     1      29.951   6.172  48.246  1.00  0.00     0.000 C 
ENDROOT
BRANCH   1   2
ATOM      2  C   UNL     1      31.277   6.242  47.469  1.00  0.00     0.000 C 
BRANCH   2   3
ATOM      3  C   UNL     1      32.350   5.306  48.049  1.00  0.00     0.000 C 
BRANCH   3   4
ATOM      4  C   UNL     1      33.750   5.943  48.049  1.00  0.00     0.006 C 
BRANCH   4   5
ATOM      5  C   UNL     1      34.823   4.982  47.516  1.00  0.00     0.053 C 
BRANCH   5   6
ATOM      6  C   UNL     1      34.922   5.031  46.023  1.00  0.00     0.041 C 
ATOM      7  O   UNL     1      35.429   4.068  45.390  1.00  0.00    -0.550 OA
ATOM      8  O   UNL     1      34.422   6.124  45.327  1.00  0.00    -0.550 OA
ENDBRANCH   5   6
ENDBRANCH   4   5
ENDBRANCH   3   4
ENDBRANCH   2   3
ENDBRANCH   1   2
BRANCH   1   9
ATOM      9  C   UNL     1      30.010   6.930  49.583  1.00  0.00     0.000 C 
BRANCH   9  10
ATOM     10  C   UNL     1      30.086   8.453  49.396  1.00  0.00    -0.000 C 
BRANCH  10  11
ATOM     11  C   UNL     1      31.516   8.963  49.629  1.00  0.00    -0.000 C 
BRANCH  11  12
ATOM     12  C   UNL     1      31.936  10.037  48.615  1.00  0.00    -0.000 C 
BRANCH  12  13
ATOM     13  C   UNL     1      33.067   9.568  47.689  1.00  0.00    -0.003 C 
ATOM     14  C   UNL     1      34.278  10.492  47.788  1.00  0.00     0.004 C 
ENDBRANCH  12  13
ENDBRANCH  11  12
ENDBRANCH  10  11
ENDBRANCH   9  10
ENDBRANCH   1   9
TORSDOF 10
ENDMDL
MODEL 4
REMARK VINA RESULT:    -4.131      2.542      4.210
REMARK INTER + INTRA:          -7.540
REMARK INTER:                  -6.203
REMARK INTRA:                  -1.337
REMARK UNBOUND:                -0.994
REMARK SMILES CCCCCCCCCCCC(=O)[O-]
REMARK SMILES IDX 7 1 8 2 9 3 10 4 11 5 12 6 13 7 14 8 6 9 5 10 4 11 3 12 2 13
REMARK SMILES IDX 1 14
REMARK H PARENT
REMARK Flexibility Score: inf
ROOT
ATOM      1  C   UNL     1      31.353   9.088  48.712  1.00  0.00     0.000 C 
ENDROOT
BRANCH   1   2
ATOM      2  C   UNL     1      32.698   9.291  49.432  1.00  0.00     0.000 C 
BRANCH   2   3
ATOM      3  C   UNL     1      33.886   9.336  48.459  1.00  0.00     0.000 C 
BRANCH   3   4
ATOM      4  C   UNL     1      33.495   9.883  47.075  1.00  0.00     0.006 C 
BRANCH   4   5
ATOM      5  C   UNL     1      34.684  10.528  46.351  1.00  0.00     0.053 C 
BRANCH   5   6
ATOM      6  C   UNL     1      34.603  10.337  44.868  1.00  0.00     0.041 C 
ATOM      7  O   UNL     1      34.463  11.331  44.107  1.00  0.00    -0.550 OA
ATOM      8  O   UNL     1      34.719   9.065  44.322  1.00  0.00    -0.550 OA
ENDBRANCH   5   6
ENDBRANCH   4   5
ENDBRANCH   3   4
ENDBRANCH   2   3
ENDBRANCH   1   2
BRANCH   1   9
ATOM      9  C   UNL     1      30.515   7.959  49.335  1.00  0.00     0.000 C 
BRANCH   9  10
ATOM     10  C   UNL     1      30.096   6.898  48.306  1.00  0.00    -0.000 C 
BRANCH  10  11
ATOM     11  C   UNL     1      31.290   6.477  47.437  1.00  0.00    -0.000 C 
BRANCH  11  12
ATOM     12  C   UNL     1      32.218   5.479  48.147  1.00  0.00    -0.000 C 
BRANCH  12  13
ATOM     13  C   UNL     1      33.691   5.656  47.751  1.00  0.00    -0.003 C 
ATOM     14  C   UNL     1      33.817   6.290  46.368  1.00  0.00     0.004 C 
ENDBRANCH  12  13
ENDBRANCH  11  12
ENDBRANCH  10  11
ENDBRANCH   9  10
ENDBRANCH   1   9
TORSDOF 10
ENDMDL
MODEL 5
REMARK VINA RESULT:    -4.052      3.703      5.839
REMARK INTER + INTRA:          -7.415
REMARK INTER:                  -6.679
REMARK INTRA:                  -0.736
REMARK UNBOUND:                -0.994
REMARK SMILES CCCCCCCCCCCC(=O)[O-]
REMARK SMILES IDX 7 1 8 2 9 3 10 4 11 5 12 6 13 7 14 8 6 9 5 10 4 11 3 12 2 13
REMARK SMILES IDX 1 14
REMARK H PARENT
REMARK Flexibility Score: inf
ROOT
ATOM      1  C   UNL     1      32.692  10.305  48.419  1.00  0.00     0.000 C 
ENDROOT
BRANCH   1   2
ATOM      2  C   UNL     1      31.779   9.121  48.785  1.00  0.00     0.000 C 
BRANCH   2   3
ATOM      3  C   UNL     1      32.217   7.810  48.114  1.00  0.00     0.000 C 
BRANCH   3   4
ATOM      4  C   UNL     1      31.739   6.566  48.884  1.00  0.00     0.006 C 
BRANCH   4   5
ATOM      5  C   UNL     1      30.670   5.783  48.110  1.00  0.00     0.053 C 
BRANCH   5   6
ATOM      6  C   UNL     1      29.310   5.949  48.716  1.00  0.00     0.041 C 
ATOM      7  O   UNL     1      29.172   6.573  49.801  1.00  0.00    -0.550 OA
ATOM      8  O   UNL     1      28.191   5.449  48.063  1.00  0.00    -0.550 OA
ENDBRANCH   5   6
ENDBRANCH   4   5
ENDBRANCH   3   4
ENDBRANCH   2   3
ENDBRANCH   1   2
BRANCH   1   9
ATOM      9  C   UNL     1      33.869   9.886  47.522  1.00  0.00     0.000 C 
BRANCH   9  10
ATOM     10  C   UNL     1      34.875  11.026  47.297  1.00  0.00    -0.000 C 
BRANCH  10  11
ATOM     11  C   UNL     1      35.292  11.105  45.822  1.00  0.00    -0.000 C 
BRANCH  11  12
ATOM     12  C   UNL     1      34.274  10.441  44.881  1.00  0.00    -0.000 C 
BRANCH  12  13
ATOM     13  C   UNL     1      34.896   9.327  44.027  1.00  0.00    -0.003 C 
ATOM     14  C   UNL     1      34.258   7.975  44.338  1.00  0.00     0.004 C 
ENDBRANCH  12  13
ENDBRANCH  11  12
ENDBRANCH  10  11
ENDBRANCH   9  10
ENDBRANCH   1   9
TORSDOF 10
ENDMDL
MODEL 6
REMARK VINA RESULT:    -3.985     17.275     19.364
REMARK INTER + INTRA:          -7.308
REMARK INTER:                  -6.343
REMARK INTRA:                  -0.965
REMARK UNBOUND:                -0.994
REMARK SMILES CCCCCCCCCCCC(=O)[O-]
REMARK SMILES IDX 7 1 8 2 9 3 10 4 11 5 12 6 13 7 14 8 6 9 5 10 4 11 3 12 2 13
REMARK SMILES IDX 1 14
REMARK H PARENT
REMARK Flexibility Score: inf
ROOT
ATOM      1  C   UNL     1      19.388  13.372  35.954  1.00  0.00     0.000 C 
ENDROOT
BRANCH   1   2
ATOM      2  C   UNL     1      19.477  13.624  34.438  1.00  0.00     0.000 C 
BRANCH   2   3
ATOM      3  C   UNL     1      20.772  14.347  34.037  1.00  0.00     0.000 C 
BRANCH   3   4
ATOM      4  C   UNL     1      21.214  14.011  32.601  1.00  0.00     0.006 C 
BRANCH   4   5
ATOM      5  C   UNL     1      21.670  15.257  31.830  1.00  0.00     0.053 C 
BRANCH   5   6
ATOM      6  C   UNL     1      22.830  14.961  30.930  1.00  0.00     0.041 C 
ATOM      7  O   UNL     1      22.933  13.834  30.379  1.00  0.00    -0.550 OA
ATOM      8  O   UNL     1      23.779  15.943  30.671  1.00  0.00    -0.550 OA
ENDBRANCH   5   6
ENDBRANCH   4   5
ENDBRANCH   3   4
ENDBRANCH   2   3
ENDBRANCH   1   2
BRANCH   1   9
ATOM      9  C   UNL     1      19.511  11.881  36.312  1.00  0.00     0.000 C 
BRANCH   9  10
ATOM     10  C   UNL     1      19.392  10.967  35.083  1.00  0.00    -0.000 C 
BRANCH  10  11
ATOM     11  C   UNL     1      20.656  10.111  34.914  1.00  0.00    -0.000 C 
BRANCH  11  12
ATOM     12  C   UNL     1      21.807  10.567  35.824  1.00  0.00    -0.000 C 
BRANCH  12  13
ATOM     13  C   UNL     1      22.990  11.149  35.036  1.00  0.00    -0.003 C 
ATOM     14  C   UNL     1      24.312  10.882  35.752  1.00  0.00     0.004 C 
ENDBRANCH  12  13
ENDBRANCH  11  12
ENDBRANCH  10  11
ENDBRANCH   9  10
ENDBRANCH   1   9
TORSDOF 10
ENDMDL
MODEL 7
REMARK VINA RESULT:    -3.957      2.765      5.083
REMARK INTER + INTRA:          -7.264
REMARK INTER:                  -6.388
REMARK INTRA:                  -0.876
REMARK UNBOUND:                -0.994
REMARK SMILES CCCCCCCCCCCC(=O)[O-]
REMARK SMILES IDX 7 1 8 2 9 3 10 4 11 5 12 6 13 7 14 8 6 9 5 10 4 11 3 12 2 13
REMARK SMILES IDX 1 14
REMARK H PARENT
REMARK Flexibility Score: inf
ROOT
ATOM      1  C   UNL     1      31.703   9.925  48.381  1.00  0.00     0.000 C 
ENDROOT
BRANCH   1   2
ATOM      2  C   UNL     1      31.246   8.916  49.450  1.00  0.00     0.000 C 
BRANCH   2   3
ATOM      3  C   UNL     1      30.337   7.819  48.874  1.00  0.00     0.000 C 
BRANCH   3   4
ATOM      4  C   UNL     1      31.077   6.486  48.672  1.00  0.00     0.006 C 
BRANCH   4   5
ATOM      5  C   UNL     1      31.654   6.354  47.255  1.00  0.00     0.053 C 
BRANCH   5   6
ATOM      6  C   UNL     1      33.145   6.495  47.247  1.00  0.00     0.041 C 
ATOM      7  O   UNL     1      33.783   6.546  48.331  1.00  0.00    -0.550 OA
ATOM      8  O   UNL     1      33.834   6.532  46.041  1.00  0.00    -0.550 OA
ENDBRANCH   5   6
ENDBRANCH   4   5
ENDBRANCH   3   4
ENDBRANCH   2   3
ENDBRANCH   1   2
BRANCH   1   9
ATOM      9  C   UNL     1      33.138  10.426  48.617  1.00  0.00     0.000 C 
BRANCH   9  10
ATOM     10  C   UNL     1      34.103   9.998  47.501  1.00  0.00    -0.000 C 
BRANCH  10  11
ATOM     11  C   UNL     1      35.027  11.159  47.103  1.00  0.00    -0.000 C 
BRANCH  11  12
ATOM     12  C   UNL     1      35.354  11.168  45.602  1.00  0.00    -0.000 C 
BRANCH  12  13
ATOM     13  C   UNL     1      34.258  10.508  44.753  1.00  0.00    -0.003 C 
ATOM     14  C   UNL     1      34.810   9.318  43.972  1.00  0.00     0.004 C 
ENDBRANCH  12  13
ENDBRANCH  11  12
ENDBRANCH  10  11
ENDBRANCH   9  10
ENDBRANCH   1   9
TORSDOF 10
ENDMDL
MODEL 8
REMARK VINA RESULT:    -3.901     18.192     20.042
REMARK INTER + INTRA:          -7.175
REMARK INTER:                  -6.577
REMARK INTRA:                  -0.598
REMARK UNBOUND:                -0.994
REMARK SMILES CCCCCCCCCCCC(=O)[O-]
REMARK SMILES IDX 7 1 8 2 9 3 10 4 11 5 12 6 13 7 14 8 6 9 5 10 4 11 3 12 2 13
REMARK SMILES IDX 1 14
REMARK H PARENT
REMARK Flexibility Score: inf
ROOT
ATOM      1  C   UNL     1      20.822  14.513  34.035  1.00  0.00     0.000 C 
ENDROOT
BRANCH   1   2
ATOM      2  C   UNL     1      20.701  14.748  32.519  1.00  0.00     0.000 C 
BRANCH   2   3
ATOM      3  C   UNL     1      21.833  14.076  31.726  1.00  0.00     0.000 C 
BRANCH   3   4
ATOM      4  C   UNL     1      22.734  15.095  31.006  1.00  0.00     0.006 C 
BRANCH   4   5
ATOM      5  C   UNL     1      22.269  16.540  31.235  1.00  0.00     0.053 C 
BRANCH   5   6
ATOM      6  C   UNL     1      23.379  17.522  31.018  1.00  0.00     0.041 C 
ATOM      7  O   UNL     1      23.180  18.752  31.197  1.00  0.00    -0.550 OA
ATOM      8  O   UNL     1      24.643  17.075  30.655  1.00  0.00    -0.550 OA
ENDBRANCH   5   6
ENDBRANCH   4   5
ENDBRANCH   3   4
ENDBRANCH   2   3
ENDBRANCH   1   2
BRANCH   1   9
ATOM      9  C   UNL     1      19.666  13.667  34.595  1.00  0.00     0.000 C 
BRANCH   9  10
ATOM     10  C   UNL     1      19.997  13.045  35.961  1.00  0.00    -0.000 C 
BRANCH  10  11
ATOM     11  C   UNL     1      19.859  11.517  35.914  1.00  0.00    -0.000 C 
BRANCH  11  12
ATOM     12  C   UNL     1      21.177  10.812  35.561  1.00  0.00    -0.000 C 
BRANCH  12  13
ATOM     13  C   UNL     1      22.410  11.673  35.871  1.00  0.00    -0.003 C 
ATOM     14  C   UNL     1      23.699  10.938  35.511  1.00  0.00     0.004 C 
ENDBRANCH  12  13
ENDBRANCH  11  12
ENDBRANCH  10  11
ENDBRANCH   9  10
ENDBRANCH   1   9
TORSDOF 10
ENDMDL
MODEL 9
REMARK VINA RESULT:    -3.890      2.627      5.024
REMARK INTER + INTRA:          -7.158
REMARK INTER:                  -6.136
REMARK INTRA:                  -1.022
REMARK UNBOUND:                -0.994
REMARK SMILES CCCCCCCCCCCC(=O)[O-]
REMARK SMILES IDX 7 1 8 2 9 3 10 4 11 5 12 6 13 7 14 8 6 9 5 10 4 11 3 12 2 13
REMARK SMILES IDX 1 14
REMARK H PARENT
REMARK Flexibility Score: inf
ROOT
ATOM      1  C   UNL     1      29.776   6.641  48.382  1.00  0.00     0.000 C 
ENDROOT
BRANCH   1   2
ATOM      2  C   UNL     1      30.157   7.676  49.455  1.00  0.00     0.000 C 
BRANCH   2   3
ATOM      3  C   UNL     1      30.847   8.915  48.860  1.00  0.00     0.000 C 
BRANCH   3   4
ATOM      4  C   UNL     1      32.155   9.268  49.590  1.00  0.00     0.006 C 
BRANCH   4   5
ATOM      5  C   UNL     1      32.823  10.520  49.004  1.00  0.00     0.053 C 
BRANCH   5   6
ATOM      6  C   UNL     1      34.147  10.204  48.381  1.00  0.00     0.041 C 
ATOM      7  O   UNL     1      35.076   9.718  49.079  1.00  0.00    -0.550 OA
ATOM      8  O   UNL     1      34.345  10.412  47.022  1.00  0.00    -0.550 OA
ENDBRANCH   5   6
ENDBRANCH   4   5
ENDBRANCH   3   4
ENDBRANCH   2   3
ENDBRANCH   1   2
BRANCH   1   9
ATOM      9  C   UNL     1      30.964   6.256  47.485  1.00  0.00     0.000 C 
BRANCH   9  10
ATOM     10  C   UNL     1      32.094   5.566  48.265  1.00  0.00    -0.000 C 
BRANCH  10  11
ATOM     11  C   UNL     1      33.439   5.734  47.544  1.00  0.00    -0.000 C 
BRANCH  11  12
ATOM     12  C   UNL     1      33.485   6.989  46.658  1.00  0.00    -0.000 C 
BRANCH  12  13
ATOM     13  C   UNL     1      33.929   6.684  45.221  1.00  0.00    -0.003 C 
ATOM     14  C   UNL     1      34.223   7.969  44.451  1.00  0.00     0.004 C 
ENDBRANCH  12  13
ENDBRANCH  11  12
ENDBRANCH  10  11
ENDBRANCH   9  10
ENDBRANCH   1   9
TORSDOF 10
ENDMDL
