MODEL 1
REMARK VINA RESULT:    -2.434      0.000      0.000
REMARK INTER + INTRA:          -2.434
REMARK INTER:                  -2.434
REMARK INTRA:                   0.000
REMARK UNBOUND:                 0.000
REMARK SMILES CC(=O)[O-]
REMARK SMILES IDX 1 1 2 2 3 3 4 4
REMARK H PARENT
REMARK Flexibility Score: inf
ROOT
ATOM      1  C   UNL     1     -27.697 -35.049 -14.444  1.00  0.00     0.063 C 
ATOM      2  C   UNL     1     -27.945 -34.203 -13.241  1.00  0.00     0.038 C 
ATOM      3  O   UNL     1     -28.255 -32.990 -13.375  1.00  0.00    -0.550 OA
ATOM      4  O   UNL     1     -27.783 -34.736 -11.969  1.00  0.00    -0.550 OA
ENDROOT
TORSDOF 0
ENDMDL
MODEL 2
REMARK VINA RESULT:    -2.428     13.085     13.232
REMARK INTER + INTRA:          -2.428
REMARK INTER:                  -2.428
REMARK INTRA:                   0.000
REMARK UNBOUND:                 0.000
REMARK SMILES CC(=O)[O-]
REMARK SMILES IDX 1 1 2 2 3 3 4 4
REMARK H PARENT
REMARK Flexibility Score: inf
ROOT
ATOM      1  C   UNL     1     -38.631 -39.019 -17.841  1.00  0.00     0.063 C 
ATOM      2  C   UNL     1     -38.855 -40.344 -17.194  1.00  0.00     0.038 C 
ATOM      3  O   UNL     1     -39.090 -40.411 -15.959  1.00  0.00    -0.550 OA
ATOM      4  O   UNL     1     -38.753 -41.510 -17.941  1.00  0.00    -0.550 OA
ENDROOT
TORSDOF 0
ENDMDL
MODEL 3
REMARK VINA RESULT:    -2.413      0.104      1.621
REMARK INTER + INTRA:          -2.413
REMARK INTER:                  -2.413
REMARK INTRA:                   0.000
REMARK UNBOUND:                 0.000
REMARK SMILES CC(=O)[O-]
REMARK SMILES IDX 1 1 2 2 3 3 4 4
REMARK H PARENT
REMARK Flexibility Score: inf
ROOT
ATOM      1  C   UNL     1     -27.721 -35.066 -14.365  1.00  0.00     0.063 C 
ATOM      2  C   UNL     1     -27.948 -34.228 -13.151  1.00  0.00     0.038 C 
ATOM      3  O   UNL     1     -27.824 -34.733 -12.004  1.00  0.00    -0.550 OA
ATOM      4  O   UNL     1     -28.347 -32.906 -13.283  1.00  0.00    -0.550 OA
ENDROOT
TORSDOF 0
ENDMDL
MODEL 4
REMARK VINA RESULT:    -2.372      1.647      1.975
REMARK INTER + INTRA:          -2.372
REMARK INTER:                  -2.372
REMARK INTRA:                   0.000
REMARK UNBOUND:                 0.000
REMARK SMILES CC(=O)[O-]
REMARK SMILES IDX 1 1 2 2 3 3 4 4
REMARK H PARENT
REMARK Flexibility Score: inf
ROOT
ATOM      1  C   UNL     1     -27.671 -35.060 -14.469  1.00  0.00     0.063 C 
ATOM      2  C   UNL     1     -26.777 -35.161 -13.279  1.00  0.00     0.038 C 
ATOM      3  O   UNL     1     -27.084 -34.576 -12.207  1.00  0.00    -0.550 OA
ATOM      4  O   UNL     1     -25.577 -35.853 -13.367  1.00  0.00    -0.550 OA
ENDROOT
TORSDOF 0
ENDMDL
MODEL 5
REMARK VINA RESULT:    -2.312      1.510      1.777
REMARK INTER + INTRA:          -2.312
REMARK INTER:                  -2.312
REMARK INTRA:                   0.000
REMARK UNBOUND:                 0.000
REMARK SMILES CC(=O)[O-]
REMARK SMILES IDX 1 1 2 2 3 3 4 4
REMARK H PARENT
REMARK Flexibility Score: inf
ROOT
ATOM      1  C   UNL     1     -28.276 -32.856 -13.001  1.00  0.00     0.063 C 
ATOM      2  C   UNL     1     -27.972 -34.285 -12.698  1.00  0.00     0.038 C 
ATOM      3  O   UNL     1     -27.989 -35.143 -13.619  1.00  0.00    -0.550 OA
ATOM      4  O   UNL     1     -27.722 -34.681 -11.391  1.00  0.00    -0.550 OA
ENDROOT
TORSDOF 0
ENDMDL
MODEL 6
REMARK VINA RESULT:    -2.311      1.528      2.090
REMARK INTER + INTRA:          -2.311
REMARK INTER:                  -2.311
REMARK INTRA:                   0.000
REMARK UNBOUND:                 0.000
REMARK SMILES CC(=O)[O-]
REMARK SMILES IDX 1 1 2 2 3 3 4 4
REMARK H PARENT
REMARK Flexibility Score: inf
ROOT
ATOM      1  C   UNL     1     -28.267 -32.794 -12.984  1.00  0.00     0.063 C 
ATOM      2  C   UNL     1     -28.054 -34.241 -12.689  1.00  0.00     0.038 C 
ATOM      3  O   UNL     1     -27.928 -34.630 -11.498  1.00  0.00    -0.550 OA
ATOM      4  O   UNL     1     -27.939 -35.153 -13.728  1.00  0.00    -0.550 OA
ENDROOT
TORSDOF 0
ENDMDL
MODEL 7
REMARK VINA RESULT:    -2.289     15.532     15.937
REMARK INTER + INTRA:          -2.289
REMARK INTER:                  -2.289
REMARK INTRA:                   0.000
REMARK UNBOUND:                 0.000
REMARK SMILES CC(=O)[O-]
REMARK SMILES IDX 1 1 2 2 3 3 4 4
REMARK H PARENT
REMARK Flexibility Score: inf
ROOT
ATOM      1  C   UNL     1     -30.692 -47.569  -6.314  1.00  0.00     0.063 C 
ATOM      2  C   UNL     1     -29.438 -48.374  -6.252  1.00  0.00     0.038 C 
ATOM      3  O   UNL     1     -29.386 -49.504  -6.805  1.00  0.00    -0.550 OA
ATOM      4  O   UNL     1     -28.343 -47.904  -5.540  1.00  0.00    -0.550 OA
ENDROOT
TORSDOF 0
ENDMDL
MODEL 8
REMARK VINA RESULT:    -2.266     15.259     15.534
REMARK INTER + INTRA:          -2.266
REMARK INTER:                  -2.266
REMARK INTRA:                   0.000
REMARK UNBOUND:                 0.000
REMARK SMILES CC(=O)[O-]
REMARK SMILES IDX 1 1 2 2 3 3 4 4
REMARK H PARENT
REMARK Flexibility Score: inf
ROOT
ATOM      1  C   UNL     1     -29.020 -48.311  -5.731  1.00  0.00     0.063 C 
ATOM      2  C   UNL     1     -30.190 -47.933  -6.575  1.00  0.00     0.038 C 
ATOM      3  O   UNL     1     -31.059 -47.138  -6.130  1.00  0.00    -0.550 OA
ATOM      4  O   UNL     1     -30.353 -48.500  -7.832  1.00  0.00    -0.550 OA
ENDROOT
TORSDOF 0
ENDMDL
MODEL 9
REMARK VINA RESULT:    -2.165     15.391     15.681
REMARK INTER + INTRA:          -2.165
REMARK INTER:                  -2.165
REMARK INTRA:                   0.000
REMARK UNBOUND:                 0.000
REMARK SMILES CC(=O)[O-]
REMARK SMILES IDX 1 1 2 2 3 3 4 4
REMARK H PARENT
REMARK Flexibility Score: inf
ROOT
ATOM      1  C   UNL     1     -29.762 -49.269  -7.491  1.00  0.00     0.063 C 
ATOM      2  C   UNL     1     -29.736 -48.214  -6.435  1.00  0.00     0.038 C 
ATOM      3  O   UNL     1     -30.656 -47.357  -6.377  1.00  0.00    -0.550 OA
ATOM      4  O   UNL     1     -28.670 -48.143  -5.550  1.00  0.00    -0.550 OA
ENDROOT
TORSDOF 0
ENDMDL
