MODEL 1
REMARK VINA RESULT:    -4.170      0.000      0.000
REMARK INTER + INTRA:          -8.041
REMARK INTER:                  -6.607
REMARK INTRA:                  -1.433
REMARK UNBOUND:                -1.433
REMARK SMILES CCCCCCCCCCCC(=O)[O-]
REMARK SMILES IDX 7 1 8 2 9 3 10 4 11 5 12 6 13 7 14 8 6 9 5 10 4 11 3 12 2 13
REMARK SMILES IDX 1 14
REMARK H PARENT
REMARK Flexibility Score: inf
ROOT
ATOM      1  C   UNL     1      16.849 -30.598  23.087  1.00  0.00     0.000 C 
ENDROOT
BRANCH   1   2
ATOM      2  C   UNL     1      16.890 -32.130  23.219  1.00  0.00     0.000 C 
BRANCH   2   3
ATOM      3  C   UNL     1      15.597 -32.714  23.820  1.00  0.00     0.000 C 
BRANCH   3   4
ATOM      4  C   UNL     1      15.071 -33.985  23.129  1.00  0.00     0.006 C 
BRANCH   4   5
ATOM      5  C   UNL     1      15.133 -33.904  21.599  1.00  0.00     0.053 C 
BRANCH   5   6
ATOM      6  C   UNL     1      15.978 -35.011  21.051  1.00  0.00     0.041 C 
ATOM      7  O   UNL     1      16.914 -35.496  21.741  1.00  0.00    -0.550 OA
ATOM      8  O   UNL     1      15.701 -35.541  19.798  1.00  0.00    -0.550 OA
ENDBRANCH   5   6
ENDBRANCH   4   5
ENDBRANCH   3   4
ENDBRANCH   2   3
ENDBRANCH   1   2
BRANCH   1   9
ATOM      9  C   UNL     1      16.361 -30.138  21.704  1.00  0.00     0.000 C 
BRANCH   9  10
ATOM     10  C   UNL     1      14.989 -29.447  21.759  1.00  0.00    -0.000 C 
BRANCH  10  11
ATOM     11  C   UNL     1      13.874 -30.408  21.318  1.00  0.00    -0.000 C 
BRANCH  11  12
ATOM     12  C   UNL     1      12.881 -30.723  22.448  1.00  0.00    -0.000 C 
BRANCH  12  13
ATOM     13  C   UNL     1      13.156 -29.910  23.721  1.00  0.00    -0.003 C 
ATOM     14  C   UNL     1      12.108 -28.817  23.913  1.00  0.00     0.004 C 
ENDBRANCH  12  13
ENDBRANCH  11  12
ENDBRANCH  10  11
ENDBRANCH   9  10
ENDBRANCH   1   9
TORSDOF 10
ENDMDL
MODEL 2
REMARK VINA RESULT:    -4.108      2.875      4.916
REMARK INTER + INTRA:          -7.943
REMARK INTER:                  -6.585
REMARK INTRA:                  -1.358
REMARK UNBOUND:                -1.433
REMARK SMILES CCCCCCCCCCCC(=O)[O-]
REMARK SMILES IDX 7 1 8 2 9 3 10 4 11 5 12 6 13 7 14 8 6 9 5 10 4 11 3 12 2 13
REMARK SMILES IDX 1 14
REMARK H PARENT
REMARK Flexibility Score: inf
ROOT
ATOM      1  C   UNL     1      16.539 -35.273  19.615  1.00  0.00     0.000 C 
ENDROOT
BRANCH   1   2
ATOM      2  C   UNL     1      15.154 -35.071  20.253  1.00  0.00     0.000 C 
BRANCH   2   3
ATOM      3  C   UNL     1      14.604 -33.647  20.053  1.00  0.00     0.000 C 
BRANCH   3   4
ATOM      4  C   UNL     1      14.218 -32.907  21.347  1.00  0.00     0.006 C 
BRANCH   4   5
ATOM      5  C   UNL     1      13.306 -31.699  21.096  1.00  0.00     0.053 C 
BRANCH   5   6
ATOM      6  C   UNL     1      12.850 -31.112  22.394  1.00  0.00     0.041 C 
ATOM      7  O   UNL     1      13.303 -31.551  23.483  1.00  0.00    -0.550 OA
ATOM      8  O   UNL     1      11.959 -30.045  22.399  1.00  0.00    -0.550 OA
ENDBRANCH   5   6
ENDBRANCH   4   5
ENDBRANCH   3   4
ENDBRANCH   2   3
ENDBRANCH   1   2
BRANCH   1   9
ATOM      9  C   UNL     1      17.278 -33.946  19.376  1.00  0.00     0.000 C 
BRANCH   9  10
ATOM     10  C   UNL     1      18.399 -33.700  20.399  1.00  0.00    -0.000 C 
BRANCH  10  11
ATOM     11  C   UNL     1      17.981 -32.635  21.424  1.00  0.00    -0.000 C 
BRANCH  11  12
ATOM     12  C   UNL     1      17.532 -31.321  20.765  1.00  0.00    -0.000 C 
BRANCH  12  13
ATOM     13  C   UNL     1      16.996 -30.302  21.781  1.00  0.00    -0.003 C 
ATOM     14  C   UNL     1      16.815 -30.940  23.156  1.00  0.00     0.004 C 
ENDBRANCH  12  13
ENDBRANCH  11  12
ENDBRANCH  10  11
ENDBRANCH   9  10
ENDBRANCH   1   9
TORSDOF 10
ENDMDL
MODEL 3
REMARK VINA RESULT:    -4.084      1.577      2.453
REMARK INTER + INTRA:          -7.905
REMARK INTER:                  -7.157
REMARK INTRA:                  -0.748
REMARK UNBOUND:                -1.433
REMARK SMILES CCCCCCCCCCCC(=O)[O-]
REMARK SMILES IDX 7 1 8 2 9 3 10 4 11 5 12 6 13 7 14 8 6 9 5 10 4 11 3 12 2 13
REMARK SMILES IDX 1 14
REMARK H PARENT
REMARK Flexibility Score: inf
ROOT
ATOM      1  C   UNL     1      13.504 -31.649  21.316  1.00  0.00     0.000 C 
ENDROOT
BRANCH   1   2
ATOM      2  C   UNL     1      14.245 -32.952  20.969  1.00  0.00     0.000 C 
BRANCH   2   3
ATOM      3  C   UNL     1      14.990 -33.557  22.173  1.00  0.00     0.000 C 
BRANCH   3   4
ATOM      4  C   UNL     1      16.252 -34.364  21.823  1.00  0.00     0.006 C 
BRANCH   4   5
ATOM      5  C   UNL     1      17.086 -33.719  20.709  1.00  0.00     0.053 C 
BRANCH   5   6
ATOM      6  C   UNL     1      17.194 -34.641  19.537  1.00  0.00     0.041 C 
ATOM      7  O   UNL     1      18.059 -34.434  18.645  1.00  0.00    -0.550 OA
ATOM      8  O   UNL     1      16.373 -35.758  19.453  1.00  0.00    -0.550 OA
ENDBRANCH   5   6
ENDBRANCH   4   5
ENDBRANCH   3   4
ENDBRANCH   2   3
ENDBRANCH   1   2
BRANCH   1   9
ATOM      9  C   UNL     1      14.409 -30.410  21.215  1.00  0.00     0.000 C 
BRANCH   9  10
ATOM     10  C   UNL     1      14.278 -29.479  22.430  1.00  0.00    -0.000 C 
BRANCH  10  11
ATOM     11  C   UNL     1      13.211 -29.999  23.406  1.00  0.00    -0.000 C 
BRANCH  11  12
ATOM     12  C   UNL     1      12.354 -28.871  24.003  1.00  0.00    -0.000 C 
BRANCH  12  13
ATOM     13  C   UNL     1      11.087 -28.591  23.180  1.00  0.00    -0.003 C 
ATOM     14  C   UNL     1      10.876 -27.091  22.990  1.00  0.00     0.004 C 
ENDBRANCH  12  13
ENDBRANCH  11  12
ENDBRANCH  10  11
ENDBRANCH   9  10
ENDBRANCH   1   9
TORSDOF 10
ENDMDL
MODEL 4
REMARK VINA RESULT:    -4.072      3.518      5.629
REMARK INTER + INTRA:          -7.885
REMARK INTER:                  -6.680
REMARK INTRA:                  -1.206
REMARK UNBOUND:                -1.433
REMARK SMILES CCCCCCCCCCCC(=O)[O-]
REMARK SMILES IDX 7 1 8 2 9 3 10 4 11 5 12 6 13 7 14 8 6 9 5 10 4 11 3 12 2 13
REMARK SMILES IDX 1 14
REMARK H PARENT
REMARK Flexibility Score: inf
ROOT
ATOM      1  C   UNL     1      13.852 -32.797  20.502  1.00  0.00     0.000 C 
ENDROOT
BRANCH   1   2
ATOM      2  C   UNL     1      13.317 -31.498  21.128  1.00  0.00     0.000 C 
BRANCH   2   3
ATOM      3  C   UNL     1      14.392 -30.400  21.240  1.00  0.00     0.000 C 
BRANCH   3   4
ATOM      4  C   UNL     1      14.396 -29.622  22.568  1.00  0.00     0.006 C 
BRANCH   4   5
ATOM      5  C   UNL     1      13.274 -30.055  23.519  1.00  0.00     0.053 C 
BRANCH   5   6
ATOM      6  C   UNL     1      12.387 -28.895  23.844  1.00  0.00     0.041 C 
ATOM      7  O   UNL     1      12.739 -28.050  24.708  1.00  0.00    -0.550 OA
ATOM      8  O   UNL     1      11.193 -28.720  23.156  1.00  0.00    -0.550 OA
ENDBRANCH   5   6
ENDBRANCH   4   5
ENDBRANCH   3   4
ENDBRANCH   2   3
ENDBRANCH   1   2
BRANCH   1   9
ATOM      9  C   UNL     1      15.271 -33.144  20.984  1.00  0.00     0.000 C 
BRANCH   9  10
ATOM     10  C   UNL     1      15.277 -34.212  22.089  1.00  0.00    -0.000 C 
BRANCH  10  11
ATOM     11  C   UNL     1      14.922 -33.594  23.450  1.00  0.00    -0.000 C 
BRANCH  11  12
ATOM     12  C   UNL     1      16.069 -33.704  24.469  1.00  0.00    -0.000 C 
BRANCH  12  13
ATOM     13  C   UNL     1      17.347 -32.992  24.000  1.00  0.00    -0.003 C 
ATOM     14  C   UNL     1      17.166 -31.477  24.009  1.00  0.00     0.004 C 
ENDBRANCH  12  13
ENDBRANCH  11  12
ENDBRANCH  10  11
ENDBRANCH   9  10
ENDBRANCH   1   9
TORSDOF 10
ENDMDL
MODEL 5
REMARK VINA RESULT:    -4.052      1.230      1.996
REMARK INTER + INTRA:          -7.854
REMARK INTER:                  -6.639
REMARK INTRA:                  -1.215
REMARK UNBOUND:                -1.433
REMARK SMILES CCCCCCCCCCCC(=O)[O-]
REMARK SMILES IDX 7 1 8 2 9 3 10 4 11 5 12 6 13 7 14 8 6 9 5 10 4 11 3 12 2 13
REMARK SMILES IDX 1 14
REMARK H PARENT
REMARK Flexibility Score: inf
ROOT
ATOM      1  C   UNL     1      16.600 -29.707  21.788  1.00  0.00     0.000 C 
ENDROOT
BRANCH   1   2
ATOM      2  C   UNL     1      16.885 -31.102  21.207  1.00  0.00     0.000 C 
BRANCH   2   3
ATOM      3  C   UNL     1      17.791 -31.956  22.114  1.00  0.00     0.000 C 
BRANCH   3   4
ATOM      4  C   UNL     1      17.319 -32.086  23.573  1.00  0.00     0.006 C 
BRANCH   4   5
ATOM      5  C   UNL     1      15.968 -32.802  23.704  1.00  0.00     0.053 C 
BRANCH   5   6
ATOM      6  C   UNL     1      16.003 -34.117  22.990  1.00  0.00     0.041 C 
ATOM      7  O   UNL     1      16.771 -35.033  23.384  1.00  0.00    -0.550 OA
ATOM      8  O   UNL     1      15.151 -34.347  21.917  1.00  0.00    -0.550 OA
ENDBRANCH   5   6
ENDBRANCH   4   5
ENDBRANCH   3   4
ENDBRANCH   2   3
ENDBRANCH   1   2
BRANCH   1   9
ATOM      9  C   UNL     1      15.122 -29.302  21.654  1.00  0.00     0.000 C 
BRANCH   9  10
ATOM     10  C   UNL     1      14.234 -30.456  21.163  1.00  0.00    -0.000 C 
BRANCH  10  11
ATOM     11  C   UNL     1      13.164 -30.806  22.208  1.00  0.00    -0.000 C 
BRANCH  11  12
ATOM     12  C   UNL     1      13.379 -30.077  23.545  1.00  0.00    -0.000 C 
BRANCH  12  13
ATOM     13  C   UNL     1      12.265 -29.065  23.852  1.00  0.00    -0.003 C 
ATOM     14  C   UNL     1      12.831 -27.655  23.999  1.00  0.00     0.004 C 
ENDBRANCH  12  13
ENDBRANCH  11  12
ENDBRANCH  10  11
ENDBRANCH   9  10
ENDBRANCH   1   9
TORSDOF 10
ENDMDL
MODEL 6
REMARK VINA RESULT:    -4.050      3.289      5.732
REMARK INTER + INTRA:          -7.851
REMARK INTER:                  -6.779
REMARK INTRA:                  -1.072
REMARK UNBOUND:                -1.433
REMARK SMILES CCCCCCCCCCCC(=O)[O-]
REMARK SMILES IDX 7 1 8 2 9 3 10 4 11 5 12 6 13 7 14 8 6 9 5 10 4 11 3 12 2 13
REMARK SMILES IDX 1 14
REMARK H PARENT
REMARK Flexibility Score: inf
ROOT
ATOM      1  C   UNL     1      14.603 -33.483  21.092  1.00  0.00     0.000 C 
ENDROOT
BRANCH   1   2
ATOM      2  C   UNL     1      15.166 -33.858  22.474  1.00  0.00     0.000 C 
BRANCH   2   3
ATOM      3  C   UNL     1      14.686 -32.914  23.592  1.00  0.00     0.000 C 
BRANCH   3   4
ATOM      4  C   UNL     1      15.004 -31.424  23.373  1.00  0.00     0.006 C 
BRANCH   4   5
ATOM      5  C   UNL     1      13.747 -30.553  23.268  1.00  0.00     0.053 C 
BRANCH   5   6
ATOM      6  C   UNL     1      14.100 -29.182  22.782  1.00  0.00     0.041 C 
ATOM      7  O   UNL     1      13.753 -28.167  23.441  1.00  0.00    -0.550 OA
ATOM      8  O   UNL     1      14.857 -29.028  21.628  1.00  0.00    -0.550 OA
ENDBRANCH   5   6
ENDBRANCH   4   5
ENDBRANCH   3   4
ENDBRANCH   2   3
ENDBRANCH   1   2
BRANCH   1   9
ATOM      9  C   UNL     1      14.927 -34.534  20.018  1.00  0.00     0.000 C 
BRANCH   9  10
ATOM     10  C   UNL     1      16.112 -35.432  20.406  1.00  0.00    -0.000 C 
BRANCH  10  11
ATOM     11  C   UNL     1      17.173 -35.449  19.295  1.00  0.00    -0.000 C 
BRANCH  11  12
ATOM     12  C   UNL     1      17.930 -34.116  19.178  1.00  0.00    -0.000 C 
BRANCH  12  13
ATOM     13  C   UNL     1      18.430 -33.598  20.535  1.00  0.00    -0.003 C 
ATOM     14  C   UNL     1      18.037 -32.139  20.744  1.00  0.00     0.004 C 
ENDBRANCH  12  13
ENDBRANCH  11  12
ENDBRANCH  10  11
ENDBRANCH   9  10
ENDBRANCH   1   9
TORSDOF 10
ENDMDL
MODEL 7
REMARK VINA RESULT:    -4.041      2.371      3.194
REMARK INTER + INTRA:          -7.836
REMARK INTER:                  -7.256
REMARK INTRA:                  -0.580
REMARK UNBOUND:                -1.433
REMARK SMILES CCCCCCCCCCCC(=O)[O-]
REMARK SMILES IDX 7 1 8 2 9 3 10 4 11 5 12 6 13 7 14 8 6 9 5 10 4 11 3 12 2 13
REMARK SMILES IDX 1 14
REMARK H PARENT
REMARK Flexibility Score: inf
ROOT
ATOM      1  C   UNL     1      14.259 -33.067  20.915  1.00  0.00     0.000 C 
ENDROOT
BRANCH   1   2
ATOM      2  C   UNL     1      14.601 -34.032  19.766  1.00  0.00     0.000 C 
BRANCH   2   3
ATOM      3  C   UNL     1      15.560 -35.158  20.194  1.00  0.00     0.000 C 
BRANCH   3   4
ATOM      4  C   UNL     1      16.813 -35.319  19.315  1.00  0.00     0.006 C 
BRANCH   4   5
ATOM      5  C   UNL     1      17.677 -34.053  19.266  1.00  0.00     0.053 C 
BRANCH   5   6
ATOM      6  C   UNL     1      18.219 -33.737  20.624  1.00  0.00     0.041 C 
ATOM      7  O   UNL     1      19.122 -34.454  21.129  1.00  0.00    -0.550 OA
ATOM      8  O   UNL     1      17.760 -32.621  21.313  1.00  0.00    -0.550 OA
ENDBRANCH   5   6
ENDBRANCH   4   5
ENDBRANCH   3   4
ENDBRANCH   2   3
ENDBRANCH   1   2
BRANCH   1   9
ATOM      9  C   UNL     1      13.352 -31.910  20.463  1.00  0.00     0.000 C 
BRANCH   9  10
ATOM     10  C   UNL     1      13.540 -30.644  21.313  1.00  0.00    -0.000 C 
BRANCH  10  11
ATOM     11  C   UNL     1      12.558 -30.626  22.494  1.00  0.00    -0.000 C 
BRANCH  11  12
ATOM     12  C   UNL     1      13.183 -30.053  23.777  1.00  0.00    -0.000 C 
BRANCH  12  13
ATOM     13  C   UNL     1      12.750 -28.605  24.050  1.00  0.00    -0.003 C 
ATOM     14  C   UNL     1      11.342 -28.344  23.522  1.00  0.00     0.004 C 
ENDBRANCH  12  13
ENDBRANCH  11  12
ENDBRANCH  10  11
ENDBRANCH   9  10
ENDBRANCH   1   9
TORSDOF 10
ENDMDL
MODEL 8
REMARK VINA RESULT:    -4.022      2.743      5.500
REMARK INTER + INTRA:          -7.807
REMARK INTER:                  -6.529
REMARK INTRA:                  -1.277
REMARK UNBOUND:                -1.433
REMARK SMILES CCCCCCCCCCCC(=O)[O-]
REMARK SMILES IDX 7 1 8 2 9 3 10 4 11 5 12 6 13 7 14 8 6 9 5 10 4 11 3 12 2 13
REMARK SMILES IDX 1 14
REMARK H PARENT
REMARK Flexibility Score: inf
ROOT
ATOM      1  C   UNL     1      16.131 -32.783  22.873  1.00  0.00     0.000 C 
ENDROOT
BRANCH   1   2
ATOM      2  C   UNL     1      17.116 -32.092  21.914  1.00  0.00     0.000 C 
BRANCH   2   3
ATOM      3  C   UNL     1      16.704 -30.648  21.570  1.00  0.00     0.000 C 
BRANCH   3   4
ATOM      4  C   UNL     1      15.596 -30.055  22.459  1.00  0.00     0.006 C 
BRANCH   4   5
ATOM      5  C   UNL     1      14.247 -29.941  21.738  1.00  0.00     0.053 C 
BRANCH   5   6
ATOM      6  C   UNL     1      13.150 -30.489  22.595  1.00  0.00     0.041 C 
ATOM      7  O   UNL     1      12.030 -30.768  22.090  1.00  0.00    -0.550 OA
ATOM      8  O   UNL     1      13.379 -30.736  23.942  1.00  0.00    -0.550 OA
ENDBRANCH   5   6
ENDBRANCH   4   5
ENDBRANCH   3   4
ENDBRANCH   2   3
ENDBRANCH   1   2
BRANCH   1   9
ATOM      9  C   UNL     1      15.432 -33.992  22.230  1.00  0.00     0.000 C 
BRANCH   9  10
ATOM     10  C   UNL     1      14.611 -33.612  20.988  1.00  0.00    -0.000 C 
BRANCH  10  11
ATOM     11  C   UNL     1      15.141 -34.333  19.739  1.00  0.00    -0.000 C 
BRANCH  11  12
ATOM     12  C   UNL     1      15.925 -35.610  20.080  1.00  0.00    -0.000 C 
BRANCH  12  13
ATOM     13  C   UNL     1      17.230 -35.735  19.279  1.00  0.00    -0.003 C 
ATOM     14  C   UNL     1      17.832 -34.363  18.993  1.00  0.00     0.004 C 
ENDBRANCH  12  13
ENDBRANCH  11  12
ENDBRANCH  10  11
ENDBRANCH   9  10
ENDBRANCH   1   9
TORSDOF 10
ENDMDL
MODEL 9
REMARK VINA RESULT:    -4.013      1.214      2.946
REMARK INTER + INTRA:          -7.793
REMARK INTER:                  -6.600
REMARK INTRA:                  -1.193
REMARK UNBOUND:                -1.433
REMARK SMILES CCCCCCCCCCCC(=O)[O-]
REMARK SMILES IDX 7 1 8 2 9 3 10 4 11 5 12 6 13 7 14 8 6 9 5 10 4 11 3 12 2 13
REMARK SMILES IDX 1 14
REMARK H PARENT
REMARK Flexibility Score: inf
ROOT
ATOM      1  C   UNL     1      13.485 -32.419  23.999  1.00  0.00     0.000 C 
ENDROOT
BRANCH   1   2
ATOM      2  C   UNL     1      14.739 -33.214  23.596  1.00  0.00     0.000 C 
BRANCH   2   3
ATOM      3  C   UNL     1      14.727 -33.644  22.118  1.00  0.00     0.000 C 
BRANCH   3   4
ATOM      4  C   UNL     1      15.996 -34.368  21.637  1.00  0.00     0.006 C 
BRANCH   4   5
ATOM      5  C   UNL     1      15.783 -35.148  20.333  1.00  0.00     0.053 C 
BRANCH   5   6
ATOM      6  C   UNL     1      16.980 -35.993  20.028  1.00  0.00     0.041 C 
ATOM      7  O   UNL     1      17.672 -35.765  19.000  1.00  0.00    -0.550 OA
ATOM      8  O   UNL     1      17.360 -37.001  20.904  1.00  0.00    -0.550 OA
ENDBRANCH   5   6
ENDBRANCH   4   5
ENDBRANCH   3   4
ENDBRANCH   2   3
ENDBRANCH   1   2
BRANCH   1   9
ATOM      9  C   UNL     1      13.126 -31.327  22.977  1.00  0.00     0.000 C 
BRANCH   9  10
ATOM     10  C   UNL     1      13.346 -29.908  23.524  1.00  0.00    -0.000 C 
BRANCH  10  11
ATOM     11  C   UNL     1      14.482 -29.201  22.770  1.00  0.00    -0.000 C 
BRANCH  11  12
ATOM     12  C   UNL     1      14.971 -29.999  21.549  1.00  0.00    -0.000 C 
BRANCH  12  13
ATOM     13  C   UNL     1      16.470 -30.325  21.617  1.00  0.00    -0.003 C 
ATOM     14  C   UNL     1      16.929 -30.500  23.062  1.00  0.00     0.004 C 
ENDBRANCH  12  13
ENDBRANCH  11  12
ENDBRANCH  10  11
ENDBRANCH   9  10
ENDBRANCH   1   9
TORSDOF 10
ENDMDL
