MODEL 1
REMARK VINA RESULT:    12.536      0.000      0.000
REMARK INTER + INTRA:          23.107
REMARK INTER:                  23.529
REMARK INTRA:                  -0.422
REMARK UNBOUND:                -0.422
REMARK SMILES CCCCCCCCC=CCCCCCCCC(=O)[O-]
REMARK SMILES IDX 10 1 9 2 11 3 12 4 13 5 14 6 15 7 16 8 17 9 18 10 19 11
REMARK SMILES IDX 20 12 8 13 7 14 6 15 5 16 4 17 3 18 2 19 1 20
REMARK H PARENT
REMARK Flexibility Score: inf
ROOT
ATOM      1  C   UNL     1      78.747   3.847  62.923  1.00  0.00    -0.031 C 
ATOM      2  C   UNL     1      78.313   2.667  62.441  1.00  0.00    -0.031 C 
ENDROOT
BRANCH   1   3
ATOM      3  C   UNL     1      78.031   4.656  63.974  1.00  0.00     0.027 C 
BRANCH   3   4
ATOM      4  C   UNL     1      78.880   5.863  64.399  1.00  0.00     0.004 C 
BRANCH   4   5
ATOM      5  C   UNL     1      78.042   7.137  64.606  1.00  0.00     0.000 C 
BRANCH   5   6
ATOM      6  C   UNL     1      78.061   7.704  66.040  1.00  0.00     0.000 C 
BRANCH   6   7
ATOM      7  C   UNL     1      77.264   9.006  66.238  1.00  0.00     0.000 C 
BRANCH   7   8
ATOM      8  C   UNL     1      78.165  10.240  66.393  1.00  0.00     0.006 C 
BRANCH   8   9
ATOM      9  C   UNL     1      79.379   9.924  67.273  1.00  0.00     0.053 C 
BRANCH   9  10
ATOM     10  C   UNL     1      80.624  10.497  66.675  1.00  0.00     0.041 C 
ATOM     11  O   UNL     1      81.584  10.836  67.414  1.00  0.00    -0.550 OA
ATOM     12  O   UNL     1      80.704  10.701  65.302  1.00  0.00    -0.550 OA
ENDBRANCH   9  10
ENDBRANCH   8   9
ENDBRANCH   7   8
ENDBRANCH   6   7
ENDBRANCH   5   6
ENDBRANCH   4   5
ENDBRANCH   3   4
ENDBRANCH   1   3
BRANCH   2  13
ATOM     13  C   UNL     1      77.003   2.018  62.814  1.00  0.00     0.027 C 
BRANCH  13  14
ATOM     14  C   UNL     1      77.211   0.789  63.716  1.00  0.00     0.004 C 
BRANCH  14  15
ATOM     15  C   UNL     1      78.672   0.626  64.193  1.00  0.00     0.000 C 
BRANCH  15  16
ATOM     16  C   UNL     1      78.887  -0.587  65.112  1.00  0.00     0.000 C 
BRANCH  16  17
ATOM     17  C   UNL     1      79.391  -0.193  66.509  1.00  0.00    -0.000 C 
BRANCH  17  18
ATOM     18  C   UNL     1      80.266  -1.279  67.157  1.00  0.00    -0.000 C 
BRANCH  18  19
ATOM     19  C   UNL     1      79.456  -2.444  67.765  1.00  0.00    -0.003 C 
ATOM     20  C   UNL     1      77.947  -2.215  67.672  1.00  0.00     0.004 C 
ENDBRANCH  18  19
ENDBRANCH  17  18
ENDBRANCH  16  17
ENDBRANCH  15  16
ENDBRANCH  14  15
ENDBRANCH  13  14
ENDBRANCH   2  13
TORSDOF 15
ENDMDL
MODEL 2
REMARK VINA RESULT:    12.683      1.436      2.338
REMARK INTER + INTRA:          23.383
REMARK INTER:                  21.469
REMARK INTRA:                   1.914
REMARK UNBOUND:                -0.422
REMARK SMILES CCCCCCCCC=CCCCCCCCC(=O)[O-]
REMARK SMILES IDX 10 1 9 2 11 3 12 4 13 5 14 6 15 7 16 8 17 9 18 10 19 11
REMARK SMILES IDX 20 12 8 13 7 14 6 15 5 16 4 17 3 18 2 19 1 20
REMARK H PARENT
REMARK Flexibility Score: inf
ROOT
ATOM      1  C   UNL     1      76.919   2.408  61.965  1.00  0.00    -0.031 C 
ATOM      2  C   UNL     1      77.745   1.354  62.097  1.00  0.00    -0.031 C 
ENDROOT
BRANCH   1   3
ATOM      3  C   UNL     1      77.036   3.689  62.751  1.00  0.00     0.027 C 
BRANCH   3   4
ATOM      4  C   UNL     1      78.052   3.534  63.891  1.00  0.00     0.004 C 
BRANCH   4   5
ATOM      5  C   UNL     1      78.756   4.855  64.245  1.00  0.00     0.000 C 
BRANCH   5   6
ATOM      6  C   UNL     1      77.926   6.128  63.980  1.00  0.00     0.000 C 
BRANCH   6   7
ATOM      7  C   UNL     1      78.440   7.401  64.677  1.00  0.00     0.000 C 
BRANCH   7   8
ATOM      8  C   UNL     1      77.834   7.601  66.074  1.00  0.00     0.006 C 
BRANCH   8   9
ATOM      9  C   UNL     1      76.899   8.814  66.098  1.00  0.00     0.053 C 
BRANCH   9  10
ATOM     10  C   UNL     1      77.558   9.971  66.779  1.00  0.00     0.041 C 
ATOM     11  O   UNL     1      76.987  11.092  66.816  1.00  0.00    -0.550 OA
ATOM     12  O   UNL     1      78.825   9.823  67.329  1.00  0.00    -0.550 OA
ENDBRANCH   9  10
ENDBRANCH   8   9
ENDBRANCH   7   8
ENDBRANCH   6   7
ENDBRANCH   5   6
ENDBRANCH   4   5
ENDBRANCH   3   4
ENDBRANCH   1   3
BRANCH   2  13
ATOM     13  C   UNL     1      78.859   1.258  63.110  1.00  0.00     0.027 C 
BRANCH  13  14
ATOM     14  C   UNL     1      78.434   0.455  64.352  1.00  0.00     0.004 C 
BRANCH  14  15
ATOM     15  C   UNL     1      79.615  -0.252  65.053  1.00  0.00     0.000 C 
BRANCH  15  16
ATOM     16  C   UNL     1      79.381  -0.500  66.552  1.00  0.00     0.000 C 
BRANCH  16  17
ATOM     17  C   UNL     1      80.600  -1.121  67.250  1.00  0.00    -0.000 C 
BRANCH  17  18
ATOM     18  C   UNL     1      80.214  -2.136  68.338  1.00  0.00    -0.000 C 
BRANCH  18  19
ATOM     19  C   UNL     1      79.023  -3.037  67.948  1.00  0.00    -0.003 C 
ATOM     20  C   UNL     1      77.778  -2.229  67.576  1.00  0.00     0.004 C 
ENDBRANCH  18  19
ENDBRANCH  17  18
ENDBRANCH  16  17
ENDBRANCH  15  16
ENDBRANCH  14  15
ENDBRANCH  13  14
ENDBRANCH   2  13
TORSDOF 15
ENDMDL
MODEL 3
REMARK VINA RESULT:    12.947      4.313      9.228
REMARK INTER + INTRA:          23.877
REMARK INTER:                  24.037
REMARK INTRA:                  -0.159
REMARK UNBOUND:                -0.422
REMARK SMILES CCCCCCCCC=CCCCCCCCC(=O)[O-]
REMARK SMILES IDX 10 1 9 2 11 3 12 4 13 5 14 6 15 7 16 8 17 9 18 10 19 11
REMARK SMILES IDX 20 12 8 13 7 14 6 15 5 16 4 17 3 18 2 19 1 20
REMARK H PARENT
REMARK Flexibility Score: inf
ROOT
ATOM      1  C   UNL     1      77.631   1.122  61.995  1.00  0.00    -0.031 C 
ATOM      2  C   UNL     1      77.395   2.442  61.875  1.00  0.00    -0.031 C 
ENDROOT
BRANCH   1   3
ATOM      3  C   UNL     1      77.531   0.350  63.286  1.00  0.00     0.027 C 
BRANCH   3   4
ATOM      4  C   UNL     1      78.752   0.623  64.175  1.00  0.00     0.004 C 
BRANCH   4   5
ATOM      5  C   UNL     1      78.904  -0.405  65.310  1.00  0.00     0.000 C 
BRANCH   5   6
ATOM      6  C   UNL     1      80.186  -0.258  66.156  1.00  0.00     0.000 C 
BRANCH   6   7
ATOM      7  C   UNL     1      80.808  -1.582  66.634  1.00  0.00     0.000 C 
BRANCH   7   8
ATOM      8  C   UNL     1      80.461  -1.912  68.094  1.00  0.00     0.006 C 
BRANCH   8   9
ATOM      9  C   UNL     1      79.363  -2.978  68.168  1.00  0.00     0.053 C 
BRANCH   9  10
ATOM     10  C   UNL     1      78.036  -2.391  67.805  1.00  0.00     0.041 C 
ATOM     11  O   UNL     1      77.189  -3.079  67.178  1.00  0.00    -0.550 OA
ATOM     12  O   UNL     1      77.754  -1.066  68.116  1.00  0.00    -0.550 OA
ENDBRANCH   9  10
ENDBRANCH   8   9
ENDBRANCH   7   8
ENDBRANCH   6   7
ENDBRANCH   5   6
ENDBRANCH   4   5
ENDBRANCH   3   4
ENDBRANCH   1   3
BRANCH   2  13
ATOM     13  C   UNL     1      77.082   3.366  63.028  1.00  0.00     0.027 C 
BRANCH  13  14
ATOM     14  C   UNL     1      77.964   4.626  63.005  1.00  0.00     0.004 C 
BRANCH  14  15
ATOM     15  C   UNL     1      78.517   5.006  64.396  1.00  0.00     0.000 C 
BRANCH  15  16
ATOM     16  C   UNL     1      79.075   6.437  64.466  1.00  0.00     0.000 C 
BRANCH  16  17
ATOM     17  C   UNL     1      77.983   7.492  64.699  1.00  0.00    -0.000 C 
BRANCH  17  18
ATOM     18  C   UNL     1      77.589   7.628  66.179  1.00  0.00    -0.000 C 
BRANCH  18  19
ATOM     19  C   UNL     1      77.083   9.036  66.556  1.00  0.00    -0.003 C 
ATOM     20  C   UNL     1      78.213  10.064  66.621  1.00  0.00     0.004 C 
ENDBRANCH  18  19
ENDBRANCH  17  18
ENDBRANCH  16  17
ENDBRANCH  15  16
ENDBRANCH  14  15
ENDBRANCH  13  14
ENDBRANCH   2  13
TORSDOF 15
ENDMDL
MODEL 4
REMARK VINA RESULT:    12.994      4.583      9.196
REMARK INTER + INTRA:          23.967
REMARK INTER:                  23.435
REMARK INTRA:                   0.532
REMARK UNBOUND:                -0.422
REMARK SMILES CCCCCCCCC=CCCCCCCCC(=O)[O-]
REMARK SMILES IDX 10 1 9 2 11 3 12 4 13 5 14 6 15 7 16 8 17 9 18 10 19 11
REMARK SMILES IDX 20 12 8 13 7 14 6 15 5 16 4 17 3 18 2 19 1 20
REMARK H PARENT
REMARK Flexibility Score: inf
ROOT
ATOM      1  C   UNL     1      76.875   2.481  62.129  1.00  0.00    -0.031 C 
ATOM      2  C   UNL     1      77.178   3.666  62.692  1.00  0.00    -0.031 C 
ENDROOT
BRANCH   1   3
ATOM      3  C   UNL     1      77.821   1.312  62.037  1.00  0.00     0.027 C 
BRANCH   3   4
ATOM      4  C   UNL     1      79.279   1.786  62.128  1.00  0.00     0.004 C 
BRANCH   4   5
ATOM      5  C   UNL     1      79.991   1.281  63.395  1.00  0.00     0.000 C 
BRANCH   5   6
ATOM      6  C   UNL     1      79.063   0.668  64.464  1.00  0.00     0.000 C 
BRANCH   6   7
ATOM      7  C   UNL     1      79.610  -0.593  65.156  1.00  0.00     0.000 C 
BRANCH   7   8
ATOM      8  C   UNL     1      79.893  -0.378  66.651  1.00  0.00     0.006 C 
BRANCH   8   9
ATOM      9  C   UNL     1      80.403  -1.667  67.303  1.00  0.00     0.053 C 
BRANCH   9  10
ATOM     10  C   UNL     1      79.320  -2.312  68.108  1.00  0.00     0.041 C 
ATOM     11  O   UNL     1      79.570  -2.771  69.253  1.00  0.00    -0.550 OA
ATOM     12  O   UNL     1      78.045  -2.449  67.572  1.00  0.00    -0.550 OA
ENDBRANCH   9  10
ENDBRANCH   8   9
ENDBRANCH   7   8
ENDBRANCH   6   7
ENDBRANCH   5   6
ENDBRANCH   4   5
ENDBRANCH   3   4
ENDBRANCH   1   3
BRANCH   2  13
ATOM     13  C   UNL     1      78.537   4.035  63.236  1.00  0.00     0.027 C 
BRANCH  13  14
ATOM     14  C   UNL     1      78.435   5.057  64.381  1.00  0.00     0.004 C 
BRANCH  14  15
ATOM     15  C   UNL     1      78.882   6.477  63.969  1.00  0.00     0.000 C 
BRANCH  15  16
ATOM     16  C   UNL     1      80.346   6.788  64.322  1.00  0.00     0.000 C 
BRANCH  16  17
ATOM     17  C   UNL     1      80.914   7.968  63.520  1.00  0.00    -0.000 C 
BRANCH  17  18
ATOM     18  C   UNL     1      81.776   8.912  64.375  1.00  0.00    -0.000 C 
BRANCH  18  19
ATOM     19  C   UNL     1      81.091  10.259  64.689  1.00  0.00    -0.003 C 
ATOM     20  C   UNL     1      81.029  10.546  66.190  1.00  0.00     0.004 C 
ENDBRANCH  18  19
ENDBRANCH  17  18
ENDBRANCH  16  17
ENDBRANCH  15  16
ENDBRANCH  14  15
ENDBRANCH  13  14
ENDBRANCH   2  13
TORSDOF 15
ENDMDL
MODEL 5
REMARK VINA RESULT:    13.587      1.592      2.196
REMARK INTER + INTRA:          25.079
REMARK INTER:                  25.769
REMARK INTRA:                  -0.690
REMARK UNBOUND:                -0.422
REMARK SMILES CCCCCCCCC=CCCCCCCCC(=O)[O-]
REMARK SMILES IDX 10 1 9 2 11 3 12 4 13 5 14 6 15 7 16 8 17 9 18 10 19 11
REMARK SMILES IDX 20 12 8 13 7 14 6 15 5 16 4 17 3 18 2 19 1 20
REMARK H PARENT
REMARK Flexibility Score: inf
ROOT
ATOM      1  C   UNL     1      77.625   2.765  61.880  1.00  0.00    -0.031 C 
ATOM      2  C   UNL     1      77.805   1.439  62.035  1.00  0.00    -0.031 C 
ENDROOT
BRANCH   1   3
ATOM      3  C   UNL     1      77.375   3.731  63.009  1.00  0.00     0.027 C 
BRANCH   3   4
ATOM      4  C   UNL     1      78.661   4.490  63.367  1.00  0.00     0.004 C 
BRANCH   4   5
ATOM      5  C   UNL     1      78.457   5.503  64.508  1.00  0.00     0.000 C 
BRANCH   5   6
ATOM      6  C   UNL     1      79.038   6.908  64.244  1.00  0.00     0.000 C 
BRANCH   6   7
ATOM      7  C   UNL     1      80.510   6.931  63.795  1.00  0.00     0.000 C 
BRANCH   7   8
ATOM      8  C   UNL     1      81.038   8.354  63.558  1.00  0.00     0.006 C 
BRANCH   8   9
ATOM      9  C   UNL     1      81.739   8.893  64.808  1.00  0.00     0.053 C 
BRANCH   9  10
ATOM     10  C   UNL     1      81.260  10.275  65.123  1.00  0.00     0.041 C 
ATOM     11  O   UNL     1      81.199  10.667  66.318  1.00  0.00    -0.550 OA
ATOM     12  O   UNL     1      80.835  11.113  64.100  1.00  0.00    -0.550 OA
ENDBRANCH   9  10
ENDBRANCH   8   9
ENDBRANCH   7   8
ENDBRANCH   6   7
ENDBRANCH   5   6
ENDBRANCH   4   5
ENDBRANCH   3   4
ENDBRANCH   1   3
BRANCH   2  13
ATOM     13  C   UNL     1      77.696   0.707  63.351  1.00  0.00     0.027 C 
BRANCH  13  14
ATOM     14  C   UNL     1      79.052   0.627  64.073  1.00  0.00     0.004 C 
BRANCH  14  15
ATOM     15  C   UNL     1      78.974  -0.099  65.434  1.00  0.00     0.000 C 
BRANCH  15  16
ATOM     16  C   UNL     1      80.347  -0.512  65.990  1.00  0.00     0.000 C 
BRANCH  16  17
ATOM     17  C   UNL     1      80.305  -1.850  66.745  1.00  0.00    -0.000 C 
BRANCH  17  18
ATOM     18  C   UNL     1      79.785  -1.707  68.185  1.00  0.00    -0.000 C 
BRANCH  18  19
ATOM     19  C   UNL     1      78.250  -1.811  68.300  1.00  0.00    -0.003 C 
ATOM     20  C   UNL     1      77.648  -2.742  67.248  1.00  0.00     0.004 C 
ENDBRANCH  18  19
ENDBRANCH  17  18
ENDBRANCH  16  17
ENDBRANCH  15  16
ENDBRANCH  14  15
ENDBRANCH  13  14
ENDBRANCH   2  13
TORSDOF 15
ENDMDL
MODEL 6
REMARK VINA RESULT:    13.830      6.234      9.834
REMARK INTER + INTRA:          25.535
REMARK INTER:                  26.108
REMARK INTRA:                  -0.573
REMARK UNBOUND:                -0.422
REMARK SMILES CCCCCCCCC=CCCCCCCCC(=O)[O-]
REMARK SMILES IDX 10 1 9 2 11 3 12 4 13 5 14 6 15 7 16 8 17 9 18 10 19 11
REMARK SMILES IDX 20 12 8 13 7 14 6 15 5 16 4 17 3 18 2 19 1 20
REMARK H PARENT
REMARK Flexibility Score: inf
ROOT
ATOM      1  C   UNL     1      82.348  -2.387  67.583  1.00  0.00    -0.031 C 
ATOM      2  C   UNL     1      83.607  -2.751  67.888  1.00  0.00    -0.031 C 
ENDROOT
BRANCH   1   3
ATOM      3  C   UNL     1      81.212  -2.325  68.571  1.00  0.00     0.027 C 
BRANCH   3   4
ATOM      4  C   UNL     1      79.896  -1.977  67.862  1.00  0.00     0.004 C 
BRANCH   4   5
ATOM      5  C   UNL     1      80.087  -0.975  66.710  1.00  0.00     0.000 C 
BRANCH   5   6
ATOM      6  C   UNL     1      78.811  -0.661  65.901  1.00  0.00     0.000 C 
BRANCH   6   7
ATOM      7  C   UNL     1      78.993   0.363  64.766  1.00  0.00     0.000 C 
BRANCH   7   8
ATOM      8  C   UNL     1      77.962   0.194  63.640  1.00  0.00     0.006 C 
BRANCH   8   9
ATOM      9  C   UNL     1      77.185   1.494  63.410  1.00  0.00     0.053 C 
BRANCH   9  10
ATOM     10  C   UNL     1      78.060   2.521  62.765  1.00  0.00     0.041 C 
ATOM     11  O   UNL     1      78.938   2.173  61.933  1.00  0.00    -0.550 OA
ATOM     12  O   UNL     1      77.940   3.859  63.121  1.00  0.00    -0.550 OA
ENDBRANCH   9  10
ENDBRANCH   8   9
ENDBRANCH   7   8
ENDBRANCH   6   7
ENDBRANCH   5   6
ENDBRANCH   4   5
ENDBRANCH   3   4
ENDBRANCH   1   3
BRANCH   2  13
ATOM     13  C   UNL     1      84.054  -3.238  69.245  1.00  0.00     0.027 C 
BRANCH  13  14
ATOM     14  C   UNL     1      84.809  -4.575  69.152  1.00  0.00     0.004 C 
BRANCH  14  15
ATOM     15  C   UNL     1      86.323  -4.439  69.432  1.00  0.00     0.000 C 
BRANCH  15  16
ATOM     16  C   UNL     1      87.199  -4.642  68.185  1.00  0.00     0.000 C 
BRANCH  16  17
ATOM     17  C   UNL     1      88.245  -5.752  68.367  1.00  0.00    -0.000 C 
BRANCH  17  18
ATOM     18  C   UNL     1      88.512  -6.539  67.073  1.00  0.00    -0.000 C 
BRANCH  18  19
ATOM     19  C   UNL     1      89.419  -7.772  67.276  1.00  0.00    -0.003 C 
ATOM     20  C   UNL     1      88.691  -8.922  67.972  1.00  0.00     0.004 C 
ENDBRANCH  18  19
ENDBRANCH  17  18
ENDBRANCH  16  17
ENDBRANCH  15  16
ENDBRANCH  14  15
ENDBRANCH  13  14
ENDBRANCH   2  13
TORSDOF 15
ENDMDL
MODEL 7
REMARK VINA RESULT:    14.482      8.196     12.861
REMARK INTER + INTRA:          26.759
REMARK INTER:                  27.318
REMARK INTRA:                  -0.559
REMARK UNBOUND:                -0.422
REMARK SMILES CCCCCCCCC=CCCCCCCCC(=O)[O-]
REMARK SMILES IDX 10 1 9 2 11 3 12 4 13 5 14 6 15 7 16 8 17 9 18 10 19 11
REMARK SMILES IDX 20 12 8 13 7 14 6 15 5 16 4 17 3 18 2 19 1 20
REMARK H PARENT
REMARK Flexibility Score: inf
ROOT
ATOM      1  C   UNL     1      81.952  -2.328  69.087  1.00  0.00    -0.031 C 
ATOM      2  C   UNL     1      80.698  -1.989  68.734  1.00  0.00    -0.031 C 
ENDROOT
BRANCH   1   3
ATOM      3  C   UNL     1      83.000  -2.839  68.132  1.00  0.00     0.027 C 
BRANCH   3   4
ATOM      4  C   UNL     1      84.359  -2.962  68.836  1.00  0.00     0.004 C 
BRANCH   4   5
ATOM      5  C   UNL     1      84.803  -4.423  69.023  1.00  0.00     0.000 C 
BRANCH   5   6
ATOM      6  C   UNL     1      86.071  -4.825  68.240  1.00  0.00     0.000 C 
BRANCH   6   7
ATOM      7  C   UNL     1      87.347  -4.962  69.089  1.00  0.00     0.000 C 
BRANCH   7   8
ATOM      8  C   UNL     1      88.561  -5.426  68.271  1.00  0.00     0.006 C 
BRANCH   8   9
ATOM      9  C   UNL     1      88.150  -6.466  67.223  1.00  0.00     0.053 C 
BRANCH   9  10
ATOM     10  C   UNL     1      88.820  -7.775  67.494  1.00  0.00     0.041 C 
ATOM     11  O   UNL     1      88.414  -8.513  68.430  1.00  0.00    -0.550 OA
ATOM     12  O   UNL     1      89.924  -8.159  66.743  1.00  0.00    -0.550 OA
ENDBRANCH   9  10
ENDBRANCH   8   9
ENDBRANCH   7   8
ENDBRANCH   6   7
ENDBRANCH   5   6
ENDBRANCH   4   5
ENDBRANCH   3   4
ENDBRANCH   1   3
BRANCH   2  13
ATOM     13  C   UNL     1      80.123  -2.152  67.348  1.00  0.00     0.027 C 
BRANCH  13  14
ATOM     14  C   UNL     1      79.138  -1.022  67.003  1.00  0.00     0.004 C 
BRANCH  14  15
ATOM     15  C   UNL     1      79.512  -0.264  65.710  1.00  0.00     0.000 C 
BRANCH  15  16
ATOM     16  C   UNL     1      78.367  -0.194  64.685  1.00  0.00     0.000 C 
BRANCH  16  17
ATOM     17  C   UNL     1      78.398   1.091  63.845  1.00  0.00    -0.000 C 
BRANCH  17  18
ATOM     18  C   UNL     1      77.429   1.050  62.652  1.00  0.00    -0.000 C 
BRANCH  18  19
ATOM     19  C   UNL     1      76.924   2.442  62.217  1.00  0.00    -0.003 C 
ATOM     20  C   UNL     1      77.614   3.575  62.978  1.00  0.00     0.004 C 
ENDBRANCH  18  19
ENDBRANCH  17  18
ENDBRANCH  16  17
ENDBRANCH  15  16
ENDBRANCH  14  15
ENDBRANCH  13  14
ENDBRANCH   2  13
TORSDOF 15
ENDMDL
