MODEL 1
REMARK VINA RESULT:    -4.471      0.000      0.000
REMARK INTER + INTRA:          -7.166
REMARK INTER:                  -6.823
REMARK INTRA:                  -0.343
REMARK UNBOUND:                -0.343
REMARK SMILES CCCCCCCCCCC(=O)[O-]
REMARK SMILES IDX 7 1 8 2 9 3 10 4 11 5 12 6 13 7 6 8 5 9 4 10 3 11 2 12 1 13
REMARK H PARENT
REMARK Flexibility Score: inf
ROOT
ATOM      1  C   UNL     1      -8.101  -3.646 -14.050  1.00  0.00     0.000 C 
ENDROOT
BRANCH   1   2
ATOM      2  C   UNL     1      -8.495  -4.366 -15.353  1.00  0.00     0.000 C 
BRANCH   2   3
ATOM      3  C   UNL     1      -9.702  -3.723 -16.053  1.00  0.00     0.006 C 
BRANCH   3   4
ATOM      4  C   UNL     1     -10.778  -4.767 -16.362  1.00  0.00     0.053 C 
BRANCH   4   5
ATOM      5  C   UNL     1     -11.879  -4.699 -15.352  1.00  0.00     0.041 C 
ATOM      6  O   UNL     1     -11.778  -5.321 -14.262  1.00  0.00    -0.550 OA
ATOM      7  O   UNL     1     -13.039  -3.990 -15.636  1.00  0.00    -0.550 OA
ENDBRANCH   4   5
ENDBRANCH   3   4
ENDBRANCH   2   3
ENDBRANCH   1   2
BRANCH   1   8
ATOM      8  C   UNL     1      -6.888  -2.705 -14.166  1.00  0.00     0.000 C 
BRANCH   8   9
ATOM      9  C   UNL     1      -5.734  -3.310 -14.977  1.00  0.00    -0.000 C 
BRANCH   9  10
ATOM     10  C   UNL     1      -4.587  -2.301 -15.139  1.00  0.00    -0.000 C 
BRANCH  10  11
ATOM     11  C   UNL     1      -3.719  -2.598 -16.380  1.00  0.00    -0.000 C 
BRANCH  11  12
ATOM     12  C   UNL     1      -3.644  -1.426 -17.373  1.00  0.00    -0.003 C 
ATOM     13  C   UNL     1      -2.752  -1.715 -18.579  1.00  0.00     0.004 C 
ENDBRANCH  11  12
ENDBRANCH  10  11
ENDBRANCH   9  10
ENDBRANCH   8   9
ENDBRANCH   1   8
TORSDOF 9
ENDMDL
MODEL 2
REMARK VINA RESULT:    -4.374      5.535      7.686
REMARK INTER + INTRA:          -7.019
REMARK INTER:                  -6.622
REMARK INTRA:                  -0.396
REMARK UNBOUND:                -0.343
REMARK SMILES CCCCCCCCCCC(=O)[O-]
REMARK SMILES IDX 7 1 8 2 9 3 10 4 11 5 12 6 13 7 6 8 5 9 4 10 3 11 2 12 1 13
REMARK H PARENT
REMARK Flexibility Score: inf
ROOT
ATOM      1  C   UNL     1      -7.386  -2.001 -11.308  1.00  0.00     0.000 C 
ENDROOT
BRANCH   1   2
ATOM      2  C   UNL     1      -6.927  -0.596 -10.876  1.00  0.00     0.000 C 
BRANCH   2   3
ATOM      3  C   UNL     1      -6.536  -0.521  -9.393  1.00  0.00     0.006 C 
BRANCH   3   4
ATOM      4  C   UNL     1      -7.333   0.568  -8.670  1.00  0.00     0.053 C 
BRANCH   4   5
ATOM      5  C   UNL     1      -6.593   1.867  -8.700  1.00  0.00     0.041 C 
ATOM      6  O   UNL     1      -6.896   2.749  -9.546  1.00  0.00    -0.550 OA
ATOM      7  O   UNL     1      -5.534   2.084  -7.828  1.00  0.00    -0.550 OA
ENDBRANCH   4   5
ENDBRANCH   3   4
ENDBRANCH   2   3
ENDBRANCH   1   2
BRANCH   1   8
ATOM      8  C   UNL     1      -8.052  -2.073 -12.695  1.00  0.00     0.000 C 
BRANCH   8   9
ATOM      9  C   UNL     1      -7.129  -2.658 -13.774  1.00  0.00    -0.000 C 
BRANCH   9  10
ATOM     10  C   UNL     1      -7.920  -3.528 -14.761  1.00  0.00    -0.000 C 
BRANCH  10  11
ATOM     11  C   UNL     1      -9.297  -3.944 -14.199  1.00  0.00    -0.000 C 
BRANCH  11  12
ATOM     12  C   UNL     1     -10.362  -4.168 -15.286  1.00  0.00    -0.003 C 
ATOM     13  C   UNL     1     -10.072  -3.407 -16.579  1.00  0.00     0.004 C 
ENDBRANCH  11  12
ENDBRANCH  10  11
ENDBRANCH   9  10
ENDBRANCH   8   9
ENDBRANCH   1   8
TORSDOF 9
ENDMDL
MODEL 3
REMARK VINA RESULT:    -4.344      4.869      7.695
REMARK INTER + INTRA:          -6.973
REMARK INTER:                  -6.666
REMARK INTRA:                  -0.307
REMARK UNBOUND:                -0.343
REMARK SMILES CCCCCCCCCCC(=O)[O-]
REMARK SMILES IDX 7 1 8 2 9 3 10 4 11 5 12 6 13 7 6 8 5 9 4 10 3 11 2 12 1 13
REMARK H PARENT
REMARK Flexibility Score: inf
ROOT
ATOM      1  C   UNL     1      -4.701  -2.320 -15.087  1.00  0.00     0.000 C 
ENDROOT
BRANCH   1   2
ATOM      2  C   UNL     1      -3.675  -2.636 -16.191  1.00  0.00     0.000 C 
BRANCH   2   3
ATOM      3  C   UNL     1      -3.600  -1.546 -17.270  1.00  0.00     0.006 C 
BRANCH   3   4
ATOM      4  C   UNL     1      -3.115  -2.124 -18.602  1.00  0.00     0.053 C 
BRANCH   4   5
ATOM      5  C   UNL     1      -1.721  -1.669 -18.895  1.00  0.00     0.041 C 
ATOM      6  O   UNL     1      -1.155  -0.834 -18.141  1.00  0.00    -0.550 OA
ATOM      7  O   UNL     1      -1.063  -2.129 -20.028  1.00  0.00    -0.550 OA
ENDBRANCH   4   5
ENDBRANCH   3   4
ENDBRANCH   2   3
ENDBRANCH   1   2
BRANCH   1   8
ATOM      8  C   UNL     1      -5.855  -3.332 -14.960  1.00  0.00     0.000 C 
BRANCH   8   9
ATOM      9  C   UNL     1      -7.095  -2.745 -14.271  1.00  0.00    -0.000 C 
BRANCH   9  10
ATOM     10  C   UNL     1      -8.238  -3.770 -14.230  1.00  0.00    -0.000 C 
BRANCH  10  11
ATOM     11  C   UNL     1      -8.558  -4.344 -15.627  1.00  0.00    -0.000 C 
BRANCH  11  12
ATOM     12  C   UNL     1      -9.793  -3.707 -16.285  1.00  0.00    -0.003 C 
ATOM     13  C   UNL     1     -11.054  -4.559 -16.151  1.00  0.00     0.004 C 
ENDBRANCH  11  12
ENDBRANCH  10  11
ENDBRANCH   9  10
ENDBRANCH   8   9
ENDBRANCH   1   8
TORSDOF 9
ENDMDL
MODEL 4
REMARK VINA RESULT:    -4.324      4.392      5.815
REMARK INTER + INTRA:          -6.942
REMARK INTER:                  -6.568
REMARK INTRA:                  -0.373
REMARK UNBOUND:                -0.343
REMARK SMILES CCCCCCCCCCC(=O)[O-]
REMARK SMILES IDX 7 1 8 2 9 3 10 4 11 5 12 6 13 7 6 8 5 9 4 10 3 11 2 12 1 13
REMARK H PARENT
REMARK Flexibility Score: inf
ROOT
ATOM      1  C   UNL     1      -7.096  -2.661 -11.407  1.00  0.00     0.000 C 
ENDROOT
BRANCH   1   2
ATOM      2  C   UNL     1      -7.993  -2.008 -12.475  1.00  0.00     0.000 C 
BRANCH   2   3
ATOM      3  C   UNL     1      -7.815  -2.626 -13.869  1.00  0.00     0.006 C 
BRANCH   3   4
ATOM      4  C   UNL     1      -8.840  -3.737 -14.112  1.00  0.00     0.053 C 
BRANCH   4   5
ATOM      5  C   UNL     1      -8.927  -4.060 -15.570  1.00  0.00     0.041 C 
ATOM      6  O   UNL     1      -8.153  -4.913 -16.077  1.00  0.00    -0.550 OA
ATOM      7  O   UNL     1      -9.831  -3.383 -16.379  1.00  0.00    -0.550 OA
ENDBRANCH   4   5
ENDBRANCH   3   4
ENDBRANCH   2   3
ENDBRANCH   1   2
BRANCH   1   8
ATOM      8  C   UNL     1      -6.426  -1.680 -10.428  1.00  0.00     0.000 C 
BRANCH   8   9
ATOM      9  C   UNL     1      -6.913  -0.234 -10.600  1.00  0.00    -0.000 C 
BRANCH   9  10
ATOM     10  C   UNL     1      -7.162   0.428  -9.237  1.00  0.00    -0.000 C 
BRANCH  10  11
ATOM     11  C   UNL     1      -6.606   1.867  -9.176  1.00  0.00    -0.000 C 
BRANCH  11  12
ATOM     12  C   UNL     1      -6.547   2.561 -10.548  1.00  0.00    -0.003 C 
ATOM     13  C   UNL     1      -7.536   3.718 -10.679  1.00  0.00     0.004 C 
ENDBRANCH  11  12
ENDBRANCH  10  11
ENDBRANCH   9  10
ENDBRANCH   8   9
ENDBRANCH   1   8
TORSDOF 9
ENDMDL
MODEL 5
REMARK VINA RESULT:    -4.277      1.786      2.912
REMARK INTER + INTRA:          -6.870
REMARK INTER:                  -6.438
REMARK INTRA:                  -0.433
REMARK UNBOUND:                -0.343
REMARK SMILES CCCCCCCCCCC(=O)[O-]
REMARK SMILES IDX 7 1 8 2 9 3 10 4 11 5 12 6 13 7 6 8 5 9 4 10 3 11 2 12 1 13
REMARK H PARENT
REMARK Flexibility Score: inf
ROOT
ATOM      1  C   UNL     1      -5.070  -2.358 -13.965  1.00  0.00     0.000 C 
ENDROOT
BRANCH   1   2
ATOM      2  C   UNL     1      -6.167  -3.326 -14.446  1.00  0.00     0.000 C 
BRANCH   2   3
ATOM      3  C   UNL     1      -7.582  -2.745 -14.313  1.00  0.00     0.006 C 
BRANCH   3   4
ATOM      4  C   UNL     1      -8.638  -3.851 -14.378  1.00  0.00     0.053 C 
BRANCH   4   5
ATOM      5  C   UNL     1      -8.943  -4.203 -15.800  1.00  0.00     0.041 C 
ATOM      6  O   UNL     1      -8.395  -5.201 -16.337  1.00  0.00    -0.550 OA
ATOM      7  O   UNL     1      -9.793  -3.399 -16.548  1.00  0.00    -0.550 OA
ENDBRANCH   4   5
ENDBRANCH   3   4
ENDBRANCH   2   3
ENDBRANCH   1   2
BRANCH   1   8
ATOM      8  C   UNL     1      -3.799  -2.329 -14.834  1.00  0.00     0.000 C 
BRANCH   8   9
ATOM      9  C   UNL     1      -4.075  -2.638 -16.312  1.00  0.00    -0.000 C 
BRANCH   9  10
ATOM     10  C   UNL     1      -3.572  -1.502 -17.215  1.00  0.00    -0.000 C 
BRANCH  10  11
ATOM     11  C   UNL     1      -3.096  -2.016 -18.590  1.00  0.00    -0.000 C 
BRANCH  11  12
ATOM     12  C   UNL     1      -1.637  -1.651 -18.912  1.00  0.00    -0.003 C 
ATOM     13  C   UNL     1      -0.975  -0.806 -17.825  1.00  0.00     0.004 C 
ENDBRANCH  11  12
ENDBRANCH  10  11
ENDBRANCH   9  10
ENDBRANCH   8   9
ENDBRANCH   1   8
TORSDOF 9
ENDMDL
MODEL 6
REMARK VINA RESULT:    -4.270      5.549      7.057
REMARK INTER + INTRA:          -6.859
REMARK INTER:                  -6.133
REMARK INTRA:                  -0.726
REMARK UNBOUND:                -0.343
REMARK SMILES CCCCCCCCCCC(=O)[O-]
REMARK SMILES IDX 7 1 8 2 9 3 10 4 11 5 12 6 13 7 6 8 5 9 4 10 3 11 2 12 1 13
REMARK H PARENT
REMARK Flexibility Score: inf
ROOT
ATOM      1  C   UNL     1      -7.265  -1.962 -11.369  1.00  0.00     0.000 C 
ENDROOT
BRANCH   1   2
ATOM      2  C   UNL     1      -6.783  -0.581 -10.888  1.00  0.00     0.000 C 
BRANCH   2   3
ATOM      3  C   UNL     1      -6.535  -0.525  -9.373  1.00  0.00     0.006 C 
BRANCH   3   4
ATOM      4  C   UNL     1      -7.312   0.627  -8.731  1.00  0.00     0.053 C 
BRANCH   4   5
ATOM      5  C   UNL     1      -6.499   1.882  -8.747  1.00  0.00     0.041 C 
ATOM      6  O   UNL     1      -5.611   2.072  -7.874  1.00  0.00    -0.550 OA
ATOM      7  O   UNL     1      -6.753   2.864  -9.695  1.00  0.00    -0.550 OA
ENDBRANCH   4   5
ENDBRANCH   3   4
ENDBRANCH   2   3
ENDBRANCH   1   2
BRANCH   1   8
ATOM      8  C   UNL     1      -8.366  -1.931 -12.444  1.00  0.00     0.000 C 
BRANCH   8   9
ATOM      9  C   UNL     1      -8.000  -2.732 -13.702  1.00  0.00    -0.000 C 
BRANCH   9  10
ATOM     10  C   UNL     1      -6.608  -3.365 -13.565  1.00  0.00    -0.000 C 
BRANCH  10  11
ATOM     11  C   UNL     1      -5.803  -3.292 -14.880  1.00  0.00    -0.000 C 
BRANCH  11  12
ATOM     12  C   UNL     1      -4.690  -2.230 -14.862  1.00  0.00    -0.003 C 
ATOM     13  C   UNL     1      -4.220  -1.875 -13.452  1.00  0.00     0.004 C 
ENDBRANCH  11  12
ENDBRANCH  10  11
ENDBRANCH   9  10
ENDBRANCH   8   9
ENDBRANCH   1   8
TORSDOF 9
ENDMDL
MODEL 7
REMARK VINA RESULT:    -4.226      2.932      4.764
REMARK INTER + INTRA:          -6.792
REMARK INTER:                  -6.260
REMARK INTRA:                  -0.532
REMARK UNBOUND:                -0.343
REMARK SMILES CCCCCCCCCCC(=O)[O-]
REMARK SMILES IDX 7 1 8 2 9 3 10 4 11 5 12 6 13 7 6 8 5 9 4 10 3 11 2 12 1 13
REMARK H PARENT
REMARK Flexibility Score: inf
ROOT
ATOM      1  C   UNL     1      -7.271  -2.554 -13.919  1.00  0.00     0.000 C 
ENDROOT
BRANCH   1   2
ATOM      2  C   UNL     1      -7.882  -3.645 -14.818  1.00  0.00     0.000 C 
BRANCH   2   3
ATOM      3  C   UNL     1      -9.305  -4.042 -14.398  1.00  0.00     0.006 C 
BRANCH   3   4
ATOM      4  C   UNL     1     -10.279  -3.913 -15.572  1.00  0.00     0.053 C 
BRANCH   4   5
ATOM      5  C   UNL     1     -11.578  -4.583 -15.252  1.00  0.00     0.041 C 
ATOM      6  O   UNL     1     -12.639  -4.209 -15.817  1.00  0.00    -0.550 OA
ATOM      7  O   UNL     1     -11.625  -5.586 -14.293  1.00  0.00    -0.550 OA
ENDBRANCH   4   5
ENDBRANCH   3   4
ENDBRANCH   2   3
ENDBRANCH   1   2
BRANCH   1   8
ATOM      8  C   UNL     1      -8.164  -2.094 -12.752  1.00  0.00     0.000 C 
BRANCH   8   9
ATOM      9  C   UNL     1      -7.555  -2.394 -11.375  1.00  0.00    -0.000 C 
BRANCH   9  10
ATOM     10  C   UNL     1      -6.092  -1.932 -11.308  1.00  0.00    -0.000 C 
BRANCH  10  11
ATOM     11  C   UNL     1      -5.829  -1.002 -10.105  1.00  0.00    -0.000 C 
BRANCH  11  12
ATOM     12  C   UNL     1      -6.810   0.179 -10.015  1.00  0.00    -0.003 C 
ATOM     13  C   UNL     1      -7.409   0.359  -8.621  1.00  0.00     0.004 C 
ENDBRANCH  11  12
ENDBRANCH  10  11
ENDBRANCH   9  10
ENDBRANCH   8   9
ENDBRANCH   1   8
TORSDOF 9
ENDMDL
MODEL 8
REMARK VINA RESULT:    -4.180      4.798      7.247
REMARK INTER + INTRA:          -6.722
REMARK INTER:                  -6.301
REMARK INTRA:                  -0.422
REMARK UNBOUND:                -0.343
REMARK SMILES CCCCCCCCCCC(=O)[O-]
REMARK SMILES IDX 7 1 8 2 9 3 10 4 11 5 12 6 13 7 6 8 5 9 4 10 3 11 2 12 1 13
REMARK H PARENT
REMARK Flexibility Score: inf
ROOT
ATOM      1  C   UNL     1      -8.042  -2.133 -12.506  1.00  0.00     0.000 C 
ENDROOT
BRANCH   1   2
ATOM      2  C   UNL     1      -7.210  -2.807 -11.400  1.00  0.00     0.000 C 
BRANCH   2   3
ATOM      3  C   UNL     1      -6.566  -1.801 -10.434  1.00  0.00     0.006 C 
BRANCH   3   4
ATOM      4  C   UNL     1      -6.961  -0.366 -10.793  1.00  0.00     0.053 C 
BRANCH   4   5
ATOM      5  C   UNL     1      -6.928   0.506  -9.579  1.00  0.00     0.041 C 
ATOM      6  O   UNL     1      -7.484   0.131  -8.514  1.00  0.00    -0.550 OA
ATOM      7  O   UNL     1      -6.326   1.757  -9.638  1.00  0.00    -0.550 OA
ENDBRANCH   4   5
ENDBRANCH   3   4
ENDBRANCH   2   3
ENDBRANCH   1   2
BRANCH   1   8
ATOM      8  C   UNL     1      -7.734  -2.610 -13.937  1.00  0.00     0.000 C 
BRANCH   8   9
ATOM      9  C   UNL     1      -8.155  -4.065 -14.189  1.00  0.00    -0.000 C 
BRANCH   9  10
ATOM     10  C   UNL     1      -8.809  -4.217 -15.570  1.00  0.00    -0.000 C 
BRANCH  10  11
ATOM     11  C   UNL     1     -10.286  -3.767 -15.568  1.00  0.00    -0.000 C 
BRANCH  11  12
ATOM     12  C   UNL     1     -11.281  -4.927 -15.392  1.00  0.00    -0.003 C 
ATOM     13  C   UNL     1     -12.370  -4.633 -14.361  1.00  0.00     0.004 C 
ENDBRANCH  11  12
ENDBRANCH  10  11
ENDBRANCH   9  10
ENDBRANCH   8   9
ENDBRANCH   1   8
TORSDOF 9
ENDMDL
MODEL 9
REMARK VINA RESULT:    -4.155      4.006      6.560
REMARK INTER + INTRA:          -6.684
REMARK INTER:                  -5.503
REMARK INTRA:                  -1.181
REMARK UNBOUND:                -0.343
REMARK SMILES CCCCCCCCCCC(=O)[O-]
REMARK SMILES IDX 7 1 8 2 9 3 10 4 11 5 12 6 13 7 6 8 5 9 4 10 3 11 2 12 1 13
REMARK H PARENT
REMARK Flexibility Score: inf
ROOT
ATOM      1  C   UNL     1      -8.622  -4.600 -16.140  1.00  0.00     0.000 C 
ENDROOT
BRANCH   1   2
ATOM      2  C   UNL     1      -7.749  -4.236 -14.925  1.00  0.00     0.000 C 
BRANCH   2   3
ATOM      3  C   UNL     1      -8.555  -3.633 -13.765  1.00  0.00     0.006 C 
BRANCH   3   4
ATOM      4  C   UNL     1      -7.912  -2.337 -13.265  1.00  0.00     0.053 C 
BRANCH   4   5
ATOM      5  C   UNL     1      -6.827  -2.637 -12.280  1.00  0.00     0.041 C 
ATOM      6  O   UNL     1      -5.667  -2.181 -12.459  1.00  0.00    -0.550 OA
ATOM      7  O   UNL     1      -7.083  -3.460 -11.191  1.00  0.00    -0.550 OA
ENDBRANCH   4   5
ENDBRANCH   3   4
ENDBRANCH   2   3
ENDBRANCH   1   2
BRANCH   1   8
ATOM      8  C   UNL     1      -9.994  -3.904 -16.191  1.00  0.00     0.000 C 
BRANCH   8   9
ATOM      9  C   UNL     1     -11.166  -4.892 -16.275  1.00  0.00    -0.000 C 
BRANCH   9  10
ATOM     10  C   UNL     1     -11.959  -4.919 -14.960  1.00  0.00    -0.000 C 
BRANCH  10  11
ATOM     11  C   UNL     1     -11.403  -5.959 -13.964  1.00  0.00    -0.000 C 
BRANCH  11  12
ATOM     12  C   UNL     1     -10.807  -7.203 -14.644  1.00  0.00    -0.003 C 
ATOM     13  C   UNL     1      -9.433  -7.587 -14.098  1.00  0.00     0.004 C 
ENDBRANCH  11  12
ENDBRANCH  10  11
ENDBRANCH   9  10
ENDBRANCH   8   9
ENDBRANCH   1   8
TORSDOF 9
ENDMDL
