MODEL 1
REMARK VINA RESULT:    -2.914      0.000      0.000
REMARK INTER + INTRA:          -3.186
REMARK INTER:                  -3.170
REMARK INTRA:                  -0.016
REMARK UNBOUND:                -0.016
REMARK SMILES OCc1ccco1
REMARK SMILES IDX 2 1 3 2 5 3 6 4 4 5 7 6 1 7
REMARK H PARENT 1 8
REMARK Flexibility Score: inf
ROOT
ATOM      1  C   UNL     1     -97.848 150.225 241.130  1.00  0.00     0.231 C 
ENDROOT
BRANCH   1   2
ATOM      2  C   UNL     1     -96.684 149.410 240.661  1.00  0.00     0.129 A 
ATOM      3  C   UNL     1     -94.836 148.768 239.665  1.00  0.00     0.042 A 
ATOM      4  C   UNL     1     -95.419 147.723 240.352  1.00  0.00     0.195 A 
ATOM      5  C   UNL     1     -95.654 149.860 239.861  1.00  0.00     0.048 A 
ATOM      6  O   UNL     1     -96.522 148.136 240.934  1.00  0.00    -0.467 OA
ENDBRANCH   1   2
BRANCH   1   7
ATOM      7  O   UNL     1     -97.769 151.521 240.605  1.00  0.00    -0.388 OA
ATOM      8  H   UNL     1     -98.585 151.654 240.055  1.00  0.00     0.211 HD
ENDBRANCH   1   7
TORSDOF 2
ENDMDL
MODEL 2
REMARK VINA RESULT:    -2.824      1.476      1.683
REMARK INTER + INTRA:          -3.087
REMARK INTER:                  -3.071
REMARK INTRA:                  -0.016
REMARK UNBOUND:                -0.016
REMARK SMILES OCc1ccco1
REMARK SMILES IDX 2 1 3 2 5 3 6 4 4 5 7 6 1 7
REMARK H PARENT 1 8
REMARK Flexibility Score: inf
ROOT
ATOM      1  C   UNL     1     -97.308 150.186 240.817  1.00  0.00     0.231 C 
ENDROOT
BRANCH   1   2
ATOM      2  C   UNL     1     -96.406 149.707 239.724  1.00  0.00     0.129 A 
ATOM      3  C   UNL     1     -94.639 149.065 238.590  1.00  0.00     0.042 A 
ATOM      4  C   UNL     1     -95.757 149.113 237.782  1.00  0.00     0.195 A 
ATOM      5  C   UNL     1     -95.056 149.452 239.846  1.00  0.00     0.048 A 
ATOM      6  O   UNL     1     -96.796 149.502 238.487  1.00  0.00    -0.467 OA
ENDBRANCH   1   2
BRANCH   1   7
ATOM      7  O   UNL     1     -97.712 151.503 240.563  1.00  0.00    -0.388 OA
ATOM      8  H   UNL     1     -98.569 151.446 240.066  1.00  0.00     0.211 HD
ENDBRANCH   1   7
TORSDOF 2
ENDMDL
MODEL 3
REMARK VINA RESULT:    -2.773      1.039      1.124
REMARK INTER + INTRA:          -3.032
REMARK INTER:                  -3.018
REMARK INTRA:                  -0.014
REMARK UNBOUND:                -0.016
REMARK SMILES OCc1ccco1
REMARK SMILES IDX 2 1 3 2 5 3 6 4 4 5 7 6 1 7
REMARK H PARENT 1 8
REMARK Flexibility Score: inf
ROOT
ATOM      1  C   UNL     1     -98.522 149.731 241.823  1.00  0.00     0.231 C 
ENDROOT
BRANCH   1   2
ATOM      2  C   UNL     1     -97.256 149.434 241.085  1.00  0.00     0.129 A 
ATOM      3  C   UNL     1     -95.459 149.624 239.837  1.00  0.00     0.042 A 
ATOM      4  C   UNL     1     -95.629 148.324 240.269  1.00  0.00     0.195 A 
ATOM      5  C   UNL     1     -96.512 150.343 240.361  1.00  0.00     0.048 A 
ATOM      6  O   UNL     1     -96.711 148.242 241.009  1.00  0.00    -0.467 OA
ENDBRANCH   1   2
BRANCH   1   7
ATOM      7  O   UNL     1     -98.409 150.953 242.499  1.00  0.00    -0.388 OA
ATOM      8  H   UNL     1     -98.560 151.665 241.824  1.00  0.00     0.211 HD
ENDBRANCH   1   7
TORSDOF 2
ENDMDL
MODEL 4
REMARK VINA RESULT:    -2.694      1.435      3.119
REMARK INTER + INTRA:          -2.946
REMARK INTER:                  -2.926
REMARK INTRA:                  -0.020
REMARK UNBOUND:                -0.016
REMARK SMILES OCc1ccco1
REMARK SMILES IDX 2 1 3 2 5 3 6 4 4 5 7 6 1 7
REMARK H PARENT 1 8
REMARK Flexibility Score: inf
ROOT
ATOM      1  C   UNL     1     -95.069 147.791 239.765  1.00  0.00     0.231 C 
ENDROOT
BRANCH   1   2
ATOM      2  C   UNL     1     -96.087 148.739 240.314  1.00  0.00     0.129 A 
ATOM      3  C   UNL     1     -97.255 150.548 240.745  1.00  0.00     0.042 A 
ATOM      4  C   UNL     1     -97.695 149.480 241.501  1.00  0.00     0.195 A 
ATOM      5  C   UNL     1     -96.213 150.071 239.978  1.00  0.00     0.048 A 
ATOM      6  O   UNL     1     -96.977 148.415 241.224  1.00  0.00    -0.467 OA
ENDBRANCH   1   2
BRANCH   1   7
ATOM      7  O   UNL     1     -94.684 146.875 240.753  1.00  0.00    -0.388 OA
ATOM      8  H   UNL     1     -93.911 146.371 240.387  1.00  0.00     0.211 HD
ENDBRANCH   1   7
TORSDOF 2
ENDMDL
MODEL 5
REMARK VINA RESULT:    -2.681      1.565      1.883
REMARK INTER + INTRA:          -2.932
REMARK INTER:                  -2.920
REMARK INTRA:                  -0.012
REMARK UNBOUND:                -0.016
REMARK SMILES OCc1ccco1
REMARK SMILES IDX 2 1 3 2 5 3 6 4 4 5 7 6 1 7
REMARK H PARENT 1 8
REMARK Flexibility Score: inf
ROOT
ATOM      1  C   UNL     1     -96.853 149.724 240.624  1.00  0.00     0.231 C 
ENDROOT
BRANCH   1   2
ATOM      2  C   UNL     1     -95.887 149.439 239.517  1.00  0.00     0.129 A 
ATOM      3  C   UNL     1     -95.010 149.073 237.538  1.00  0.00     0.042 A 
ATOM      4  C   UNL     1     -94.064 148.934 238.534  1.00  0.00     0.195 A 
ATOM      5  C   UNL     1     -96.191 149.396 238.172  1.00  0.00     0.048 A 
ATOM      6  O   UNL     1     -94.619 149.156 239.704  1.00  0.00    -0.467 OA
ENDBRANCH   1   2
BRANCH   1   7
ATOM      7  O   UNL     1     -97.144 151.094 240.666  1.00  0.00    -0.388 OA
ATOM      8  H   UNL     1     -98.126 151.179 240.547  1.00  0.00     0.211 HD
ENDBRANCH   1   7
TORSDOF 2
ENDMDL
MODEL 6
REMARK VINA RESULT:    -2.646     13.664     14.210
REMARK INTER + INTRA:          -2.894
REMARK INTER:                  -2.882
REMARK INTRA:                  -0.012
REMARK UNBOUND:                -0.016
REMARK SMILES OCc1ccco1
REMARK SMILES IDX 2 1 3 2 5 3 6 4 4 5 7 6 1 7
REMARK H PARENT 1 8
REMARK Flexibility Score: inf
ROOT
ATOM      1  C   UNL     1     -91.359 162.162 234.422  1.00  0.00     0.231 C 
ENDROOT
BRANCH   1   2
ATOM      2  C   UNL     1     -92.293 161.264 233.675  1.00  0.00     0.129 A 
ATOM      3  C   UNL     1     -93.134 159.572 232.556  1.00  0.00     0.042 A 
ATOM      4  C   UNL     1     -94.057 160.591 232.684  1.00  0.00     0.195 A 
ATOM      5  C   UNL     1     -91.991 160.007 233.193  1.00  0.00     0.048 A 
ATOM      6  O   UNL     1     -93.524 161.588 233.355  1.00  0.00    -0.467 OA
ENDBRANCH   1   2
BRANCH   1   7
ATOM      7  O   UNL     1     -91.373 161.843 235.786  1.00  0.00    -0.388 OA
ATOM      8  H   UNL     1     -91.333 162.703 236.279  1.00  0.00     0.211 HD
ENDBRANCH   1   7
TORSDOF 2
ENDMDL
MODEL 7
REMARK VINA RESULT:    -2.609     14.455     15.607
REMARK INTER + INTRA:          -2.854
REMARK INTER:                  -2.838
REMARK INTRA:                  -0.016
REMARK UNBOUND:                -0.016
REMARK SMILES OCc1ccco1
REMARK SMILES IDX 2 1 3 2 5 3 6 4 4 5 7 6 1 7
REMARK H PARENT 1 8
REMARK Flexibility Score: inf
ROOT
ATOM      1  C   UNL     1     -91.166 163.265 237.034  1.00  0.00     0.231 C 
ENDROOT
BRANCH   1   2
ATOM      2  C   UNL     1     -92.086 163.939 238.003  1.00  0.00     0.129 A 
ATOM      3  C   UNL     1     -93.515 164.316 239.627  1.00  0.00     0.042 A 
ATOM      4  C   UNL     1     -93.224 165.478 238.941  1.00  0.00     0.195 A 
ATOM      5  C   UNL     1     -92.782 163.318 239.020  1.00  0.00     0.048 A 
ATOM      6  O   UNL     1     -92.371 165.220 237.975  1.00  0.00    -0.467 OA
ENDBRANCH   1   2
BRANCH   1   7
ATOM      7  O   UNL     1     -91.363 161.879 237.069  1.00  0.00    -0.388 OA
ATOM      8  H   UNL     1     -91.383 161.620 238.027  1.00  0.00     0.211 HD
ENDBRANCH   1   7
TORSDOF 2
ENDMDL
MODEL 8
REMARK VINA RESULT:    -2.600     13.306     14.424
REMARK INTER + INTRA:          -2.844
REMARK INTER:                  -2.828
REMARK INTRA:                  -0.016
REMARK UNBOUND:                -0.016
REMARK SMILES OCc1ccco1
REMARK SMILES IDX 2 1 3 2 5 3 6 4 4 5 7 6 1 7
REMARK H PARENT 1 8
REMARK Flexibility Score: inf
ROOT
ATOM      1  C   UNL     1     -93.624 159.694 232.475  1.00  0.00     0.231 C 
ENDROOT
BRANCH   1   2
ATOM      2  C   UNL     1     -92.868 160.825 233.097  1.00  0.00     0.129 A 
ATOM      3  C   UNL     1     -91.315 162.019 234.090  1.00  0.00     0.042 A 
ATOM      4  C   UNL     1     -92.452 162.769 233.867  1.00  0.00     0.195 A 
ATOM      5  C   UNL     1     -91.584 160.760 233.595  1.00  0.00     0.048 A 
ATOM      6  O   UNL     1     -93.363 162.028 233.275  1.00  0.00    -0.467 OA
ENDBRANCH   1   2
BRANCH   1   7
ATOM      7  O   UNL     1     -92.843 158.531 232.486  1.00  0.00    -0.388 OA
ATOM      8  H   UNL     1     -93.474 157.765 232.473  1.00  0.00     0.211 HD
ENDBRANCH   1   7
TORSDOF 2
ENDMDL
MODEL 9
REMARK VINA RESULT:    -2.487      3.009      4.463
REMARK INTER + INTRA:          -2.722
REMARK INTER:                  -2.708
REMARK INTRA:                  -0.014
REMARK UNBOUND:                -0.016
REMARK SMILES OCc1ccco1
REMARK SMILES IDX 2 1 3 2 5 3 6 4 4 5 7 6 1 7
REMARK H PARENT 1 8
REMARK Flexibility Score: inf
ROOT
ATOM      1  C   UNL     1     -93.000 146.944 237.242  1.00  0.00     0.231 C 
ENDROOT
BRANCH   1   2
ATOM      2  C   UNL     1     -93.831 147.642 238.270  1.00  0.00     0.129 A 
ATOM      3  C   UNL     1     -94.926 149.176 239.398  1.00  0.00     0.042 A 
ATOM      4  C   UNL     1     -94.956 147.961 240.053  1.00  0.00     0.195 A 
ATOM      5  C   UNL     1     -94.196 148.973 238.246  1.00  0.00     0.048 A 
ATOM      6  O   UNL     1     -94.292 147.066 239.357  1.00  0.00    -0.467 OA
ENDBRANCH   1   2
BRANCH   1   7
ATOM      7  O   UNL     1     -93.457 147.264 235.957  1.00  0.00    -0.388 OA
ATOM      8  H   UNL     1     -93.028 148.125 235.710  1.00  0.00     0.211 HD
ENDBRANCH   1   7
TORSDOF 2
ENDMDL
