MODEL 1
REMARK VINA RESULT:    -3.965      0.000      0.000
REMARK INTER + INTRA:          -9.343
REMARK INTER:                  -7.441
REMARK INTRA:                  -1.902
REMARK UNBOUND:                -1.902
REMARK SMILES O=C([O-])CCCCCCCCCCCCCCC(=O)[O-]
REMARK SMILES IDX 10 1 9 2 8 3 7 4 6 5 5 6 4 7 2 8 1 9 3 10 11 11 12 12 13 13
REMARK SMILES IDX 14 14 15 15 16 16 17 17 18 18 19 19 20 20
REMARK H PARENT
REMARK Flexibility Score: inf
ROOT
ATOM      1  C   UNL     1     -40.064 -48.929  34.525  1.00  0.00     0.000 C 
ENDROOT
BRANCH   1   2
ATOM      2  C   UNL     1     -39.223 -48.870  35.813  1.00  0.00     0.000 C 
BRANCH   2   3
ATOM      3  C   UNL     1     -39.457 -47.580  36.616  1.00  0.00     0.000 C 
BRANCH   3   4
ATOM      4  C   UNL     1     -40.156 -47.841  37.962  1.00  0.00     0.000 C 
BRANCH   4   5
ATOM      5  C   UNL     1     -41.686 -47.943  37.832  1.00  0.00     0.000 C 
BRANCH   5   6
ATOM      6  C   UNL     1     -42.485 -47.335  39.000  1.00  0.00     0.006 C 
BRANCH   6   7
ATOM      7  C   UNL     1     -41.629 -46.444  39.910  1.00  0.00     0.053 C 
BRANCH   7   8
ATOM      8  C   UNL     1     -42.391 -45.221  40.309  1.00  0.00     0.041 C 
ATOM      9  O   UNL     1     -43.650 -45.238  40.330  1.00  0.00    -0.550 OA
ATOM     10  O   UNL     1     -41.712 -44.076  40.704  1.00  0.00    -0.550 OA
ENDBRANCH   7   8
ENDBRANCH   6   7
ENDBRANCH   5   6
ENDBRANCH   4   5
ENDBRANCH   3   4
ENDBRANCH   2   3
ENDBRANCH   1   2
BRANCH   1  11
ATOM     11  C   UNL     1     -40.783 -47.603  34.232  1.00  0.00     0.000 C 
BRANCH  11  12
ATOM     12  C   UNL     1     -42.315 -47.753  34.216  1.00  0.00     0.000 C 
BRANCH  12  13
ATOM     13  C   UNL     1     -42.763 -49.214  34.070  1.00  0.00     0.000 C 
BRANCH  13  14
ATOM     14  C   UNL     1     -43.870 -49.596  35.064  1.00  0.00     0.000 C 
BRANCH  14  15
ATOM     15  C   UNL     1     -43.387 -50.683  36.033  1.00  0.00     0.000 C 
BRANCH  15  16
ATOM     16  C   UNL     1     -44.245 -50.704  37.307  1.00  0.00     0.006 C 
BRANCH  16  17
ATOM     17  C   UNL     1     -45.098 -49.436  37.454  1.00  0.00     0.053 C 
BRANCH  17  18
ATOM     18  C   UNL     1     -46.559 -49.729  37.296  1.00  0.00     0.041 C 
ATOM     19  O   UNL     1     -46.981 -50.912  37.390  1.00  0.00    -0.550 OA
ATOM     20  O   UNL     1     -47.450 -48.701  37.013  1.00  0.00    -0.550 OA
ENDBRANCH  17  18
ENDBRANCH  16  17
ENDBRANCH  15  16
ENDBRANCH  14  15
ENDBRANCH  13  14
ENDBRANCH  12  13
ENDBRANCH  11  12
ENDBRANCH   1  11
TORSDOF 15
ENDMDL
MODEL 2
REMARK VINA RESULT:    -3.947      1.558      6.193
REMARK INTER + INTRA:          -9.309
REMARK INTER:                  -7.449
REMARK INTRA:                  -1.860
REMARK UNBOUND:                -1.902
REMARK SMILES O=C([O-])CCCCCCCCCCCCCCC(=O)[O-]
REMARK SMILES IDX 10 1 9 2 8 3 7 4 6 5 5 6 4 7 2 8 1 9 3 10 11 11 12 12 13 13
REMARK SMILES IDX 14 14 15 15 16 16 17 17 18 18 19 19 20 20
REMARK H PARENT
REMARK Flexibility Score: inf
ROOT
ATOM      1  C   UNL     1     -40.618 -48.467  37.156  1.00  0.00     0.000 C 
ENDROOT
BRANCH   1   2
ATOM      2  C   UNL     1     -40.380 -47.602  35.904  1.00  0.00     0.000 C 
BRANCH   2   3
ATOM      3  C   UNL     1     -41.167 -48.101  34.681  1.00  0.00     0.000 C 
BRANCH   3   4
ATOM      4  C   UNL     1     -42.688 -48.070  34.907  1.00  0.00     0.000 C 
BRANCH   4   5
ATOM      5  C   UNL     1     -43.377 -49.395  34.532  1.00  0.00     0.000 C 
BRANCH   5   6
ATOM      6  C   UNL     1     -44.023 -50.152  35.707  1.00  0.00     0.006 C 
BRANCH   6   7
ATOM      7  C   UNL     1     -44.322 -49.247  36.910  1.00  0.00     0.053 C 
BRANCH   7   8
ATOM      8  C   UNL     1     -45.634 -49.616  37.526  1.00  0.00     0.041 C 
ATOM      9  O   UNL     1     -45.718 -49.814  38.767  1.00  0.00    -0.550 OA
ATOM     10  O   UNL     1     -46.775 -49.694  36.738  1.00  0.00    -0.550 OA
ENDBRANCH   7   8
ENDBRANCH   6   7
ENDBRANCH   5   6
ENDBRANCH   4   5
ENDBRANCH   3   4
ENDBRANCH   2   3
ENDBRANCH   1   2
BRANCH   1  11
ATOM     11  C   UNL     1     -41.216 -47.662  38.320  1.00  0.00     0.000 C 
BRANCH  11  12
ATOM     12  C   UNL     1     -41.694 -48.561  39.475  1.00  0.00     0.000 C 
BRANCH  12  13
ATOM     13  C   UNL     1     -42.866 -47.946  40.255  1.00  0.00     0.000 C 
BRANCH  13  14
ATOM     14  C   UNL     1     -43.623 -46.882  39.446  1.00  0.00     0.000 C 
BRANCH  14  15
ATOM     15  C   UNL     1     -43.804 -45.597  40.262  1.00  0.00     0.000 C 
BRANCH  15  16
ATOM     16  C   UNL     1     -42.679 -45.439  41.296  1.00  0.00     0.006 C 
BRANCH  16  17
ATOM     17  C   UNL     1     -41.645 -44.387  40.873  1.00  0.00     0.053 C 
BRANCH  17  18
ATOM     18  C   UNL     1     -40.261 -44.762  41.308  1.00  0.00     0.041 C 
ATOM     19  O   UNL     1     -39.595 -45.601  40.646  1.00  0.00    -0.550 OA
ATOM     20  O   UNL     1     -39.720 -44.210  42.462  1.00  0.00    -0.550 OA
ENDBRANCH  17  18
ENDBRANCH  16  17
ENDBRANCH  15  16
ENDBRANCH  14  15
ENDBRANCH  13  14
ENDBRANCH  12  13
ENDBRANCH  11  12
ENDBRANCH   1  11
TORSDOF 15
ENDMDL
MODEL 3
REMARK VINA RESULT:    -3.936      3.626      5.530
REMARK INTER + INTRA:          -9.289
REMARK INTER:                  -8.089
REMARK INTRA:                  -1.200
REMARK UNBOUND:                -1.902
REMARK SMILES O=C([O-])CCCCCCCCCCCCCCC(=O)[O-]
REMARK SMILES IDX 10 1 9 2 8 3 7 4 6 5 5 6 4 7 2 8 1 9 3 10 11 11 12 12 13 13
REMARK SMILES IDX 14 14 15 15 16 16 17 17 18 18 19 19 20 20
REMARK H PARENT
REMARK Flexibility Score: inf
ROOT
ATOM      1  C   UNL     1     -44.706 -48.639  37.618  1.00  0.00     0.000 C 
ENDROOT
BRANCH   1   2
ATOM      2  C   UNL     1     -43.700 -48.384  36.481  1.00  0.00     0.000 C 
BRANCH   2   3
ATOM      3  C   UNL     1     -43.724 -49.486  35.409  1.00  0.00     0.000 C 
BRANCH   3   4
ATOM      4  C   UNL     1     -42.982 -49.076  34.125  1.00  0.00     0.000 C 
BRANCH   4   5
ATOM      5  C   UNL     1     -42.245 -47.732  34.262  1.00  0.00     0.000 C 
BRANCH   5   6
ATOM      6  C   UNL     1     -40.712 -47.834  34.373  1.00  0.00     0.006 C 
BRANCH   6   7
ATOM      7  C   UNL     1     -40.210 -47.750  35.820  1.00  0.00     0.053 C 
BRANCH   7   8
ATOM      8  C   UNL     1     -39.895 -49.116  36.343  1.00  0.00     0.041 C 
ATOM      9  O   UNL     1     -40.624 -49.640  37.225  1.00  0.00    -0.550 OA
ATOM     10  O   UNL     1     -38.825 -49.830  35.820  1.00  0.00    -0.550 OA
ENDBRANCH   7   8
ENDBRANCH   6   7
ENDBRANCH   5   6
ENDBRANCH   4   5
ENDBRANCH   3   4
ENDBRANCH   2   3
ENDBRANCH   1   2
BRANCH   1  11
ATOM     11  C   UNL     1     -46.141 -48.250  37.230  1.00  0.00     0.000 C 
BRANCH  11  12
ATOM     12  C   UNL     1     -47.052 -49.475  37.034  1.00  0.00     0.000 C 
BRANCH  12  13
ATOM     13  C   UNL     1     -46.728 -50.614  38.012  1.00  0.00     0.000 C 
BRANCH  13  14
ATOM     14  C   UNL     1     -46.799 -51.999  37.352  1.00  0.00     0.000 C 
BRANCH  14  15
ATOM     15  C   UNL     1     -47.726 -52.935  38.137  1.00  0.00     0.000 C 
BRANCH  15  16
ATOM     16  C   UNL     1     -47.232 -53.116  39.580  1.00  0.00     0.006 C 
BRANCH  16  17
ATOM     17  C   UNL     1     -48.381 -53.418  40.553  1.00  0.00     0.053 C 
BRANCH  17  18
ATOM     18  C   UNL     1     -48.384 -52.476  41.717  1.00  0.00     0.041 C 
ATOM     19  O   UNL     1     -48.800 -51.295  41.575  1.00  0.00    -0.550 OA
ATOM     20  O   UNL     1     -47.900 -52.890  42.951  1.00  0.00    -0.550 OA
ENDBRANCH  17  18
ENDBRANCH  16  17
ENDBRANCH  15  16
ENDBRANCH  14  15
ENDBRANCH  13  14
ENDBRANCH  12  13
ENDBRANCH  11  12
ENDBRANCH   1  11
TORSDOF 15
ENDMDL
MODEL 4
REMARK VINA RESULT:    -3.915      1.523      6.092
REMARK INTER + INTRA:          -9.249
REMARK INTER:                  -7.642
REMARK INTRA:                  -1.607
REMARK UNBOUND:                -1.902
REMARK SMILES O=C([O-])CCCCCCCCCCCCCCC(=O)[O-]
REMARK SMILES IDX 10 1 9 2 8 3 7 4 6 5 5 6 4 7 2 8 1 9 3 10 11 11 12 12 13 13
REMARK SMILES IDX 14 14 15 15 16 16 17 17 18 18 19 19 20 20
REMARK H PARENT
REMARK Flexibility Score: inf
ROOT
ATOM      1  C   UNL     1     -43.005 -48.564  34.267  1.00  0.00     0.000 C 
ENDROOT
BRANCH   1   2
ATOM      2  C   UNL     1     -42.749 -50.025  34.678  1.00  0.00     0.000 C 
BRANCH   2   3
ATOM      3  C   UNL     1     -43.752 -50.530  35.728  1.00  0.00     0.000 C 
BRANCH   3   4
ATOM      4  C   UNL     1     -44.806 -49.471  36.095  1.00  0.00     0.000 C 
BRANCH   4   5
ATOM      5  C   UNL     1     -45.473 -49.735  37.456  1.00  0.00     0.000 C 
BRANCH   5   6
ATOM      6  C   UNL     1     -46.574 -50.812  37.448  1.00  0.00     0.006 C 
BRANCH   6   7
ATOM      7  C   UNL     1     -46.463 -51.790  38.625  1.00  0.00     0.053 C 
BRANCH   7   8
ATOM      8  C   UNL     1     -47.643 -52.708  38.653  1.00  0.00     0.041 C 
ATOM      9  O   UNL     1     -48.026 -53.280  37.598  1.00  0.00    -0.550 OA
ATOM     10  O   UNL     1     -48.293 -52.970  39.852  1.00  0.00    -0.550 OA
ENDBRANCH   7   8
ENDBRANCH   6   7
ENDBRANCH   5   6
ENDBRANCH   4   5
ENDBRANCH   3   4
ENDBRANCH   2   3
ENDBRANCH   1   2
BRANCH   1  11
ATOM     11  C   UNL     1     -41.732 -47.705  34.326  1.00  0.00     0.000 C 
BRANCH  11  12
ATOM     12  C   UNL     1     -40.581 -48.407  35.068  1.00  0.00     0.000 C 
BRANCH  12  13
ATOM     13  C   UNL     1     -40.290 -47.777  36.438  1.00  0.00     0.000 C 
BRANCH  13  14
ATOM     14  C   UNL     1     -41.011 -48.499  37.587  1.00  0.00     0.000 C 
BRANCH  14  15
ATOM     15  C   UNL     1     -42.293 -47.759  37.984  1.00  0.00     0.000 C 
BRANCH  15  16
ATOM     16  C   UNL     1     -42.373 -47.574  39.506  1.00  0.00     0.006 C 
BRANCH  16  17
ATOM     17  C   UNL     1     -41.618 -46.324  39.980  1.00  0.00     0.053 C 
BRANCH  17  18
ATOM     18  C   UNL     1     -42.538 -45.329  40.620  1.00  0.00     0.041 C 
ATOM     19  O   UNL     1     -43.761 -45.315  40.320  1.00  0.00    -0.550 OA
ATOM     20  O   UNL     1     -42.040 -44.399  41.522  1.00  0.00    -0.550 OA
ENDBRANCH  17  18
ENDBRANCH  16  17
ENDBRANCH  15  16
ENDBRANCH  14  15
ENDBRANCH  13  14
ENDBRANCH  12  13
ENDBRANCH  11  12
ENDBRANCH   1  11
TORSDOF 15
ENDMDL
MODEL 5
REMARK VINA RESULT:    -3.883      1.520      2.208
REMARK INTER + INTRA:          -9.190
REMARK INTER:                  -7.430
REMARK INTRA:                  -1.759
REMARK UNBOUND:                -1.902
REMARK SMILES O=C([O-])CCCCCCCCCCCCCCC(=O)[O-]
REMARK SMILES IDX 10 1 9 2 8 3 7 4 6 5 5 6 4 7 2 8 1 9 3 10 11 11 12 12 13 13
REMARK SMILES IDX 14 14 15 15 16 16 17 17 18 18 19 19 20 20
REMARK H PARENT
REMARK Flexibility Score: inf
ROOT
ATOM      1  C   UNL     1     -41.245 -47.644  34.267  1.00  0.00     0.000 C 
ENDROOT
BRANCH   1   2
ATOM      2  C   UNL     1     -40.432 -48.585  35.175  1.00  0.00     0.000 C 
BRANCH   2   3
ATOM      3  C   UNL     1     -39.892 -47.879  36.430  1.00  0.00     0.000 C 
BRANCH   3   4
ATOM      4  C   UNL     1     -40.540 -48.400  37.724  1.00  0.00     0.000 C 
BRANCH   4   5
ATOM      5  C   UNL     1     -41.842 -47.662  38.082  1.00  0.00     0.000 C 
BRANCH   5   6
ATOM      6  C   UNL     1     -42.216 -47.680  39.576  1.00  0.00     0.006 C 
BRANCH   6   7
ATOM      7  C   UNL     1     -43.602 -47.083  39.853  1.00  0.00     0.053 C 
BRANCH   7   8
ATOM      8  C   UNL     1     -43.473 -45.711  40.433  1.00  0.00     0.041 C 
ATOM      9  O   UNL     1     -44.220 -44.780  40.032  1.00  0.00    -0.550 OA
ATOM     10  O   UNL     1     -42.559 -45.469  41.451  1.00  0.00    -0.550 OA
ENDBRANCH   7   8
ENDBRANCH   6   7
ENDBRANCH   5   6
ENDBRANCH   4   5
ENDBRANCH   3   4
ENDBRANCH   2   3
ENDBRANCH   1   2
BRANCH   1  11
ATOM     11  C   UNL     1     -42.716 -48.070  34.148  1.00  0.00     0.000 C 
BRANCH  11  12
ATOM     12  C   UNL     1     -43.021 -49.364  34.923  1.00  0.00     0.000 C 
BRANCH  12  13
ATOM     13  C   UNL     1     -44.223 -49.216  35.869  1.00  0.00     0.000 C 
BRANCH  13  14
ATOM     14  C   UNL     1     -44.257 -50.300  36.957  1.00  0.00     0.000 C 
BRANCH  14  15
ATOM     15  C   UNL     1     -45.281 -49.955  38.044  1.00  0.00     0.000 C 
BRANCH  15  16
ATOM     16  C   UNL     1     -46.704 -50.320  37.595  1.00  0.00     0.006 C 
BRANCH  16  17
ATOM     17  C   UNL     1     -46.850 -51.817  37.286  1.00  0.00     0.053 C 
BRANCH  17  18
ATOM     18  C   UNL     1     -46.858 -52.643  38.536  1.00  0.00     0.041 C 
ATOM     19  O   UNL     1     -45.836 -53.301  38.866  1.00  0.00    -0.550 OA
ATOM     20  O   UNL     1     -48.003 -52.711  39.319  1.00  0.00    -0.550 OA
ENDBRANCH  17  18
ENDBRANCH  16  17
ENDBRANCH  15  16
ENDBRANCH  14  15
ENDBRANCH  13  14
ENDBRANCH  12  13
ENDBRANCH  11  12
ENDBRANCH   1  11
TORSDOF 15
ENDMDL
MODEL 6
REMARK VINA RESULT:    -3.865      3.938      6.091
REMARK INTER + INTRA:          -9.156
REMARK INTER:                  -7.273
REMARK INTRA:                  -1.883
REMARK UNBOUND:                -1.902
REMARK SMILES O=C([O-])CCCCCCCCCCCCCCC(=O)[O-]
REMARK SMILES IDX 10 1 9 2 8 3 7 4 6 5 5 6 4 7 2 8 1 9 3 10 11 11 12 12 13 13
REMARK SMILES IDX 14 14 15 15 16 16 17 17 18 18 19 19 20 20
REMARK H PARENT
REMARK Flexibility Score: inf
ROOT
ATOM      1  C   UNL     1     -45.558 -50.755  40.304  1.00  0.00     0.000 C 
ENDROOT
BRANCH   1   2
ATOM      2  C   UNL     1     -44.285 -50.254  39.596  1.00  0.00     0.000 C 
BRANCH   2   3
ATOM      3  C   UNL     1     -43.897 -48.826  40.015  1.00  0.00     0.000 C 
BRANCH   3   4
ATOM      4  C   UNL     1     -43.931 -47.837  38.838  1.00  0.00     0.000 C 
BRANCH   4   5
ATOM      5  C   UNL     1     -43.225 -48.377  37.581  1.00  0.00     0.000 C 
BRANCH   5   6
ATOM      6  C   UNL     1     -44.089 -48.405  36.306  1.00  0.00     0.006 C 
BRANCH   6   7
ATOM      7  C   UNL     1     -43.498 -49.292  35.202  1.00  0.00     0.053 C 
BRANCH   7   8
ATOM      8  C   UNL     1     -42.278 -48.653  34.618  1.00  0.00     0.041 C 
ATOM      9  O   UNL     1     -42.345 -47.498  34.121  1.00  0.00    -0.550 OA
ATOM     10  O   UNL     1     -41.057 -49.313  34.664  1.00  0.00    -0.550 OA
ENDBRANCH   7   8
ENDBRANCH   6   7
ENDBRANCH   5   6
ENDBRANCH   4   5
ENDBRANCH   3   4
ENDBRANCH   2   3
ENDBRANCH   1   2
BRANCH   1  11
ATOM     11  C   UNL     1     -46.798 -50.690  39.399  1.00  0.00     0.000 C 
BRANCH  11  12
ATOM     12  C   UNL     1     -46.436 -50.639  37.905  1.00  0.00     0.000 C 
BRANCH  12  13
ATOM     13  C   UNL     1     -46.442 -52.027  37.247  1.00  0.00     0.000 C 
BRANCH  13  14
ATOM     14  C   UNL     1     -47.489 -52.968  37.862  1.00  0.00     0.000 C 
BRANCH  14  15
ATOM     15  C   UNL     1     -46.832 -54.245  38.401  1.00  0.00     0.000 C 
BRANCH  15  16
ATOM     16  C   UNL     1     -47.572 -54.762  39.643  1.00  0.00     0.006 C 
BRANCH  16  17
ATOM     17  C   UNL     1     -47.065 -54.108  40.936  1.00  0.00     0.053 C 
BRANCH  17  18
ATOM     18  C   UNL     1     -48.132 -53.294  41.602  1.00  0.00     0.041 C 
ATOM     19  O   UNL     1     -49.177 -52.984  40.972  1.00  0.00    -0.550 OA
ATOM     20  O   UNL     1     -47.958 -52.852  42.907  1.00  0.00    -0.550 OA
ENDBRANCH  17  18
ENDBRANCH  16  17
ENDBRANCH  15  16
ENDBRANCH  14  15
ENDBRANCH  13  14
ENDBRANCH  12  13
ENDBRANCH  11  12
ENDBRANCH   1  11
TORSDOF 15
ENDMDL
MODEL 7
REMARK VINA RESULT:    -3.806      2.991      6.454
REMARK INTER + INTRA:          -9.045
REMARK INTER:                  -6.843
REMARK INTRA:                  -2.202
REMARK UNBOUND:                -1.902
REMARK SMILES O=C([O-])CCCCCCCCCCCCCCC(=O)[O-]
REMARK SMILES IDX 10 1 9 2 8 3 7 4 6 5 5 6 4 7 2 8 1 9 3 10 11 11 12 12 13 13
REMARK SMILES IDX 14 14 15 15 16 16 17 17 18 18 19 19 20 20
REMARK H PARENT
REMARK Flexibility Score: inf
ROOT
ATOM      1  C   UNL     1     -43.376 -48.930  37.388  1.00  0.00     0.000 C 
ENDROOT
BRANCH   1   2
ATOM      2  C   UNL     1     -44.796 -48.545  36.932  1.00  0.00     0.000 C 
BRANCH   2   3
ATOM      3  C   UNL     1     -45.891 -49.169  37.814  1.00  0.00     0.000 C 
BRANCH   3   4
ATOM      4  C   UNL     1     -46.897 -50.003  37.002  1.00  0.00     0.000 C 
BRANCH   4   5
ATOM      5  C   UNL     1     -46.739 -51.517  37.226  1.00  0.00     0.000 C 
BRANCH   5   6
ATOM      6  C   UNL     1     -45.886 -51.914  38.446  1.00  0.00     0.006 C 
BRANCH   6   7
ATOM      7  C   UNL     1     -46.613 -52.872  39.398  1.00  0.00     0.053 C 
BRANCH   7   8
ATOM      8  C   UNL     1     -47.564 -52.116  40.271  1.00  0.00     0.041 C 
ATOM      9  O   UNL     1     -47.264 -50.968  40.690  1.00  0.00    -0.550 OA
ATOM     10  O   UNL     1     -48.803 -52.661  40.584  1.00  0.00    -0.550 OA
ENDBRANCH   7   8
ENDBRANCH   6   7
ENDBRANCH   5   6
ENDBRANCH   4   5
ENDBRANCH   3   4
ENDBRANCH   2   3
ENDBRANCH   1   2
BRANCH   1  11
ATOM     11  C   UNL     1     -42.941 -50.305  36.858  1.00  0.00     0.000 C 
BRANCH  11  12
ATOM     12  C   UNL     1     -43.508 -50.605  35.460  1.00  0.00     0.000 C 
BRANCH  12  13
ATOM     13  C   UNL     1     -42.542 -50.207  34.333  1.00  0.00     0.000 C 
BRANCH  13  14
ATOM     14  C   UNL     1     -42.955 -48.905  33.631  1.00  0.00     0.000 C 
BRANCH  14  15
ATOM     15  C   UNL     1     -42.184 -47.707  34.197  1.00  0.00     0.000 C 
BRANCH  15  16
ATOM     16  C   UNL     1     -40.710 -48.065  34.438  1.00  0.00     0.006 C 
BRANCH  16  17
ATOM     17  C   UNL     1     -40.250 -47.710  35.859  1.00  0.00     0.053 C 
BRANCH  17  18
ATOM     18  C   UNL     1     -39.304 -48.733  36.408  1.00  0.00     0.041 C 
ATOM     19  O   UNL     1     -39.482 -49.956  36.163  1.00  0.00    -0.550 OA
ATOM     20  O   UNL     1     -38.244 -48.340  37.216  1.00  0.00    -0.550 OA
ENDBRANCH  17  18
ENDBRANCH  16  17
ENDBRANCH  15  16
ENDBRANCH  14  15
ENDBRANCH  13  14
ENDBRANCH  12  13
ENDBRANCH  11  12
ENDBRANCH   1  11
TORSDOF 15
ENDMDL
MODEL 8
REMARK VINA RESULT:    -3.711      2.262      3.110
REMARK INTER + INTRA:          -8.867
REMARK INTER:                  -6.980
REMARK INTRA:                  -1.887
REMARK UNBOUND:                -1.902
REMARK SMILES O=C([O-])CCCCCCCCCCCCCCC(=O)[O-]
REMARK SMILES IDX 10 1 9 2 8 3 7 4 6 5 5 6 4 7 2 8 1 9 3 10 11 11 12 12 13 13
REMARK SMILES IDX 14 14 15 15 16 16 17 17 18 18 19 19 20 20
REMARK H PARENT
REMARK Flexibility Score: inf
ROOT
ATOM      1  C   UNL     1     -42.155 -50.140  37.184  1.00  0.00     0.000 C 
ENDROOT
BRANCH   1   2
ATOM      2  C   UNL     1     -42.306 -50.143  38.717  1.00  0.00     0.000 C 
BRANCH   2   3
ATOM      3  C   UNL     1     -41.980 -48.778  39.347  1.00  0.00     0.000 C 
BRANCH   3   4
ATOM      4  C   UNL     1     -43.136 -48.233  40.203  1.00  0.00     0.000 C 
BRANCH   4   5
ATOM      5  C   UNL     1     -43.838 -47.023  39.561  1.00  0.00     0.000 C 
BRANCH   5   6
ATOM      6  C   UNL     1     -43.673 -45.692  40.319  1.00  0.00     0.006 C 
BRANCH   6   7
ATOM      7  C   UNL     1     -42.591 -45.753  41.405  1.00  0.00     0.053 C 
BRANCH   7   8
ATOM      8  C   UNL     1     -41.354 -45.046  40.949  1.00  0.00     0.041 C 
ATOM      9  O   UNL     1     -41.337 -43.790  40.864  1.00  0.00    -0.550 OA
ATOM     10  O   UNL     1     -40.205 -45.771  40.663  1.00  0.00    -0.550 OA
ENDBRANCH   7   8
ENDBRANCH   6   7
ENDBRANCH   5   6
ENDBRANCH   4   5
ENDBRANCH   3   4
ENDBRANCH   2   3
ENDBRANCH   1   2
BRANCH   1  11
ATOM     11  C   UNL     1     -42.108 -48.719  36.601  1.00  0.00     0.000 C 
BRANCH  11  12
ATOM     12  C   UNL     1     -43.357 -48.382  35.767  1.00  0.00     0.000 C 
BRANCH  12  13
ATOM     13  C   UNL     1     -44.541 -49.310  36.076  1.00  0.00     0.000 C 
BRANCH  13  14
ATOM     14  C   UNL     1     -45.616 -48.631  36.937  1.00  0.00     0.000 C 
BRANCH  14  15
ATOM     15  C   UNL     1     -46.649 -49.651  37.433  1.00  0.00     0.000 C 
BRANCH  15  16
ATOM     16  C   UNL     1     -45.986 -51.003  37.733  1.00  0.00     0.006 C 
BRANCH  16  17
ATOM     17  C   UNL     1     -46.823 -52.186  37.225  1.00  0.00     0.053 C 
BRANCH  17  18
ATOM     18  C   UNL     1     -47.390 -52.991  38.354  1.00  0.00     0.041 C 
ATOM     19  O   UNL     1     -47.654 -54.211  38.191  1.00  0.00    -0.550 OA
ATOM     20  O   UNL     1     -47.657 -52.386  39.576  1.00  0.00    -0.550 OA
ENDBRANCH  17  18
ENDBRANCH  16  17
ENDBRANCH  15  16
ENDBRANCH  14  15
ENDBRANCH  13  14
ENDBRANCH  12  13
ENDBRANCH  11  12
ENDBRANCH   1  11
TORSDOF 15
ENDMDL
MODEL 9
REMARK VINA RESULT:    -3.701      5.565      8.633
REMARK INTER + INTRA:          -8.848
REMARK INTER:                  -6.473
REMARK INTRA:                  -2.376
REMARK UNBOUND:                -1.902
REMARK SMILES O=C([O-])CCCCCCCCCCCCCCC(=O)[O-]
REMARK SMILES IDX 10 1 9 2 8 3 7 4 6 5 5 6 4 7 2 8 1 9 3 10 11 11 12 12 13 13
REMARK SMILES IDX 14 14 15 15 16 16 17 17 18 18 19 19 20 20
REMARK H PARENT
REMARK Flexibility Score: inf
ROOT
ATOM      1  C   UNL     1     -45.383 -54.125  42.069  1.00  0.00     0.000 C 
ENDROOT
BRANCH   1   2
ATOM      2  C   UNL     1     -46.600 -53.278  42.484  1.00  0.00     0.000 C 
BRANCH   2   3
ATOM      3  C   UNL     1     -47.861 -53.611  41.668  1.00  0.00     0.000 C 
BRANCH   3   4
ATOM      4  C   UNL     1     -48.273 -52.466  40.727  1.00  0.00     0.000 C 
BRANCH   4   5
ATOM      5  C   UNL     1     -47.497 -51.163  40.992  1.00  0.00     0.000 C 
BRANCH   5   6
ATOM      6  C   UNL     1     -46.550 -50.723  39.860  1.00  0.00     0.006 C 
BRANCH   6   7
ATOM      7  C   UNL     1     -46.841 -51.429  38.529  1.00  0.00     0.053 C 
BRANCH   7   8
ATOM      8  C   UNL     1     -46.356 -50.600  37.382  1.00  0.00     0.041 C 
ATOM      9  O   UNL     1     -45.241 -50.845  36.851  1.00  0.00    -0.550 OA
ATOM     10  O   UNL     1     -47.155 -49.588  36.869  1.00  0.00    -0.550 OA
ENDBRANCH   7   8
ENDBRANCH   6   7
ENDBRANCH   5   6
ENDBRANCH   4   5
ENDBRANCH   3   4
ENDBRANCH   2   3
ENDBRANCH   1   2
BRANCH   1  11
ATOM     11  C   UNL     1     -44.385 -53.337  41.207  1.00  0.00     0.000 C 
BRANCH  11  12
ATOM     12  C   UNL     1     -44.027 -54.068  39.901  1.00  0.00     0.000 C 
BRANCH  12  13
ATOM     13  C   UNL     1     -45.043 -55.161  39.538  1.00  0.00     0.000 C 
BRANCH  13  14
ATOM     14  C   UNL     1     -45.775 -54.874  38.218  1.00  0.00     0.000 C 
BRANCH  14  15
ATOM     15  C   UNL     1     -47.281 -55.128  38.357  1.00  0.00     0.000 C 
BRANCH  15  16
ATOM     16  C   UNL     1     -47.551 -56.402  39.171  1.00  0.00     0.006 C 
BRANCH  16  17
ATOM     17  C   UNL     1     -48.113 -57.537  38.303  1.00  0.00     0.053 C 
BRANCH  17  18
ATOM     18  C   UNL     1     -47.407 -58.834  38.561  1.00  0.00     0.041 C 
ATOM     19  O   UNL     1     -47.707 -59.528  39.567  1.00  0.00    -0.550 OA
ATOM     20  O   UNL     1     -46.398 -59.259  37.707  1.00  0.00    -0.550 OA
ENDBRANCH  17  18
ENDBRANCH  16  17
ENDBRANCH  15  16
ENDBRANCH  14  15
ENDBRANCH  13  14
ENDBRANCH  12  13
ENDBRANCH  11  12
ENDBRANCH   1  11
TORSDOF 15
ENDMDL
