MODEL 1
REMARK VINA RESULT:    -4.053      0.000      0.000
REMARK INTER + INTRA:          -6.253
REMARK INTER:                  -5.711
REMARK INTRA:                  -0.542
REMARK UNBOUND:                -0.542
REMARK SMILES CCCCCCCCC(=O)[O-]
REMARK SMILES IDX 6 1 7 2 8 3 9 4 10 5 11 6 5 7 4 8 3 9 2 10 1 11
REMARK H PARENT
REMARK Flexibility Score: inf
ROOT
ATOM      1  C   UNL     1     -27.476 -29.172   6.467  1.00  0.00     0.000 C 
ENDROOT
BRANCH   1   2
ATOM      2  C   UNL     1     -25.958 -29.378   6.314  1.00  0.00     0.006 C 
BRANCH   2   3
ATOM      3  C   UNL     1     -25.377 -28.558   5.154  1.00  0.00     0.053 C 
BRANCH   3   4
ATOM      4  C   UNL     1     -24.303 -29.306   4.427  1.00  0.00     0.041 C 
ATOM      5  O   UNL     1     -24.078 -29.068   3.210  1.00  0.00    -0.550 OA
ATOM      6  O   UNL     1     -23.527 -30.241   5.100  1.00  0.00    -0.550 OA
ENDBRANCH   3   4
ENDBRANCH   2   3
ENDBRANCH   1   2
BRANCH   1   7
ATOM      7  C   UNL     1     -27.863 -28.764   7.900  1.00  0.00     0.000 C 
BRANCH   7   8
ATOM      8  C   UNL     1     -26.647 -28.387   8.775  1.00  0.00    -0.000 C 
BRANCH   8   9
ATOM      9  C   UNL     1     -26.924 -27.223   9.741  1.00  0.00    -0.000 C 
BRANCH   9  10
ATOM     10  C   UNL     1     -26.234 -25.920   9.313  1.00  0.00    -0.003 C 
ATOM     11  C   UNL     1     -25.042 -26.202   8.403  1.00  0.00     0.004 C 
ENDBRANCH   9  10
ENDBRANCH   8   9
ENDBRANCH   7   8
ENDBRANCH   1   7
TORSDOF 7
ENDMDL
MODEL 2
REMARK VINA RESULT:    -4.037      3.761      5.683
REMARK INTER + INTRA:          -6.230
REMARK INTER:                  -5.895
REMARK INTRA:                  -0.335
REMARK UNBOUND:                -0.542
REMARK SMILES CCCCCCCCC(=O)[O-]
REMARK SMILES IDX 6 1 7 2 8 3 9 4 10 5 11 6 5 7 4 8 3 9 2 10 1 11
REMARK H PARENT
REMARK Flexibility Score: inf
ROOT
ATOM      1  C   UNL     1     -26.540 -28.448   8.906  1.00  0.00     0.000 C 
ENDROOT
BRANCH   1   2
ATOM      2  C   UNL     1     -26.242 -26.946   9.064  1.00  0.00     0.006 C 
BRANCH   2   3
ATOM      3  C   UNL     1     -27.153 -26.281  10.105  1.00  0.00     0.053 C 
BRANCH   3   4
ATOM      4  C   UNL     1     -26.446 -25.191  10.850  1.00  0.00     0.041 C 
ATOM      5  O   UNL     1     -26.841 -24.848  11.996  1.00  0.00    -0.550 OA
ATOM      6  O   UNL     1     -25.331 -24.578  10.294  1.00  0.00    -0.550 OA
ENDBRANCH   3   4
ENDBRANCH   2   3
ENDBRANCH   1   2
BRANCH   1   7
ATOM      7  C   UNL     1     -27.684 -28.709   7.908  1.00  0.00     0.000 C 
BRANCH   7   8
ATOM      8  C   UNL     1     -27.272 -29.632   6.740  1.00  0.00    -0.000 C 
BRANCH   8   9
ATOM      9  C   UNL     1     -25.783 -29.529   6.371  1.00  0.00    -0.000 C 
BRANCH   9  10
ATOM     10  C   UNL     1     -25.518 -28.516   5.248  1.00  0.00    -0.003 C 
ATOM     11  C   UNL     1     -24.530 -29.073   4.227  1.00  0.00     0.004 C 
ENDBRANCH   9  10
ENDBRANCH   8   9
ENDBRANCH   7   8
ENDBRANCH   1   7
TORSDOF 7
ENDMDL
MODEL 3
REMARK VINA RESULT:    -4.018      8.281      9.554
REMARK INTER + INTRA:          -6.203
REMARK INTER:                  -5.847
REMARK INTRA:                  -0.357
REMARK UNBOUND:                -0.542
REMARK SMILES CCCCCCCCC(=O)[O-]
REMARK SMILES IDX 6 1 7 2 8 3 9 4 10 5 11 6 5 7 4 8 3 9 2 10 1 11
REMARK H PARENT
REMARK Flexibility Score: inf
ROOT
ATOM      1  C   UNL     1     -19.968 -22.328   9.324  1.00  0.00     0.000 C 
ENDROOT
BRANCH   1   2
ATOM      2  C   UNL     1     -21.438 -22.200   8.886  1.00  0.00     0.006 C 
BRANCH   2   3
ATOM      3  C   UNL     1     -21.727 -20.852   8.213  1.00  0.00     0.053 C 
BRANCH   3   4
ATOM      4  C   UNL     1     -23.177 -20.700   7.869  1.00  0.00     0.041 C 
ATOM      5  O   UNL     1     -23.572 -19.698   7.215  1.00  0.00    -0.550 OA
ATOM      6  O   UNL     1     -24.087 -21.682   8.240  1.00  0.00    -0.550 OA
ENDBRANCH   3   4
ENDBRANCH   2   3
ENDBRANCH   1   2
BRANCH   1   7
ATOM      7  C   UNL     1     -19.478 -21.079  10.079  1.00  0.00     0.000 C 
BRANCH   7   8
ATOM      8  C   UNL     1     -19.126 -21.361  11.557  1.00  0.00    -0.000 C 
BRANCH   8   9
ATOM      9  C   UNL     1     -19.234 -22.846  11.941  1.00  0.00    -0.000 C 
BRANCH   9  10
ATOM     10  C   UNL     1     -20.229 -23.093  13.084  1.00  0.00    -0.003 C 
ATOM     11  C   UNL     1     -19.602 -23.948  14.182  1.00  0.00     0.004 C 
ENDBRANCH   9  10
ENDBRANCH   8   9
ENDBRANCH   7   8
ENDBRANCH   1   7
TORSDOF 7
ENDMDL
MODEL 4
REMARK VINA RESULT:    -3.980     10.599     12.663
REMARK INTER + INTRA:          -6.150
REMARK INTER:                  -5.515
REMARK INTRA:                  -0.634
REMARK UNBOUND:                -0.542
REMARK SMILES CCCCCCCCC(=O)[O-]
REMARK SMILES IDX 6 1 7 2 8 3 9 4 10 5 11 6 5 7 4 8 3 9 2 10 1 11
REMARK H PARENT
REMARK Flexibility Score: inf
ROOT
ATOM      1  C   UNL     1     -30.676 -23.945  16.773  1.00  0.00     0.000 C 
ENDROOT
BRANCH   1   2
ATOM      2  C   UNL     1     -30.313 -23.047  17.969  1.00  0.00     0.006 C 
BRANCH   2   3
ATOM      3  C   UNL     1     -29.175 -22.073  17.637  1.00  0.00     0.053 C 
BRANCH   3   4
ATOM      4  C   UNL     1     -29.522 -20.663  18.006  1.00  0.00     0.041 C 
ATOM      5  O   UNL     1     -29.140 -20.184  19.107  1.00  0.00    -0.550 OA
ATOM      6  O   UNL     1     -30.238 -19.868  17.121  1.00  0.00    -0.550 OA
ENDBRANCH   3   4
ENDBRANCH   2   3
ENDBRANCH   1   2
BRANCH   1   7
ATOM      7  C   UNL     1     -30.272 -23.312  15.429  1.00  0.00     0.000 C 
BRANCH   7   8
ATOM      8  C   UNL     1     -29.673 -24.329  14.432  1.00  0.00    -0.000 C 
BRANCH   8   9
ATOM      9  C   UNL     1     -28.504 -25.142  15.014  1.00  0.00    -0.000 C 
BRANCH   9  10
ATOM     10  C   UNL     1     -27.137 -24.667  14.502  1.00  0.00    -0.003 C 
ATOM     11  C   UNL     1     -26.510 -23.661  15.463  1.00  0.00     0.004 C 
ENDBRANCH   9  10
ENDBRANCH   8   9
ENDBRANCH   7   8
ENDBRANCH   1   7
TORSDOF 7
ENDMDL
MODEL 5
REMARK VINA RESULT:    -3.970      2.853      5.824
REMARK INTER + INTRA:          -6.136
REMARK INTER:                  -5.704
REMARK INTRA:                  -0.432
REMARK UNBOUND:                -0.542
REMARK SMILES CCCCCCCCC(=O)[O-]
REMARK SMILES IDX 6 1 7 2 8 3 9 4 10 5 11 6 5 7 4 8 3 9 2 10 1 11
REMARK H PARENT
REMARK Flexibility Score: inf
ROOT
ATOM      1  C   UNL     1     -25.149 -28.457   4.965  1.00  0.00     0.000 C 
ENDROOT
BRANCH   1   2
ATOM      2  C   UNL     1     -25.464 -29.510   6.042  1.00  0.00     0.006 C 
BRANCH   2   3
ATOM      3  C   UNL     1     -26.919 -29.427   6.524  1.00  0.00     0.053 C 
BRANCH   3   4
ATOM      4  C   UNL     1     -27.013 -28.909   7.926  1.00  0.00     0.041 C 
ATOM      5  O   UNL     1     -26.060 -29.085   8.732  1.00  0.00    -0.550 OA
ATOM      6  O   UNL     1     -28.136 -28.202   8.333  1.00  0.00    -0.550 OA
ENDBRANCH   3   4
ENDBRANCH   2   3
ENDBRANCH   1   2
BRANCH   1   7
ATOM      7  C   UNL     1     -24.437 -29.071   3.745  1.00  0.00     0.000 C 
BRANCH   7   8
ATOM      8  C   UNL     1     -23.045 -29.650   4.081  1.00  0.00    -0.000 C 
BRANCH   8   9
ATOM      9  C   UNL     1     -22.627 -30.813   3.166  1.00  0.00    -0.000 C 
BRANCH   9  10
ATOM     10  C   UNL     1     -22.464 -32.137   3.926  1.00  0.00    -0.003 C 
ATOM     11  C   UNL     1     -22.706 -31.947   5.421  1.00  0.00     0.004 C 
ENDBRANCH   9  10
ENDBRANCH   8   9
ENDBRANCH   7   8
ENDBRANCH   1   7
TORSDOF 7
ENDMDL
MODEL 6
REMARK VINA RESULT:    -3.969      9.656     10.637
REMARK INTER + INTRA:          -6.134
REMARK INTER:                  -5.640
REMARK INTRA:                  -0.494
REMARK UNBOUND:                -0.542
REMARK SMILES CCCCCCCCC(=O)[O-]
REMARK SMILES IDX 6 1 7 2 8 3 9 4 10 5 11 6 5 7 4 8 3 9 2 10 1 11
REMARK H PARENT
REMARK Flexibility Score: inf
ROOT
ATOM      1  C   UNL     1     -20.501 -23.165  12.891  1.00  0.00     0.000 C 
ENDROOT
BRANCH   1   2
ATOM      2  C   UNL     1     -19.184 -22.857  12.156  1.00  0.00     0.006 C 
BRANCH   2   3
ATOM      3  C   UNL     1     -19.152 -21.428  11.599  1.00  0.00     0.053 C 
BRANCH   3   4
ATOM      4  C   UNL     1     -19.597 -21.377  10.169  1.00  0.00     0.041 C 
ATOM      5  O   UNL     1     -20.095 -20.320   9.698  1.00  0.00    -0.550 OA
ATOM      6  O   UNL     1     -19.430 -22.485   9.348  1.00  0.00    -0.550 OA
ENDBRANCH   3   4
ENDBRANCH   2   3
ENDBRANCH   1   2
BRANCH   1   7
ATOM      7  C   UNL     1     -20.372 -24.382  13.825  1.00  0.00     0.000 C 
BRANCH   7   8
ATOM      8  C   UNL     1     -19.039 -24.412  14.606  1.00  0.00    -0.000 C 
BRANCH   8   9
ATOM      9  C   UNL     1     -18.325 -25.772  14.549  1.00  0.00    -0.000 C 
BRANCH   9  10
ATOM     10  C   UNL     1     -16.844 -25.650  14.165  1.00  0.00    -0.003 C 
ATOM     11  C   UNL     1     -16.673 -25.573  12.651  1.00  0.00     0.004 C 
ENDBRANCH   9  10
ENDBRANCH   8   9
ENDBRANCH   7   8
ENDBRANCH   1   7
TORSDOF 7
ENDMDL
MODEL 7
REMARK VINA RESULT:    -3.967      9.694     10.997
REMARK INTER + INTRA:          -6.131
REMARK INTER:                  -5.820
REMARK INTRA:                  -0.311
REMARK UNBOUND:                -0.542
REMARK SMILES CCCCCCCCC(=O)[O-]
REMARK SMILES IDX 6 1 7 2 8 3 9 4 10 5 11 6 5 7 4 8 3 9 2 10 1 11
REMARK H PARENT
REMARK Flexibility Score: inf
ROOT
ATOM      1  C   UNL     1     -20.349 -23.284  13.304  1.00  0.00     0.000 C 
ENDROOT
BRANCH   1   2
ATOM      2  C   UNL     1     -19.511 -24.118  14.289  1.00  0.00     0.006 C 
BRANCH   2   3
ATOM      3  C   UNL     1     -18.464 -24.982  13.571  1.00  0.00     0.053 C 
BRANCH   3   4
ATOM      4  C   UNL     1     -17.584 -25.711  14.540  1.00  0.00     0.041 C 
ATOM      5  O   UNL     1     -18.080 -26.246  15.567  1.00  0.00    -0.550 OA
ATOM      6  O   UNL     1     -16.223 -25.830  14.291  1.00  0.00    -0.550 OA
ENDBRANCH   3   4
ENDBRANCH   2   3
ENDBRANCH   1   2
BRANCH   1   7
ATOM      7  C   UNL     1     -19.577 -22.966  12.011  1.00  0.00     0.000 C 
BRANCH   7   8
ATOM      8  C   UNL     1     -19.296 -21.458  11.825  1.00  0.00    -0.000 C 
BRANCH   8   9
ATOM      9  C   UNL     1     -19.459 -20.978  10.373  1.00  0.00    -0.000 C 
BRANCH   9  10
ATOM     10  C   UNL     1     -19.743 -22.127   9.396  1.00  0.00    -0.003 C 
ATOM     11  C   UNL     1     -20.847 -21.752   8.412  1.00  0.00     0.004 C 
ENDBRANCH   9  10
ENDBRANCH   8   9
ENDBRANCH   7   8
ENDBRANCH   1   7
TORSDOF 7
ENDMDL
MODEL 8
REMARK VINA RESULT:    -3.955      2.987      4.980
REMARK INTER + INTRA:          -6.115
REMARK INTER:                  -5.691
REMARK INTRA:                  -0.424
REMARK UNBOUND:                -0.542
REMARK SMILES CCCCCCCCC(=O)[O-]
REMARK SMILES IDX 6 1 7 2 8 3 9 4 10 5 11 6 5 7 4 8 3 9 2 10 1 11
REMARK H PARENT
REMARK Flexibility Score: inf
ROOT
ATOM      1  C   UNL     1     -27.370 -29.595   7.126  1.00  0.00     0.000 C 
ENDROOT
BRANCH   1   2
ATOM      2  C   UNL     1     -27.798 -28.509   8.129  1.00  0.00     0.006 C 
BRANCH   2   3
ATOM      3  C   UNL     1     -26.648 -28.093   9.057  1.00  0.00     0.053 C 
BRANCH   3   4
ATOM      4  C   UNL     1     -26.512 -26.603   9.142  1.00  0.00     0.041 C 
ATOM      5  O   UNL     1     -25.464 -26.038   8.730  1.00  0.00    -0.550 OA
ATOM      6  O   UNL     1     -27.555 -25.836   9.644  1.00  0.00    -0.550 OA
ENDBRANCH   3   4
ENDBRANCH   2   3
ENDBRANCH   1   2
BRANCH   1   7
ATOM      7  C   UNL     1     -25.914 -29.412   6.660  1.00  0.00     0.000 C 
BRANCH   7   8
ATOM      8  C   UNL     1     -25.799 -28.759   5.265  1.00  0.00    -0.000 C 
BRANCH   8   9
ATOM      9  C   UNL     1     -24.804 -27.587   5.216  1.00  0.00    -0.000 C 
BRANCH   9  10
ATOM     10  C   UNL     1     -23.745 -27.752   4.117  1.00  0.00    -0.003 C 
ATOM     11  C   UNL     1     -23.932 -29.068   3.368  1.00  0.00     0.004 C 
ENDBRANCH   9  10
ENDBRANCH   8   9
ENDBRANCH   7   8
ENDBRANCH   1   7
TORSDOF 7
ENDMDL
MODEL 9
REMARK VINA RESULT:    -3.944      7.661      8.505
REMARK INTER + INTRA:          -6.099
REMARK INTER:                  -5.740
REMARK INTRA:                  -0.359
REMARK UNBOUND:                -0.542
REMARK SMILES CCCCCCCCC(=O)[O-]
REMARK SMILES IDX 6 1 7 2 8 3 9 4 10 5 11 6 5 7 4 8 3 9 2 10 1 11
REMARK H PARENT
REMARK Flexibility Score: inf
ROOT
ATOM      1  C   UNL     1     -20.133 -25.746   0.723  1.00  0.00     0.000 C 
ENDROOT
BRANCH   1   2
ATOM      2  C   UNL     1     -20.401 -27.097   1.409  1.00  0.00     0.006 C 
BRANCH   2   3
ATOM      3  C   UNL     1     -19.314 -27.452   2.434  1.00  0.00     0.053 C 
BRANCH   3   4
ATOM      4  C   UNL     1     -17.950 -27.467   1.816  1.00  0.00     0.041 C 
ATOM      5  O   UNL     1     -17.722 -28.177   0.800  1.00  0.00    -0.550 OA
ATOM      6  O   UNL     1     -16.939 -26.673   2.341  1.00  0.00    -0.550 OA
ENDBRANCH   3   4
ENDBRANCH   2   3
ENDBRANCH   1   2
BRANCH   1   7
ATOM      7  C   UNL     1     -21.409 -24.893   0.605  1.00  0.00     0.000 C 
BRANCH   7   8
ATOM      8  C   UNL     1     -22.304 -24.961   1.863  1.00  0.00    -0.000 C 
BRANCH   8   9
ATOM      9  C   UNL     1     -23.021 -23.637   2.177  1.00  0.00    -0.000 C 
BRANCH   9  10
ATOM     10  C   UNL     1     -22.373 -22.431   1.481  1.00  0.00    -0.003 C 
ATOM     11  C   UNL     1     -22.365 -21.209   2.394  1.00  0.00     0.004 C 
ENDBRANCH   9  10
ENDBRANCH   8   9
ENDBRANCH   7   8
ENDBRANCH   1   7
TORSDOF 7
ENDMDL
