MODEL 1
REMARK VINA RESULT:    -2.521      0.000      0.000
REMARK INTER + INTRA:          -2.521
REMARK INTER:                  -2.521
REMARK INTRA:                   0.000
REMARK UNBOUND:                 0.000
REMARK SMILES CC(=O)[O-]
REMARK SMILES IDX 1 1 2 2 3 3 4 4
REMARK H PARENT
REMARK Flexibility Score: inf
ROOT
ATOM      1  C   UNL     1      21.727  37.563  86.950  1.00  0.00     0.063 C 
ATOM      2  C   UNL     1      21.458  36.285  86.230  1.00  0.00     0.038 C 
ATOM      3  O   UNL     1      20.919  36.303  85.092  1.00  0.00    -0.550 OA
ATOM      4  O   UNL     1      21.753  35.070  86.835  1.00  0.00    -0.550 OA
ENDROOT
TORSDOF 0
ENDMDL
MODEL 2
REMARK VINA RESULT:    -2.513      1.412      1.770
REMARK INTER + INTRA:          -2.513
REMARK INTER:                  -2.513
REMARK INTRA:                   0.000
REMARK UNBOUND:                 0.000
REMARK SMILES CC(=O)[O-]
REMARK SMILES IDX 1 1 2 2 3 3 4 4
REMARK H PARENT
REMARK Flexibility Score: inf
ROOT
ATOM      1  C   UNL     1      21.899  35.223  86.764  1.00  0.00     0.063 C 
ATOM      2  C   UNL     1      21.379  36.509  86.219  1.00  0.00     0.038 C 
ATOM      3  O   UNL     1      20.886  36.551  85.061  1.00  0.00    -0.550 OA
ATOM      4  O   UNL     1      21.484  37.675  86.967  1.00  0.00    -0.550 OA
ENDROOT
TORSDOF 0
ENDMDL
MODEL 3
REMARK VINA RESULT:    -2.476     17.889     18.397
REMARK INTER + INTRA:          -2.476
REMARK INTER:                  -2.476
REMARK INTRA:                   0.000
REMARK UNBOUND:                 0.000
REMARK SMILES CC(=O)[O-]
REMARK SMILES IDX 1 1 2 2 3 3 4 4
REMARK H PARENT
REMARK Flexibility Score: inf
ROOT
ATOM      1  C   UNL     1      17.771  53.320  82.806  1.00  0.00     0.063 C 
ATOM      2  C   UNL     1      17.068  53.433  81.497  1.00  0.00     0.038 C 
ATOM      3  O   UNL     1      17.552  52.888  80.470  1.00  0.00    -0.550 OA
ATOM      4  O   UNL     1      15.905  54.186  81.395  1.00  0.00    -0.550 OA
ENDROOT
TORSDOF 0
ENDMDL
MODEL 4
REMARK VINA RESULT:    -2.459     17.278     17.840
REMARK INTER + INTRA:          -2.459
REMARK INTER:                  -2.459
REMARK INTRA:                   0.000
REMARK UNBOUND:                 0.000
REMARK SMILES CC(=O)[O-]
REMARK SMILES IDX 1 1 2 2 3 3 4 4
REMARK H PARENT
REMARK Flexibility Score: inf
ROOT
ATOM      1  C   UNL     1      18.945  52.407  81.681  1.00  0.00     0.063 C 
ATOM      2  C   UNL     1      17.741  53.136  82.170  1.00  0.00     0.038 C 
ATOM      3  O   UNL     1      17.414  53.073  83.385  1.00  0.00    -0.550 OA
ATOM      4  O   UNL     1      16.946  53.844  81.278  1.00  0.00    -0.550 OA
ENDROOT
TORSDOF 0
ENDMDL
MODEL 5
REMARK VINA RESULT:    -2.430     17.081     17.513
REMARK INTER + INTRA:          -2.430
REMARK INTER:                  -2.430
REMARK INTRA:                   0.000
REMARK UNBOUND:                 0.000
REMARK SMILES CC(=O)[O-]
REMARK SMILES IDX 1 1 2 2 3 3 4 4
REMARK H PARENT
REMARK Flexibility Score: inf
ROOT
ATOM      1  C   UNL     1      17.003  53.260  80.931  1.00  0.00     0.063 C 
ATOM      2  C   UNL     1      17.983  52.789  81.951  1.00  0.00     0.038 C 
ATOM      3  O   UNL     1      17.778  53.009  83.173  1.00  0.00    -0.550 OA
ATOM      4  O   UNL     1      19.152  52.153  81.551  1.00  0.00    -0.550 OA
ENDROOT
TORSDOF 0
ENDMDL
MODEL 6
REMARK VINA RESULT:    -2.364      5.691      6.227
REMARK INTER + INTRA:          -2.364
REMARK INTER:                  -2.364
REMARK INTRA:                   0.000
REMARK UNBOUND:                 0.000
REMARK SMILES CC(=O)[O-]
REMARK SMILES IDX 1 1 2 2 3 3 4 4
REMARK H PARENT
REMARK Flexibility Score: inf
ROOT
ATOM      1  C   UNL     1      24.063  41.721  83.796  1.00  0.00     0.063 C 
ATOM      2  C   UNL     1      22.998  41.239  82.871  1.00  0.00     0.038 C 
ATOM      3  O   UNL     1      22.795  41.831  81.779  1.00  0.00    -0.550 OA
ATOM      4  O   UNL     1      22.192  40.168  83.236  1.00  0.00    -0.550 OA
ENDROOT
TORSDOF 0
ENDMDL
MODEL 7
REMARK VINA RESULT:    -2.363      5.871      6.232
REMARK INTER + INTRA:          -2.363
REMARK INTER:                  -2.363
REMARK INTRA:                   0.000
REMARK UNBOUND:                 0.000
REMARK SMILES CC(=O)[O-]
REMARK SMILES IDX 1 1 2 2 3 3 4 4
REMARK H PARENT
REMARK Flexibility Score: inf
ROOT
ATOM      1  C   UNL     1      21.964  40.331  83.658  1.00  0.00     0.063 C 
ATOM      2  C   UNL     1      22.987  41.256  83.092  1.00  0.00     0.038 C 
ATOM      3  O   UNL     1      22.826  41.752  81.946  1.00  0.00    -0.550 OA
ATOM      4  O   UNL     1      24.147  41.531  83.806  1.00  0.00    -0.550 OA
ENDROOT
TORSDOF 0
ENDMDL
MODEL 8
REMARK VINA RESULT:    -2.194      3.974      4.592
REMARK INTER + INTRA:          -2.194
REMARK INTER:                  -2.194
REMARK INTRA:                   0.000
REMARK UNBOUND:                 0.000
REMARK SMILES CC(=O)[O-]
REMARK SMILES IDX 1 1 2 2 3 3 4 4
REMARK H PARENT
REMARK Flexibility Score: inf
ROOT
ATOM      1  C   UNL     1      22.091  40.537  83.505  1.00  0.00     0.063 C 
ATOM      2  C   UNL     1      21.425  40.159  84.784  1.00  0.00     0.038 C 
ATOM      3  O   UNL     1      21.356  38.949  85.127  1.00  0.00    -0.550 OA
ATOM      4  O   UNL     1      20.832  41.135  85.575  1.00  0.00    -0.550 OA
ENDROOT
TORSDOF 0
ENDMDL
MODEL 9
REMARK VINA RESULT:    -1.821     16.141     16.533
REMARK INTER + INTRA:          -1.821
REMARK INTER:                  -1.821
REMARK INTRA:                   0.000
REMARK UNBOUND:                 0.000
REMARK SMILES CC(=O)[O-]
REMARK SMILES IDX 1 1 2 2 3 3 4 4
REMARK H PARENT
REMARK Flexibility Score: inf
ROOT
ATOM      1  C   UNL     1      27.989  52.212  81.078  1.00  0.00     0.063 C 
ATOM      2  C   UNL     1      27.350  50.913  81.432  1.00  0.00     0.038 C 
ATOM      3  O   UNL     1      26.272  50.567  80.881  1.00  0.00    -0.550 OA
ATOM      4  O   UNL     1      27.913  50.105  82.412  1.00  0.00    -0.550 OA
ENDROOT
TORSDOF 0
ENDMDL
