MODEL 1
REMARK VINA RESULT:    -7.689      0.000      0.000
REMARK INTER + INTRA:          -7.914
REMARK INTER:                  -7.914
REMARK INTRA:                   0.000
REMARK UNBOUND:                 0.000
REMARK SMILES CC1(C)CC[C@@]2(C)CC[C@]3(C)C(=CC[C@@H]4[C@]5(C)CC[C@@H](O)C(C)(C)[C@H]5CC[C@@]43C)[C@H]2C1
REMARK SMILES IDX 1 1 2 2 4 3 5 4 6 5 8 6 9 7 10 8 12 9 13 10 14 11 15 12
REMARK SMILES IDX 28 13 27 14 26 15 25 16 16 17 18 18 19 19 20 20 22 21 23 22
REMARK SMILES IDX 24 23 17 24 29 25 30 26 31 27 11 28 7 29 3 30 21 31
REMARK H PARENT 21 32
REMARK Flexibility Score: inf
ROOT
ATOM      1  C   UNL     1     145.260 134.772 146.868  1.00  0.00     0.011 C 
ATOM      2  C   UNL     1     143.846 135.315 147.184  1.00  0.00    -0.035 C 
ATOM      3  C   UNL     1     142.809 134.148 147.133  1.00  0.00     0.007 C 
ATOM      4  C   UNL     1     141.574 134.467 146.277  1.00  0.00     0.008 C 
ATOM      5  C   UNL     1     141.920 134.877 144.809  1.00  0.00    -0.026 C 
ATOM      6  C   UNL     1     140.591 135.360 144.147  1.00  0.00     0.008 C 
ATOM      7  C   UNL     1     140.461 136.878 144.112  1.00  0.00     0.012 C 
ATOM      8  C   UNL     1     141.562 137.558 143.235  1.00  0.00    -0.006 C 
ATOM      9  C   UNL     1     142.900 137.187 143.863  1.00  0.00    -0.064 C 
ATOM     10  C   UNL     1     143.996 137.889 143.536  1.00  0.00    -0.027 C 
ATOM     11  C   UNL     1     143.969 139.314 143.094  1.00  0.00     0.032 C 
ATOM     12  C   UNL     1     142.637 139.872 142.505  1.00  0.00     0.006 C 
ATOM     13  C   UNL     1     141.353 139.160 143.132  1.00  0.00    -0.020 C 
ATOM     14  C   UNL     1     141.085 139.775 144.542  1.00  0.00     0.008 C 
ATOM     15  C   UNL     1     141.019 141.312 144.579  1.00  0.00     0.005 C 
ATOM     16  C   UNL     1     142.299 141.970 144.010  1.00  0.00     0.003 C 
ATOM     17  C   UNL     1     142.611 141.482 142.539  1.00  0.00    -0.025 C 
ATOM     18  C   UNL     1     144.004 142.079 142.124  1.00  0.00     0.010 C 
ATOM     19  C   UNL     1     144.118 143.603 142.312  1.00  0.00     0.033 C 
ATOM     20  C   UNL     1     143.810 144.027 143.755  1.00  0.00     0.120 C 
ATOM     21  C   UNL     1     142.414 143.533 144.261  1.00  0.00    -0.006 C 
ATOM     22  C   UNL     1     141.270 144.357 143.607  1.00  0.00     0.014 C 
ATOM     23  C   UNL     1     142.352 143.818 145.791  1.00  0.00     0.014 C 
ATOM     24  C   UNL     1     141.571 141.995 141.485  1.00  0.00     0.012 C 
ATOM     25  C   UNL     1     140.094 139.414 142.228  1.00  0.00     0.012 C 
ATOM     26  C   UNL     1     143.096 135.954 144.773  1.00  0.00     0.022 C 
ATOM     27  C   UNL     1     143.475 136.457 146.193  1.00  0.00     0.015 C 
ATOM     28  C   UNL     1     141.565 136.922 141.808  1.00  0.00     0.017 C 
ATOM     29  C   UNL     1     142.380 133.604 144.049  1.00  0.00     0.012 C 
ATOM     30  C   UNL     1     143.882 135.916 148.607  1.00  0.00     0.011 C 
ENDROOT
BRANCH  20  31
ATOM     31  O   UNL     1     143.894 145.431 143.833  1.00  0.00    -0.393 OA
ATOM     32  H   UNL     1     144.704 145.659 144.364  1.00  0.00     0.210 HD
ENDBRANCH  20  31
TORSDOF 1
ENDMDL
MODEL 2
REMARK VINA RESULT:    -7.473      2.704      7.615
REMARK INTER + INTRA:          -7.692
REMARK INTER:                  -7.692
REMARK INTRA:                   0.000
REMARK UNBOUND:                 0.000
REMARK SMILES CC1(C)CC[C@@]2(C)CC[C@]3(C)C(=CC[C@@H]4[C@]5(C)CC[C@@H](O)C(C)(C)[C@H]5CC[C@@]43C)[C@H]2C1
REMARK SMILES IDX 1 1 2 2 4 3 5 4 6 5 8 6 9 7 10 8 12 9 13 10 14 11 15 12
REMARK SMILES IDX 28 13 27 14 26 15 25 16 16 17 18 18 19 19 20 20 22 21 23 22
REMARK SMILES IDX 24 23 17 24 29 25 30 26 31 27 11 28 7 29 3 30 21 31
REMARK H PARENT 21 32
REMARK Flexibility Score: inf
ROOT
ATOM      1  C   UNL     1     140.479 144.055 145.384  1.00  0.00     0.011 C 
ATOM      2  C   UNL     1     141.872 143.380 145.325  1.00  0.00    -0.035 C 
ATOM      3  C   UNL     1     142.778 144.130 144.298  1.00  0.00     0.007 C 
ATOM      4  C   UNL     1     143.466 143.194 143.294  1.00  0.00     0.008 C 
ATOM      5  C   UNL     1     142.470 142.290 142.497  1.00  0.00    -0.026 C 
ATOM      6  C   UNL     1     143.330 141.271 141.686  1.00  0.00     0.008 C 
ATOM      7  C   UNL     1     143.411 139.900 142.348  1.00  0.00     0.012 C 
ATOM      8  C   UNL     1     142.020 139.194 142.445  1.00  0.00    -0.006 C 
ATOM      9  C   UNL     1     141.134 140.103 143.288  1.00  0.00    -0.064 C 
ATOM     10  C   UNL     1     140.005 139.611 143.819  1.00  0.00    -0.027 C 
ATOM     11  C   UNL     1     139.805 138.172 144.162  1.00  0.00     0.032 C 
ATOM     12  C   UNL     1     140.701 137.118 143.443  1.00  0.00     0.006 C 
ATOM     13  C   UNL     1     142.138 137.703 143.064  1.00  0.00    -0.020 C 
ATOM     14  C   UNL     1     143.026 137.705 144.348  1.00  0.00     0.008 C 
ATOM     15  C   UNL     1     143.084 136.365 145.101  1.00  0.00     0.005 C 
ATOM     16  C   UNL     1     141.678 135.851 145.497  1.00  0.00     0.003 C 
ATOM     17  C   UNL     1     140.721 135.722 144.246  1.00  0.00    -0.025 C 
ATOM     18  C   UNL     1     139.289 135.355 144.777  1.00  0.00     0.010 C 
ATOM     19  C   UNL     1     139.258 134.133 145.713  1.00  0.00     0.033 C 
ATOM     20  C   UNL     1     140.199 134.306 146.914  1.00  0.00     0.120 C 
ATOM     21  C   UNL     1     141.676 134.622 146.502  1.00  0.00    -0.006 C 
ATOM     22  C   UNL     1     142.372 133.352 145.937  1.00  0.00     0.014 C 
ATOM     23  C   UNL     1     142.442 135.012 147.801  1.00  0.00     0.014 C 
ATOM     24  C   UNL     1     141.142 134.577 143.262  1.00  0.00     0.012 C 
ATOM     25  C   UNL     1     142.826 136.796 141.981  1.00  0.00     0.012 C 
ATOM     26  C   UNL     1     141.401 141.614 143.469  1.00  0.00     0.022 C 
ATOM     27  C   UNL     1     141.723 141.872 144.966  1.00  0.00     0.015 C 
ATOM     28  C   UNL     1     141.359 139.139 141.030  1.00  0.00     0.017 C 
ATOM     29  C   UNL     1     141.723 143.185 141.472  1.00  0.00     0.012 C 
ATOM     30  C   UNL     1     142.497 143.473 146.734  1.00  0.00     0.011 C 
ENDROOT
BRANCH  20  31
ATOM     31  O   UNL     1     140.145 133.134 147.694  1.00  0.00    -0.393 OA
ATOM     32  H   UNL     1     139.205 132.811 147.692  1.00  0.00     0.210 HD
ENDBRANCH  20  31
TORSDOF 1
ENDMDL
MODEL 3
REMARK VINA RESULT:    -7.049      7.628     12.857
REMARK INTER + INTRA:          -7.255
REMARK INTER:                  -7.255
REMARK INTRA:                   0.000
REMARK UNBOUND:                 0.000
REMARK SMILES CC1(C)CC[C@@]2(C)CC[C@]3(C)C(=CC[C@@H]4[C@]5(C)CC[C@@H](O)C(C)(C)[C@H]5CC[C@@]43C)[C@H]2C1
REMARK SMILES IDX 1 1 2 2 4 3 5 4 6 5 8 6 9 7 10 8 12 9 13 10 14 11 15 12
REMARK SMILES IDX 28 13 27 14 26 15 25 16 16 17 18 18 19 19 20 20 22 21 23 22
REMARK SMILES IDX 24 23 17 24 29 25 30 26 31 27 11 28 7 29 3 30 21 31
REMARK H PARENT 21 32
REMARK Flexibility Score: inf
ROOT
ATOM      1  C   UNL     1     145.744 137.575 147.610  1.00  0.00     0.011 C 
ATOM      2  C   UNL     1     146.764 138.302 148.519  1.00  0.00    -0.035 C 
ATOM      3  C   UNL     1     147.795 139.078 147.639  1.00  0.00     0.007 C 
ATOM      4  C   UNL     1     149.255 138.807 148.030  1.00  0.00     0.008 C 
ATOM      5  C   UNL     1     149.639 137.292 148.008  1.00  0.00    -0.026 C 
ATOM      6  C   UNL     1     151.070 137.176 148.620  1.00  0.00     0.008 C 
ATOM      7  C   UNL     1     151.061 136.737 150.080  1.00  0.00     0.012 C 
ATOM      8  C   UNL     1     150.473 135.301 150.274  1.00  0.00    -0.006 C 
ATOM      9  C   UNL     1     149.040 135.350 149.759  1.00  0.00    -0.064 C 
ATOM     10  C   UNL     1     148.186 134.373 150.100  1.00  0.00    -0.027 C 
ATOM     11  C   UNL     1     148.295 133.574 151.356  1.00  0.00     0.032 C 
ATOM     12  C   UNL     1     149.686 133.498 152.055  1.00  0.00     0.006 C 
ATOM     13  C   UNL     1     150.557 134.815 151.815  1.00  0.00    -0.020 C 
ATOM     14  C   UNL     1     150.042 135.931 152.777  1.00  0.00     0.008 C 
ATOM     15  C   UNL     1     149.939 135.519 154.256  1.00  0.00     0.005 C 
ATOM     16  C   UNL     1     149.048 134.269 154.459  1.00  0.00     0.003 C 
ATOM     17  C   UNL     1     149.544 133.043 153.594  1.00  0.00    -0.025 C 
ATOM     18  C   UNL     1     148.486 131.892 153.747  1.00  0.00     0.010 C 
ATOM     19  C   UNL     1     148.154 131.531 155.206  1.00  0.00     0.033 C 
ATOM     20  C   UNL     1     147.674 132.752 156.005  1.00  0.00     0.120 C 
ATOM     21  C   UNL     1     148.681 133.950 155.969  1.00  0.00    -0.006 C 
ATOM     22  C   UNL     1     149.917 133.653 156.863  1.00  0.00     0.014 C 
ATOM     23  C   UNL     1     147.958 135.176 156.599  1.00  0.00     0.014 C 
ATOM     24  C   UNL     1     150.915 132.459 154.079  1.00  0.00     0.012 C 
ATOM     25  C   UNL     1     152.068 134.534 152.140  1.00  0.00     0.012 C 
ATOM     26  C   UNL     1     148.538 136.408 148.752  1.00  0.00     0.022 C 
ATOM     27  C   UNL     1     147.466 137.281 149.461  1.00  0.00     0.015 C 
ATOM     28  C   UNL     1     151.230 134.295 149.349  1.00  0.00     0.017 C 
ATOM     29  C   UNL     1     149.730 136.840 146.526  1.00  0.00     0.012 C 
ATOM     30  C   UNL     1     145.980 139.299 149.401  1.00  0.00     0.011 C 
ENDROOT
BRANCH  20  31
ATOM     31  O   UNL     1     147.433 132.348 157.332  1.00  0.00    -0.393 OA
ATOM     32  H   UNL     1     148.262 132.513 157.856  1.00  0.00     0.210 HD
ENDBRANCH  20  31
TORSDOF 1
ENDMDL
MODEL 4
REMARK VINA RESULT:    -7.034      4.901      8.865
REMARK INTER + INTRA:          -7.239
REMARK INTER:                  -7.239
REMARK INTRA:                   0.000
REMARK UNBOUND:                 0.000
REMARK SMILES CC1(C)CC[C@@]2(C)CC[C@]3(C)C(=CC[C@@H]4[C@]5(C)CC[C@@H](O)C(C)(C)[C@H]5CC[C@@]43C)[C@H]2C1
REMARK SMILES IDX 1 1 2 2 4 3 5 4 6 5 8 6 9 7 10 8 12 9 13 10 14 11 15 12
REMARK SMILES IDX 28 13 27 14 26 15 25 16 16 17 18 18 19 19 20 20 22 21 23 22
REMARK SMILES IDX 24 23 17 24 29 25 30 26 31 27 11 28 7 29 3 30 21 31
REMARK H PARENT 21 32
REMARK Flexibility Score: inf
ROOT
ATOM      1  C   UNL     1     151.750 137.619 143.587  1.00  0.00     0.011 C 
ATOM      2  C   UNL     1     150.659 138.653 143.957  1.00  0.00    -0.035 C 
ATOM      3  C   UNL     1     151.297 139.823 144.771  1.00  0.00     0.007 C 
ATOM      4  C   UNL     1     150.536 140.152 146.064  1.00  0.00     0.008 C 
ATOM      5  C   UNL     1     150.370 138.927 147.021  1.00  0.00    -0.026 C 
ATOM      6  C   UNL     1     149.412 139.375 148.169  1.00  0.00     0.008 C 
ATOM      7  C   UNL     1     147.978 138.898 147.969  1.00  0.00     0.012 C 
ATOM      8  C   UNL     1     147.851 137.340 147.986  1.00  0.00    -0.006 C 
ATOM      9  C   UNL     1     148.712 136.826 146.839  1.00  0.00    -0.064 C 
ATOM     10  C   UNL     1     148.539 135.571 146.399  1.00  0.00    -0.027 C 
ATOM     11  C   UNL     1     147.250 134.825 146.500  1.00  0.00     0.032 C 
ATOM     12  C   UNL     1     146.220 135.288 147.575  1.00  0.00     0.006 C 
ATOM     13  C   UNL     1     146.312 136.855 147.866  1.00  0.00    -0.020 C 
ATOM     14  C   UNL     1     145.579 137.616 146.716  1.00  0.00     0.008 C 
ATOM     15  C   UNL     1     144.152 137.125 146.418  1.00  0.00     0.005 C 
ATOM     16  C   UNL     1     144.105 135.613 146.092  1.00  0.00     0.003 C 
ATOM     17  C   UNL     1     144.742 134.739 147.244  1.00  0.00    -0.025 C 
ATOM     18  C   UNL     1     144.791 133.251 146.743  1.00  0.00     0.010 C 
ATOM     19  C   UNL     1     143.443 132.715 146.227  1.00  0.00     0.033 C 
ATOM     20  C   UNL     1     142.866 133.593 145.108  1.00  0.00     0.120 C 
ATOM     21  C   UNL     1     142.719 135.098 145.516  1.00  0.00    -0.006 C 
ATOM     22  C   UNL     1     141.526 135.287 146.495  1.00  0.00     0.014 C 
ATOM     23  C   UNL     1     142.366 135.891 144.223  1.00  0.00     0.014 C 
ATOM     24  C   UNL     1     143.894 134.741 148.561  1.00  0.00     0.012 C 
ATOM     25  C   UNL     1     145.602 137.199 149.225  1.00  0.00     0.012 C 
ATOM     26  C   UNL     1     149.875 137.636 146.224  1.00  0.00     0.022 C 
ATOM     27  C   UNL     1     149.511 137.961 144.749  1.00  0.00     0.015 C 
ATOM     28  C   UNL     1     148.494 136.776 149.294  1.00  0.00     0.017 C 
ATOM     29  C   UNL     1     151.751 138.625 147.660  1.00  0.00     0.012 C 
ATOM     30  C   UNL     1     150.065 139.199 142.640  1.00  0.00     0.011 C 
ENDROOT
BRANCH  20  31
ATOM     31  O   UNL     1     141.619 133.062 144.724  1.00  0.00    -0.393 OA
ATOM     32  H   UNL     1     140.956 133.303 145.425  1.00  0.00     0.210 HD
ENDBRANCH  20  31
TORSDOF 1
ENDMDL
MODEL 5
REMARK VINA RESULT:    -7.011      4.733      9.034
REMARK INTER + INTRA:          -7.216
REMARK INTER:                  -7.216
REMARK INTRA:                   0.000
REMARK UNBOUND:                 0.000
REMARK SMILES CC1(C)CC[C@@]2(C)CC[C@]3(C)C(=CC[C@@H]4[C@]5(C)CC[C@@H](O)C(C)(C)[C@H]5CC[C@@]43C)[C@H]2C1
REMARK SMILES IDX 1 1 2 2 4 3 5 4 6 5 8 6 9 7 10 8 12 9 13 10 14 11 15 12
REMARK SMILES IDX 28 13 27 14 26 15 25 16 16 17 18 18 19 19 20 20 22 21 23 22
REMARK SMILES IDX 24 23 17 24 29 25 30 26 31 27 11 28 7 29 3 30 21 31
REMARK H PARENT 21 32
REMARK Flexibility Score: inf
ROOT
ATOM      1  C   UNL     1     141.244 137.900 141.689  1.00  0.00     0.011 C 
ATOM      2  C   UNL     1     142.166 136.717 142.073  1.00  0.00    -0.035 C 
ATOM      3  C   UNL     1     142.652 135.987 140.781  1.00  0.00     0.007 C 
ATOM      4  C   UNL     1     142.464 134.464 140.834  1.00  0.00     0.008 C 
ATOM      5  C   UNL     1     140.991 134.025 141.117  1.00  0.00    -0.026 C 
ATOM      6  C   UNL     1     141.012 132.480 141.342  1.00  0.00     0.008 C 
ATOM      7  C   UNL     1     140.984 132.092 142.816  1.00  0.00     0.012 C 
ATOM      8  C   UNL     1     139.667 132.538 143.532  1.00  0.00    -0.006 C 
ATOM      9  C   UNL     1     139.607 134.056 143.415  1.00  0.00    -0.064 C 
ATOM     10  C   UNL     1     138.778 134.744 144.214  1.00  0.00    -0.027 C 
ATOM     11  C   UNL     1     138.345 134.276 145.564  1.00  0.00     0.032 C 
ATOM     12  C   UNL     1     138.429 132.750 145.870  1.00  0.00     0.006 C 
ATOM     13  C   UNL     1     139.613 132.036 145.070  1.00  0.00    -0.020 C 
ATOM     14  C   UNL     1     140.958 132.341 145.800  1.00  0.00     0.008 C 
ATOM     15  C   UNL     1     140.962 132.040 147.309  1.00  0.00     0.005 C 
ATOM     16  C   UNL     1     139.834 132.786 148.062  1.00  0.00     0.003 C 
ATOM     17  C   UNL     1     138.409 132.469 147.456  1.00  0.00    -0.025 C 
ATOM     18  C   UNL     1     137.366 133.394 148.180  1.00  0.00     0.010 C 
ATOM     19  C   UNL     1     137.420 133.321 149.717  1.00  0.00     0.033 C 
ATOM     20  C   UNL     1     138.821 133.639 150.259  1.00  0.00     0.120 C 
ATOM     21  C   UNL     1     139.942 132.735 149.644  1.00  0.00    -0.006 C 
ATOM     22  C   UNL     1     139.870 131.298 150.230  1.00  0.00     0.014 C 
ATOM     23  C   UNL     1     141.309 133.332 150.091  1.00  0.00     0.014 C 
ATOM     24  C   UNL     1     137.948 130.992 147.704  1.00  0.00     0.012 C 
ATOM     25  C   UNL     1     139.396 130.480 145.051  1.00  0.00     0.012 C 
ATOM     26  C   UNL     1     140.366 134.852 142.330  1.00  0.00     0.022 C 
ATOM     27  C   UNL     1     141.421 135.747 143.036  1.00  0.00     0.015 C 
ATOM     28  C   UNL     1     138.431 131.996 142.744  1.00  0.00     0.017 C 
ATOM     29  C   UNL     1     140.154 134.295 139.839  1.00  0.00     0.012 C 
ATOM     30  C   UNL     1     143.381 137.297 142.831  1.00  0.00     0.011 C 
ENDROOT
BRANCH  20  31
ATOM     31  O   UNL     1     138.796 133.510 151.661  1.00  0.00    -0.393 OA
ATOM     32  H   UNL     1     137.876 133.722 151.970  1.00  0.00     0.210 HD
ENDBRANCH  20  31
TORSDOF 1
ENDMDL
MODEL 6
REMARK VINA RESULT:    -6.864      6.132     10.019
REMARK INTER + INTRA:          -7.065
REMARK INTER:                  -7.065
REMARK INTRA:                   0.000
REMARK UNBOUND:                 0.000
REMARK SMILES CC1(C)CC[C@@]2(C)CC[C@]3(C)C(=CC[C@@H]4[C@]5(C)CC[C@@H](O)C(C)(C)[C@H]5CC[C@@]43C)[C@H]2C1
REMARK SMILES IDX 1 1 2 2 4 3 5 4 6 5 8 6 9 7 10 8 12 9 13 10 14 11 15 12
REMARK SMILES IDX 28 13 27 14 26 15 25 16 16 17 18 18 19 19 20 20 22 21 23 22
REMARK SMILES IDX 24 23 17 24 29 25 30 26 31 27 11 28 7 29 3 30 21 31
REMARK H PARENT 21 32
REMARK Flexibility Score: inf
ROOT
ATOM      1  C   UNL     1     140.877 135.815 141.404  1.00  0.00     0.011 C 
ATOM      2  C   UNL     1     141.206 134.319 141.627  1.00  0.00    -0.035 C 
ATOM      3  C   UNL     1     140.888 133.510 140.330  1.00  0.00     0.007 C 
ATOM      4  C   UNL     1     140.035 132.259 140.586  1.00  0.00     0.008 C 
ATOM      5  C   UNL     1     138.686 132.559 141.316  1.00  0.00    -0.026 C 
ATOM      6  C   UNL     1     138.049 131.181 141.678  1.00  0.00     0.008 C 
ATOM      7  C   UNL     1     138.279 130.781 143.131  1.00  0.00     0.012 C 
ATOM      8  C   UNL     1     137.603 131.764 144.142  1.00  0.00    -0.006 C 
ATOM      9  C   UNL     1     138.227 133.131 143.896  1.00  0.00    -0.064 C 
ATOM     10  C   UNL     1     138.095 134.090 144.824  1.00  0.00    -0.027 C 
ATOM     11  C   UNL     1     137.915 133.819 146.281  1.00  0.00     0.032 C 
ATOM     12  C   UNL     1     137.362 132.423 146.702  1.00  0.00     0.006 C 
ATOM     13  C   UNL     1     137.778 131.273 145.674  1.00  0.00    -0.020 C 
ATOM     14  C   UNL     1     139.258 130.866 145.960  1.00  0.00     0.008 C 
ATOM     15  C   UNL     1     139.567 130.525 147.428  1.00  0.00     0.005 C 
ATOM     16  C   UNL     1     139.198 131.679 148.391  1.00  0.00     0.003 C 
ATOM     17  C   UNL     1     137.683 132.108 148.248  1.00  0.00    -0.025 C 
ATOM     18  C   UNL     1     137.461 133.381 149.142  1.00  0.00     0.010 C 
ATOM     19  C   UNL     1     137.927 133.215 150.600  1.00  0.00     0.033 C 
ATOM     20  C   UNL     1     139.403 132.802 150.689  1.00  0.00     0.120 C 
ATOM     21  C   UNL     1     139.732 131.505 149.875  1.00  0.00    -0.006 C 
ATOM     22  C   UNL     1     139.174 130.248 150.598  1.00  0.00     0.014 C 
ATOM     23  C   UNL     1     141.282 131.358 149.855  1.00  0.00     0.014 C 
ATOM     24  C   UNL     1     136.682 131.018 148.762  1.00  0.00     0.012 C 
ATOM     25  C   UNL     1     136.865 130.010 145.873  1.00  0.00     0.012 C 
ATOM     26  C   UNL     1     138.911 133.524 142.567  1.00  0.00     0.022 C 
ATOM     27  C   UNL     1     140.417 133.773 142.853  1.00  0.00     0.015 C 
ATOM     28  C   UNL     1     136.087 131.913 143.794  1.00  0.00     0.017 C 
ATOM     29  C   UNL     1     137.737 133.258 140.306  1.00  0.00     0.012 C 
ATOM     30  C   UNL     1     142.714 134.213 141.948  1.00  0.00     0.011 C 
ENDROOT
BRANCH  20  31
ATOM     31  O   UNL     1     139.736 132.631 152.046  1.00  0.00    -0.393 OA
ATOM     32  H   UNL     1     140.567 133.147 152.223  1.00  0.00     0.210 HD
ENDBRANCH  20  31
TORSDOF 1
ENDMDL
MODEL 7
REMARK VINA RESULT:    -6.609      4.624      6.927
REMARK INTER + INTRA:          -6.802
REMARK INTER:                  -6.802
REMARK INTRA:                   0.000
REMARK UNBOUND:                 0.000
REMARK SMILES CC1(C)CC[C@@]2(C)CC[C@]3(C)C(=CC[C@@H]4[C@]5(C)CC[C@@H](O)C(C)(C)[C@H]5CC[C@@]43C)[C@H]2C1
REMARK SMILES IDX 1 1 2 2 4 3 5 4 6 5 8 6 9 7 10 8 12 9 13 10 14 11 15 12
REMARK SMILES IDX 28 13 27 14 26 15 25 16 16 17 18 18 19 19 20 20 22 21 23 22
REMARK SMILES IDX 24 23 17 24 29 25 30 26 31 27 11 28 7 29 3 30 21 31
REMARK H PARENT 21 32
REMARK Flexibility Score: inf
ROOT
ATOM      1  C   UNL     1     140.879 133.641 141.648  1.00  0.00     0.011 C 
ATOM      2  C   UNL     1     141.700 132.683 142.544  1.00  0.00    -0.035 C 
ATOM      3  C   UNL     1     140.756 131.610 143.173  1.00  0.00     0.007 C 
ATOM      4  C   UNL     1     140.930 131.459 144.691  1.00  0.00     0.008 C 
ATOM      5  C   UNL     1     140.741 132.796 145.479  1.00  0.00    -0.026 C 
ATOM      6  C   UNL     1     141.149 132.514 146.959  1.00  0.00     0.008 C 
ATOM      7  C   UNL     1     142.559 132.990 147.289  1.00  0.00     0.012 C 
ATOM      8  C   UNL     1     142.717 134.541 147.166  1.00  0.00    -0.006 C 
ATOM      9  C   UNL     1     142.398 134.891 145.718  1.00  0.00    -0.064 C 
ATOM     10  C   UNL     1     142.771 136.086 145.234  1.00  0.00    -0.027 C 
ATOM     11  C   UNL     1     143.936 136.864 145.748  1.00  0.00     0.032 C 
ATOM     12  C   UNL     1     144.440 136.559 147.191  1.00  0.00     0.006 C 
ATOM     13  C   UNL     1     144.191 135.038 147.610  1.00  0.00    -0.020 C 
ATOM     14  C   UNL     1     145.296 134.155 146.948  1.00  0.00     0.008 C 
ATOM     15  C   UNL     1     146.739 134.634 147.185  1.00  0.00     0.005 C 
ATOM     16  C   UNL     1     146.959 136.095 146.723  1.00  0.00     0.003 C 
ATOM     17  C   UNL     1     145.944 137.092 147.412  1.00  0.00    -0.025 C 
ATOM     18  C   UNL     1     146.144 138.505 146.755  1.00  0.00     0.010 C 
ATOM     19  C   UNL     1     147.603 139.000 146.758  1.00  0.00     0.033 C 
ATOM     20  C   UNL     1     148.549 138.001 146.077  1.00  0.00     0.120 C 
ATOM     21  C   UNL     1     148.475 136.562 146.689  1.00  0.00    -0.006 C 
ATOM     22  C   UNL     1     149.174 136.520 148.076  1.00  0.00     0.014 C 
ATOM     23  C   UNL     1     149.287 135.622 145.750  1.00  0.00     0.014 C 
ATOM     24  C   UNL     1     146.199 137.270 148.947  1.00  0.00     0.012 C 
ATOM     25  C   UNL     1     144.293 134.880 149.170  1.00  0.00     0.012 C 
ATOM     26  C   UNL     1     141.551 133.988 144.794  1.00  0.00     0.022 C 
ATOM     27  C   UNL     1     142.460 133.491 143.637  1.00  0.00     0.015 C 
ATOM     28  C   UNL     1     141.626 135.250 148.030  1.00  0.00     0.017 C 
ATOM     29  C   UNL     1     139.229 133.148 145.474  1.00  0.00     0.012 C 
ATOM     30  C   UNL     1     142.752 131.990 141.649  1.00  0.00     0.011 C 
ENDROOT
BRANCH  20  31
ATOM     31  O   UNL     1     149.861 138.506 146.158  1.00  0.00    -0.393 OA
ATOM     32  H   UNL     1     149.951 139.233 145.486  1.00  0.00     0.210 HD
ENDBRANCH  20  31
TORSDOF 1
ENDMDL
MODEL 8
REMARK VINA RESULT:    -6.569      4.551      6.868
REMARK INTER + INTRA:          -6.761
REMARK INTER:                  -6.761
REMARK INTRA:                   0.000
REMARK UNBOUND:                 0.000
REMARK SMILES CC1(C)CC[C@@]2(C)CC[C@]3(C)C(=CC[C@@H]4[C@]5(C)CC[C@@H](O)C(C)(C)[C@H]5CC[C@@]43C)[C@H]2C1
REMARK SMILES IDX 1 1 2 2 4 3 5 4 6 5 8 6 9 7 10 8 12 9 13 10 14 11 15 12
REMARK SMILES IDX 28 13 27 14 26 15 25 16 16 17 18 18 19 19 20 20 22 21 23 22
REMARK SMILES IDX 24 23 17 24 29 25 30 26 31 27 11 28 7 29 3 30 21 31
REMARK H PARENT 21 32
REMARK Flexibility Score: inf
ROOT
ATOM      1  C   UNL     1     142.391 130.414 144.538  1.00  0.00     0.011 C 
ATOM      2  C   UNL     1     143.450 130.357 145.666  1.00  0.00    -0.035 C 
ATOM      3  C   UNL     1     142.892 129.542 146.874  1.00  0.00     0.007 C 
ATOM      4  C   UNL     1     143.053 130.260 148.222  1.00  0.00     0.008 C 
ATOM      5  C   UNL     1     142.406 131.683 148.253  1.00  0.00    -0.026 C 
ATOM      6  C   UNL     1     142.832 132.347 149.600  1.00  0.00     0.008 C 
ATOM      7  C   UNL     1     143.994 133.322 149.442  1.00  0.00     0.012 C 
ATOM      8  C   UNL     1     143.636 134.547 148.539  1.00  0.00    -0.006 C 
ATOM      9  C   UNL     1     143.270 133.981 147.172  1.00  0.00    -0.064 C 
ATOM     10  C   UNL     1     143.245 134.798 146.109  1.00  0.00    -0.027 C 
ATOM     11  C   UNL     1     144.069 136.037 145.992  1.00  0.00     0.032 C 
ATOM     12  C   UNL     1     144.595 136.692 147.306  1.00  0.00     0.006 C 
ATOM     13  C   UNL     1     144.847 135.616 148.459  1.00  0.00    -0.020 C 
ATOM     14  C   UNL     1     146.204 134.897 148.177  1.00  0.00     0.008 C 
ATOM     15  C   UNL     1     147.399 135.835 147.934  1.00  0.00     0.005 C 
ATOM     16  C   UNL     1     147.140 136.831 146.777  1.00  0.00     0.003 C 
ATOM     17  C   UNL     1     145.830 137.683 147.012  1.00  0.00    -0.025 C 
ATOM     18  C   UNL     1     145.576 138.534 145.717  1.00  0.00     0.010 C 
ATOM     19  C   UNL     1     146.788 139.368 145.263  1.00  0.00     0.033 C 
ATOM     20  C   UNL     1     148.034 138.498 145.045  1.00  0.00     0.120 C 
ATOM     21  C   UNL     1     148.418 137.641 146.297  1.00  0.00    -0.006 C 
ATOM     22  C   UNL     1     149.043 138.536 147.403  1.00  0.00     0.014 C 
ATOM     23  C   UNL     1     149.527 136.644 145.849  1.00  0.00     0.014 C 
ATOM     24  C   UNL     1     145.958 138.698 148.199  1.00  0.00     0.012 C 
ATOM     25  C   UNL     1     144.940 136.329 149.856  1.00  0.00     0.012 C 
ATOM     26  C   UNL     1     142.801 132.525 146.956  1.00  0.00     0.022 C 
ATOM     27  C   UNL     1     143.863 131.798 146.087  1.00  0.00     0.015 C 
ATOM     28  C   UNL     1     142.342 135.237 149.080  1.00  0.00     0.017 C 
ATOM     29  C   UNL     1     140.864 131.510 148.290  1.00  0.00     0.012 C 
ATOM     30  C   UNL     1     144.702 129.653 145.097  1.00  0.00     0.011 C 
ENDROOT
BRANCH  20  31
ATOM     31  O   UNL     1     149.103 139.337 144.674  1.00  0.00    -0.393 OA
ATOM     32  H   UNL     1     149.564 139.628 145.506  1.00  0.00     0.210 HD
ENDBRANCH  20  31
TORSDOF 1
ENDMDL
MODEL 9
REMARK VINA RESULT:    -6.475      6.459      8.601
REMARK INTER + INTRA:          -6.664
REMARK INTER:                  -6.664
REMARK INTRA:                   0.000
REMARK UNBOUND:                 0.000
REMARK SMILES CC1(C)CC[C@@]2(C)CC[C@]3(C)C(=CC[C@@H]4[C@]5(C)CC[C@@H](O)C(C)(C)[C@H]5CC[C@@]43C)[C@H]2C1
REMARK SMILES IDX 1 1 2 2 4 3 5 4 6 5 8 6 9 7 10 8 12 9 13 10 14 11 15 12
REMARK SMILES IDX 28 13 27 14 26 15 25 16 16 17 18 18 19 19 20 20 22 21 23 22
REMARK SMILES IDX 24 23 17 24 29 25 30 26 31 27 11 28 7 29 3 30 21 31
REMARK H PARENT 21 32
REMARK Flexibility Score: inf
ROOT
ATOM      1  C   UNL     1     142.865 132.616 149.506  1.00  0.00     0.011 C 
ATOM      2  C   UNL     1     141.871 133.725 149.082  1.00  0.00    -0.035 C 
ATOM      3  C   UNL     1     140.878 134.018 150.250  1.00  0.00     0.007 C 
ATOM      4  C   UNL     1     139.406 134.020 149.813  1.00  0.00     0.008 C 
ATOM      5  C   UNL     1     138.959 132.694 149.115  1.00  0.00    -0.026 C 
ATOM      6  C   UNL     1     137.522 132.936 148.557  1.00  0.00     0.008 C 
ATOM      7  C   UNL     1     137.506 133.252 147.066  1.00  0.00     0.012 C 
ATOM      8  C   UNL     1     138.032 132.067 146.192  1.00  0.00    -0.006 C 
ATOM      9  C   UNL     1     139.468 131.812 146.633  1.00  0.00    -0.064 C 
ATOM     10  C   UNL     1     140.279 131.090 145.845  1.00  0.00    -0.027 C 
ATOM     11  C   UNL     1     140.131 130.997 144.363  1.00  0.00     0.032 C 
ATOM     12  C   UNL     1     138.734 131.315 143.746  1.00  0.00     0.006 C 
ATOM     13  C   UNL     1     137.920 132.384 144.609  1.00  0.00    -0.020 C 
ATOM     14  C   UNL     1     138.478 133.807 144.289  1.00  0.00     0.008 C 
ATOM     15  C   UNL     1     138.558 134.152 142.791  1.00  0.00     0.005 C 
ATOM     16  C   UNL     1     139.394 133.123 141.993  1.00  0.00     0.003 C 
ATOM     17  C   UNL     1     138.851 131.650 142.175  1.00  0.00    -0.025 C 
ATOM     18  C   UNL     1     139.859 130.678 141.463  1.00  0.00     0.010 C 
ATOM     19  C   UNL     1     140.169 131.051 140.002  1.00  0.00     0.033 C 
ATOM     20  C   UNL     1     140.696 132.488 139.876  1.00  0.00     0.120 C 
ATOM     21  C   UNL     1     139.740 133.556 140.506  1.00  0.00    -0.006 C 
ATOM     22  C   UNL     1     138.489 133.768 139.609  1.00  0.00     0.014 C 
ATOM     23  C   UNL     1     140.512 134.908 140.524  1.00  0.00     0.014 C 
ATOM     24  C   UNL     1     137.454 131.419 141.502  1.00  0.00     0.012 C 
ATOM     25  C   UNL     1     136.398 132.346 144.227  1.00  0.00     0.012 C 
ATOM     26  C   UNL     1     140.019 132.239 148.012  1.00  0.00     0.022 C 
ATOM     27  C   UNL     1     141.123 133.307 147.782  1.00  0.00     0.015 C 
ATOM     28  C   UNL     1     137.238 130.767 146.539  1.00  0.00     0.017 C 
ATOM     29  C   UNL     1     138.855 131.589 150.200  1.00  0.00     0.012 C 
ATOM     30  C   UNL     1     142.693 134.995 148.768  1.00  0.00     0.011 C 
ENDROOT
BRANCH  20  31
ATOM     31  O   UNL     1     140.914 132.764 138.512  1.00  0.00    -0.393 OA
ATOM     32  H   UNL     1     140.224 133.417 138.219  1.00  0.00     0.210 HD
ENDBRANCH  20  31
TORSDOF 1
ENDMDL
