MODEL 1
REMARK VINA RESULT:    -3.765      0.000      0.000
REMARK INTER + INTRA:          -6.458
REMARK INTER:                  -5.857
REMARK INTRA:                  -0.601
REMARK UNBOUND:                -0.601
REMARK SMILES COc1cc(CNC(=O)CCCCC=CC(C)C)ccc1O
REMARK SMILES IDX 11 1 12 2 13 3 14 4 15 5 16 6 17 7 18 8 10 9 8 10 9 11 7 12
REMARK SMILES IDX 6 14 5 15 4 16 19 17 3 18 20 19 21 20 2 21 1 22 22 23
REMARK H PARENT 7 13 22 24
REMARK Flexibility Score: inf
ROOT
ATOM      1  C   UNL     1      11.879 -32.479  13.627  1.00  0.00     0.010 C 
ENDROOT
BRANCH   1   2
ATOM      2  C   UNL     1      12.405 -31.372  14.551  1.00  0.00     0.005 C 
BRANCH   2   3
ATOM      3  C   UNL     1      13.582 -30.622  13.916  1.00  0.00     0.027 C 
BRANCH   3   4
ATOM      4  C   UNL     1      14.883 -30.993  14.574  1.00  0.00    -0.031 C 
ATOM      5  C   UNL     1      15.959 -31.359  13.859  1.00  0.00    -0.028 C 
BRANCH   5   6
ATOM      6  C   UNL     1      17.266 -31.703  14.533  1.00  0.00     0.005 C 
ATOM      7  C   UNL     1      18.355 -31.960  13.488  1.00  0.00     0.012 C 
ATOM      8  C   UNL     1      17.093 -32.924  15.442  1.00  0.00     0.012 C 
ENDBRANCH   5   6
ENDBRANCH   3   4
ENDBRANCH   2   3
ENDBRANCH   1   2
BRANCH   1   9
ATOM      9  C   UNL     1      10.522 -32.123  13.004  1.00  0.00     0.100 C 
BRANCH   9  10
ATOM     10  C   UNL     1       9.509 -33.215  13.206  1.00  0.00     0.220 C 
ATOM     11  O   UNL     1       9.878 -34.419  13.154  1.00  0.00    -0.275 OA
ATOM     12  N   UNL     1       8.142 -32.885  13.492  1.00  0.00    -0.352 N 
ATOM     13  H   UNL     1       7.848 -31.882  13.461  1.00  0.00     0.163 HD
BRANCH  12  14
ATOM     14  C   UNL     1       7.194 -33.849  14.048  1.00  0.00     0.151 C 
BRANCH  14  15
ATOM     15  C   UNL     1       7.313 -33.863  15.547  1.00  0.00    -0.025 A 
ATOM     16  C   UNL     1       7.756 -32.721  16.230  1.00  0.00     0.056 A 
ATOM     17  C   UNL     1       6.905 -34.989  16.277  1.00  0.00     0.009 A 
ATOM     18  C   UNL     1       7.799 -32.701  17.638  1.00  0.00     0.160 A 
ATOM     19  C   UNL     1       6.970 -34.983  17.672  1.00  0.00     0.050 A 
ATOM     20  C   UNL     1       7.420 -33.846  18.353  1.00  0.00     0.157 A 
BRANCH  18  21
ATOM     21  O   UNL     1       8.204 -31.566  18.358  1.00  0.00    -0.493 OA
ATOM     22  C   UNL     1       9.516 -31.366  18.875  1.00  0.00     0.278 C 
ENDBRANCH  18  21
BRANCH  20  23
ATOM     23  O   UNL     1       7.490 -33.844  19.745  1.00  0.00    -0.504 OA
ATOM     24  H   UNL     1       6.999 -33.153  20.300  1.00  0.00     0.293 HD
ENDBRANCH  20  23
ENDBRANCH  14  15
ENDBRANCH  12  14
ENDBRANCH   9  10
ENDBRANCH   1   9
TORSDOF 10
ENDMDL
MODEL 2
REMARK VINA RESULT:    -2.652      3.262      6.296
REMARK INTER + INTRA:          -4.725
REMARK INTER:                  -3.778
REMARK INTRA:                  -0.947
REMARK UNBOUND:                -0.601
REMARK SMILES COc1cc(CNC(=O)CCCCC=CC(C)C)ccc1O
REMARK SMILES IDX 11 1 12 2 13 3 14 4 15 5 16 6 17 7 18 8 10 9 8 10 9 11 7 12
REMARK SMILES IDX 6 14 5 15 4 16 19 17 3 18 20 19 21 20 2 21 1 22 22 23
REMARK H PARENT 7 13 22 24
REMARK Flexibility Score: inf
ROOT
ATOM      1  C   UNL     1      10.457 -34.799  13.213  1.00  0.00     0.010 C 
ENDROOT
BRANCH   1   2
ATOM      2  C   UNL     1      11.099 -36.165  13.496  1.00  0.00     0.005 C 
BRANCH   2   3
ATOM      3  C   UNL     1      10.165 -37.315  13.103  1.00  0.00     0.027 C 
BRANCH   3   4
ATOM      4  C   UNL     1       8.722 -36.899  13.187  1.00  0.00    -0.031 C 
ATOM      5  C   UNL     1       7.834 -37.571  13.935  1.00  0.00    -0.028 C 
BRANCH   5   6
ATOM      6  C   UNL     1       6.394 -37.125  14.030  1.00  0.00     0.005 C 
ATOM      7  C   UNL     1       6.253 -35.671  13.572  1.00  0.00     0.012 C 
ATOM      8  C   UNL     1       5.877 -37.291  15.463  1.00  0.00     0.012 C 
ENDBRANCH   5   6
ENDBRANCH   3   4
ENDBRANCH   2   3
ENDBRANCH   1   2
BRANCH   1   9
ATOM      9  C   UNL     1      11.503 -33.687  13.041  1.00  0.00     0.100 C 
BRANCH   9  10
ATOM     10  C   UNL     1      11.018 -32.373  13.586  1.00  0.00     0.220 C 
ATOM     11  O   UNL     1      10.182 -31.700  12.925  1.00  0.00    -0.275 OA
ATOM     12  N   UNL     1      11.477 -31.910  14.864  1.00  0.00    -0.352 N 
ATOM     13  H   UNL     1      12.222 -32.452  15.359  1.00  0.00     0.163 HD
BRANCH  12  14
ATOM     14  C   UNL     1      10.800 -30.854  15.614  1.00  0.00     0.151 C 
BRANCH  14  15
ATOM     15  C   UNL     1       9.889 -31.470  16.640  1.00  0.00    -0.025 A 
ATOM     16  C   UNL     1       8.899 -32.383  16.245  1.00  0.00     0.056 A 
ATOM     17  C   UNL     1      10.074 -31.199  18.003  1.00  0.00     0.009 A 
ATOM     18  C   UNL     1       8.091 -33.021  17.206  1.00  0.00     0.160 A 
ATOM     19  C   UNL     1       9.259 -31.810  18.958  1.00  0.00     0.050 A 
ATOM     20  C   UNL     1       8.266 -32.715  18.564  1.00  0.00     0.157 A 
BRANCH  18  21
ATOM     21  O   UNL     1       7.114 -33.965  16.854  1.00  0.00    -0.493 OA
ATOM     22  C   UNL     1       5.882 -33.647  16.214  1.00  0.00     0.278 C 
ENDBRANCH  18  21
BRANCH  20  23
ATOM     23  O   UNL     1       7.448 -33.319  19.518  1.00  0.00    -0.504 OA
ATOM     24  H   UNL     1       6.750 -32.792  20.029  1.00  0.00     0.293 HD
ENDBRANCH  20  23
ENDBRANCH  14  15
ENDBRANCH  12  14
ENDBRANCH   9  10
ENDBRANCH   1   9
TORSDOF 10
ENDMDL
MODEL 3
REMARK VINA RESULT:    -2.376      3.737      7.265
REMARK INTER + INTRA:          -4.297
REMARK INTER:                  -3.418
REMARK INTRA:                  -0.879
REMARK UNBOUND:                -0.601
REMARK SMILES COc1cc(CNC(=O)CCCCC=CC(C)C)ccc1O
REMARK SMILES IDX 11 1 12 2 13 3 14 4 15 5 16 6 17 7 18 8 10 9 8 10 9 11 7 12
REMARK SMILES IDX 6 14 5 15 4 16 19 17 3 18 20 19 21 20 2 21 1 22 22 23
REMARK H PARENT 7 13 22 24
REMARK Flexibility Score: inf
ROOT
ATOM      1  C   UNL     1       9.512 -32.256  18.308  1.00  0.00     0.010 C 
ENDROOT
BRANCH   1   2
ATOM      2  C   UNL     1       8.100 -32.026  18.864  1.00  0.00     0.005 C 
BRANCH   2   3
ATOM      3  C   UNL     1       7.432 -33.348  19.263  1.00  0.00     0.027 C 
BRANCH   3   4
ATOM      4  C   UNL     1       6.943 -34.097  18.053  1.00  0.00    -0.031 C 
ATOM      5  C   UNL     1       7.419 -35.311  17.732  1.00  0.00    -0.028 C 
BRANCH   5   6
ATOM      6  C   UNL     1       6.899 -36.062  16.530  1.00  0.00     0.005 C 
ATOM      7  C   UNL     1       5.876 -35.214  15.770  1.00  0.00     0.012 C 
ATOM      8  C   UNL     1       6.280 -37.396  16.960  1.00  0.00     0.012 C 
ENDBRANCH   5   6
ENDBRANCH   3   4
ENDBRANCH   2   3
ENDBRANCH   1   2
BRANCH   1   9
ATOM      9  C   UNL     1       9.806 -31.383  17.080  1.00  0.00     0.100 C 
BRANCH   9  10
ATOM     10  C   UNL     1       9.345 -32.033  15.806  1.00  0.00     0.220 C 
ATOM     11  O   UNL     1       8.173 -32.492  15.735  1.00  0.00    -0.275 OA
ATOM     12  N   UNL     1      10.221 -32.096  14.672  1.00  0.00    -0.352 N 
ATOM     13  H   UNL     1      11.209 -31.770  14.779  1.00  0.00     0.163 HD
BRANCH  12  14
ATOM     14  C   UNL     1       9.746 -32.373  13.318  1.00  0.00     0.151 C 
BRANCH  14  15
ATOM     15  C   UNL     1       9.447 -33.840  13.180  1.00  0.00    -0.025 A 
ATOM     16  C   UNL     1      10.467 -34.788  13.357  1.00  0.00     0.056 A 
ATOM     17  C   UNL     1       8.133 -34.276  12.954  1.00  0.00     0.009 A 
ATOM     18  C   UNL     1      10.181 -36.166  13.303  1.00  0.00     0.160 A 
ATOM     19  C   UNL     1       7.849 -35.640  12.875  1.00  0.00     0.050 A 
ATOM     20  C   UNL     1       8.869 -36.585  13.043  1.00  0.00     0.157 A 
BRANCH  18  21
ATOM     21  O   UNL     1      11.168 -37.142  13.509  1.00  0.00    -0.493 OA
ATOM     22  C   UNL     1      12.569 -36.887  13.487  1.00  0.00     0.278 C 
ENDBRANCH  18  21
BRANCH  20  23
ATOM     23  O   UNL     1       8.585 -37.947  12.958  1.00  0.00    -0.504 OA
ATOM     24  H   UNL     1       9.267 -38.611  12.609  1.00  0.00     0.293 HD
ENDBRANCH  20  23
ENDBRANCH  14  15
ENDBRANCH  12  14
ENDBRANCH   9  10
ENDBRANCH   1   9
TORSDOF 10
ENDMDL
MODEL 4
REMARK VINA RESULT:    -2.310      3.007      5.262
REMARK INTER + INTRA:          -4.194
REMARK INTER:                  -3.717
REMARK INTRA:                  -0.476
REMARK UNBOUND:                -0.601
REMARK SMILES COc1cc(CNC(=O)CCCCC=CC(C)C)ccc1O
REMARK SMILES IDX 11 1 12 2 13 3 14 4 15 5 16 6 17 7 18 8 10 9 8 10 9 11 7 12
REMARK SMILES IDX 6 14 5 15 4 16 19 17 3 18 20 19 21 20 2 21 1 22 22 23
REMARK H PARENT 7 13 22 24
REMARK Flexibility Score: inf
ROOT
ATOM      1  C   UNL     1      16.542 -32.075  14.257  1.00  0.00     0.010 C 
ENDROOT
BRANCH   1   2
ATOM      2  C   UNL     1      17.555 -31.359  13.353  1.00  0.00     0.005 C 
BRANCH   2   3
ATOM      3  C   UNL     1      18.981 -31.479  13.903  1.00  0.00     0.027 C 
BRANCH   3   4
ATOM      4  C   UNL     1      19.910 -30.509  13.225  1.00  0.00    -0.031 C 
ATOM      5  C   UNL     1      20.017 -29.233  13.627  1.00  0.00    -0.028 C 
BRANCH   5   6
ATOM      6  C   UNL     1      20.973 -28.277  12.953  1.00  0.00     0.005 C 
ATOM      7  C   UNL     1      22.309 -28.241  13.701  1.00  0.00     0.012 C 
ATOM      8  C   UNL     1      20.362 -26.875  12.876  1.00  0.00     0.012 C 
ENDBRANCH   5   6
ENDBRANCH   3   4
ENDBRANCH   2   3
ENDBRANCH   1   2
BRANCH   1   9
ATOM      9  C   UNL     1      15.659 -31.090  15.038  1.00  0.00     0.100 C 
BRANCH   9  10
ATOM     10  C   UNL     1      14.440 -30.689  14.256  1.00  0.00     0.220 C 
ATOM     11  O   UNL     1      14.553 -29.853  13.319  1.00  0.00    -0.275 OA
ATOM     12  N   UNL     1      13.168 -31.283  14.552  1.00  0.00    -0.352 N 
ATOM     13  H   UNL     1      13.088 -31.920  15.376  1.00  0.00     0.163 HD
BRANCH  12  14
ATOM     14  C   UNL     1      12.034 -31.227  13.630  1.00  0.00     0.151 C 
BRANCH  14  15
ATOM     15  C   UNL     1      11.233 -32.495  13.741  1.00  0.00    -0.025 A 
ATOM     16  C   UNL     1      10.072 -32.529  14.530  1.00  0.00     0.056 A 
ATOM     17  C   UNL     1      11.594 -33.627  12.995  1.00  0.00     0.009 A 
ATOM     18  C   UNL     1       9.276 -33.690  14.580  1.00  0.00     0.160 A 
ATOM     19  C   UNL     1      10.821 -34.787  13.061  1.00  0.00     0.050 A 
ATOM     20  C   UNL     1       9.668 -34.824  13.854  1.00  0.00     0.157 A 
BRANCH  18  21
ATOM     21  O   UNL     1       8.091 -33.750  15.329  1.00  0.00    -0.493 OA
ATOM     22  C   UNL     1       7.981 -33.360  16.694  1.00  0.00     0.278 C 
ENDBRANCH  18  21
BRANCH  20  23
ATOM     23  O   UNL     1       8.900 -35.986  13.924  1.00  0.00    -0.504 OA
ATOM     24  H   UNL     1       8.606 -36.478  13.089  1.00  0.00     0.293 HD
ENDBRANCH  20  23
ENDBRANCH  14  15
ENDBRANCH  12  14
ENDBRANCH   9  10
ENDBRANCH   1   9
TORSDOF 10
ENDMDL
MODEL 5
REMARK VINA RESULT:    -2.175      3.513      7.130
REMARK INTER + INTRA:          -3.985
REMARK INTER:                  -3.708
REMARK INTRA:                  -0.277
REMARK UNBOUND:                -0.601
REMARK SMILES COc1cc(CNC(=O)CCCCC=CC(C)C)ccc1O
REMARK SMILES IDX 11 1 12 2 13 3 14 4 15 5 16 6 17 7 18 8 10 9 8 10 9 11 7 12
REMARK SMILES IDX 6 14 5 15 4 16 19 17 3 18 20 19 21 20 2 21 1 22 22 23
REMARK H PARENT 7 13 22 24
REMARK Flexibility Score: inf
ROOT
ATOM      1  C   UNL     1       9.983 -31.609  18.134  1.00  0.00     0.010 C 
ENDROOT
BRANCH   1   2
ATOM      2  C   UNL     1       8.584 -31.088  18.490  1.00  0.00     0.005 C 
BRANCH   2   3
ATOM      3  C   UNL     1       7.731 -32.177  19.151  1.00  0.00     0.027 C 
BRANCH   3   4
ATOM      4  C   UNL     1       7.182 -33.135  18.129  1.00  0.00    -0.031 C 
ATOM      5  C   UNL     1       7.807 -34.283  17.828  1.00  0.00    -0.028 C 
BRANCH   5   6
ATOM      6  C   UNL     1       7.231 -35.247  16.819  1.00  0.00     0.005 C 
ATOM      7  C   UNL     1       5.971 -34.659  16.176  1.00  0.00     0.012 C 
ATOM      8  C   UNL     1       6.918 -36.592  17.482  1.00  0.00     0.012 C 
ENDBRANCH   5   6
ENDBRANCH   3   4
ENDBRANCH   2   3
ENDBRANCH   1   2
BRANCH   1   9
ATOM      9  C   UNL     1      10.532 -30.975  16.848  1.00  0.00     0.100 C 
BRANCH   9  10
ATOM     10  C   UNL     1      10.147 -31.760  15.626  1.00  0.00     0.220 C 
ATOM     11  O   UNL     1       9.022 -32.329  15.585  1.00  0.00    -0.275 OA
ATOM     12  N   UNL     1      11.038 -31.830  14.504  1.00  0.00    -0.352 N 
ATOM     13  H   UNL     1      11.991 -31.408  14.590  1.00  0.00     0.163 HD
BRANCH  12  14
ATOM     14  C   UNL     1      10.606 -32.252  13.173  1.00  0.00     0.151 C 
BRANCH  14  15
ATOM     15  C   UNL     1      10.453 -33.748  13.145  1.00  0.00    -0.025 A 
ATOM     16  C   UNL     1       9.175 -34.325  13.082  1.00  0.00     0.056 A 
ATOM     17  C   UNL     1      11.586 -34.573  13.099  1.00  0.00     0.009 A 
ATOM     18  C   UNL     1       9.025 -35.722  12.980  1.00  0.00     0.160 A 
ATOM     19  C   UNL     1      11.442 -35.960  13.023  1.00  0.00     0.050 A 
ATOM     20  C   UNL     1      10.167 -36.536  12.969  1.00  0.00     0.157 A 
BRANCH  18  21
ATOM     21  O   UNL     1       7.766 -36.333  12.881  1.00  0.00    -0.493 OA
ATOM     22  C   UNL     1       6.532 -35.687  13.177  1.00  0.00     0.278 C 
ENDBRANCH  18  21
BRANCH  20  23
ATOM     23  O   UNL     1      10.025 -37.921  12.900  1.00  0.00    -0.504 OA
ATOM     24  H   UNL     1       9.886 -38.397  12.015  1.00  0.00     0.293 HD
ENDBRANCH  20  23
ENDBRANCH  14  15
ENDBRANCH  12  14
ENDBRANCH   9  10
ENDBRANCH   1   9
TORSDOF 10
ENDMDL
MODEL 6
REMARK VINA RESULT:    -1.588      3.255      7.581
REMARK INTER + INTRA:          -3.072
REMARK INTER:                  -1.969
REMARK INTRA:                  -1.103
REMARK UNBOUND:                -0.601
REMARK SMILES COc1cc(CNC(=O)CCCCC=CC(C)C)ccc1O
REMARK SMILES IDX 11 1 12 2 13 3 14 4 15 5 16 6 17 7 18 8 10 9 8 10 9 11 7 12
REMARK SMILES IDX 6 14 5 15 4 16 19 17 3 18 20 19 21 20 2 21 1 22 22 23
REMARK H PARENT 7 13 22 24
REMARK Flexibility Score: inf
ROOT
ATOM      1  C   UNL     1       7.627 -36.532  17.764  1.00  0.00     0.010 C 
ENDROOT
BRANCH   1   2
ATOM      2  C   UNL     1       6.960 -37.880  17.458  1.00  0.00     0.005 C 
BRANCH   2   3
ATOM      3  C   UNL     1       5.877 -37.739  16.381  1.00  0.00     0.027 C 
BRANCH   3   4
ATOM      4  C   UNL     1       6.476 -37.365  15.053  1.00  0.00    -0.031 C 
ATOM      5  C   UNL     1       6.136 -36.234  14.416  1.00  0.00    -0.028 C 
BRANCH   5   6
ATOM      6  C   UNL     1       6.765 -35.860  13.095  1.00  0.00     0.005 C 
ATOM      7  C   UNL     1       8.078 -36.620  12.893  1.00  0.00     0.012 C 
ATOM      8  C   UNL     1       7.002 -34.348  13.026  1.00  0.00     0.012 C 
ENDBRANCH   5   6
ENDBRANCH   3   4
ENDBRANCH   2   3
ENDBRANCH   1   2
BRANCH   1   9
ATOM      9  C   UNL     1       6.602 -35.434  18.085  1.00  0.00     0.100 C 
BRANCH   9  10
ATOM     10  C   UNL     1       7.031 -34.095  17.555  1.00  0.00     0.220 C 
ATOM     11  O   UNL     1       6.387 -33.570  16.606  1.00  0.00    -0.275 OA
ATOM     12  N   UNL     1       8.140 -33.406  18.150  1.00  0.00    -0.352 N 
ATOM     13  H   UNL     1       8.699 -33.893  18.888  1.00  0.00     0.163 HD
BRANCH  12  14
ATOM     14  C   UNL     1       8.389 -31.980  17.946  1.00  0.00     0.151 C 
BRANCH  14  15
ATOM     15  C   UNL     1       9.457 -31.800  16.903  1.00  0.00    -0.025 A 
ATOM     16  C   UNL     1       9.335 -32.429  15.654  1.00  0.00     0.056 A 
ATOM     17  C   UNL     1      10.539 -30.941  17.140  1.00  0.00     0.009 A 
ATOM     18  C   UNL     1      10.292 -32.206  14.645  1.00  0.00     0.160 A 
ATOM     19  C   UNL     1      11.504 -30.737  16.151  1.00  0.00     0.050 A 
ATOM     20  C   UNL     1      11.387 -31.370  14.908  1.00  0.00     0.157 A 
BRANCH  18  21
ATOM     21  O   UNL     1      10.186 -32.789  13.372  1.00  0.00    -0.493 OA
ATOM     22  C   UNL     1      10.762 -34.040  13.010  1.00  0.00     0.278 C 
ENDBRANCH  18  21
BRANCH  20  23
ATOM     23  O   UNL     1      12.354 -31.170  13.924  1.00  0.00    -0.504 OA
ATOM     24  H   UNL     1      12.877 -31.943  13.530  1.00  0.00     0.293 HD
ENDBRANCH  20  23
ENDBRANCH  14  15
ENDBRANCH  12  14
ENDBRANCH   9  10
ENDBRANCH   1   9
TORSDOF 10
ENDMDL
MODEL 7
REMARK VINA RESULT:    -1.413      3.232      6.399
REMARK INTER + INTRA:          -2.800
REMARK INTER:                  -3.235
REMARK INTRA:                   0.435
REMARK UNBOUND:                -0.601
REMARK SMILES COc1cc(CNC(=O)CCCCC=CC(C)C)ccc1O
REMARK SMILES IDX 11 1 12 2 13 3 14 4 15 5 16 6 17 7 18 8 10 9 8 10 9 11 7 12
REMARK SMILES IDX 6 14 5 15 4 16 19 17 3 18 20 19 21 20 2 21 1 22 22 23
REMARK H PARENT 7 13 22 24
REMARK Flexibility Score: inf
ROOT
ATOM      1  C   UNL     1       9.424 -35.939  13.608  1.00  0.00     0.010 C 
ENDROOT
BRANCH   1   2
ATOM      2  C   UNL     1       7.984 -35.760  13.108  1.00  0.00     0.005 C 
BRANCH   2   3
ATOM      3  C   UNL     1       7.183 -37.062  13.229  1.00  0.00     0.027 C 
BRANCH   3   4
ATOM      4  C   UNL     1       6.742 -37.300  14.648  1.00  0.00    -0.031 C 
ATOM      5  C   UNL     1       6.915 -36.378  15.608  1.00  0.00    -0.028 C 
BRANCH   5   6
ATOM      6  C   UNL     1       6.444 -36.621  17.021  1.00  0.00     0.005 C 
ATOM      7  C   UNL     1       7.395 -35.961  18.024  1.00  0.00     0.012 C 
ATOM      8  C   UNL     1       6.331 -38.124  17.296  1.00  0.00     0.012 C 
ENDBRANCH   5   6
ENDBRANCH   3   4
ENDBRANCH   2   3
ENDBRANCH   1   2
BRANCH   1   9
ATOM      9  C   UNL     1      10.414 -35.021  12.876  1.00  0.00     0.100 C 
BRANCH   9  10
ATOM     10  C   UNL     1      10.207 -33.576  13.231  1.00  0.00     0.220 C 
ATOM     11  O   UNL     1       9.145 -32.997  12.876  1.00  0.00    -0.275 OA
ATOM     12  N   UNL     1      11.195 -32.875  14.000  1.00  0.00    -0.352 N 
ATOM     13  H   UNL     1      12.096 -33.357  14.223  1.00  0.00     0.163 HD
BRANCH  12  14
ATOM     14  C   UNL     1      10.919 -31.613  14.684  1.00  0.00     0.151 C 
BRANCH  14  15
ATOM     15  C   UNL     1       9.939 -31.849  15.800  1.00  0.00    -0.025 A 
ATOM     16  C   UNL     1      10.146 -31.259  17.057  1.00  0.00     0.056 A 
ATOM     17  C   UNL     1       8.772 -32.593  15.571  1.00  0.00     0.009 A 
ATOM     18  C   UNL     1       9.196 -31.414  18.085  1.00  0.00     0.160 A 
ATOM     19  C   UNL     1       7.840 -32.770  16.595  1.00  0.00     0.050 A 
ATOM     20  C   UNL     1       8.050 -32.188  17.851  1.00  0.00     0.157 A 
BRANCH  18  21
ATOM     21  O   UNL     1       9.351 -30.811  19.343  1.00  0.00    -0.493 OA
ATOM     22  C   UNL     1      10.046 -31.400  20.437  1.00  0.00     0.278 C 
ENDBRANCH  18  21
BRANCH  20  23
ATOM     23  O   UNL     1       7.121 -32.372  18.874  1.00  0.00    -0.504 OA
ATOM     24  H   UNL     1       6.130 -32.457  18.681  1.00  0.00     0.293 HD
ENDBRANCH  20  23
ENDBRANCH  14  15
ENDBRANCH  12  14
ENDBRANCH   9  10
ENDBRANCH   1   9
TORSDOF 10
ENDMDL
MODEL 8
REMARK VINA RESULT:    -1.148      3.522      6.630
REMARK INTER + INTRA:          -2.387
REMARK INTER:                  -1.023
REMARK INTRA:                  -1.364
REMARK UNBOUND:                -0.601
REMARK SMILES COc1cc(CNC(=O)CCCCC=CC(C)C)ccc1O
REMARK SMILES IDX 11 1 12 2 13 3 14 4 15 5 16 6 17 7 18 8 10 9 8 10 9 11 7 12
REMARK SMILES IDX 6 14 5 15 4 16 19 17 3 18 20 19 21 20 2 21 1 22 22 23
REMARK H PARENT 7 13 22 24
REMARK Flexibility Score: inf
ROOT
ATOM      1  C   UNL     1      11.089 -31.071  17.198  1.00  0.00     0.010 C 
ENDROOT
BRANCH   1   2
ATOM      2  C   UNL     1      10.037 -30.448  18.126  1.00  0.00     0.005 C 
BRANCH   2   3
ATOM      3  C   UNL     1       9.428 -31.495  19.066  1.00  0.00     0.027 C 
BRANCH   3   4
ATOM      4  C   UNL     1       8.878 -32.665  18.296  1.00  0.00    -0.031 C 
ATOM      5  C   UNL     1       7.566 -32.795  18.048  1.00  0.00    -0.028 C 
BRANCH   5   6
ATOM      6  C   UNL     1       7.032 -33.961  17.250  1.00  0.00     0.005 C 
ATOM      7  C   UNL     1       8.183 -34.751  16.621  1.00  0.00     0.012 C 
ATOM      8  C   UNL     1       6.063 -33.471  16.170  1.00  0.00     0.012 C 
ENDBRANCH   5   6
ENDBRANCH   3   4
ENDBRANCH   2   3
ENDBRANCH   1   2
BRANCH   1   9
ATOM      9  C   UNL     1      11.155 -30.368  15.835  1.00  0.00     0.100 C 
BRANCH   9  10
ATOM     10  C   UNL     1      11.520 -31.319  14.730  1.00  0.00     0.220 C 
ATOM     11  O   UNL     1      12.708 -31.733  14.638  1.00  0.00    -0.275 OA
ATOM     12  N   UNL     1      10.517 -31.778  13.813  1.00  0.00    -0.352 N 
ATOM     13  H   UNL     1       9.557 -31.367  13.869  1.00  0.00     0.163 HD
BRANCH  12  14
ATOM     14  C   UNL     1      10.700 -32.951  12.961  1.00  0.00     0.151 C 
BRANCH  14  15
ATOM     15  C   UNL     1       9.429 -33.755  12.932  1.00  0.00    -0.025 A 
ATOM     16  C   UNL     1       9.478 -35.154  13.042  1.00  0.00     0.056 A 
ATOM     17  C   UNL     1       8.186 -33.110  12.875  1.00  0.00     0.009 A 
ATOM     18  C   UNL     1       8.289 -35.908  13.091  1.00  0.00     0.160 A 
ATOM     19  C   UNL     1       7.006 -33.856  12.898  1.00  0.00     0.050 A 
ATOM     20  C   UNL     1       7.054 -35.252  13.000  1.00  0.00     0.157 A 
BRANCH  18  21
ATOM     21  O   UNL     1       8.296 -37.304  13.236  1.00  0.00    -0.493 OA
ATOM     22  C   UNL     1       9.448 -38.125  13.069  1.00  0.00     0.278 C 
ENDBRANCH  18  21
BRANCH  20  23
ATOM     23  O   UNL     1       5.875 -35.995  13.016  1.00  0.00    -0.504 OA
ATOM     24  H   UNL     1       4.981 -35.568  13.228  1.00  0.00     0.293 HD
ENDBRANCH  20  23
ENDBRANCH  14  15
ENDBRANCH  12  14
ENDBRANCH   9  10
ENDBRANCH   1   9
TORSDOF 10
ENDMDL
MODEL 9
REMARK VINA RESULT:    -0.936      1.095      2.079
REMARK INTER + INTRA:          -2.057
REMARK INTER:                  -1.301
REMARK INTRA:                  -0.756
REMARK UNBOUND:                -0.601
REMARK SMILES COc1cc(CNC(=O)CCCCC=CC(C)C)ccc1O
REMARK SMILES IDX 11 1 12 2 13 3 14 4 15 5 16 6 17 7 18 8 10 9 8 10 9 11 7 12
REMARK SMILES IDX 6 14 5 15 4 16 19 17 3 18 20 19 21 20 2 21 1 22 22 23
REMARK H PARENT 7 13 22 24
REMARK Flexibility Score: inf
ROOT
ATOM      1  C   UNL     1      10.732 -32.290  14.126  1.00  0.00     0.010 C 
ENDROOT
BRANCH   1   2
ATOM      2  C   UNL     1      12.251 -32.207  13.924  1.00  0.00     0.005 C 
BRANCH   2   3
ATOM      3  C   UNL     1      12.757 -30.766  14.055  1.00  0.00     0.027 C 
BRANCH   3   4
ATOM      4  C   UNL     1      14.203 -30.731  14.467  1.00  0.00    -0.031 C 
ATOM      5  C   UNL     1      15.132 -31.483  13.856  1.00  0.00    -0.028 C 
BRANCH   5   6
ATOM      6  C   UNL     1      16.584 -31.417  14.265  1.00  0.00     0.005 C 
ATOM      7  C   UNL     1      17.488 -31.817  13.094  1.00  0.00     0.012 C 
ATOM      8  C   UNL     1      16.840 -32.320  15.475  1.00  0.00     0.012 C 
ENDBRANCH   5   6
ENDBRANCH   3   4
ENDBRANCH   2   3
ENDBRANCH   1   2
BRANCH   1   9
ATOM      9  C   UNL     1      10.004 -32.804  12.875  1.00  0.00     0.100 C 
BRANCH   9  10
ATOM     10  C   UNL     1       8.813 -33.651  13.227  1.00  0.00     0.220 C 
ATOM     11  O   UNL     1       8.944 -34.903  13.300  1.00  0.00    -0.275 OA
ATOM     12  N   UNL     1       7.550 -33.034  13.515  1.00  0.00    -0.352 N 
ATOM     13  H   UNL     1       7.451 -32.002  13.381  1.00  0.00     0.163 HD
BRANCH  12  14
ATOM     14  C   UNL     1       6.466 -33.732  14.203  1.00  0.00     0.151 C 
BRANCH  14  15
ATOM     15  C   UNL     1       6.712 -33.707  15.686  1.00  0.00    -0.025 A 
ATOM     16  C   UNL     1       7.034 -34.892  16.366  1.00  0.00     0.056 A 
ATOM     17  C   UNL     1       6.703 -32.491  16.384  1.00  0.00     0.009 A 
ATOM     18  C   UNL     1       7.339 -34.867  17.741  1.00  0.00     0.160 A 
ATOM     19  C   UNL     1       6.981 -32.465  17.752  1.00  0.00     0.050 A 
ATOM     20  C   UNL     1       7.293 -33.648  18.433  1.00  0.00     0.157 A 
BRANCH  18  21
ATOM     21  O   UNL     1       7.699 -36.024  18.448  1.00  0.00    -0.493 OA
ATOM     22  C   UNL     1       7.167 -37.321  18.193  1.00  0.00     0.278 C 
ENDBRANCH  18  21
BRANCH  20  23
ATOM     23  O   UNL     1       7.564 -33.620  19.800  1.00  0.00    -0.504 OA
ATOM     24  H   UNL     1       7.150 -32.924  20.409  1.00  0.00     0.293 HD
ENDBRANCH  20  23
ENDBRANCH  14  15
ENDBRANCH  12  14
ENDBRANCH   9  10
ENDBRANCH   1   9
TORSDOF 10
ENDMDL
