MODEL 1
REMARK VINA RESULT:    -3.399      0.000      0.000
REMARK INTER + INTRA:          -3.697
REMARK INTER:                  -3.697
REMARK INTRA:                   0.000
REMARK UNBOUND:                 0.000
REMARK SMILES [NH3+]CC(=O)[O-]
REMARK SMILES IDX 2 1 1 2 3 6 4 7 5 8
REMARK H PARENT 1 3 1 4 1 5
REMARK Flexibility Score: inf
ROOT
ATOM      1  C   UNL     1     113.508  98.642 131.859  1.00  0.00     0.312 C 
ENDROOT
BRANCH   1   2
ATOM      2  N   UNL     1     114.188  98.016 130.726  1.00  0.00    -0.353 N 
ATOM      3  H   UNL     1     113.681  97.147 130.439  1.00  0.00     0.344 HD
ATOM      4  H   UNL     1     115.173  97.783 130.984  1.00  0.00     0.344 HD
ATOM      5  H   UNL     1     114.197  98.684 129.922  1.00  0.00     0.344 HD
ENDBRANCH   1   2
BRANCH   1   6
ATOM      6  C   UNL     1     112.073  98.219 131.912  1.00  0.00     0.096 C 
ATOM      7  O   UNL     1     111.646  97.548 132.890  1.00  0.00    -0.544 OA
ATOM      8  O   UNL     1     111.194  98.607 130.909  1.00  0.00    -0.544 OA
ENDBRANCH   1   6
TORSDOF 2
ENDMDL
MODEL 2
REMARK VINA RESULT:    -3.064      2.307      2.550
REMARK INTER + INTRA:          -3.333
REMARK INTER:                  -3.333
REMARK INTRA:                   0.000
REMARK UNBOUND:                 0.000
REMARK SMILES [NH3+]CC(=O)[O-]
REMARK SMILES IDX 2 1 1 2 3 6 4 7 5 8
REMARK H PARENT 1 3 1 4 1 5
REMARK Flexibility Score: inf
ROOT
ATOM      1  C   UNL     1     111.832  97.804 132.085  1.00  0.00     0.312 C 
ENDROOT
BRANCH   1   2
ATOM      2  N   UNL     1     110.989  98.073 130.923  1.00  0.00    -0.353 N 
ATOM      3  H   UNL     1     110.874  99.106 130.794  1.00  0.00     0.344 HD
ATOM      4  H   UNL     1     110.052  97.626 131.047  1.00  0.00     0.344 HD
ATOM      5  H   UNL     1     111.444  97.675 130.070  1.00  0.00     0.344 HD
ENDBRANCH   1   2
BRANCH   1   6
ATOM      6  C   UNL     1     113.075  98.638 132.042  1.00  0.00     0.096 C 
ATOM      7  O   UNL     1     114.047  98.289 131.320  1.00  0.00    -0.544 OA
ATOM      8  O   UNL     1     113.141  99.826 132.758  1.00  0.00    -0.544 OA
ENDBRANCH   1   6
TORSDOF 2
ENDMDL
MODEL 3
REMARK VINA RESULT:    -3.041      9.873     10.146
REMARK INTER + INTRA:          -3.307
REMARK INTER:                  -3.307
REMARK INTRA:                   0.000
REMARK UNBOUND:                 0.000
REMARK SMILES [NH3+]CC(=O)[O-]
REMARK SMILES IDX 2 1 1 2 3 6 4 7 5 8
REMARK H PARENT 1 3 1 4 1 5
REMARK Flexibility Score: inf
ROOT
ATOM      1  C   UNL     1     112.108 107.807 133.713  1.00  0.00     0.312 C 
ENDROOT
BRANCH   1   2
ATOM      2  N   UNL     1     113.499 107.364 133.631  1.00  0.00    -0.353 N 
ATOM      3  H   UNL     1     114.023 107.954 132.943  1.00  0.00     0.344 HD
ATOM      4  H   UNL     1     113.540 106.361 133.341  1.00  0.00     0.344 HD
ATOM      5  H   UNL     1     113.945 107.463 134.571  1.00  0.00     0.344 HD
ENDBRANCH   1   2
BRANCH   1   6
ATOM      6  C   UNL     1     111.649 108.352 132.396  1.00  0.00     0.096 C 
ATOM      7  O   UNL     1     110.628 109.088 132.337  1.00  0.00    -0.544 OA
ATOM      8  O   UNL     1     112.376 108.089 131.242  1.00  0.00    -0.544 OA
ENDBRANCH   1   6
TORSDOF 2
ENDMDL
MODEL 4
REMARK VINA RESULT:    -2.977     12.548     12.894
REMARK INTER + INTRA:          -3.238
REMARK INTER:                  -3.238
REMARK INTRA:                   0.000
REMARK UNBOUND:                 0.000
REMARK SMILES [NH3+]CC(=O)[O-]
REMARK SMILES IDX 2 1 1 2 3 6 4 7 5 8
REMARK H PARENT 1 3 1 4 1 5
REMARK Flexibility Score: inf
ROOT
ATOM      1  C   UNL     1     110.710 108.531 122.789  1.00  0.00     0.312 C 
ENDROOT
BRANCH   1   2
ATOM      2  N   UNL     1     109.368 108.609 122.217  1.00  0.00    -0.353 N 
ATOM      3  H   UNL     1     108.650 108.469 122.965  1.00  0.00     0.344 HD
ATOM      4  H   UNL     1     109.251 107.883 121.474  1.00  0.00     0.344 HD
ATOM      5  H   UNL     1     109.232 109.554 121.791  1.00  0.00     0.344 HD
ENDBRANCH   1   2
BRANCH   1   6
ATOM      6  C   UNL     1     110.850 107.309 123.643  1.00  0.00     0.096 C 
ATOM      7  O   UNL     1     110.110 106.309 123.443  1.00  0.00    -0.544 OA
ATOM      8  O   UNL     1     111.830 107.254 124.625  1.00  0.00    -0.544 OA
ENDBRANCH   1   6
TORSDOF 2
ENDMDL
MODEL 5
REMARK VINA RESULT:    -2.906     12.646     13.044
REMARK INTER + INTRA:          -3.161
REMARK INTER:                  -3.161
REMARK INTRA:                   0.000
REMARK UNBOUND:                 0.000
REMARK SMILES [NH3+]CC(=O)[O-]
REMARK SMILES IDX 2 1 1 2 3 6 4 7 5 8
REMARK H PARENT 1 3 1 4 1 5
REMARK Flexibility Score: inf
ROOT
ATOM      1  C   UNL     1     110.356 107.543 122.611  1.00  0.00     0.312 C 
ENDROOT
BRANCH   1   2
ATOM      2  N   UNL     1     109.398 108.580 122.232  1.00  0.00    -0.353 N 
ATOM      3  H   UNL     1     109.366 109.324 122.967  1.00  0.00     0.344 HD
ATOM      4  H   UNL     1     108.447 108.162 122.110  1.00  0.00     0.344 HD
ATOM      5  H   UNL     1     109.698 109.010 121.328  1.00  0.00     0.344 HD
ENDBRANCH   1   2
BRANCH   1   6
ATOM      6  C   UNL     1     111.002 107.873 123.920  1.00  0.00     0.096 C 
ATOM      7  O   UNL     1     110.710 107.215 124.954  1.00  0.00    -0.544 OA
ATOM      8  O   UNL     1     111.963 108.874 123.990  1.00  0.00    -0.544 OA
ENDBRANCH   1   6
TORSDOF 2
ENDMDL
MODEL 6
REMARK VINA RESULT:    -2.719     12.738     13.140
REMARK INTER + INTRA:          -2.958
REMARK INTER:                  -2.958
REMARK INTRA:                   0.000
REMARK UNBOUND:                 0.000
REMARK SMILES [NH3+]CC(=O)[O-]
REMARK SMILES IDX 2 1 1 2 3 6 4 7 5 8
REMARK H PARENT 1 3 1 4 1 5
REMARK Flexibility Score: inf
ROOT
ATOM      1  C   UNL     1     110.656 108.389 122.832  1.00  0.00     0.312 C 
ENDROOT
BRANCH   1   2
ATOM      2  N   UNL     1     109.357 108.608 122.201  1.00  0.00    -0.353 N 
ATOM      3  H   UNL     1     109.487 108.933 121.214  1.00  0.00     0.344 HD
ATOM      4  H   UNL     1     108.812 109.320 122.739  1.00  0.00     0.344 HD
ATOM      5  H   UNL     1     108.824 107.709 122.193  1.00  0.00     0.344 HD
ENDBRANCH   1   2
BRANCH   1   6
ATOM      6  C   UNL     1     111.065 106.953 122.715  1.00  0.00     0.096 C 
ATOM      7  O   UNL     1     111.860 106.450 123.553  1.00  0.00    -0.544 OA
ATOM      8  O   UNL     1     110.528 106.156 121.712  1.00  0.00    -0.544 OA
ENDBRANCH   1   6
TORSDOF 2
ENDMDL
MODEL 7
REMARK VINA RESULT:    -2.670      9.630     10.009
REMARK INTER + INTRA:          -2.904
REMARK INTER:                  -2.904
REMARK INTRA:                   0.000
REMARK UNBOUND:                 0.000
REMARK SMILES [NH3+]CC(=O)[O-]
REMARK SMILES IDX 2 1 1 2 3 6 4 7 5 8
REMARK H PARENT 1 3 1 4 1 5
REMARK Flexibility Score: inf
ROOT
ATOM      1  C   UNL     1     114.273 105.875 127.348  1.00  0.00     0.312 C 
ENDROOT
BRANCH   1   2
ATOM      2  N   UNL     1     115.521 105.567 128.042  1.00  0.00    -0.353 N 
ATOM      3  H   UNL     1     116.265 105.317 127.349  1.00  0.00     0.344 HD
ATOM      4  H   UNL     1     115.376 104.773 128.707  1.00  0.00     0.344 HD
ATOM      5  H   UNL     1     115.830 106.408 128.581  1.00  0.00     0.344 HD
ENDBRANCH   1   2
BRANCH   1   6
ATOM      6  C   UNL     1     114.539 106.245 125.922  1.00  0.00     0.096 C 
ATOM      7  O   UNL     1     113.589 106.309 125.097  1.00  0.00    -0.544 OA
ATOM      8  O   UNL     1     115.827 106.568 125.515  1.00  0.00    -0.544 OA
ENDBRANCH   1   6
TORSDOF 2
ENDMDL
MODEL 8
REMARK VINA RESULT:    -2.594     11.986     12.492
REMARK INTER + INTRA:          -2.821
REMARK INTER:                  -2.821
REMARK INTRA:                   0.000
REMARK UNBOUND:                 0.000
REMARK SMILES [NH3+]CC(=O)[O-]
REMARK SMILES IDX 2 1 1 2 3 6 4 7 5 8
REMARK H PARENT 1 3 1 4 1 5
REMARK Flexibility Score: inf
ROOT
ATOM      1  C   UNL     1     110.902 107.696 124.466  1.00  0.00     0.312 C 
ENDROOT
BRANCH   1   2
ATOM      2  N   UNL     1     110.507 109.044 124.064  1.00  0.00    -0.353 N 
ATOM      3  H   UNL     1     109.490 109.193 124.262  1.00  0.00     0.344 HD
ATOM      4  H   UNL     1     110.694 109.183 123.045  1.00  0.00     0.344 HD
ATOM      5  H   UNL     1     111.063 109.741 124.609  1.00  0.00     0.344 HD
ENDBRANCH   1   2
BRANCH   1   6
ATOM      6  C   UNL     1     112.319 107.419 124.069  1.00  0.00     0.096 C 
ATOM      7  O   UNL     1     112.806 107.965 123.043  1.00  0.00    -0.544 OA
ATOM      8  O   UNL     1     113.116 106.600 124.857  1.00  0.00    -0.544 OA
ENDBRANCH   1   6
TORSDOF 2
ENDMDL
MODEL 9
REMARK VINA RESULT:    -2.511      9.834      9.988
REMARK INTER + INTRA:          -2.731
REMARK INTER:                  -2.731
REMARK INTRA:                   0.000
REMARK UNBOUND:                 0.000
REMARK SMILES [NH3+]CC(=O)[O-]
REMARK SMILES IDX 2 1 1 2 3 6 4 7 5 8
REMARK H PARENT 1 3 1 4 1 5
REMARK Flexibility Score: inf
ROOT
ATOM      1  C   UNL     1     111.283 108.668 132.193  1.00  0.00     0.312 C 
ENDROOT
BRANCH   1   2
ATOM      2  N   UNL     1     112.341 108.464 131.206  1.00  0.00    -0.353 N 
ATOM      3  H   UNL     1     112.814 109.373 130.993  1.00  0.00     0.344 HD
ATOM      4  H   UNL     1     111.941 108.059 130.329  1.00  0.00     0.344 HD
ATOM      5  H   UNL     1     113.048 107.798 131.594  1.00  0.00     0.344 HD
ENDBRANCH   1   2
BRANCH   1   6
ATOM      6  C   UNL     1     111.490 107.781 133.381  1.00  0.00     0.096 C 
ATOM      7  O   UNL     1     112.608 107.752 133.962  1.00  0.00    -0.544 OA
ATOM      8  O   UNL     1     110.436 107.025 133.877  1.00  0.00    -0.544 OA
ENDBRANCH   1   6
TORSDOF 2
ENDMDL
