MODEL 1
REMARK VINA RESULT:    -4.221      0.000      0.000
REMARK INTER + INTRA:          -7.556
REMARK INTER:                  -6.442
REMARK INTRA:                  -1.114
REMARK UNBOUND:                -1.114
REMARK SMILES CCCCCCCCCCC(=O)[O-]
REMARK SMILES IDX 7 1 8 2 9 3 10 4 11 5 12 6 13 7 6 8 5 9 4 10 3 11 2 12 1 13
REMARK H PARENT
REMARK Flexibility Score: inf
ROOT
ATOM      1  C   UNL     1     120.690 178.848 126.764  1.00  0.00     0.000 C 
ENDROOT
BRANCH   1   2
ATOM      2  C   UNL     1     119.976 179.624 125.646  1.00  0.00     0.000 C 
BRANCH   2   3
ATOM      3  C   UNL     1     119.296 178.698 124.624  1.00  0.00     0.006 C 
BRANCH   3   4
ATOM      4  C   UNL     1     118.212 177.824 125.268  1.00  0.00     0.053 C 
BRANCH   4   5
ATOM      5  C   UNL     1     116.841 178.197 124.792  1.00  0.00     0.041 C 
ATOM      6  O   UNL     1     115.855 178.118 125.571  1.00  0.00    -0.550 OA
ATOM      7  O   UNL     1     116.648 178.604 123.477  1.00  0.00    -0.550 OA
ENDBRANCH   4   5
ENDBRANCH   3   4
ENDBRANCH   2   3
ENDBRANCH   1   2
BRANCH   1   8
ATOM      8  C   UNL     1     122.185 179.191 126.863  1.00  0.00     0.000 C 
BRANCH   8   9
ATOM      9  C   UNL     1     123.051 177.962 126.561  1.00  0.00    -0.000 C 
BRANCH   9  10
ATOM     10  C   UNL     1     123.039 177.634 125.063  1.00  0.00    -0.000 C 
BRANCH  10  11
ATOM     11  C   UNL     1     122.906 176.124 124.831  1.00  0.00    -0.000 C 
BRANCH  11  12
ATOM     12  C   UNL     1     121.493 175.763 124.360  1.00  0.00    -0.003 C 
ATOM     13  C   UNL     1     120.711 175.049 125.460  1.00  0.00     0.004 C 
ENDBRANCH  11  12
ENDBRANCH  10  11
ENDBRANCH   9  10
ENDBRANCH   8   9
ENDBRANCH   1   8
TORSDOF 9
ENDMDL
MODEL 2
REMARK VINA RESULT:    -4.207      1.348      2.583
REMARK INTER + INTRA:          -7.535
REMARK INTER:                  -6.269
REMARK INTRA:                  -1.267
REMARK UNBOUND:                -1.114
REMARK SMILES CCCCCCCCCCC(=O)[O-]
REMARK SMILES IDX 7 1 8 2 9 3 10 4 11 5 12 6 13 7 6 8 5 9 4 10 3 11 2 12 1 13
REMARK H PARENT
REMARK Flexibility Score: inf
ROOT
ATOM      1  C   UNL     1     120.879 177.443 124.043  1.00  0.00     0.000 C 
ENDROOT
BRANCH   1   2
ATOM      2  C   UNL     1     120.615 178.953 123.926  1.00  0.00     0.000 C 
BRANCH   2   3
ATOM      3  C   UNL     1     119.802 179.505 125.109  1.00  0.00     0.006 C 
BRANCH   3   4
ATOM      4  C   UNL     1     118.647 178.574 125.501  1.00  0.00     0.053 C 
BRANCH   4   5
ATOM      5  C   UNL     1     117.358 178.984 124.859  1.00  0.00     0.041 C 
ATOM      6  O   UNL     1     116.574 179.770 125.454  1.00  0.00    -0.550 OA
ATOM      7  O   UNL     1     117.008 178.475 123.614  1.00  0.00    -0.550 OA
ENDBRANCH   4   5
ENDBRANCH   3   4
ENDBRANCH   2   3
ENDBRANCH   1   2
BRANCH   1   8
ATOM      8  C   UNL     1     122.374 177.096 123.972  1.00  0.00     0.000 C 
BRANCH   8   9
ATOM      9  C   UNL     1     122.942 176.827 125.370  1.00  0.00    -0.000 C 
BRANCH   9  10
ATOM     10  C   UNL     1     123.775 178.015 125.865  1.00  0.00    -0.000 C 
BRANCH  10  11
ATOM     11  C   UNL     1     123.035 178.787 126.965  1.00  0.00    -0.000 C 
BRANCH  11  12
ATOM     12  C   UNL     1     121.983 177.903 127.644  1.00  0.00    -0.003 C 
ATOM     13  C   UNL     1     121.057 178.732 128.531  1.00  0.00     0.004 C 
ENDBRANCH  11  12
ENDBRANCH  10  11
ENDBRANCH   9  10
ENDBRANCH   8   9
ENDBRANCH   1   8
TORSDOF 9
ENDMDL
MODEL 3
REMARK VINA RESULT:    -4.200      1.254      1.812
REMARK INTER + INTRA:          -7.524
REMARK INTER:                  -6.546
REMARK INTRA:                  -0.979
REMARK UNBOUND:                -1.114
REMARK SMILES CCCCCCCCCCC(=O)[O-]
REMARK SMILES IDX 7 1 8 2 9 3 10 4 11 5 12 6 13 7 6 8 5 9 4 10 3 11 2 12 1 13
REMARK H PARENT
REMARK Flexibility Score: inf
ROOT
ATOM      1  C   UNL     1     120.327 179.347 126.194  1.00  0.00     0.000 C 
ENDROOT
BRANCH   1   2
ATOM      2  C   UNL     1     120.412 179.262 124.661  1.00  0.00     0.000 C 
BRANCH   2   3
ATOM      3  C   UNL     1     119.283 178.413 124.052  1.00  0.00     0.006 C 
BRANCH   3   4
ATOM      4  C   UNL     1     118.372 177.807 125.128  1.00  0.00     0.053 C 
BRANCH   4   5
ATOM      5  C   UNL     1     116.935 178.169 124.908  1.00  0.00     0.041 C 
ATOM      6  O   UNL     1     116.535 178.515 123.765  1.00  0.00    -0.550 OA
ATOM      7  O   UNL     1     116.043 178.153 125.974  1.00  0.00    -0.550 OA
ENDBRANCH   4   5
ENDBRANCH   3   4
ENDBRANCH   2   3
ENDBRANCH   1   2
BRANCH   1   8
ATOM      8  C   UNL     1     121.679 179.090 126.877  1.00  0.00     0.000 C 
BRANCH   8   9
ATOM      9  C   UNL     1     122.336 177.816 126.332  1.00  0.00    -0.000 C 
BRANCH   9  10
ATOM     10  C   UNL     1     123.765 178.095 125.852  1.00  0.00    -0.000 C 
BRANCH  10  11
ATOM     11  C   UNL     1     124.183 177.104 124.759  1.00  0.00    -0.000 C 
BRANCH  11  12
ATOM     12  C   UNL     1     123.015 176.802 123.814  1.00  0.00    -0.003 C 
ATOM     13  C   UNL     1     123.130 177.607 122.522  1.00  0.00     0.004 C 
ENDBRANCH  11  12
ENDBRANCH  10  11
ENDBRANCH   9  10
ENDBRANCH   8   9
ENDBRANCH   1   8
TORSDOF 9
ENDMDL
MODEL 4
REMARK VINA RESULT:    -4.171      4.932      6.728
REMARK INTER + INTRA:          -7.480
REMARK INTER:                  -6.857
REMARK INTRA:                  -0.622
REMARK UNBOUND:                -1.114
REMARK SMILES CCCCCCCCCCC(=O)[O-]
REMARK SMILES IDX 7 1 8 2 9 3 10 4 11 5 12 6 13 7 6 8 5 9 4 10 3 11 2 12 1 13
REMARK H PARENT
REMARK Flexibility Score: inf
ROOT
ATOM      1  C   UNL     1     123.927 176.968 123.571  1.00  0.00     0.000 C 
ENDROOT
BRANCH   1   2
ATOM      2  C   UNL     1     123.445 177.499 122.211  1.00  0.00     0.000 C 
BRANCH   2   3
ATOM      3  C   UNL     1     124.510 177.360 121.110  1.00  0.00     0.006 C 
BRANCH   3   4
ATOM      4  C   UNL     1     123.916 177.529 119.706  1.00  0.00     0.053 C 
BRANCH   4   5
ATOM      5  C   UNL     1     124.904 178.127 118.752  1.00  0.00     0.041 C 
ATOM      6  O   UNL     1     124.641 178.189 117.522  1.00  0.00    -0.550 OA
ATOM      7  O   UNL     1     126.129 178.590 119.218  1.00  0.00    -0.550 OA
ENDBRANCH   4   5
ENDBRANCH   3   4
ENDBRANCH   2   3
ENDBRANCH   1   2
BRANCH   1   8
ATOM      8  C   UNL     1     122.841 177.043 124.655  1.00  0.00     0.000 C 
BRANCH   8   9
ATOM      9  C   UNL     1     121.507 176.496 124.135  1.00  0.00    -0.000 C 
BRANCH   9  10
ATOM     10  C   UNL     1     120.341 177.405 124.542  1.00  0.00    -0.000 C 
BRANCH  10  11
ATOM     11  C   UNL     1     120.606 178.858 124.131  1.00  0.00    -0.000 C 
BRANCH  11  12
ATOM     12  C   UNL     1     120.187 179.829 125.241  1.00  0.00    -0.003 C 
ATOM     13  C   UNL     1     120.546 179.277 126.619  1.00  0.00     0.004 C 
ENDBRANCH  11  12
ENDBRANCH  10  11
ENDBRANCH   9  10
ENDBRANCH   8   9
ENDBRANCH   1   8
TORSDOF 9
ENDMDL
MODEL 5
REMARK VINA RESULT:    -4.170      2.152      3.257
REMARK INTER + INTRA:          -7.478
REMARK INTER:                  -6.088
REMARK INTRA:                  -1.390
REMARK UNBOUND:                -1.114
REMARK SMILES CCCCCCCCCCC(=O)[O-]
REMARK SMILES IDX 7 1 8 2 9 3 10 4 11 5 12 6 13 7 6 8 5 9 4 10 3 11 2 12 1 13
REMARK H PARENT
REMARK Flexibility Score: inf
ROOT
ATOM      1  C   UNL     1     123.721 178.166 126.205  1.00  0.00     0.000 C 
ENDROOT
BRANCH   1   2
ATOM      2  C   UNL     1     122.708 177.326 125.409  1.00  0.00     0.000 C 
BRANCH   2   3
ATOM      3  C   UNL     1     121.650 178.189 124.702  1.00  0.00     0.006 C 
BRANCH   3   4
ATOM      4  C   UNL     1     120.222 177.737 125.032  1.00  0.00     0.053 C 
BRANCH   4   5
ATOM      5  C   UNL     1     119.285 178.900 125.157  1.00  0.00     0.041 C 
ATOM      6  O   UNL     1     118.070 178.772 124.851  1.00  0.00    -0.550 OA
ATOM      7  O   UNL     1     119.761 180.134 125.584  1.00  0.00    -0.550 OA
ENDBRANCH   4   5
ENDBRANCH   3   4
ENDBRANCH   2   3
ENDBRANCH   1   2
BRANCH   1   8
ATOM      8  C   UNL     1     123.049 179.249 127.063  1.00  0.00     0.000 C 
BRANCH   8   9
ATOM      9  C   UNL     1     122.648 178.691 128.434  1.00  0.00    -0.000 C 
BRANCH   9  10
ATOM     10  C   UNL     1     121.123 178.622 128.577  1.00  0.00    -0.000 C 
BRANCH  10  11
ATOM     11  C   UNL     1     120.660 177.186 128.849  1.00  0.00    -0.000 C 
BRANCH  11  12
ATOM     12  C   UNL     1     121.854 176.265 129.124  1.00  0.00    -0.003 C 
ATOM     13  C   UNL     1     121.804 175.019 128.243  1.00  0.00     0.004 C 
ENDBRANCH  11  12
ENDBRANCH  10  11
ENDBRANCH   9  10
ENDBRANCH   8   9
ENDBRANCH   1   8
TORSDOF 9
ENDMDL
MODEL 6
REMARK VINA RESULT:    -4.169      2.077      3.841
REMARK INTER + INTRA:          -7.477
REMARK INTER:                  -6.150
REMARK INTRA:                  -1.327
REMARK UNBOUND:                -1.114
REMARK SMILES CCCCCCCCCCC(=O)[O-]
REMARK SMILES IDX 7 1 8 2 9 3 10 4 11 5 12 6 13 7 6 8 5 9 4 10 3 11 2 12 1 13
REMARK H PARENT
REMARK Flexibility Score: inf
ROOT
ATOM      1  C   UNL     1     122.603 177.281 123.787  1.00  0.00     0.000 C 
ENDROOT
BRANCH   1   2
ATOM      2  C   UNL     1     121.308 176.504 124.071  1.00  0.00     0.000 C 
BRANCH   2   3
ATOM      3  C   UNL     1     121.548 175.248 124.926  1.00  0.00     0.006 C 
BRANCH   3   4
ATOM      4  C   UNL     1     120.796 175.305 126.261  1.00  0.00     0.053 C 
BRANCH   4   5
ATOM      5  C   UNL     1     119.318 175.148 126.075  1.00  0.00     0.041 C 
ATOM      6  O   UNL     1     118.823 174.012 125.853  1.00  0.00    -0.550 OA
ATOM      7  O   UNL     1     118.489 176.263 126.118  1.00  0.00    -0.550 OA
ENDBRANCH   4   5
ENDBRANCH   3   4
ENDBRANCH   2   3
ENDBRANCH   1   2
BRANCH   1   8
ATOM      8  C   UNL     1     123.747 176.897 124.738  1.00  0.00     0.000 C 
BRANCH   8   9
ATOM      9  C   UNL     1     124.082 178.053 125.688  1.00  0.00    -0.000 C 
BRANCH   9  10
ATOM     10  C   UNL     1     123.166 178.039 126.917  1.00  0.00    -0.000 C 
BRANCH  10  11
ATOM     11  C   UNL     1     122.314 179.312 126.984  1.00  0.00    -0.000 C 
BRANCH  11  12
ATOM     12  C   UNL     1     120.819 178.978 126.918  1.00  0.00    -0.003 C 
ATOM     13  C   UNL     1     120.121 179.786 125.826  1.00  0.00     0.004 C 
ENDBRANCH  11  12
ENDBRANCH  10  11
ENDBRANCH   9  10
ENDBRANCH   8   9
ENDBRANCH   1   8
TORSDOF 9
ENDMDL
MODEL 7
REMARK VINA RESULT:    -4.157      6.168      7.836
REMARK INTER + INTRA:          -7.459
REMARK INTER:                  -6.280
REMARK INTRA:                  -1.179
REMARK UNBOUND:                -1.114
REMARK SMILES CCCCCCCCCCC(=O)[O-]
REMARK SMILES IDX 7 1 8 2 9 3 10 4 11 5 12 6 13 7 6 8 5 9 4 10 3 11 2 12 1 13
REMARK H PARENT
REMARK Flexibility Score: inf
ROOT
ATOM      1  C   UNL     1     123.203 177.232 122.718  1.00  0.00     0.000 C 
ENDROOT
BRANCH   1   2
ATOM      2  C   UNL     1     123.356 178.069 121.438  1.00  0.00     0.000 C 
BRANCH   2   3
ATOM      3  C   UNL     1     124.364 177.459 120.449  1.00  0.00     0.006 C 
BRANCH   3   4
ATOM      4  C   UNL     1     125.248 178.526 119.792  1.00  0.00     0.053 C 
BRANCH   4   5
ATOM      5  C   UNL     1     125.980 177.988 118.601  1.00  0.00     0.041 C 
ATOM      6  O   UNL     1     127.201 178.248 118.435  1.00  0.00    -0.550 OA
ATOM      7  O   UNL     1     125.305 177.222 117.658  1.00  0.00    -0.550 OA
ENDBRANCH   4   5
ENDBRANCH   3   4
ENDBRANCH   2   3
ENDBRANCH   1   2
BRANCH   1   8
ATOM      8  C   UNL     1     124.517 176.563 123.149  1.00  0.00     0.000 C 
BRANCH   8   9
ATOM      9  C   UNL     1     125.283 177.446 124.142  1.00  0.00    -0.000 C 
BRANCH   9  10
ATOM     10  C   UNL     1     126.797 177.264 123.988  1.00  0.00    -0.000 C 
BRANCH  10  11
ATOM     11  C   UNL     1     127.430 178.473 123.287  1.00  0.00    -0.000 C 
BRANCH  11  12
ATOM     12  C   UNL     1     128.095 178.059 121.970  1.00  0.00    -0.003 C 
ATOM     13  C   UNL     1     127.966 176.556 121.736  1.00  0.00     0.004 C 
ENDBRANCH  11  12
ENDBRANCH  10  11
ENDBRANCH   9  10
ENDBRANCH   8   9
ENDBRANCH   1   8
TORSDOF 9
ENDMDL
MODEL 8
REMARK VINA RESULT:    -4.090      2.538      4.438
REMARK INTER + INTRA:          -7.356
REMARK INTER:                  -6.133
REMARK INTRA:                  -1.223
REMARK UNBOUND:                -1.114
REMARK SMILES CCCCCCCCCCC(=O)[O-]
REMARK SMILES IDX 7 1 8 2 9 3 10 4 11 5 12 6 13 7 6 8 5 9 4 10 3 11 2 12 1 13
REMARK H PARENT
REMARK Flexibility Score: inf
ROOT
ATOM      1  C   UNL     1     121.368 179.195 126.601  1.00  0.00     0.000 C 
ENDROOT
BRANCH   1   2
ATOM      2  C   UNL     1     120.753 178.906 127.980  1.00  0.00     0.000 C 
BRANCH   2   3
ATOM      3  C   UNL     1     120.742 177.407 128.321  1.00  0.00     0.006 C 
BRANCH   3   4
ATOM      4  C   UNL     1     119.506 176.695 127.757  1.00  0.00     0.053 C 
BRANCH   4   5
ATOM      5  C   UNL     1     119.864 175.743 126.657  1.00  0.00     0.041 C 
ATOM      6  O   UNL     1     121.055 175.654 126.257  1.00  0.00    -0.550 OA
ATOM      7  O   UNL     1     118.876 174.974 126.053  1.00  0.00    -0.550 OA
ENDBRANCH   4   5
ENDBRANCH   3   4
ENDBRANCH   2   3
ENDBRANCH   1   2
BRANCH   1   8
ATOM      8  C   UNL     1     120.331 179.691 125.581  1.00  0.00     0.000 C 
BRANCH   8   9
ATOM      9  C   UNL     1     120.159 178.682 124.439  1.00  0.00    -0.000 C 
BRANCH   9  10
ATOM     10  C   UNL     1     118.678 178.361 124.206  1.00  0.00    -0.000 C 
BRANCH  10  11
ATOM     11  C   UNL     1     117.804 178.949 125.320  1.00  0.00    -0.000 C 
BRANCH  11  12
ATOM     12  C   UNL     1     116.689 177.974 125.717  1.00  0.00    -0.003 C 
ATOM     13  C   UNL     1     115.358 178.702 125.893  1.00  0.00     0.004 C 
ENDBRANCH  11  12
ENDBRANCH  10  11
ENDBRANCH   9  10
ENDBRANCH   8   9
ENDBRANCH   1   8
TORSDOF 9
ENDMDL
MODEL 9
REMARK VINA RESULT:    -4.074      1.553      2.920
REMARK INTER + INTRA:          -7.332
REMARK INTER:                  -6.001
REMARK INTRA:                  -1.332
REMARK UNBOUND:                -1.114
REMARK SMILES CCCCCCCCCCC(=O)[O-]
REMARK SMILES IDX 7 1 8 2 9 3 10 4 11 5 12 6 13 7 6 8 5 9 4 10 3 11 2 12 1 13
REMARK H PARENT
REMARK Flexibility Score: inf
ROOT
ATOM      1  C   UNL     1     120.800 177.244 127.869  1.00  0.00     0.000 C 
ENDROOT
BRANCH   1   2
ATOM      2  C   UNL     1     120.731 178.770 127.701  1.00  0.00     0.000 C 
BRANCH   2   3
ATOM      3  C   UNL     1     121.112 179.227 126.283  1.00  0.00     0.006 C 
BRANCH   3   4
ATOM      4  C   UNL     1     119.975 179.996 125.598  1.00  0.00     0.053 C 
BRANCH   4   5
ATOM      5  C   UNL     1     119.004 179.073 124.928  1.00  0.00     0.041 C 
ATOM      6  O   UNL     1     119.348 178.423 123.905  1.00  0.00    -0.550 OA
ATOM      7  O   UNL     1     117.708 178.953 125.416  1.00  0.00    -0.550 OA
ENDBRANCH   4   5
ENDBRANCH   3   4
ENDBRANCH   2   3
ENDBRANCH   1   2
BRANCH   1   8
ATOM      8  C   UNL     1     119.451 176.557 127.606  1.00  0.00     0.000 C 
BRANCH   8   9
ATOM      9  C   UNL     1     119.483 175.770 126.290  1.00  0.00    -0.000 C 
BRANCH   9  10
ATOM     10  C   UNL     1     120.891 175.238 126.000  1.00  0.00    -0.000 C 
BRANCH  10  11
ATOM     11  C   UNL     1     121.314 175.552 124.559  1.00  0.00    -0.000 C 
BRANCH  11  12
ATOM     12  C   UNL     1     122.622 176.351 124.532  1.00  0.00    -0.003 C 
ATOM     13  C   UNL     1     122.633 177.349 123.377  1.00  0.00     0.004 C 
ENDBRANCH  11  12
ENDBRANCH  10  11
ENDBRANCH   9  10
ENDBRANCH   8   9
ENDBRANCH   1   8
TORSDOF 9
ENDMDL
