MODEL 1
REMARK VINA RESULT:    -2.305      0.000      0.000
REMARK INTER + INTRA:          -2.613
REMARK INTER:                  -2.575
REMARK INTRA:                  -0.039
REMARK UNBOUND:                -0.039
REMARK SMILES CCCC(=O)[O-]
REMARK SMILES IDX 3 1 4 2 5 3 6 4 2 5 1 6
REMARK H PARENT
REMARK Flexibility Score: inf
ROOT
ATOM      1  C   UNL     1      22.385  17.831  43.997  1.00  0.00     0.052 C 
ENDROOT
BRANCH   1   2
ATOM      2  C   UNL     1      22.646  16.743  43.000  1.00  0.00     0.041 C 
ATOM      3  O   UNL     1      22.906  17.030  41.802  1.00  0.00    -0.550 OA
ATOM      4  O   UNL     1      22.570  15.412  43.387  1.00  0.00    -0.550 OA
ENDBRANCH   1   2
BRANCH   1   5
ATOM      5  C   UNL     1      23.656  18.213  44.765  1.00  0.00     0.003 C 
ATOM      6  C   UNL     1      24.462  19.299  44.053  1.00  0.00     0.004 C 
ENDBRANCH   1   5
TORSDOF 2
ENDMDL
MODEL 2
REMARK VINA RESULT:    -2.293      1.911      2.192
REMARK INTER + INTRA:          -2.600
REMARK INTER:                  -2.591
REMARK INTRA:                  -0.009
REMARK UNBOUND:                -0.039
REMARK SMILES CCCC(=O)[O-]
REMARK SMILES IDX 3 1 4 2 5 3 6 4 2 5 1 6
REMARK H PARENT
REMARK Flexibility Score: inf
ROOT
ATOM      1  C   UNL     1      22.945  17.577  41.900  1.00  0.00     0.052 C 
ENDROOT
BRANCH   1   2
ATOM      2  C   UNL     1      22.657  16.879  43.194  1.00  0.00     0.041 C 
ATOM      3  O   UNL     1      22.540  17.540  44.259  1.00  0.00    -0.550 OA
ATOM      4  O   UNL     1      22.551  15.495  43.229  1.00  0.00    -0.550 OA
ENDBRANCH   1   2
BRANCH   1   5
ATOM      5  C   UNL     1      23.699  18.895  42.121  1.00  0.00     0.003 C 
ATOM      6  C   UNL     1      24.477  19.334  40.881  1.00  0.00     0.004 C 
ENDBRANCH   1   5
TORSDOF 2
ENDMDL
MODEL 3
REMARK VINA RESULT:    -2.293      1.088      2.174
REMARK INTER + INTRA:          -2.600
REMARK INTER:                  -2.569
REMARK INTRA:                  -0.031
REMARK UNBOUND:                -0.039
REMARK SMILES CCCC(=O)[O-]
REMARK SMILES IDX 3 1 4 2 5 3 6 4 2 5 1 6
REMARK H PARENT
REMARK Flexibility Score: inf
ROOT
ATOM      1  C   UNL     1      22.843  17.607  44.397  1.00  0.00     0.052 C 
ENDROOT
BRANCH   1   2
ATOM      2  C   UNL     1      22.700  16.723  43.196  1.00  0.00     0.041 C 
ATOM      3  O   UNL     1      22.488  15.490  43.337  1.00  0.00    -0.550 OA
ATOM      4  O   UNL     1      22.834  17.256  41.920  1.00  0.00    -0.550 OA
ENDBRANCH   1   2
BRANCH   1   5
ATOM      5  C   UNL     1      22.167  18.967  44.184  1.00  0.00     0.003 C 
ATOM      6  C   UNL     1      20.777  19.031  44.816  1.00  0.00     0.004 C 
ENDBRANCH   1   5
TORSDOF 2
ENDMDL
MODEL 4
REMARK VINA RESULT:    -2.293     17.346     17.685
REMARK INTER + INTRA:          -2.599
REMARK INTER:                  -2.561
REMARK INTRA:                  -0.038
REMARK UNBOUND:                -0.039
REMARK SMILES CCCC(=O)[O-]
REMARK SMILES IDX 3 1 4 2 5 3 6 4 2 5 1 6
REMARK H PARENT
REMARK Flexibility Score: inf
ROOT
ATOM      1  C   UNL     1      17.395  28.944  55.324  1.00  0.00     0.052 C 
ENDROOT
BRANCH   1   2
ATOM      2  C   UNL     1      18.335  29.831  54.566  1.00  0.00     0.041 C 
ATOM      3  O   UNL     1      19.513  30.006  54.976  1.00  0.00    -0.550 OA
ATOM      4  O   UNL     1      17.900  30.491  53.424  1.00  0.00    -0.550 OA
ENDBRANCH   1   2
BRANCH   1   5
ATOM      5  C   UNL     1      15.942  29.419  55.198  1.00  0.00     0.003 C 
ATOM      6  C   UNL     1      15.076  28.437  54.410  1.00  0.00     0.004 C 
ENDBRANCH   1   5
TORSDOF 2
ENDMDL
MODEL 5
REMARK VINA RESULT:    -2.275     10.969     11.606
REMARK INTER + INTRA:          -2.579
REMARK INTER:                  -2.545
REMARK INTRA:                  -0.035
REMARK UNBOUND:                -0.039
REMARK SMILES CCCC(=O)[O-]
REMARK SMILES IDX 3 1 4 2 5 3 6 4 2 5 1 6
REMARK H PARENT
REMARK Flexibility Score: inf
ROOT
ATOM      1  C   UNL     1      16.720  17.514  52.736  1.00  0.00     0.052 C 
ENDROOT
BRANCH   1   2
ATOM      2  C   UNL     1      16.784  18.392  53.949  1.00  0.00     0.041 C 
ATOM      3  O   UNL     1      15.752  18.594  54.641  1.00  0.00    -0.550 OA
ATOM      4  O   UNL     1      17.977  19.012  54.295  1.00  0.00    -0.550 OA
ENDBRANCH   1   2
BRANCH   1   5
ATOM      5  C   UNL     1      18.012  17.590  51.912  1.00  0.00     0.003 C 
ATOM      6  C   UNL     1      17.813  18.318  50.583  1.00  0.00     0.004 C 
ENDBRANCH   1   5
TORSDOF 2
ENDMDL
MODEL 6
REMARK VINA RESULT:    -2.253      2.200      2.803
REMARK INTER + INTRA:          -2.555
REMARK INTER:                  -2.508
REMARK INTRA:                  -0.048
REMARK UNBOUND:                -0.039
REMARK SMILES CCCC(=O)[O-]
REMARK SMILES IDX 3 1 4 2 5 3 6 4 2 5 1 6
REMARK H PARENT
REMARK Flexibility Score: inf
ROOT
ATOM      1  C   UNL     1      22.268  18.304  42.641  1.00  0.00     0.052 C 
ENDROOT
BRANCH   1   2
ATOM      2  C   UNL     1      23.318  18.386  41.576  1.00  0.00     0.041 C 
ATOM      3  O   UNL     1      24.365  19.059  41.767  1.00  0.00    -0.550 OA
ATOM      4  O   UNL     1      23.124  17.747  40.358  1.00  0.00    -0.550 OA
ENDBRANCH   1   2
BRANCH   1   5
ATOM      5  C   UNL     1      22.653  17.307  43.741  1.00  0.00     0.003 C 
ATOM      6  C   UNL     1      22.629  15.860  43.249  1.00  0.00     0.004 C 
ENDBRANCH   1   5
TORSDOF 2
ENDMDL
MODEL 7
REMARK VINA RESULT:    -2.252      9.726     10.316
REMARK INTER + INTRA:          -2.554
REMARK INTER:                  -2.516
REMARK INTRA:                  -0.038
REMARK UNBOUND:                -0.039
REMARK SMILES CCCC(=O)[O-]
REMARK SMILES IDX 3 1 4 2 5 3 6 4 2 5 1 6
REMARK H PARENT
REMARK Flexibility Score: inf
ROOT
ATOM      1  C   UNL     1      17.824  17.747  51.850  1.00  0.00     0.052 C 
ENDROOT
BRANCH   1   2
ATOM      2  C   UNL     1      17.471  18.517  50.614  1.00  0.00     0.041 C 
ATOM      3  O   UNL     1      17.884  18.133  49.488  1.00  0.00    -0.550 OA
ATOM      4  O   UNL     1      16.713  19.676  50.710  1.00  0.00    -0.550 OA
ENDBRANCH   1   2
BRANCH   1   5
ATOM      5  C   UNL     1      16.584  17.432  52.696  1.00  0.00     0.003 C 
ATOM      6  C   UNL     1      16.596  18.159  54.040  1.00  0.00     0.004 C 
ENDBRANCH   1   5
TORSDOF 2
ENDMDL
MODEL 8
REMARK VINA RESULT:    -2.218     11.342     12.049
REMARK INTER + INTRA:          -2.516
REMARK INTER:                  -2.467
REMARK INTRA:                  -0.049
REMARK UNBOUND:                -0.039
REMARK SMILES CCCC(=O)[O-]
REMARK SMILES IDX 3 1 4 2 5 3 6 4 2 5 1 6
REMARK H PARENT
REMARK Flexibility Score: inf
ROOT
ATOM      1  C   UNL     1      32.297  17.426  51.204  1.00  0.00     0.052 C 
ENDROOT
BRANCH   1   2
ATOM      2  C   UNL     1      30.876  17.385  51.679  1.00  0.00     0.041 C 
ATOM      3  O   UNL     1      29.933  17.272  50.852  1.00  0.00    -0.550 OA
ATOM      4  O   UNL     1      30.592  17.507  53.033  1.00  0.00    -0.550 OA
ENDBRANCH   1   2
BRANCH   1   5
ATOM      5  C   UNL     1      32.832  16.021  50.897  1.00  0.00     0.003 C 
ATOM      6  C   UNL     1      33.125  15.221  52.166  1.00  0.00     0.004 C 
ENDBRANCH   1   5
TORSDOF 2
ENDMDL
MODEL 9
REMARK VINA RESULT:    -2.206     11.676     12.445
REMARK INTER + INTRA:          -2.502
REMARK INTER:                  -2.458
REMARK INTRA:                  -0.044
REMARK UNBOUND:                -0.039
REMARK SMILES CCCC(=O)[O-]
REMARK SMILES IDX 3 1 4 2 5 3 6 4 2 5 1 6
REMARK H PARENT
REMARK Flexibility Score: inf
ROOT
ATOM      1  C   UNL     1      32.100  16.662  51.284  1.00  0.00     0.052 C 
ENDROOT
BRANCH   1   2
ATOM      2  C   UNL     1      32.226  16.090  52.663  1.00  0.00     0.041 C 
ATOM      3  O   UNL     1      32.559  14.887  52.823  1.00  0.00    -0.550 OA
ATOM      4  O   UNL     1      31.944  16.879  53.771  1.00  0.00    -0.550 OA
ENDBRANCH   1   2
BRANCH   1   5
ATOM      5  C   UNL     1      31.149  17.866  51.255  1.00  0.00     0.003 C 
ATOM      6  C   UNL     1      29.697  17.454  51.015  1.00  0.00     0.004 C 
ENDBRANCH   1   5
TORSDOF 2
ENDMDL
