MODEL 1
REMARK VINA RESULT:    -4.162      0.000      0.000
REMARK INTER + INTRA:          -6.695
REMARK INTER:                  -6.352
REMARK INTRA:                  -0.343
REMARK UNBOUND:                -0.343
REMARK SMILES O=C([O-])CCCCCCCCC(=O)[O-]
REMARK SMILES IDX 7 1 6 2 5 3 4 4 2 5 1 6 3 7 8 8 9 9 10 10 11 11 12 12 13 13
REMARK SMILES IDX 14 14
REMARK H PARENT
REMARK Flexibility Score: inf
ROOT
ATOM      1  C   UNL     1      -5.625  -4.887   1.075  1.00  0.00     0.000 C 
ENDROOT
BRANCH   1   2
ATOM      2  C   UNL     1      -6.756  -3.972   0.563  1.00  0.00     0.000 C 
BRANCH   2   3
ATOM      3  C   UNL     1      -7.644  -4.588  -0.534  1.00  0.00     0.006 C 
BRANCH   3   4
ATOM      4  C   UNL     1      -8.917  -3.774  -0.793  1.00  0.00     0.053 C 
BRANCH   4   5
ATOM      5  C   UNL     1     -10.131  -4.614  -0.551  1.00  0.00     0.041 C 
ATOM      6  O   UNL     1     -10.252  -5.732  -1.118  1.00  0.00    -0.550 OA
ATOM      7  O   UNL     1     -11.107  -4.186   0.340  1.00  0.00    -0.550 OA
ENDBRANCH   4   5
ENDBRANCH   3   4
ENDBRANCH   2   3
ENDBRANCH   1   2
BRANCH   1   8
ATOM      8  C   UNL     1      -4.488  -4.166   1.827  1.00  0.00     0.000 C 
BRANCH   8   9
ATOM      9  C   UNL     1      -4.450  -2.639   1.639  1.00  0.00     0.000 C 
BRANCH   9  10
ATOM     10  C   UNL     1      -3.021  -2.091   1.489  1.00  0.00     0.006 C 
BRANCH  10  11
ATOM     11  C   UNL     1      -2.013  -3.192   1.133  1.00  0.00     0.053 C 
BRANCH  11  12
ATOM     12  C   UNL     1      -0.899  -2.670   0.278  1.00  0.00     0.041 C 
ATOM     13  O   UNL     1       0.216  -2.388   0.790  1.00  0.00    -0.550 OA
ATOM     14  O   UNL     1      -1.085  -2.522  -1.091  1.00  0.00    -0.550 OA
ENDBRANCH  11  12
ENDBRANCH  10  11
ENDBRANCH   9  10
ENDBRANCH   8   9
ENDBRANCH   1   8
TORSDOF 9
ENDMDL
MODEL 2
REMARK VINA RESULT:    -4.022      0.622      7.811
REMARK INTER + INTRA:          -6.482
REMARK INTER:                  -6.224
REMARK INTRA:                  -0.258
REMARK UNBOUND:                -0.343
REMARK SMILES O=C([O-])CCCCCCCCC(=O)[O-]
REMARK SMILES IDX 7 1 6 2 5 3 4 4 2 5 1 6 3 7 8 8 9 9 10 10 11 11 12 12 13 13
REMARK SMILES IDX 14 14
REMARK H PARENT
REMARK Flexibility Score: inf
ROOT
ATOM      1  C   UNL     1      -5.042  -4.533   1.312  1.00  0.00     0.000 C 
ENDROOT
BRANCH   1   2
ATOM      2  C   UNL     1      -4.256  -3.364   1.940  1.00  0.00     0.000 C 
BRANCH   2   3
ATOM      3  C   UNL     1      -2.734  -3.412   1.721  1.00  0.00     0.006 C 
BRANCH   3   4
ATOM      4  C   UNL     1      -2.198  -2.166   1.005  1.00  0.00     0.053 C 
BRANCH   4   5
ATOM      5  C   UNL     1      -0.911  -2.479   0.308  1.00  0.00     0.041 C 
ATOM      6  O   UNL     1       0.125  -2.737   0.976  1.00  0.00    -0.550 OA
ATOM      7  O   UNL     1      -0.867  -2.534  -1.079  1.00  0.00    -0.550 OA
ENDBRANCH   4   5
ENDBRANCH   3   4
ENDBRANCH   2   3
ENDBRANCH   1   2
BRANCH   1   8
ATOM      8  C   UNL     1      -6.416  -4.157   0.722  1.00  0.00     0.000 C 
BRANCH   8   9
ATOM      9  C   UNL     1      -7.036  -5.215  -0.208  1.00  0.00     0.000 C 
BRANCH   9  10
ATOM     10  C   UNL     1      -7.886  -4.598  -1.331  1.00  0.00     0.006 C 
BRANCH  10  11
ATOM     11  C   UNL     1      -9.019  -3.719  -0.784  1.00  0.00     0.053 C 
BRANCH  11  12
ATOM     12  C   UNL     1     -10.298  -4.485  -0.644  1.00  0.00     0.041 C 
ATOM     13  O   UNL     1     -10.588  -5.393  -1.467  1.00  0.00    -0.550 OA
ATOM     14  O   UNL     1     -11.158  -4.215   0.414  1.00  0.00    -0.550 OA
ENDBRANCH  11  12
ENDBRANCH  10  11
ENDBRANCH   9  10
ENDBRANCH   8   9
ENDBRANCH   1   8
TORSDOF 9
ENDMDL
MODEL 3
REMARK VINA RESULT:    -4.007      4.214      9.494
REMARK INTER + INTRA:          -6.459
REMARK INTER:                  -5.980
REMARK INTRA:                  -0.479
REMARK UNBOUND:                -0.343
REMARK SMILES O=C([O-])CCCCCCCCC(=O)[O-]
REMARK SMILES IDX 7 1 6 2 5 3 4 4 2 5 1 6 3 7 8 8 9 9 10 10 11 11 12 12 13 13
REMARK SMILES IDX 14 14
REMARK H PARENT
REMARK Flexibility Score: inf
ROOT
ATOM      1  C   UNL     1       0.707  -5.090   0.667  1.00  0.00     0.000 C 
ENDROOT
BRANCH   1   2
ATOM      2  C   UNL     1       1.526  -4.540   1.853  1.00  0.00     0.000 C 
BRANCH   2   3
ATOM      3  C   UNL     1       3.051  -4.528   1.640  1.00  0.00     0.006 C 
BRANCH   3   4
ATOM      4  C   UNL     1       3.706  -3.224   2.109  1.00  0.00     0.053 C 
BRANCH   4   5
ATOM      5  C   UNL     1       4.524  -3.464   3.338  1.00  0.00     0.041 C 
ATOM      6  O   UNL     1       4.461  -2.664   4.309  1.00  0.00    -0.550 OA
ATOM      7  O   UNL     1       5.319  -4.600   3.434  1.00  0.00    -0.550 OA
ENDBRANCH   4   5
ENDBRANCH   3   4
ENDBRANCH   2   3
ENDBRANCH   1   2
BRANCH   1   8
ATOM      8  C   UNL     1      -0.338  -4.116   0.086  1.00  0.00     0.000 C 
BRANCH   8   9
ATOM      9  C   UNL     1      -0.273  -2.683   0.643  1.00  0.00     0.000 C 
BRANCH   9  10
ATOM     10  C   UNL     1      -1.664  -2.081   0.903  1.00  0.00     0.006 C 
BRANCH  10  11
ATOM     11  C   UNL     1      -2.642  -3.110   1.484  1.00  0.00     0.053 C 
BRANCH  11  12
ATOM     12  C   UNL     1      -3.988  -2.508   1.752  1.00  0.00     0.041 C 
ATOM     13  O   UNL     1      -4.081  -1.408   2.358  1.00  0.00    -0.550 OA
ATOM     14  O   UNL     1      -5.137  -3.150   1.309  1.00  0.00    -0.550 OA
ENDBRANCH  11  12
ENDBRANCH  10  11
ENDBRANCH   9  10
ENDBRANCH   8   9
ENDBRANCH   1   8
TORSDOF 9
ENDMDL
MODEL 4
REMARK VINA RESULT:    -3.926      2.785      7.145
REMARK INTER + INTRA:          -6.335
REMARK INTER:                  -5.824
REMARK INTRA:                  -0.511
REMARK UNBOUND:                -0.343
REMARK SMILES O=C([O-])CCCCCCCCC(=O)[O-]
REMARK SMILES IDX 7 1 6 2 5 3 4 4 2 5 1 6 3 7 8 8 9 9 10 10 11 11 12 12 13 13
REMARK SMILES IDX 14 14
REMARK H PARENT
REMARK Flexibility Score: inf
ROOT
ATOM      1  C   UNL     1      -1.601  -2.259   0.491  1.00  0.00     0.000 C 
ENDROOT
BRANCH   1   2
ATOM      2  C   UNL     1      -0.128  -2.705   0.592  1.00  0.00     0.000 C 
BRANCH   2   3
ATOM      3  C   UNL     1       0.095  -4.227   0.554  1.00  0.00     0.006 C 
BRANCH   3   4
ATOM      4  C   UNL     1       0.675  -4.775   1.863  1.00  0.00     0.053 C 
BRANCH   4   5
ATOM      5  C   UNL     1      -0.325  -5.651   2.550  1.00  0.00     0.041 C 
ATOM      6  O   UNL     1      -0.178  -5.949   3.765  1.00  0.00    -0.550 OA
ATOM      7  O   UNL     1      -1.446  -6.099   1.863  1.00  0.00    -0.550 OA
ENDBRANCH   4   5
ENDBRANCH   3   4
ENDBRANCH   2   3
ENDBRANCH   1   2
BRANCH   1   8
ATOM      8  C   UNL     1      -2.526  -2.796   1.601  1.00  0.00     0.000 C 
BRANCH   8   9
ATOM      9  C   UNL     1      -3.747  -1.914   1.914  1.00  0.00     0.000 C 
BRANCH   9  10
ATOM     10  C   UNL     1      -5.083  -2.616   1.616  1.00  0.00     0.006 C 
BRANCH  10  11
ATOM     11  C   UNL     1      -4.907  -4.123   1.385  1.00  0.00     0.053 C 
BRANCH  11  12
ATOM     12  C   UNL     1      -6.211  -4.794   1.082  1.00  0.00     0.041 C 
ATOM     13  O   UNL     1      -6.539  -5.846   1.692  1.00  0.00    -0.550 OA
ATOM     14  O   UNL     1      -7.077  -4.242   0.147  1.00  0.00    -0.550 OA
ENDBRANCH  11  12
ENDBRANCH  10  11
ENDBRANCH   9  10
ENDBRANCH   8   9
ENDBRANCH   1   8
TORSDOF 9
ENDMDL
MODEL 5
REMARK VINA RESULT:    -3.919      4.189      5.043
REMARK INTER + INTRA:          -6.324
REMARK INTER:                  -5.598
REMARK INTRA:                  -0.726
REMARK UNBOUND:                -0.343
REMARK SMILES O=C([O-])CCCCCCCCC(=O)[O-]
REMARK SMILES IDX 7 1 6 2 5 3 4 4 2 5 1 6 3 7 8 8 9 9 10 10 11 11 12 12 13 13
REMARK SMILES IDX 14 14
REMARK H PARENT
REMARK Flexibility Score: inf
ROOT
ATOM      1  C   UNL     1      -4.050  -2.313   1.662  1.00  0.00     0.000 C 
ENDROOT
BRANCH   1   2
ATOM      2  C   UNL     1      -4.952  -3.530   1.373  1.00  0.00     0.000 C 
BRANCH   2   3
ATOM      3  C   UNL     1      -4.267  -4.899   1.532  1.00  0.00     0.006 C 
BRANCH   3   4
ATOM      4  C   UNL     1      -4.581  -5.567   2.876  1.00  0.00     0.053 C 
BRANCH   4   5
ATOM      5  C   UNL     1      -3.540  -5.213   3.891  1.00  0.00     0.041 C 
ATOM      6  O   UNL     1      -2.338  -5.543   3.709  1.00  0.00    -0.550 OA
ATOM      7  O   UNL     1      -3.887  -4.473   5.014  1.00  0.00    -0.550 OA
ENDBRANCH   4   5
ENDBRANCH   3   4
ENDBRANCH   2   3
ENDBRANCH   1   2
BRANCH   1   8
ATOM      8  C   UNL     1      -2.535  -2.600   1.640  1.00  0.00     0.000 C 
BRANCH   8   9
ATOM      9  C   UNL     1      -1.787  -2.053   0.411  1.00  0.00     0.000 C 
BRANCH   9  10
ATOM     10  C   UNL     1      -0.384  -2.661   0.247  1.00  0.00     0.006 C 
BRANCH  10  11
ATOM     11  C   UNL     1      -0.057  -3.671   1.355  1.00  0.00     0.053 C 
BRANCH  11  12
ATOM     12  C   UNL     1       0.195  -5.041   0.801  1.00  0.00     0.041 C 
ATOM     13  O   UNL     1       0.162  -5.238  -0.442  1.00  0.00    -0.550 OA
ATOM     14  O   UNL     1       0.494  -6.093   1.658  1.00  0.00    -0.550 OA
ENDBRANCH  11  12
ENDBRANCH  10  11
ENDBRANCH   9  10
ENDBRANCH   8   9
ENDBRANCH   1   8
TORSDOF 9
ENDMDL
MODEL 6
REMARK VINA RESULT:    -3.908      2.587      4.000
REMARK INTER + INTRA:          -6.307
REMARK INTER:                  -5.749
REMARK INTRA:                  -0.558
REMARK UNBOUND:                -0.343
REMARK SMILES O=C([O-])CCCCCCCCC(=O)[O-]
REMARK SMILES IDX 7 1 6 2 5 3 4 4 2 5 1 6 3 7 8 8 9 9 10 10 11 11 12 12 13 13
REMARK SMILES IDX 14 14
REMARK H PARENT
REMARK Flexibility Score: inf
ROOT
ATOM      1  C   UNL     1      -2.422  -2.899   1.411  1.00  0.00     0.000 C 
ENDROOT
BRANCH   1   2
ATOM      2  C   UNL     1      -3.615  -2.016   1.829  1.00  0.00     0.000 C 
BRANCH   2   3
ATOM      3  C   UNL     1      -5.001  -2.645   1.599  1.00  0.00     0.006 C 
BRANCH   3   4
ATOM      4  C   UNL     1      -4.938  -4.164   1.399  1.00  0.00     0.053 C 
BRANCH   4   5
ATOM      5  C   UNL     1      -6.294  -4.703   1.068  1.00  0.00     0.041 C 
ATOM      6  O   UNL     1      -6.989  -4.160   0.169  1.00  0.00    -0.550 OA
ATOM      7  O   UNL     1      -6.770  -5.835   1.716  1.00  0.00    -0.550 OA
ENDBRANCH   4   5
ENDBRANCH   3   4
ENDBRANCH   2   3
ENDBRANCH   1   2
BRANCH   1   8
ATOM      8  C   UNL     1      -1.394  -2.216   0.486  1.00  0.00     0.000 C 
BRANCH   8   9
ATOM      9  C   UNL     1       0.062  -2.678   0.679  1.00  0.00     0.000 C 
BRANCH   9  10
ATOM     10  C   UNL     1       0.171  -4.003   1.452  1.00  0.00     0.006 C 
BRANCH  10  11
ATOM     11  C   UNL     1       0.634  -5.160   0.557  1.00  0.00     0.053 C 
BRANCH  11  12
ATOM     12  C   UNL     1      -0.466  -5.647  -0.335  1.00  0.00     0.041 C 
ATOM     13  O   UNL     1      -0.375  -5.518  -1.584  1.00  0.00    -0.550 OA
ATOM     14  O   UNL     1      -1.582  -6.269   0.212  1.00  0.00    -0.550 OA
ENDBRANCH  11  12
ENDBRANCH  10  11
ENDBRANCH   9  10
ENDBRANCH   8   9
ENDBRANCH   1   8
TORSDOF 9
ENDMDL
MODEL 7
REMARK VINA RESULT:    -3.873      4.703      5.704
REMARK INTER + INTRA:          -6.254
REMARK INTER:                  -5.743
REMARK INTRA:                  -0.510
REMARK UNBOUND:                -0.343
REMARK SMILES O=C([O-])CCCCCCCCC(=O)[O-]
REMARK SMILES IDX 7 1 6 2 5 3 4 4 2 5 1 6 3 7 8 8 9 9 10 10 11 11 12 12 13 13
REMARK SMILES IDX 14 14
REMARK H PARENT
REMARK Flexibility Score: inf
ROOT
ATOM      1  C   UNL     1      -2.239  -2.941   0.825  1.00  0.00     0.000 C 
ENDROOT
BRANCH   1   2
ATOM      2  C   UNL     1      -3.179  -1.993   1.597  1.00  0.00     0.000 C 
BRANCH   2   3
ATOM      3  C   UNL     1      -4.248  -2.694   2.454  1.00  0.00     0.006 C 
BRANCH   3   4
ATOM      4  C   UNL     1      -4.139  -4.222   2.407  1.00  0.00     0.053 C 
BRANCH   4   5
ATOM      5  C   UNL     1      -3.442  -4.734   3.628  1.00  0.00     0.041 C 
ATOM      6  O   UNL     1      -2.379  -5.400   3.519  1.00  0.00    -0.550 OA
ATOM      7  O   UNL     1      -3.940  -4.434   4.890  1.00  0.00    -0.550 OA
ENDBRANCH   4   5
ENDBRANCH   3   4
ENDBRANCH   2   3
ENDBRANCH   1   2
BRANCH   1   8
ATOM      8  C   UNL     1      -0.975  -2.279   0.240  1.00  0.00     0.000 C 
BRANCH   8   9
ATOM      9  C   UNL     1       0.353  -2.760   0.851  1.00  0.00     0.000 C 
BRANCH   9  10
ATOM     10  C   UNL     1       0.244  -4.153   1.494  1.00  0.00     0.006 C 
BRANCH  10  11
ATOM     11  C   UNL     1       1.477  -5.021   1.208  1.00  0.00     0.053 C 
BRANCH  11  12
ATOM     12  C   UNL     1       2.642  -4.632   2.066  1.00  0.00     0.041 C 
ATOM     13  O   UNL     1       3.542  -3.878   1.610  1.00  0.00    -0.550 OA
ATOM     14  O   UNL     1       2.719  -5.079   3.379  1.00  0.00    -0.550 OA
ENDBRANCH  11  12
ENDBRANCH  10  11
ENDBRANCH   9  10
ENDBRANCH   8   9
ENDBRANCH   1   8
TORSDOF 9
ENDMDL
MODEL 8
REMARK VINA RESULT:    -3.835      1.516      7.031
REMARK INTER + INTRA:          -6.196
REMARK INTER:                  -5.754
REMARK INTRA:                  -0.441
REMARK UNBOUND:                -0.343
REMARK SMILES O=C([O-])CCCCCCCCC(=O)[O-]
REMARK SMILES IDX 7 1 6 2 5 3 4 4 2 5 1 6 3 7 8 8 9 9 10 10 11 11 12 12 13 13
REMARK SMILES IDX 14 14
REMARK H PARENT
REMARK Flexibility Score: inf
ROOT
ATOM      1  C   UNL     1      -3.492  -2.093   1.800  1.00  0.00     0.000 C 
ENDROOT
BRANCH   1   2
ATOM      2  C   UNL     1      -2.235  -2.913   1.445  1.00  0.00     0.000 C 
BRANCH   2   3
ATOM      3  C   UNL     1      -1.267  -2.227   0.465  1.00  0.00     0.006 C 
BRANCH   3   4
ATOM      4  C   UNL     1      -1.141  -2.976  -0.867  1.00  0.00     0.053 C 
BRANCH   4   5
ATOM      5  C   UNL     1      -0.920  -4.436  -0.625  1.00  0.00     0.041 C 
ATOM      6  O   UNL     1       0.168  -4.840  -0.136  1.00  0.00    -0.550 OA
ATOM      7  O   UNL     1      -1.934  -5.347  -0.893  1.00  0.00    -0.550 OA
ENDBRANCH   4   5
ENDBRANCH   3   4
ENDBRANCH   2   3
ENDBRANCH   1   2
BRANCH   1   8
ATOM      8  C   UNL     1      -4.835  -2.785   1.490  1.00  0.00     0.000 C 
BRANCH   8   9
ATOM      9  C   UNL     1      -4.834  -4.314   1.662  1.00  0.00     0.000 C 
BRANCH   9  10
ATOM     10  C   UNL     1      -5.909  -5.011   0.811  1.00  0.00     0.006 C 
BRANCH  10  11
ATOM     11  C   UNL     1      -7.037  -4.053   0.404  1.00  0.00     0.053 C 
BRANCH  11  12
ATOM     12  C   UNL     1      -8.226  -4.791  -0.132  1.00  0.00     0.041 C 
ATOM     13  O   UNL     1      -9.255  -4.160  -0.489  1.00  0.00    -0.550 OA
ATOM     14  O   UNL     1      -8.185  -6.174  -0.262  1.00  0.00    -0.550 OA
ENDBRANCH  11  12
ENDBRANCH  10  11
ENDBRANCH   9  10
ENDBRANCH   8   9
ENDBRANCH   1   8
TORSDOF 9
ENDMDL
MODEL 9
REMARK VINA RESULT:    -3.788      3.612      6.655
REMARK INTER + INTRA:          -6.124
REMARK INTER:                  -5.374
REMARK INTRA:                  -0.750
REMARK UNBOUND:                -0.343
REMARK SMILES O=C([O-])CCCCCCCCC(=O)[O-]
REMARK SMILES IDX 7 1 6 2 5 3 4 4 2 5 1 6 3 7 8 8 9 9 10 10 11 11 12 12 13 13
REMARK SMILES IDX 14 14
REMARK H PARENT
REMARK Flexibility Score: inf
ROOT
ATOM      1  C   UNL     1      -1.610  -2.146   0.370  1.00  0.00     0.000 C 
ENDROOT
BRANCH   1   2
ATOM      2  C   UNL     1      -0.112  -2.513   0.359  1.00  0.00     0.000 C 
BRANCH   2   3
ATOM      3  C   UNL     1       0.267  -3.724   1.229  1.00  0.00     0.006 C 
BRANCH   3   4
ATOM      4  C   UNL     1       0.395  -5.020   0.419  1.00  0.00     0.053 C 
BRANCH   4   5
ATOM      5  C   UNL     1      -0.916  -5.740   0.377  1.00  0.00     0.041 C 
ATOM      6  O   UNL     1      -1.664  -5.638  -0.631  1.00  0.00    -0.550 OA
ATOM      7  O   UNL     1      -1.290  -6.566   1.431  1.00  0.00    -0.550 OA
ENDBRANCH   4   5
ENDBRANCH   3   4
ENDBRANCH   2   3
ENDBRANCH   1   2
BRANCH   1   8
ATOM      8  C   UNL     1      -2.387  -2.601   1.622  1.00  0.00     0.000 C 
BRANCH   8   9
ATOM      9  C   UNL     1      -3.806  -2.020   1.754  1.00  0.00     0.000 C 
BRANCH   9  10
ATOM     10  C   UNL     1      -4.905  -3.066   1.500  1.00  0.00     0.006 C 
BRANCH  10  11
ATOM     11  C   UNL     1      -4.352  -4.497   1.492  1.00  0.00     0.053 C 
BRANCH  11  12
ATOM     12  C   UNL     1      -4.642  -5.211   2.777  1.00  0.00     0.041 C 
ATOM     13  O   UNL     1      -3.986  -4.938   3.817  1.00  0.00    -0.550 OA
ATOM     14  O   UNL     1      -5.656  -6.160   2.832  1.00  0.00    -0.550 OA
ENDBRANCH  11  12
ENDBRANCH  10  11
ENDBRANCH   9  10
ENDBRANCH   8   9
ENDBRANCH   1   8
TORSDOF 9
ENDMDL
