MODEL 1
REMARK VINA RESULT:     2.062      0.000      0.000
REMARK INTER + INTRA:           3.315
REMARK INTER:                   2.545
REMARK INTRA:                   0.770
REMARK UNBOUND:                 0.770
REMARK SMILES C=C1[C@@H]2CC[C@H]3[C@@H]2C(C)(C)CCC[C@@]13C
REMARK SMILES IDX 14 1 6 2 7 3 3 4 2 5 1 6 4 7 5 8 15 9 8 10 9 11 10 12 11 13
REMARK SMILES IDX 13 15 12 16
REMARK H PARENT
REMARK Flexibility Score: 80.00
ROOT
ATOM      1  C   UNL     1     153.243 135.876 162.720  1.00  0.00    -0.008 C 
ATOM      2  C   UNL     1     152.618 137.238 163.215  1.00  0.00     0.003 C 
ATOM      3  C   UNL     1     152.625 138.147 161.965  1.00  0.00     0.006 C 
ATOM      4  C   UNL     1     154.101 137.916 161.673  1.00  0.00     0.019 C 
ATOM      5  C   UNL     1     154.184 136.416 161.666  1.00  0.00    -0.068 C 
ATOM      6  C   UNL     1     155.035 135.702 160.920  1.00  0.00     0.009 C 
ATOM      7  C   UNL     1     154.737 138.391 163.001  1.00  0.00     0.008 C 
ATOM      8  C   UNL     1     153.667 138.013 164.056  1.00  0.00     0.005 C 
ATOM      9  C   UNL     1     154.049 135.116 163.809  1.00  0.00     0.016 C 
ENDROOT
BRANCH   3  10
ATOM     10  C   UNL     1     151.579 137.929 160.806  1.00  0.00    -0.032 C 
ATOM     11  C   UNL     1     150.649 139.171 160.747  1.00  0.00     0.011 C 
ATOM     12  C   UNL     1     152.333 137.876 159.455  1.00  0.00     0.011 C 
BRANCH  10  13
ATOM     13  C   UNL     1     150.725 136.634 160.904  1.00  0.00     0.007 CG0
ATOM     14  G   UNL     1     151.531 135.336 160.842  1.00  0.00     0.000 G0
ENDBRANCH  10  13
ENDBRANCH   3  10
BRANCH   1  15
ATOM     15  C   UNL     1     152.196 134.876 162.146  1.00  0.00     0.011 C 
BRANCH  15  16
ATOM     16  C   UNL     1     151.499 135.270 160.846  1.00  0.00     0.001 CG0
ATOM     17  G   UNL     1     150.757 136.603 160.945  1.00  0.00     0.000 G0
ENDBRANCH  15  16
ENDBRANCH   1  15
TORSDOF 0
ENDMDL
MODEL 2
REMARK VINA RESULT:     3.533      1.628      3.267
REMARK INTER + INTRA:           5.129
REMARK INTER:                   4.113
REMARK INTRA:                   1.016
REMARK UNBOUND:                 0.770
REMARK SMILES C=C1[C@@H]2CC[C@H]3[C@@H]2C(C)(C)CCC[C@@]13C
REMARK SMILES IDX 14 1 6 2 7 3 3 4 2 5 1 6 4 7 5 8 15 9 8 10 9 11 10 12 11 13
REMARK SMILES IDX 13 15 12 16
REMARK H PARENT
REMARK Flexibility Score: 80.00
ROOT
ATOM      1  C   UNL     1     154.015 137.539 162.876  1.00  0.00    -0.008 C 
ATOM      2  C   UNL     1     153.956 136.540 161.656  1.00  0.00     0.003 C 
ATOM      3  C   UNL     1     152.464 136.505 161.254  1.00  0.00     0.006 C 
ATOM      4  C   UNL     1     151.980 136.195 162.663  1.00  0.00     0.019 C 
ATOM      5  C   UNL     1     152.646 137.278 163.464  1.00  0.00    -0.068 C 
ATOM      6  C   UNL     1     152.139 137.828 164.574  1.00  0.00     0.009 C 
ATOM      7  C   UNL     1     152.752 134.887 162.953  1.00  0.00     0.008 C 
ATOM      8  C   UNL     1     154.078 135.082 162.175  1.00  0.00     0.005 C 
ATOM      9  C   UNL     1     155.112 137.198 163.921  1.00  0.00     0.016 C 
ENDROOT
BRANCH   3  10
ATOM     10  C   UNL     1     151.813 137.712 160.475  1.00  0.00    -0.032 C 
ATOM     11  C   UNL     1     152.267 137.638 158.992  1.00  0.00     0.011 C 
ATOM     12  C   UNL     1     150.275 137.536 160.476  1.00  0.00     0.011 C 
BRANCH  10  13
ATOM     13  C   UNL     1     152.111 139.124 161.050  1.00  0.00     0.007 CG0
ATOM     14  G   UNL     1     153.598 139.466 161.155  1.00  0.00     0.000 G0
ENDBRANCH  10  13
ENDBRANCH   3  10
BRANCH   1  15
ATOM     15  C   UNL     1     154.226 139.025 162.461  1.00  0.00     0.011 C 
BRANCH  15  16
ATOM     16  C   UNL     1     153.596 139.476 161.147  1.00  0.00     0.001 CG0
ATOM     17  G   UNL     1     152.109 139.133 161.048  1.00  0.00     0.000 G0
ENDBRANCH  15  16
ENDBRANCH   1  15
TORSDOF 0
ENDMDL
