MODEL 1
REMARK VINA RESULT:    -4.594      0.000      0.000
REMARK INTER + INTRA:          -5.323
REMARK INTER:                  -5.266
REMARK INTRA:                  -0.057
REMARK UNBOUND:                -0.057
REMARK SMILES COc1cc(C=O)ccc1O
REMARK SMILES IDX 3 1 10 2 9 3 8 4 5 5 4 6 2 7 1 8 11 9 6 11 7 12
REMARK H PARENT 11 10
REMARK Flexibility Score: inf
ROOT
ATOM      1  C   UNL     1      11.532 -13.402 -11.497  1.00  0.00     0.161 A 
ATOM      2  C   UNL     1      12.702 -13.569 -10.744  1.00  0.00     0.157 A 
ATOM      3  C   UNL     1      12.631 -14.045  -9.429  1.00  0.00     0.051 A 
ATOM      4  C   UNL     1      11.396 -14.357  -8.859  1.00  0.00     0.015 A 
ATOM      5  C   UNL     1      10.215 -14.197  -9.596  1.00  0.00     0.018 A 
ATOM      6  C   UNL     1      10.286 -13.718 -10.917  1.00  0.00     0.062 A 
ENDROOT
BRANCH   1   7
ATOM      7  O   UNL     1      11.644 -12.921 -12.811  1.00  0.00    -0.493 OA
ATOM      8  C   UNL     1      10.795 -13.308 -13.887  1.00  0.00     0.278 C 
ENDBRANCH   1   7
BRANCH   2   9
ATOM      9  O   UNL     1      13.937 -13.257 -11.312  1.00  0.00    -0.504 OA
ATOM     10  H   UNL     1      14.806 -13.429 -10.820  1.00  0.00     0.293 HD
ENDBRANCH   2   9
BRANCH   5  11
ATOM     11  C   UNL     1       8.919 -14.533  -8.976  1.00  0.00     0.260 C 
ATOM     12  O   UNL     1       8.348 -13.734  -8.187  1.00  0.00    -0.298 OA
ENDBRANCH   5  11
TORSDOF 3
ENDMDL
MODEL 2
REMARK VINA RESULT:    -4.313      1.628      3.087
REMARK INTER + INTRA:          -5.000
REMARK INTER:                  -4.948
REMARK INTRA:                  -0.052
REMARK UNBOUND:                -0.057
REMARK SMILES COc1cc(C=O)ccc1O
REMARK SMILES IDX 3 1 10 2 9 3 8 4 5 5 4 6 2 7 1 8 11 9 6 11 7 12
REMARK H PARENT 11 10
REMARK Flexibility Score: inf
ROOT
ATOM      1  C   UNL     1      11.577 -14.120  -9.933  1.00  0.00     0.161 A 
ATOM      2  C   UNL     1      12.269 -13.623 -11.047  1.00  0.00     0.157 A 
ATOM      3  C   UNL     1      11.569 -13.016 -12.096  1.00  0.00     0.051 A 
ATOM      4  C   UNL     1      10.179 -12.899 -12.042  1.00  0.00     0.015 A 
ATOM      5  C   UNL     1       9.470 -13.389 -10.937  1.00  0.00     0.018 A 
ATOM      6  C   UNL     1      10.173 -14.000  -9.882  1.00  0.00     0.062 A 
ENDROOT
BRANCH   1   7
ATOM      7  O   UNL     1      12.314 -14.723  -8.902  1.00  0.00    -0.493 OA
ATOM      8  C   UNL     1      11.769 -15.125  -7.649  1.00  0.00     0.278 C 
ENDBRANCH   1   7
BRANCH   2   9
ATOM      9  O   UNL     1      13.658 -13.740 -11.103  1.00  0.00    -0.504 OA
ATOM     10  H   UNL     1      14.135 -14.562 -10.752  1.00  0.00     0.293 HD
ENDBRANCH   2   9
BRANCH   5  11
ATOM     11  C   UNL     1       8.002 -13.256 -10.898  1.00  0.00     0.260 C 
ATOM     12  O   UNL     1       7.436 -12.529 -10.039  1.00  0.00    -0.298 OA
ENDBRANCH   5  11
TORSDOF 3
ENDMDL
MODEL 3
REMARK VINA RESULT:    -4.187      1.553      4.090
REMARK INTER + INTRA:          -4.856
REMARK INTER:                  -4.789
REMARK INTRA:                  -0.067
REMARK UNBOUND:                -0.057
REMARK SMILES COc1cc(C=O)ccc1O
REMARK SMILES IDX 3 1 10 2 9 3 8 4 5 5 4 6 2 7 1 8 11 9 6 11 7 12
REMARK H PARENT 11 10
REMARK Flexibility Score: inf
ROOT
ATOM      1  C   UNL     1       9.445 -13.985  -9.469  1.00  0.00     0.161 A 
ATOM      2  C   UNL     1       9.777 -14.115  -8.113  1.00  0.00     0.157 A 
ATOM      3  C   UNL     1      11.109 -14.315  -7.731  1.00  0.00     0.051 A 
ATOM      4  C   UNL     1      12.116 -14.388  -8.696  1.00  0.00     0.015 A 
ATOM      5  C   UNL     1      11.803 -14.261 -10.056  1.00  0.00     0.018 A 
ATOM      6  C   UNL     1      10.465 -14.059 -10.440  1.00  0.00     0.062 A 
ENDROOT
BRANCH   1   7
ATOM      7  O   UNL     1       8.099 -13.786  -9.812  1.00  0.00    -0.493 OA
ATOM      8  C   UNL     1       7.507 -12.513 -10.053  1.00  0.00     0.278 C 
ENDBRANCH   1   7
BRANCH   2   9
ATOM      9  O   UNL     1       8.773 -14.043  -7.148  1.00  0.00    -0.504 OA
ATOM     10  H   UNL     1       8.634 -13.210  -6.589  1.00  0.00     0.293 HD
ENDBRANCH   2   9
BRANCH   5  11
ATOM     11  C   UNL     1      12.881 -14.339 -11.060  1.00  0.00     0.260 C 
ATOM     12  O   UNL     1      13.531 -13.315 -11.399  1.00  0.00    -0.298 OA
ENDBRANCH   5  11
TORSDOF 3
ENDMDL
MODEL 4
REMARK VINA RESULT:    -4.058      1.407      4.899
REMARK INTER + INTRA:          -4.708
REMARK INTER:                  -4.634
REMARK INTRA:                  -0.074
REMARK UNBOUND:                -0.057
REMARK SMILES COc1cc(C=O)ccc1O
REMARK SMILES IDX 3 1 10 2 9 3 8 4 5 5 4 6 2 7 1 8 11 9 6 11 7 12
REMARK H PARENT 11 10
REMARK Flexibility Score: inf
ROOT
ATOM      1  C   UNL     1       9.254 -13.787  -8.579  1.00  0.00     0.161 A 
ATOM      2  C   UNL     1       8.402 -13.218  -9.536  1.00  0.00     0.157 A 
ATOM      3  C   UNL     1       8.833 -13.067 -10.860  1.00  0.00     0.051 A 
ATOM      4  C   UNL     1      10.111 -13.482 -11.237  1.00  0.00     0.015 A 
ATOM      5  C   UNL     1      10.976 -14.054 -10.294  1.00  0.00     0.018 A 
ATOM      6  C   UNL     1      10.544 -14.205  -8.964  1.00  0.00     0.062 A 
ENDROOT
BRANCH   1   7
ATOM      7  O   UNL     1       8.786 -13.921  -7.262  1.00  0.00    -0.493 OA
ATOM      8  C   UNL     1       8.263 -15.124  -6.710  1.00  0.00     0.278 C 
ENDBRANCH   1   7
BRANCH   2   9
ATOM      9  O   UNL     1       7.125 -12.802  -9.161  1.00  0.00    -0.504 OA
ATOM     10  H   UNL     1       6.979 -12.191  -8.366  1.00  0.00     0.293 HD
ENDBRANCH   2   9
BRANCH   5  11
ATOM     11  C   UNL     1      12.323 -14.487 -10.712  1.00  0.00     0.260 C 
ATOM     12  O   UNL     1      13.105 -13.700 -11.309  1.00  0.00    -0.298 OA
ENDBRANCH   5  11
TORSDOF 3
ENDMDL
MODEL 5
REMARK VINA RESULT:    -3.970      1.534      3.207
REMARK INTER + INTRA:          -4.607
REMARK INTER:                  -4.554
REMARK INTRA:                  -0.052
REMARK UNBOUND:                -0.057
REMARK SMILES COc1cc(C=O)ccc1O
REMARK SMILES IDX 3 1 10 2 9 3 8 4 5 5 4 6 2 7 1 8 11 9 6 11 7 12
REMARK H PARENT 11 10
REMARK Flexibility Score: inf
ROOT
ATOM      1  C   UNL     1      11.020 -13.460 -12.128  1.00  0.00     0.161 A 
ATOM      2  C   UNL     1      10.475 -13.588 -13.414  1.00  0.00     0.157 A 
ATOM      3  C   UNL     1       9.087 -13.621 -13.589  1.00  0.00     0.051 A 
ATOM      4  C   UNL     1       8.235 -13.528 -12.487  1.00  0.00     0.015 A 
ATOM      5  C   UNL     1       8.761 -13.400 -11.195  1.00  0.00     0.018 A 
ATOM      6  C   UNL     1      10.156 -13.366 -11.018  1.00  0.00     0.062 A 
ENDROOT
BRANCH   1   7
ATOM      7  O   UNL     1      12.417 -13.431 -11.993  1.00  0.00    -0.493 OA
ATOM      8  C   UNL     1      13.106 -13.369 -10.749  1.00  0.00     0.278 C 
ENDBRANCH   1   7
BRANCH   2   9
ATOM      9  O   UNL     1      11.326 -13.682 -14.515  1.00  0.00    -0.504 OA
ATOM     10  H   UNL     1      11.785 -14.552 -14.757  1.00  0.00     0.293 HD
ENDBRANCH   2   9
BRANCH   5  11
ATOM     11  C   UNL     1       7.843 -13.301 -10.044  1.00  0.00     0.260 C 
ATOM     12  O   UNL     1       7.920 -12.343  -9.230  1.00  0.00    -0.298 OA
ENDBRANCH   5  11
TORSDOF 3
ENDMDL
MODEL 6
REMARK VINA RESULT:    -3.761      1.482      3.992
REMARK INTER + INTRA:          -4.367
REMARK INTER:                  -4.306
REMARK INTRA:                  -0.061
REMARK UNBOUND:                -0.057
REMARK SMILES COc1cc(C=O)ccc1O
REMARK SMILES IDX 3 1 10 2 9 3 8 4 5 5 4 6 2 7 1 8 11 9 6 11 7 12
REMARK H PARENT 11 10
REMARK Flexibility Score: inf
ROOT
ATOM      1  C   UNL     1      10.323 -14.479  -9.098  1.00  0.00     0.161 A 
ATOM      2  C   UNL     1      11.686 -14.464  -8.771  1.00  0.00     0.157 A 
ATOM      3  C   UNL     1      12.635 -14.074  -9.725  1.00  0.00     0.051 A 
ATOM      4  C   UNL     1      12.231 -13.697 -11.007  1.00  0.00     0.015 A 
ATOM      5  C   UNL     1      10.873 -13.706 -11.352  1.00  0.00     0.018 A 
ATOM      6  C   UNL     1       9.920 -14.098 -10.395  1.00  0.00     0.062 A 
ENDROOT
BRANCH   1   7
ATOM      7  O   UNL     1       9.403 -14.876  -8.116  1.00  0.00    -0.493 OA
ATOM      8  C   UNL     1       8.055 -14.424  -8.042  1.00  0.00     0.278 C 
ENDBRANCH   1   7
BRANCH   2   9
ATOM      9  O   UNL     1      12.091 -14.840  -7.491  1.00  0.00    -0.504 OA
ATOM     10  H   UNL     1      11.453 -14.814  -6.704  1.00  0.00     0.293 HD
ENDBRANCH   2   9
BRANCH   5  11
ATOM     11  C   UNL     1      10.466 -13.303 -12.712  1.00  0.00     0.260 C 
ATOM     12  O   UNL     1      11.296 -13.275 -13.659  1.00  0.00    -0.298 OA
ENDBRANCH   5  11
TORSDOF 3
ENDMDL
MODEL 7
REMARK VINA RESULT:    -3.712      1.459      4.639
REMARK INTER + INTRA:          -4.312
REMARK INTER:                  -4.258
REMARK INTRA:                  -0.053
REMARK UNBOUND:                -0.057
REMARK SMILES COc1cc(C=O)ccc1O
REMARK SMILES IDX 3 1 10 2 9 3 8 4 5 5 4 6 2 7 1 8 11 9 6 11 7 12
REMARK H PARENT 11 10
REMARK Flexibility Score: inf
ROOT
ATOM      1  C   UNL     1      10.112 -14.020  -9.275  1.00  0.00     0.161 A 
ATOM      2  C   UNL     1       8.757 -13.662  -9.241  1.00  0.00     0.157 A 
ATOM      3  C   UNL     1       8.111 -13.242 -10.410  1.00  0.00     0.051 A 
ATOM      4  C   UNL     1       8.810 -13.176 -11.616  1.00  0.00     0.015 A 
ATOM      5  C   UNL     1      10.165 -13.529 -11.670  1.00  0.00     0.018 A 
ATOM      6  C   UNL     1      10.814 -13.951 -10.495  1.00  0.00     0.062 A 
ENDROOT
BRANCH   1   7
ATOM      7  O   UNL     1      10.725 -14.435  -8.082  1.00  0.00    -0.493 OA
ATOM      8  C   UNL     1      12.062 -14.915  -7.986  1.00  0.00     0.278 C 
ENDBRANCH   1   7
BRANCH   2   9
ATOM      9  O   UNL     1       8.058 -13.727  -8.036  1.00  0.00    -0.504 OA
ATOM     10  H   UNL     1       7.115 -14.097  -7.989  1.00  0.00     0.293 HD
ENDBRANCH   2   9
BRANCH   5  11
ATOM     11  C   UNL     1      10.885 -13.454 -12.955  1.00  0.00     0.260 C 
ATOM     12  O   UNL     1      11.863 -14.209 -13.199  1.00  0.00    -0.298 OA
ENDBRANCH   5  11
TORSDOF 3
ENDMDL
MODEL 8
REMARK VINA RESULT:    -3.710      1.929      3.350
REMARK INTER + INTRA:          -4.309
REMARK INTER:                  -4.246
REMARK INTRA:                  -0.062
REMARK UNBOUND:                -0.057
REMARK SMILES COc1cc(C=O)ccc1O
REMARK SMILES IDX 3 1 10 2 9 3 8 4 5 5 4 6 2 7 1 8 11 9 6 11 7 12
REMARK H PARENT 11 10
REMARK Flexibility Score: inf
ROOT
ATOM      1  C   UNL     1       9.407 -13.708 -10.927  1.00  0.00     0.161 A 
ATOM      2  C   UNL     1      10.156 -13.431 -12.079  1.00  0.00     0.157 A 
ATOM      3  C   UNL     1      11.552 -13.542 -12.054  1.00  0.00     0.051 A 
ATOM      4  C   UNL     1      12.207 -13.929 -10.884  1.00  0.00     0.015 A 
ATOM      5  C   UNL     1      11.475 -14.210  -9.722  1.00  0.00     0.018 A 
ATOM      6  C   UNL     1      10.073 -14.098  -9.747  1.00  0.00     0.062 A 
ENDROOT
BRANCH   1   7
ATOM      7  O   UNL     1       8.010 -13.585 -10.992  1.00  0.00    -0.493 OA
ATOM      8  C   UNL     1       7.222 -12.846 -10.064  1.00  0.00     0.278 C 
ENDBRANCH   1   7
BRANCH   2   9
ATOM      9  O   UNL     1       9.503 -13.044 -13.249  1.00  0.00    -0.504 OA
ATOM     10  H   UNL     1       8.638 -12.516 -13.223  1.00  0.00     0.293 HD
ENDBRANCH   2   9
BRANCH   5  11
ATOM     11  C   UNL     1      12.186 -14.618  -8.496  1.00  0.00     0.260 C 
ATOM     12  O   UNL     1      12.135 -13.919  -7.450  1.00  0.00    -0.298 OA
ENDBRANCH   5  11
TORSDOF 3
ENDMDL
MODEL 9
REMARK VINA RESULT:    -3.689      1.220      2.539
REMARK INTER + INTRA:          -4.284
REMARK INTER:                  -4.225
REMARK INTRA:                  -0.059
REMARK UNBOUND:                -0.057
REMARK SMILES COc1cc(C=O)ccc1O
REMARK SMILES IDX 3 1 10 2 9 3 8 4 5 5 4 6 2 7 1 8 11 9 6 11 7 12
REMARK H PARENT 11 10
REMARK Flexibility Score: inf
ROOT
ATOM      1  C   UNL     1      11.477 -13.832 -11.070  1.00  0.00     0.161 A 
ATOM      2  C   UNL     1      10.562 -13.080 -11.818  1.00  0.00     0.157 A 
ATOM      3  C   UNL     1       9.281 -12.824 -11.313  1.00  0.00     0.051 A 
ATOM      4  C   UNL     1       8.907 -13.316 -10.061  1.00  0.00     0.015 A 
ATOM      5  C   UNL     1       9.809 -14.070  -9.298  1.00  0.00     0.018 A 
ATOM      6  C   UNL     1      11.095 -14.327  -9.806  1.00  0.00     0.062 A 
ENDROOT
BRANCH   1   7
ATOM      7  O   UNL     1      12.751 -14.067 -11.611  1.00  0.00    -0.493 OA
ATOM      8  C   UNL     1      13.616 -15.125 -11.209  1.00  0.00     0.278 C 
ENDBRANCH   1   7
BRANCH   2   9
ATOM      9  O   UNL     1      10.934 -12.588 -13.069  1.00  0.00    -0.504 OA
ATOM     10  H   UNL     1      10.882 -13.163 -13.902  1.00  0.00     0.293 HD
ENDBRANCH   2   9
BRANCH   5  11
ATOM     11  C   UNL     1       9.394 -14.580  -7.977  1.00  0.00     0.260 C 
ATOM     12  O   UNL     1       8.505 -13.996  -7.303  1.00  0.00    -0.298 OA
ENDBRANCH   5  11
TORSDOF 3
ENDMDL
