MODEL 1
REMARK VINA RESULT:    -6.795      0.000      0.000
REMARK INTER + INTRA:         -12.290
REMARK INTER:                 -10.371
REMARK INTRA:                  -1.919
REMARK UNBOUND:                -1.919
REMARK SMILES CC(=O)CCC=C(C)CCC=C(C)CCC=C(C)C
REMARK SMILES IDX 10 1 11 2 12 3 13 4 14 5 15 6 16 7 18 8 17 9 19 10 9 11 7 12
REMARK SMILES IDX 6 13 8 14 5 15 4 16 2 17 3 18 1 19
REMARK H PARENT
REMARK Flexibility Score: inf
ROOT
ATOM      1  C   UNL     1     -13.520 -15.089  27.229  1.00  0.00     0.032 C 
ENDROOT
BRANCH   1   2
ATOM      2  C   UNL     1     -13.530 -15.221  28.732  1.00  0.00    -0.028 C 
ATOM      3  C   UNL     1     -14.079 -14.297  29.551  1.00  0.00    -0.077 C 
ATOM      4  C   UNL     1     -14.740 -13.054  29.005  1.00  0.00     0.039 C 
BRANCH   3   5
ATOM      5  C   UNL     1     -14.033 -14.519  31.047  1.00  0.00     0.034 C 
BRANCH   5   6
ATOM      6  C   UNL     1     -13.651 -15.967  31.373  1.00  0.00     0.032 C 
BRANCH   6   7
ATOM      7  C   UNL     1     -12.530 -16.011  32.380  1.00  0.00    -0.028 C 
ATOM      8  C   UNL     1     -10.212 -16.176  33.180  1.00  0.00     0.039 C 
ATOM      9  C   UNL     1     -11.220 -16.106  32.062  1.00  0.00    -0.080 C 
ATOM     10  C   UNL     1     -10.745 -16.127  30.628  1.00  0.00     0.039 C 
ENDBRANCH   6   7
ENDBRANCH   5   6
ENDBRANCH   3   5
ENDBRANCH   1   2
BRANCH   1  11
ATOM     11  C   UNL     1     -13.582 -16.461  26.551  1.00  0.00     0.034 C 
BRANCH  11  12
ATOM     12  C   UNL     1     -12.333 -17.265  26.857  1.00  0.00    -0.077 C 
ATOM     13  C   UNL     1     -12.297 -18.243  27.792  1.00  0.00    -0.028 C 
ATOM     14  C   UNL     1     -11.056 -16.921  26.135  1.00  0.00     0.039 C 
BRANCH  13  15
ATOM     15  C   UNL     1     -13.490 -18.729  28.581  1.00  0.00     0.035 C 
BRANCH  15  16
ATOM     16  C   UNL     1     -13.155 -19.984  29.400  1.00  0.00     0.079 C 
BRANCH  16  17
ATOM     17  C   UNL     1     -12.554 -19.633  30.735  1.00  0.00     0.130 C 
ATOM     18  O   UNL     1     -13.282 -19.369  31.679  1.00  0.00    -0.300 OA
ATOM     19  C   UNL     1     -11.066 -19.628  30.917  1.00  0.00     0.087 C 
ENDBRANCH  16  17
ENDBRANCH  15  16
ENDBRANCH  13  15
ENDBRANCH  11  12
ENDBRANCH   1  11
TORSDOF 9
ENDMDL
MODEL 2
REMARK VINA RESULT:    -6.634      1.193      4.661
REMARK INTER + INTRA:         -12.044
REMARK INTER:                 -10.036
REMARK INTRA:                  -2.008
REMARK UNBOUND:                -1.919
REMARK SMILES CC(=O)CCC=C(C)CCC=C(C)CCC=C(C)C
REMARK SMILES IDX 10 1 11 2 12 3 13 4 14 5 15 6 16 7 18 8 17 9 19 10 9 11 7 12
REMARK SMILES IDX 6 13 8 14 5 15 4 16 2 17 3 18 1 19
REMARK H PARENT
REMARK Flexibility Score: inf
ROOT
ATOM      1  C   UNL     1      -9.875 -15.731  30.140  1.00  0.00     0.032 C 
ENDROOT
BRANCH   1   2
ATOM      2  C   UNL     1     -11.032 -15.576  29.184  1.00  0.00    -0.028 C 
ATOM      3  C   UNL     1     -11.154 -16.298  28.048  1.00  0.00    -0.077 C 
ATOM      4  C   UNL     1     -10.126 -17.335  27.661  1.00  0.00     0.039 C 
BRANCH   3   5
ATOM      5  C   UNL     1     -12.349 -16.065  27.151  1.00  0.00     0.034 C 
BRANCH   5   6
ATOM      6  C   UNL     1     -13.614 -15.816  27.981  1.00  0.00     0.032 C 
BRANCH   6   7
ATOM      7  C   UNL     1     -14.024 -14.367  27.911  1.00  0.00    -0.028 C 
ATOM      8  C   UNL     1     -14.812 -12.196  28.750  1.00  0.00     0.039 C 
ATOM      9  C   UNL     1     -14.392 -13.625  28.979  1.00  0.00    -0.080 C 
ATOM     10  C   UNL     1     -14.378 -14.182  30.383  1.00  0.00     0.039 C 
ENDBRANCH   6   7
ENDBRANCH   5   6
ENDBRANCH   3   5
ENDBRANCH   1   2
BRANCH   1  11
ATOM     11  C   UNL     1     -10.123 -16.875  31.129  1.00  0.00     0.034 C 
BRANCH  11  12
ATOM     12  C   UNL     1     -10.953 -16.396  32.303  1.00  0.00    -0.077 C 
ATOM     13  C   UNL     1     -12.294 -16.570  32.377  1.00  0.00    -0.028 C 
ATOM     14  C   UNL     1     -10.270 -15.636  33.410  1.00  0.00     0.039 C 
BRANCH  13  15
ATOM     15  C   UNL     1     -13.124 -17.331  31.370  1.00  0.00     0.035 C 
BRANCH  15  16
ATOM     16  C   UNL     1     -13.249 -18.814  31.744  1.00  0.00     0.079 C 
BRANCH  16  17
ATOM     17  C   UNL     1     -12.738 -19.709  30.646  1.00  0.00     0.130 C 
ATOM     18  O   UNL     1     -12.149 -20.741  30.928  1.00  0.00    -0.300 OA
ATOM     19  C   UNL     1     -12.968 -19.352  29.208  1.00  0.00     0.087 C 
ENDBRANCH  16  17
ENDBRANCH  15  16
ENDBRANCH  13  15
ENDBRANCH  11  12
ENDBRANCH   1  11
TORSDOF 9
ENDMDL
MODEL 3
REMARK VINA RESULT:    -6.497      2.228      4.865
REMARK INTER + INTRA:         -11.834
REMARK INTER:                 -10.469
REMARK INTRA:                  -1.364
REMARK UNBOUND:                -1.919
REMARK SMILES CC(=O)CCC=C(C)CCC=C(C)CCC=C(C)C
REMARK SMILES IDX 10 1 11 2 12 3 13 4 14 5 15 6 16 7 18 8 17 9 19 10 9 11 7 12
REMARK SMILES IDX 6 13 8 14 5 15 4 16 2 17 3 18 1 19
REMARK H PARENT
REMARK Flexibility Score: inf
ROOT
ATOM      1  C   UNL     1     -12.971 -17.782  27.502  1.00  0.00     0.032 C 
ENDROOT
BRANCH   1   2
ATOM      2  C   UNL     1     -12.809 -18.311  28.906  1.00  0.00    -0.028 C 
ATOM      3  C   UNL     1     -13.132 -19.575  29.260  1.00  0.00    -0.077 C 
ATOM      4  C   UNL     1     -13.675 -20.561  28.253  1.00  0.00     0.039 C 
BRANCH   3   5
ATOM      5  C   UNL     1     -12.938 -20.010  30.696  1.00  0.00     0.034 C 
BRANCH   5   6
ATOM      6  C   UNL     1     -12.270 -18.900  31.516  1.00  0.00     0.032 C 
BRANCH   6   7
ATOM      7  C   UNL     1     -13.280 -17.863  31.936  1.00  0.00    -0.028 C 
ATOM      8  C   UNL     1     -14.083 -15.700  32.783  1.00  0.00     0.039 C 
ATOM      9  C   UNL     1     -12.966 -16.619  32.360  1.00  0.00    -0.080 C 
ATOM     10  C   UNL     1     -11.539 -16.126  32.407  1.00  0.00     0.039 C 
ENDBRANCH   6   7
ENDBRANCH   5   6
ENDBRANCH   3   5
ENDBRANCH   1   2
BRANCH   1  11
ATOM     11  C   UNL     1     -11.814 -16.851  27.124  1.00  0.00     0.034 C 
BRANCH  11  12
ATOM     12  C   UNL     1     -11.295 -16.120  28.347  1.00  0.00    -0.077 C 
ATOM     13  C   UNL     1     -11.925 -15.050  28.888  1.00  0.00    -0.028 C 
ATOM     14  C   UNL     1      -9.987 -16.559  28.951  1.00  0.00     0.039 C 
BRANCH  13  15
ATOM     15  C   UNL     1     -13.253 -14.502  28.423  1.00  0.00     0.035 C 
BRANCH  15  16
ATOM     16  C   UNL     1     -14.115 -14.028  29.601  1.00  0.00     0.079 C 
BRANCH  16  17
ATOM     17  C   UNL     1     -15.128 -12.999  29.171  1.00  0.00     0.130 C 
ATOM     18  O   UNL     1     -14.754 -11.962  28.644  1.00  0.00    -0.300 OA
ATOM     19  C   UNL     1     -16.593 -13.251  29.365  1.00  0.00     0.087 C 
ENDBRANCH  16  17
ENDBRANCH  15  16
ENDBRANCH  13  15
ENDBRANCH  11  12
ENDBRANCH   1  11
TORSDOF 9
ENDMDL
MODEL 4
REMARK VINA RESULT:    -6.476      1.804      5.180
REMARK INTER + INTRA:         -11.802
REMARK INTER:                  -9.672
REMARK INTRA:                  -2.130
REMARK UNBOUND:                -1.919
REMARK SMILES CC(=O)CCC=C(C)CCC=C(C)CCC=C(C)C
REMARK SMILES IDX 10 1 11 2 12 3 13 4 14 5 15 6 16 7 18 8 17 9 19 10 9 11 7 12
REMARK SMILES IDX 6 13 8 14 5 15 4 16 2 17 3 18 1 19
REMARK H PARENT
REMARK Flexibility Score: inf
ROOT
ATOM      1  C   UNL     1     -12.162 -20.205  29.756  1.00  0.00     0.032 C 
ENDROOT
BRANCH   1   2
ATOM      2  C   UNL     1     -13.136 -19.404  28.927  1.00  0.00    -0.028 C 
ATOM      3  C   UNL     1     -12.757 -18.398  28.108  1.00  0.00    -0.077 C 
ATOM      4  C   UNL     1     -11.305 -18.010  27.958  1.00  0.00     0.039 C 
BRANCH   3   5
ATOM      5  C   UNL     1     -13.811 -17.651  27.321  1.00  0.00     0.034 C 
BRANCH   5   6
ATOM      6  C   UNL     1     -13.214 -16.407  26.653  1.00  0.00     0.032 C 
BRANCH   6   7
ATOM      7  C   UNL     1     -13.920 -15.159  27.117  1.00  0.00    -0.028 C 
ATOM      8  C   UNL     1     -14.362 -13.209  28.546  1.00  0.00     0.039 C 
ATOM      9  C   UNL     1     -13.536 -14.413  28.177  1.00  0.00    -0.080 C 
ATOM     10  C   UNL     1     -12.302 -14.746  28.983  1.00  0.00     0.039 C 
ENDBRANCH   6   7
ENDBRANCH   5   6
ENDBRANCH   3   5
ENDBRANCH   1   2
BRANCH   1  11
ATOM     11  C   UNL     1     -12.251 -19.825  31.237  1.00  0.00     0.034 C 
BRANCH  11  12
ATOM     12  C   UNL     1     -11.495 -18.538  31.506  1.00  0.00    -0.077 C 
ATOM     13  C   UNL     1     -12.107 -17.337  31.632  1.00  0.00    -0.028 C 
ATOM     14  C   UNL     1      -9.991 -18.584  31.572  1.00  0.00     0.039 C 
BRANCH  13  15
ATOM     15  C   UNL     1     -13.602 -17.122  31.619  1.00  0.00     0.035 C 
BRANCH  15  16
ATOM     16  C   UNL     1     -14.115 -16.620  32.975  1.00  0.00     0.079 C 
BRANCH  16  17
ATOM     17  C   UNL     1     -14.169 -15.116  33.027  1.00  0.00     0.130 C 
ATOM     18  O   UNL     1     -13.684 -14.524  33.980  1.00  0.00    -0.300 OA
ATOM     19  C   UNL     1     -14.793 -14.341  31.906  1.00  0.00     0.087 C 
ENDBRANCH  16  17
ENDBRANCH  15  16
ENDBRANCH  13  15
ENDBRANCH  11  12
ENDBRANCH   1  11
TORSDOF 9
ENDMDL
MODEL 5
REMARK VINA RESULT:    -6.474      1.339      4.271
REMARK INTER + INTRA:         -11.800
REMARK INTER:                 -10.049
REMARK INTRA:                  -1.751
REMARK UNBOUND:                -1.919
REMARK SMILES CC(=O)CCC=C(C)CCC=C(C)CCC=C(C)C
REMARK SMILES IDX 10 1 11 2 12 3 13 4 14 5 15 6 16 7 18 8 17 9 19 10 9 11 7 12
REMARK SMILES IDX 6 13 8 14 5 15 4 16 2 17 3 18 1 19
REMARK H PARENT
REMARK Flexibility Score: inf
ROOT
ATOM      1  C   UNL     1     -14.065 -14.941  31.555  1.00  0.00     0.032 C 
ENDROOT
BRANCH   1   2
ATOM      2  C   UNL     1     -13.651 -15.109  30.113  1.00  0.00    -0.028 C 
ATOM      3  C   UNL     1     -14.001 -14.240  29.139  1.00  0.00    -0.077 C 
ATOM      4  C   UNL     1     -14.834 -13.016  29.438  1.00  0.00     0.039 C 
BRANCH   3   5
ATOM      5  C   UNL     1     -13.541 -14.498  27.721  1.00  0.00     0.034 C 
BRANCH   5   6
ATOM      6  C   UNL     1     -13.836 -15.945  27.307  1.00  0.00     0.032 C 
BRANCH   6   7
ATOM      7  C   UNL     1     -12.795 -16.447  26.340  1.00  0.00    -0.028 C 
ATOM      8  C   UNL     1     -10.636 -17.378  25.622  1.00  0.00     0.039 C 
ATOM      9  C   UNL     1     -11.592 -16.946  26.704  1.00  0.00    -0.080 C 
ATOM     10  C   UNL     1     -11.193 -17.093  28.153  1.00  0.00     0.039 C 
ENDBRANCH   6   7
ENDBRANCH   5   6
ENDBRANCH   3   5
ENDBRANCH   1   2
BRANCH   1  11
ATOM     11  C   UNL     1     -13.894 -16.248  32.336  1.00  0.00     0.034 C 
BRANCH  11  12
ATOM     12  C   UNL     1     -12.466 -16.748  32.234  1.00  0.00    -0.077 C 
ATOM     13  C   UNL     1     -12.149 -17.980  31.769  1.00  0.00    -0.028 C 
ATOM     14  C   UNL     1     -11.352 -15.864  32.729  1.00  0.00     0.039 C 
BRANCH  13  15
ATOM     15  C   UNL     1     -13.139 -18.975  31.210  1.00  0.00     0.035 C 
BRANCH  15  16
ATOM     16  C   UNL     1     -12.443 -20.060  30.376  1.00  0.00     0.079 C 
BRANCH  16  17
ATOM     17  C   UNL     1     -13.091 -20.225  29.027  1.00  0.00     0.130 C 
ATOM     18  O   UNL     1     -12.848 -21.216  28.355  1.00  0.00    -0.300 OA
ATOM     19  C   UNL     1     -14.050 -19.193  28.515  1.00  0.00     0.087 C 
ENDBRANCH  16  17
ENDBRANCH  15  16
ENDBRANCH  13  15
ENDBRANCH  11  12
ENDBRANCH   1  11
TORSDOF 9
ENDMDL
MODEL 6
REMARK VINA RESULT:    -6.460      1.224      3.388
REMARK INTER + INTRA:         -11.778
REMARK INTER:                 -10.061
REMARK INTRA:                  -1.717
REMARK UNBOUND:                -1.919
REMARK SMILES CC(=O)CCC=C(C)CCC=C(C)CCC=C(C)C
REMARK SMILES IDX 10 1 11 2 12 3 13 4 14 5 15 6 16 7 18 8 17 9 19 10 9 11 7 12
REMARK SMILES IDX 6 13 8 14 5 15 4 16 2 17 3 18 1 19
REMARK H PARENT
REMARK Flexibility Score: inf
ROOT
ATOM      1  C   UNL     1     -10.007 -16.044  28.772  1.00  0.00     0.032 C 
ENDROOT
BRANCH   1   2
ATOM      2  C   UNL     1     -11.234 -15.703  29.582  1.00  0.00    -0.028 C 
ATOM      3  C   UNL     1     -11.332 -15.940  30.909  1.00  0.00    -0.077 C 
ATOM      4  C   UNL     1     -10.195 -16.563  31.684  1.00  0.00     0.039 C 
BRANCH   3   5
ATOM      5  C   UNL     1     -12.608 -15.566  31.631  1.00  0.00     0.034 C 
BRANCH   5   6
ATOM      6  C   UNL     1     -13.811 -15.634  30.684  1.00  0.00     0.032 C 
BRANCH   6   7
ATOM      7  C   UNL     1     -14.327 -14.252  30.374  1.00  0.00    -0.028 C 
ATOM      8  C   UNL     1     -14.882 -12.304  28.982  1.00  0.00     0.039 C 
ATOM      9  C   UNL     1     -14.374 -13.714  29.135  1.00  0.00    -0.080 C 
ATOM     10  C   UNL     1     -13.949 -14.490  27.910  1.00  0.00     0.039 C 
ENDBRANCH   6   7
ENDBRANCH   5   6
ENDBRANCH   3   5
ENDBRANCH   1   2
BRANCH   1  11
ATOM     11  C   UNL     1     -10.144 -17.419  28.111  1.00  0.00     0.034 C 
BRANCH  11  12
ATOM     12  C   UNL     1     -11.185 -17.380  27.009  1.00  0.00    -0.077 C 
ATOM     13  C   UNL     1     -12.472 -17.757  27.198  1.00  0.00    -0.028 C 
ATOM     14  C   UNL     1     -10.759 -16.966  25.625  1.00  0.00     0.039 C 
BRANCH  13  15
ATOM     15  C   UNL     1     -13.067 -18.171  28.524  1.00  0.00     0.035 C 
BRANCH  15  16
ATOM     16  C   UNL     1     -12.627 -19.585  28.926  1.00  0.00     0.079 C 
BRANCH  16  17
ATOM     17  C   UNL     1     -12.008 -19.605  30.299  1.00  0.00     0.130 C 
ATOM     18  O   UNL     1     -10.792 -19.639  30.416  1.00  0.00    -0.300 OA
ATOM     19  C   UNL     1     -12.874 -19.561  31.522  1.00  0.00     0.087 C 
ENDBRANCH  16  17
ENDBRANCH  15  16
ENDBRANCH  13  15
ENDBRANCH  11  12
ENDBRANCH   1  11
TORSDOF 9
ENDMDL
MODEL 7
REMARK VINA RESULT:    -6.324      1.923      4.537
REMARK INTER + INTRA:         -11.570
REMARK INTER:                 -10.067
REMARK INTRA:                  -1.503
REMARK UNBOUND:                -1.919
REMARK SMILES CC(=O)CCC=C(C)CCC=C(C)CCC=C(C)C
REMARK SMILES IDX 10 1 11 2 12 3 13 4 14 5 15 6 16 7 18 8 17 9 19 10 9 11 7 12
REMARK SMILES IDX 6 13 8 14 5 15 4 16 2 17 3 18 1 19
REMARK H PARENT
REMARK Flexibility Score: inf
ROOT
ATOM      1  C   UNL     1     -12.882 -18.714  31.579  1.00  0.00     0.032 C 
ENDROOT
BRANCH   1   2
ATOM      2  C   UNL     1     -13.598 -17.474  32.054  1.00  0.00    -0.028 C 
ATOM      3  C   UNL     1     -12.953 -16.354  32.449  1.00  0.00    -0.077 C 
ATOM      4  C   UNL     1     -11.445 -16.266  32.428  1.00  0.00     0.039 C 
BRANCH   3   5
ATOM      5  C   UNL     1     -13.762 -15.163  32.914  1.00  0.00     0.034 C 
BRANCH   5   6
ATOM      6  C   UNL     1     -14.827 -14.789  31.877  1.00  0.00     0.032 C 
BRANCH   6   7
ATOM      7  C   UNL     1     -14.186 -14.357  30.583  1.00  0.00    -0.028 C 
ATOM      8  C   UNL     1     -14.067 -13.358  28.340  1.00  0.00     0.039 C 
ATOM      9  C   UNL     1     -14.829 -13.693  29.596  1.00  0.00    -0.080 C 
ATOM     10  C   UNL     1     -16.274 -13.270  29.726  1.00  0.00     0.039 C 
ENDBRANCH   6   7
ENDBRANCH   5   6
ENDBRANCH   3   5
ENDBRANCH   1   2
BRANCH   1  11
ATOM     11  C   UNL     1     -12.221 -18.485  30.216  1.00  0.00     0.034 C 
BRANCH  11  12
ATOM     12  C   UNL     1     -13.102 -19.011  29.100  1.00  0.00    -0.077 C 
ATOM     13  C   UNL     1     -13.602 -18.221  28.121  1.00  0.00    -0.028 C 
ATOM     14  C   UNL     1     -13.494 -20.466  29.112  1.00  0.00     0.039 C 
BRANCH  13  15
ATOM     15  C   UNL     1     -13.285 -16.754  27.947  1.00  0.00     0.035 C 
BRANCH  15  16
ATOM     16  C   UNL     1     -12.490 -16.494  26.661  1.00  0.00     0.079 C 
BRANCH  16  17
ATOM     17  C   UNL     1     -11.058 -16.940  26.791  1.00  0.00     0.130 C 
ATOM     18  O   UNL     1     -10.545 -17.602  25.902  1.00  0.00    -0.300 OA
ATOM     19  C   UNL     1     -10.252 -16.557  27.996  1.00  0.00     0.087 C 
ENDBRANCH  16  17
ENDBRANCH  15  16
ENDBRANCH  13  15
ENDBRANCH  11  12
ENDBRANCH   1  11
TORSDOF 9
ENDMDL
MODEL 8
REMARK VINA RESULT:    -6.189      1.467      3.359
REMARK INTER + INTRA:         -11.364
REMARK INTER:                  -9.993
REMARK INTRA:                  -1.371
REMARK UNBOUND:                -1.919
REMARK SMILES CC(=O)CCC=C(C)CCC=C(C)CCC=C(C)C
REMARK SMILES IDX 10 1 11 2 12 3 13 4 14 5 15 6 16 7 18 8 17 9 19 10 9 11 7 12
REMARK SMILES IDX 6 13 8 14 5 15 4 16 2 17 3 18 1 19
REMARK H PARENT
REMARK Flexibility Score: inf
ROOT
ATOM      1  C   UNL     1     -11.045 -15.965  28.480  1.00  0.00     0.032 C 
ENDROOT
BRANCH   1   2
ATOM      2  C   UNL     1     -12.095 -15.010  28.994  1.00  0.00    -0.028 C 
ATOM      3  C   UNL     1     -13.259 -14.777  28.349  1.00  0.00    -0.077 C 
ATOM      4  C   UNL     1     -13.597 -15.478  27.055  1.00  0.00     0.039 C 
BRANCH   3   5
ATOM      5  C   UNL     1     -14.247 -13.796  28.943  1.00  0.00     0.034 C 
BRANCH   5   6
ATOM      6  C   UNL     1     -14.250 -13.885  30.474  1.00  0.00     0.032 C 
BRANCH   6   7
ATOM      7  C   UNL     1     -14.200 -15.322  30.925  1.00  0.00    -0.028 C 
ATOM      8  C   UNL     1     -13.998 -17.190  32.511  1.00  0.00     0.039 C 
ATOM      9  C   UNL     1     -14.071 -15.715  32.213  1.00  0.00    -0.080 C 
ATOM     10  C   UNL     1     -14.012 -14.721  33.349  1.00  0.00     0.039 C 
ENDBRANCH   6   7
ENDBRANCH   5   6
ENDBRANCH   3   5
ENDBRANCH   1   2
BRANCH   1  11
ATOM     11  C   UNL     1      -9.922 -16.157  29.504  1.00  0.00     0.034 C 
BRANCH  11  12
ATOM     12  C   UNL     1     -10.471 -16.718  30.801  1.00  0.00    -0.077 C 
ATOM     13  C   UNL     1     -11.010 -17.956  30.898  1.00  0.00    -0.028 C 
ATOM     14  C   UNL     1     -10.478 -15.839  32.025  1.00  0.00     0.039 C 
BRANCH  13  15
ATOM     15  C   UNL     1     -11.056 -18.970  29.779  1.00  0.00     0.035 C 
BRANCH  15  16
ATOM     16  C   UNL     1     -12.215 -19.961  29.958  1.00  0.00     0.079 C 
BRANCH  16  17
ATOM     17  C   UNL     1     -13.189 -19.889  28.811  1.00  0.00     0.130 C 
ATOM     18  O   UNL     1     -13.631 -20.919  28.326  1.00  0.00    -0.300 OA
ATOM     19  C   UNL     1     -13.636 -18.562  28.278  1.00  0.00     0.087 C 
ENDBRANCH  16  17
ENDBRANCH  15  16
ENDBRANCH  13  15
ENDBRANCH  11  12
ENDBRANCH   1  11
TORSDOF 9
ENDMDL
