MODEL 1
REMARK VINA RESULT:    -4.689      0.000      0.000
REMARK INTER + INTRA:          -5.617
REMARK INTER:                  -5.375
REMARK INTRA:                  -0.242
REMARK UNBOUND:                -0.242
REMARK SMILES O=C([O-])C=Cc1ccc(O)cc1
REMARK SMILES IDX 6 1 7 2 12 3 8 4 11 5 9 6 5 7 4 8 2 9 1 10 3 11 10 12
REMARK H PARENT 10 13
REMARK Flexibility Score: inf
ROOT
ATOM      1  C   UNL     1      21.185  47.901  44.293  1.00  0.00    -0.025 A 
ATOM      2  C   UNL     1      20.121  48.105  43.401  1.00  0.00     0.012 A 
ATOM      3  C   UNL     1      21.682  46.600  44.485  1.00  0.00     0.012 A 
ATOM      4  C   UNL     1      19.528  47.018  42.752  1.00  0.00     0.047 A 
ATOM      5  C   UNL     1      21.086  45.515  43.834  1.00  0.00     0.047 A 
ATOM      6  C   UNL     1      20.005  45.721  42.968  1.00  0.00     0.115 A 
ENDROOT
BRANCH   1   7
ATOM      7  C   UNL     1      21.831  49.069  44.927  1.00  0.00     0.010 C 
ATOM      8  C   UNL     1      21.387  49.702  46.024  1.00  0.00     0.025 C 
BRANCH   8   9
ATOM      9  C   UNL     1      20.084  49.471  46.676  1.00  0.00     0.064 C 
ATOM     10  O   UNL     1      19.090  50.157  46.326  1.00  0.00    -0.545 OA
ATOM     11  O   UNL     1      19.912  48.462  47.618  1.00  0.00    -0.545 OA
ENDBRANCH   8   9
ENDBRANCH   1   7
BRANCH   6  12
ATOM     12  O   UNL     1      19.402  44.649  42.315  1.00  0.00    -0.508 OA
ATOM     13  H   UNL     1      19.933  43.830  42.041  1.00  0.00     0.293 HD
ENDBRANCH   6  12
TORSDOF 3
ENDMDL
MODEL 2
REMARK VINA RESULT:    -4.679      2.560      3.845
REMARK INTER + INTRA:          -5.604
REMARK INTER:                  -5.306
REMARK INTRA:                  -0.298
REMARK UNBOUND:                -0.242
REMARK SMILES O=C([O-])C=Cc1ccc(O)cc1
REMARK SMILES IDX 6 1 7 2 12 3 8 4 11 5 9 6 5 7 4 8 2 9 1 10 3 11 10 12
REMARK H PARENT 10 13
REMARK Flexibility Score: inf
ROOT
ATOM      1  C   UNL     1      20.781  47.800  45.155  1.00  0.00    -0.025 A 
ATOM      2  C   UNL     1      21.208  48.975  45.794  1.00  0.00     0.012 A 
ATOM      3  C   UNL     1      21.228  47.526  43.851  1.00  0.00     0.012 A 
ATOM      4  C   UNL     1      22.024  49.887  45.119  1.00  0.00     0.047 A 
ATOM      5  C   UNL     1      22.044  48.440  43.178  1.00  0.00     0.047 A 
ATOM      6  C   UNL     1      22.442  49.625  43.809  1.00  0.00     0.115 A 
ENDROOT
BRANCH   1   7
ATOM      7  C   UNL     1      19.962  46.826  45.906  1.00  0.00     0.010 C 
ATOM      8  C   UNL     1      18.629  46.707  45.825  1.00  0.00     0.025 C 
BRANCH   8   9
ATOM      9  C   UNL     1      17.727  47.643  45.127  1.00  0.00     0.064 C 
ATOM     10  O   UNL     1      17.243  48.617  45.759  1.00  0.00    -0.545 OA
ATOM     11  O   UNL     1      17.457  47.515  43.770  1.00  0.00    -0.545 OA
ENDBRANCH   8   9
ENDBRANCH   1   7
BRANCH   6  12
ATOM     12  O   UNL     1      23.254  50.544  43.150  1.00  0.00    -0.508 OA
ATOM     13  H   UNL     1      23.967  51.070  43.643  1.00  0.00     0.293 HD
ENDBRANCH   6  12
TORSDOF 3
ENDMDL
MODEL 3
REMARK VINA RESULT:    -4.654      2.525      3.834
REMARK INTER + INTRA:          -5.576
REMARK INTER:                  -5.283
REMARK INTRA:                  -0.293
REMARK UNBOUND:                -0.242
REMARK SMILES O=C([O-])C=Cc1ccc(O)cc1
REMARK SMILES IDX 6 1 7 2 12 3 8 4 11 5 9 6 5 7 4 8 2 9 1 10 3 11 10 12
REMARK H PARENT 10 13
REMARK Flexibility Score: inf
ROOT
ATOM      1  C   UNL     1      20.849  47.745  45.173  1.00  0.00    -0.025 A 
ATOM      2  C   UNL     1      21.248  47.540  43.844  1.00  0.00     0.012 A 
ATOM      3  C   UNL     1      21.225  48.930  45.829  1.00  0.00     0.012 A 
ATOM      4  C   UNL     1      22.057  48.479  43.198  1.00  0.00     0.047 A 
ATOM      5  C   UNL     1      22.034  49.868  45.181  1.00  0.00     0.047 A 
ATOM      6  C   UNL     1      22.455  49.643  43.864  1.00  0.00     0.115 A 
ENDROOT
BRANCH   1   7
ATOM      7  C   UNL     1      19.951  46.764  45.818  1.00  0.00     0.010 C 
ATOM      8  C   UNL     1      18.614  46.749  45.712  1.00  0.00     0.025 C 
BRANCH   8   9
ATOM      9  C   UNL     1      17.792  47.810  45.100  1.00  0.00     0.064 C 
ATOM     10  O   UNL     1      17.381  48.760  45.815  1.00  0.00    -0.545 OA
ATOM     11  O   UNL     1      17.522  47.824  43.736  1.00  0.00    -0.545 OA
ENDBRANCH   8   9
ENDBRANCH   1   7
BRANCH   6  12
ATOM     12  O   UNL     1      23.262  50.570  43.207  1.00  0.00    -0.508 OA
ATOM     13  H   UNL     1      24.271  50.480  43.198  1.00  0.00     0.293 HD
ENDBRANCH   6  12
TORSDOF 3
ENDMDL
MODEL 4
REMARK VINA RESULT:    -4.550      1.729      2.274
REMARK INTER + INTRA:          -5.457
REMARK INTER:                  -5.168
REMARK INTRA:                  -0.290
REMARK UNBOUND:                -0.242
REMARK SMILES O=C([O-])C=Cc1ccc(O)cc1
REMARK SMILES IDX 6 1 7 2 12 3 8 4 11 5 9 6 5 7 4 8 2 9 1 10 3 11 10 12
REMARK H PARENT 10 13
REMARK Flexibility Score: inf
ROOT
ATOM      1  C   UNL     1      20.651  48.724  45.101  1.00  0.00    -0.025 A 
ATOM      2  C   UNL     1      21.186  48.627  43.808  1.00  0.00     0.012 A 
ATOM      3  C   UNL     1      20.254  47.553  45.771  1.00  0.00     0.012 A 
ATOM      4  C   UNL     1      21.273  47.385  43.172  1.00  0.00     0.047 A 
ATOM      5  C   UNL     1      20.342  46.313  45.133  1.00  0.00     0.047 A 
ATOM      6  C   UNL     1      20.849  46.225  43.830  1.00  0.00     0.115 A 
ENDROOT
BRANCH   1   7
ATOM      7  C   UNL     1      20.619  50.040  45.773  1.00  0.00     0.010 C 
ATOM      8  C   UNL     1      19.554  50.854  45.834  1.00  0.00     0.025 C 
BRANCH   8   9
ATOM      9  C   UNL     1      18.296  50.675  45.086  1.00  0.00     0.064 C 
ATOM     10  O   UNL     1      17.258  50.320  45.703  1.00  0.00    -0.545 OA
ATOM     11  O   UNL     1      18.211  50.959  43.728  1.00  0.00    -0.545 OA
ENDBRANCH   8   9
ENDBRANCH   1   7
BRANCH   6  12
ATOM     12  O   UNL     1      20.940  44.995  43.183  1.00  0.00    -0.508 OA
ATOM     13  H   UNL     1      21.026  44.129  43.702  1.00  0.00     0.293 HD
ENDBRANCH   6  12
TORSDOF 3
ENDMDL
MODEL 5
REMARK VINA RESULT:    -4.392      3.888      4.697
REMARK INTER + INTRA:          -5.276
REMARK INTER:                  -5.025
REMARK INTRA:                  -0.251
REMARK UNBOUND:                -0.242
REMARK SMILES O=C([O-])C=Cc1ccc(O)cc1
REMARK SMILES IDX 6 1 7 2 12 3 8 4 11 5 9 6 5 7 4 8 2 9 1 10 3 11 10 12
REMARK H PARENT 10 13
REMARK Flexibility Score: inf
ROOT
ATOM      1  C   UNL     1      17.689  50.500  43.991  1.00  0.00    -0.025 A 
ATOM      2  C   UNL     1      16.436  50.039  44.425  1.00  0.00     0.012 A 
ATOM      3  C   UNL     1      17.931  50.637  42.613  1.00  0.00     0.012 A 
ATOM      4  C   UNL     1      15.460  49.670  43.494  1.00  0.00     0.047 A 
ATOM      5  C   UNL     1      16.954  50.267  41.685  1.00  0.00     0.047 A 
ATOM      6  C   UNL     1      15.716  49.779  42.123  1.00  0.00     0.115 A 
ENDROOT
BRANCH   1   7
ATOM      7  C   UNL     1      18.686  50.934  44.991  1.00  0.00     0.010 C 
ATOM      8  C   UNL     1      19.823  50.287  45.285  1.00  0.00     0.025 C 
BRANCH   8   9
ATOM      9  C   UNL     1      20.189  48.940  44.809  1.00  0.00     0.064 C 
ATOM     10  O   UNL     1      19.847  47.934  45.483  1.00  0.00    -0.545 OA
ATOM     11  O   UNL     1      20.840  48.751  43.595  1.00  0.00    -0.545 OA
ENDBRANCH   8   9
ENDBRANCH   1   7
BRANCH   6  12
ATOM     12  O   UNL     1      14.734  49.406  41.209  1.00  0.00    -0.508 OA
ATOM     13  H   UNL     1      13.939  48.841  41.487  1.00  0.00     0.293 HD
ENDBRANCH   6  12
TORSDOF 3
ENDMDL
MODEL 6
REMARK VINA RESULT:    -4.382      1.691      2.160
REMARK INTER + INTRA:          -5.265
REMARK INTER:                  -5.039
REMARK INTRA:                  -0.226
REMARK UNBOUND:                -0.242
REMARK SMILES O=C([O-])C=Cc1ccc(O)cc1
REMARK SMILES IDX 6 1 7 2 12 3 8 4 11 5 9 6 5 7 4 8 2 9 1 10 3 11 10 12
REMARK H PARENT 10 13
REMARK Flexibility Score: inf
ROOT
ATOM      1  C   UNL     1      20.122  48.659  44.919  1.00  0.00    -0.025 A 
ATOM      2  C   UNL     1      19.789  47.434  45.517  1.00  0.00     0.012 A 
ATOM      3  C   UNL     1      20.918  48.665  43.760  1.00  0.00     0.012 A 
ATOM      4  C   UNL     1      20.288  46.237  44.996  1.00  0.00     0.047 A 
ATOM      5  C   UNL     1      21.415  47.466  43.241  1.00  0.00     0.047 A 
ATOM      6  C   UNL     1      21.105  46.248  43.860  1.00  0.00     0.115 A 
ENDROOT
BRANCH   1   7
ATOM      7  C   UNL     1      19.540  49.907  45.455  1.00  0.00     0.010 C 
ATOM      8  C   UNL     1      20.008  50.591  46.511  1.00  0.00     0.025 C 
BRANCH   8   9
ATOM      9  C   UNL     1      21.058  50.124  47.436  1.00  0.00     0.064 C 
ATOM     10  O   UNL     1      22.263  50.374  47.175  1.00  0.00    -0.545 OA
ATOM     11  O   UNL     1      20.743  49.478  48.626  1.00  0.00    -0.545 OA
ENDBRANCH   8   9
ENDBRANCH   1   7
BRANCH   6  12
ATOM     12  O   UNL     1      21.595  45.047  43.353  1.00  0.00    -0.508 OA
ATOM     13  H   UNL     1      22.549  44.751  43.524  1.00  0.00     0.293 HD
ENDBRANCH   6  12
TORSDOF 3
ENDMDL
MODEL 7
REMARK VINA RESULT:    -4.189      2.202      2.796
REMARK INTER + INTRA:          -5.043
REMARK INTER:                  -4.774
REMARK INTRA:                  -0.268
REMARK UNBOUND:                -0.242
REMARK SMILES O=C([O-])C=Cc1ccc(O)cc1
REMARK SMILES IDX 6 1 7 2 12 3 8 4 11 5 9 6 5 7 4 8 2 9 1 10 3 11 10 12
REMARK H PARENT 10 13
REMARK Flexibility Score: inf
ROOT
ATOM      1  C   UNL     1      18.722  49.056  43.326  1.00  0.00    -0.025 A 
ATOM      2  C   UNL     1      17.833  48.129  42.760  1.00  0.00     0.012 A 
ATOM      3  C   UNL     1      20.018  48.640  43.678  1.00  0.00     0.012 A 
ATOM      4  C   UNL     1      18.216  46.794  42.600  1.00  0.00     0.047 A 
ATOM      5  C   UNL     1      20.397  47.304  43.517  1.00  0.00     0.047 A 
ATOM      6  C   UNL     1      19.496  46.376  42.980  1.00  0.00     0.115 A 
ENDROOT
BRANCH   1   7
ATOM      7  C   UNL     1      18.315  50.472  43.436  1.00  0.00     0.010 C 
ATOM      8  C   UNL     1      17.632  51.006  44.461  1.00  0.00     0.025 C 
BRANCH   8   9
ATOM      9  C   UNL     1      17.003  50.247  45.558  1.00  0.00     0.064 C 
ATOM     10  O   UNL     1      15.797  49.904  45.457  1.00  0.00    -0.545 OA
ATOM     11  O   UNL     1      17.732  49.837  46.669  1.00  0.00    -0.545 OA
ENDBRANCH   8   9
ENDBRANCH   1   7
BRANCH   6  12
ATOM     12  O   UNL     1      19.862  45.042  42.815  1.00  0.00    -0.508 OA
ATOM     13  H   UNL     1      19.567  44.328  43.472  1.00  0.00     0.293 HD
ENDBRANCH   6  12
TORSDOF 3
ENDMDL
MODEL 8
REMARK VINA RESULT:    -4.175      2.862      4.612
REMARK INTER + INTRA:          -5.027
REMARK INTER:                  -4.743
REMARK INTRA:                  -0.284
REMARK UNBOUND:                -0.242
REMARK SMILES O=C([O-])C=Cc1ccc(O)cc1
REMARK SMILES IDX 6 1 7 2 12 3 8 4 11 5 9 6 5 7 4 8 2 9 1 10 3 11 10 12
REMARK H PARENT 10 13
REMARK Flexibility Score: inf
ROOT
ATOM      1  C   UNL     1      19.194  49.836  44.205  1.00  0.00    -0.025 A 
ATOM      2  C   UNL     1      18.596  49.869  45.474  1.00  0.00     0.012 A 
ATOM      3  C   UNL     1      18.392  50.002  43.062  1.00  0.00     0.012 A 
ATOM      4  C   UNL     1      17.210  50.011  45.596  1.00  0.00     0.047 A 
ATOM      5  C   UNL     1      17.008  50.144  43.188  1.00  0.00     0.047 A 
ATOM      6  C   UNL     1      16.412  50.145  44.455  1.00  0.00     0.115 A 
ENDROOT
BRANCH   1   7
ATOM      7  C   UNL     1      20.665  49.738  44.102  1.00  0.00     0.010 C 
ATOM      8  C   UNL     1      21.350  48.622  43.810  1.00  0.00     0.025 C 
BRANCH   8   9
ATOM      9  C   UNL     1      20.780  47.264  43.730  1.00  0.00     0.064 C 
ATOM     10  O   UNL     1      20.444  46.803  42.609  1.00  0.00    -0.545 OA
ATOM     11  O   UNL     1      20.673  46.454  44.854  1.00  0.00    -0.545 OA
ENDBRANCH   8   9
ENDBRANCH   1   7
BRANCH   6  12
ATOM     12  O   UNL     1      15.033  50.285  44.594  1.00  0.00    -0.508 OA
ATOM     13  H   UNL     1      14.515  50.975  44.061  1.00  0.00     0.293 HD
ENDBRANCH   6  12
TORSDOF 3
ENDMDL
MODEL 9
REMARK VINA RESULT:    -4.123      1.689      4.675
REMARK INTER + INTRA:          -4.968
REMARK INTER:                  -4.677
REMARK INTRA:                  -0.290
REMARK UNBOUND:                -0.242
REMARK SMILES O=C([O-])C=Cc1ccc(O)cc1
REMARK SMILES IDX 6 1 7 2 12 3 8 4 11 5 9 6 5 7 4 8 2 9 1 10 3 11 10 12
REMARK H PARENT 10 13
REMARK Flexibility Score: inf
ROOT
ATOM      1  C   UNL     1      20.239  48.962  44.673  1.00  0.00    -0.025 A 
ATOM      2  C   UNL     1      20.379  48.707  46.045  1.00  0.00     0.012 A 
ATOM      3  C   UNL     1      19.092  49.633  44.212  1.00  0.00     0.012 A 
ATOM      4  C   UNL     1      19.365  49.068  46.937  1.00  0.00     0.047 A 
ATOM      5  C   UNL     1      18.080  49.993  45.105  1.00  0.00     0.047 A 
ATOM      6  C   UNL     1      18.211  49.708  46.471  1.00  0.00     0.115 A 
ENDROOT
BRANCH   1   7
ATOM      7  C   UNL     1      21.346  48.619  43.756  1.00  0.00     0.010 C 
ATOM      8  C   UNL     1      21.426  47.502  43.019  1.00  0.00     0.025 C 
BRANCH   8   9
ATOM      9  C   UNL     1      20.529  46.336  43.132  1.00  0.00     0.064 C 
ATOM     10  O   UNL     1      19.517  46.264  42.388  1.00  0.00    -0.545 OA
ATOM     11  O   UNL     1      20.815  45.280  43.989  1.00  0.00    -0.545 OA
ENDBRANCH   8   9
ENDBRANCH   1   7
BRANCH   6  12
ATOM     12  O   UNL     1      17.209  50.061  47.371  1.00  0.00    -0.508 OA
ATOM     13  H   UNL     1      16.620  49.361  47.809  1.00  0.00     0.293 HD
ENDBRANCH   6  12
TORSDOF 3
ENDMDL
