MODEL 1
REMARK VINA RESULT:    -5.116      0.000      0.000
REMARK INTER + INTRA:          -5.116
REMARK INTER:                  -5.116
REMARK INTRA:                   0.000
REMARK UNBOUND:                 0.000
REMARK SMILES O=c1ccc2ccc3occc3c2o1
REMARK SMILES IDX 6 1 7 2 8 3 12 4 11 5 10 6 9 7 13 8 5 9 4 10 3 11 2 12 1 13
REMARK SMILES IDX 14 14
REMARK H PARENT
REMARK Flexibility Score: inf
ROOT
ATOM      1  C   UNL     1      22.163  42.325  26.154  1.00  0.00     0.016 A 
ATOM      2  C   UNL     1      22.653  43.633  25.982  1.00  0.00     0.048 A 
ATOM      3  C   UNL     1      22.687  44.473  27.094  1.00  0.00     0.137 A 
ATOM      4  C   UNL     1      22.261  44.058  28.328  1.00  0.00     0.064 A 
ATOM      5  C   UNL     1      22.430  45.119  29.187  1.00  0.00     0.054 A 
ATOM      6  C   UNL     1      22.960  46.131  28.393  1.00  0.00     0.196 A 
ATOM      7  O   UNL     1      23.102  45.716  27.148  1.00  0.00    -0.464 OA
ATOM      8  C   UNL     1      21.770  42.772  28.539  1.00  0.00     0.149 A 
ATOM      9  C   UNL     1      21.722  41.890  27.428  1.00  0.00     0.018 A 
ATOM     10  C   UNL     1      21.229  40.598  27.634  1.00  0.00     0.019 A 
ATOM     11  C   UNL     1      20.807  40.222  28.911  1.00  0.00     0.094 A 
ATOM     12  C   UNL     1      20.886  41.149  29.957  1.00  0.00     0.336 A 
ATOM     13  O   UNL     1      20.509  40.823  31.113  1.00  0.00    -0.246 OA
ATOM     14  O   UNL     1      21.358  42.374  29.740  1.00  0.00    -0.422 OA
ENDROOT
TORSDOF 0
ENDMDL
MODEL 2
REMARK VINA RESULT:    -4.983      1.507      4.094
REMARK INTER + INTRA:          -4.983
REMARK INTER:                  -4.983
REMARK INTRA:                   0.000
REMARK UNBOUND:                 0.000
REMARK SMILES O=c1ccc2ccc3occc3c2o1
REMARK SMILES IDX 6 1 7 2 8 3 12 4 11 5 10 6 9 7 13 8 5 9 4 10 3 11 2 12 1 13
REMARK SMILES IDX 14 14
REMARK H PARENT
REMARK Flexibility Score: inf
ROOT
ATOM      1  C   UNL     1      22.472  43.083  26.209  1.00  0.00     0.016 A 
ATOM      2  C   UNL     1      21.984  41.762  26.188  1.00  0.00     0.048 A 
ATOM      3  C   UNL     1      21.490  41.226  27.375  1.00  0.00     0.137 A 
ATOM      4  C   UNL     1      21.469  41.944  28.541  1.00  0.00     0.064 A 
ATOM      5  C   UNL     1      20.925  41.127  29.505  1.00  0.00     0.054 A 
ATOM      6  C   UNL     1      20.647  39.938  28.839  1.00  0.00     0.196 A 
ATOM      7  O   UNL     1      20.995  40.027  27.568  1.00  0.00    -0.464 OA
ATOM      8  C   UNL     1      21.942  43.252  28.604  1.00  0.00     0.149 A 
ATOM      9  C   UNL     1      22.453  43.831  27.412  1.00  0.00     0.018 A 
ATOM     10  C   UNL     1      22.929  45.144  27.469  1.00  0.00     0.019 A 
ATOM     11  C   UNL     1      22.887  45.835  28.682  1.00  0.00     0.094 A 
ATOM     12  C   UNL     1      22.368  45.197  29.815  1.00  0.00     0.336 A 
ATOM     13  O   UNL     1      22.324  45.808  30.914  1.00  0.00    -0.246 OA
ATOM     14  O   UNL     1      21.920  43.946  29.739  1.00  0.00    -0.422 OA
ENDROOT
TORSDOF 0
ENDMDL
MODEL 3
REMARK VINA RESULT:    -4.889      1.731      2.882
REMARK INTER + INTRA:          -4.889
REMARK INTER:                  -4.889
REMARK INTRA:                   0.000
REMARK UNBOUND:                 0.000
REMARK SMILES O=c1ccc2ccc3occc3c2o1
REMARK SMILES IDX 6 1 7 2 8 3 12 4 11 5 10 6 9 7 13 8 5 9 4 10 3 11 2 12 1 13
REMARK SMILES IDX 14 14
REMARK H PARENT
REMARK Flexibility Score: inf
ROOT
ATOM      1  C   UNL     1      22.989  45.271  27.251  1.00  0.00     0.016 A 
ATOM      2  C   UNL     1      22.970  46.003  28.453  1.00  0.00     0.048 A 
ATOM      3  C   UNL     1      22.468  45.379  29.594  1.00  0.00     0.137 A 
ATOM      4  C   UNL     1      22.001  44.092  29.569  1.00  0.00     0.064 A 
ATOM      5  C   UNL     1      21.586  43.792  30.846  1.00  0.00     0.054 A 
ATOM      6  C   UNL     1      21.836  44.949  31.576  1.00  0.00     0.196 A 
ATOM      7  O   UNL     1      22.363  45.880  30.801  1.00  0.00    -0.464 OA
ATOM      8  C   UNL     1      22.002  43.335  28.400  1.00  0.00     0.149 A 
ATOM      9  C   UNL     1      22.507  43.939  27.219  1.00  0.00     0.018 A 
ATOM     10  C   UNL     1      22.511  43.184  26.043  1.00  0.00     0.019 A 
ATOM     11  C   UNL     1      22.024  41.876  26.068  1.00  0.00     0.094 A 
ATOM     12  C   UNL     1      21.542  41.349  27.272  1.00  0.00     0.336 A 
ATOM     13  O   UNL     1      21.100  40.171  27.309  1.00  0.00    -0.246 OA
ATOM     14  O   UNL     1      21.547  42.085  28.381  1.00  0.00    -0.422 OA
ENDROOT
TORSDOF 0
ENDMDL
MODEL 4
REMARK VINA RESULT:    -4.434      1.545      2.720
REMARK INTER + INTRA:          -4.434
REMARK INTER:                  -4.434
REMARK INTRA:                   0.000
REMARK UNBOUND:                 0.000
REMARK SMILES O=c1ccc2ccc3occc3c2o1
REMARK SMILES IDX 6 1 7 2 8 3 12 4 11 5 10 6 9 7 13 8 5 9 4 10 3 11 2 12 1 13
REMARK SMILES IDX 14 14
REMARK H PARENT
REMARK Flexibility Score: inf
ROOT
ATOM      1  C   UNL     1      21.490  43.843  30.996  1.00  0.00     0.016 A 
ATOM      2  C   UNL     1      22.008  45.085  30.580  1.00  0.00     0.048 A 
ATOM      3  C   UNL     1      22.397  45.220  29.249  1.00  0.00     0.137 A 
ATOM      4  C   UNL     1      22.288  44.189  28.354  1.00  0.00     0.064 A 
ATOM      5  C   UNL     1      22.754  44.656  27.147  1.00  0.00     0.054 A 
ATOM      6  C   UNL     1      23.125  45.972  27.400  1.00  0.00     0.196 A 
ATOM      7  O   UNL     1      22.900  46.280  28.665  1.00  0.00    -0.464 OA
ATOM      8  C   UNL     1      21.780  42.947  28.726  1.00  0.00     0.149 A 
ATOM      9  C   UNL     1      21.374  42.774  30.075  1.00  0.00     0.018 A 
ATOM     10  C   UNL     1      20.863  41.529  30.454  1.00  0.00     0.019 A 
ATOM     11  C   UNL     1      20.771  40.509  29.505  1.00  0.00     0.094 A 
ATOM     12  C   UNL     1      21.192  40.756  28.193  1.00  0.00     0.336 A 
ATOM     13  O   UNL     1      21.115  39.846  27.327  1.00  0.00    -0.246 OA
ATOM     14  O   UNL     1      21.675  41.949  27.853  1.00  0.00    -0.422 OA
ENDROOT
TORSDOF 0
ENDMDL
MODEL 5
REMARK VINA RESULT:    -4.230      1.151      4.263
REMARK INTER + INTRA:          -4.230
REMARK INTER:                  -4.230
REMARK INTRA:                   0.000
REMARK UNBOUND:                 0.000
REMARK SMILES O=c1ccc2ccc3occc3c2o1
REMARK SMILES IDX 6 1 7 2 8 3 12 4 11 5 10 6 9 7 13 8 5 9 4 10 3 11 2 12 1 13
REMARK SMILES IDX 14 14
REMARK H PARENT
REMARK Flexibility Score: inf
ROOT
ATOM      1  C   UNL     1      21.923  41.818  26.367  1.00  0.00     0.016 A 
ATOM      2  C   UNL     1      21.394  40.806  27.189  1.00  0.00     0.048 A 
ATOM      3  C   UNL     1      21.207  41.089  28.541  1.00  0.00     0.137 A 
ATOM      4  C   UNL     1      21.522  42.310  29.075  1.00  0.00     0.064 A 
ATOM      5  C   UNL     1      21.218  42.252  30.415  1.00  0.00     0.054 A 
ATOM      6  C   UNL     1      20.726  40.964  30.606  1.00  0.00     0.196 A 
ATOM      7  O   UNL     1      20.733  40.294  29.469  1.00  0.00    -0.464 OA
ATOM      8  C   UNL     1      22.047  43.337  28.295  1.00  0.00     0.149 A 
ATOM      9  C   UNL     1      22.251  43.083  26.914  1.00  0.00     0.018 A 
ATOM     10  C   UNL     1      22.778  44.110  26.126  1.00  0.00     0.019 A 
ATOM     11  C   UNL     1      23.083  45.338  26.716  1.00  0.00     0.094 A 
ATOM     12  C   UNL     1      22.854  45.513  28.086  1.00  0.00     0.336 A 
ATOM     13  O   UNL     1      23.125  46.614  28.632  1.00  0.00    -0.246 OA
ATOM     14  O   UNL     1      22.352  44.522  28.819  1.00  0.00    -0.422 OA
ENDROOT
TORSDOF 0
ENDMDL
MODEL 6
REMARK VINA RESULT:    -4.099      1.879      3.812
REMARK INTER + INTRA:          -4.099
REMARK INTER:                  -4.099
REMARK INTRA:                   0.000
REMARK UNBOUND:                 0.000
REMARK SMILES O=c1ccc2ccc3occc3c2o1
REMARK SMILES IDX 6 1 7 2 8 3 12 4 11 5 10 6 9 7 13 8 5 9 4 10 3 11 2 12 1 13
REMARK SMILES IDX 14 14
REMARK H PARENT
REMARK Flexibility Score: inf
ROOT
ATOM      1  C   UNL     1      20.882  41.238  29.366  1.00  0.00     0.016 A 
ATOM      2  C   UNL     1      20.981  40.766  28.043  1.00  0.00     0.048 A 
ATOM      3  C   UNL     1      21.553  41.606  27.089  1.00  0.00     0.137 A 
ATOM      4  C   UNL     1      22.011  42.857  27.406  1.00  0.00     0.064 A 
ATOM      5  C   UNL     1      22.507  43.407  26.246  1.00  0.00     0.054 A 
ATOM      6  C   UNL     1      22.309  42.425  25.281  1.00  0.00     0.196 A 
ATOM      7  O   UNL     1      21.737  41.361  25.814  1.00  0.00    -0.464 OA
ATOM      8  C   UNL     1      21.931  43.360  28.701  1.00  0.00     0.149 A 
ATOM      9  C   UNL     1      21.354  42.531  29.700  1.00  0.00     0.018 A 
ATOM     10  C   UNL     1      21.271  43.031  31.002  1.00  0.00     0.019 A 
ATOM     11  C   UNL     1      21.752  44.313  31.276  1.00  0.00     0.094 A 
ATOM     12  C   UNL     1      22.307  45.070  30.238  1.00  0.00     0.336 A 
ATOM     13  O   UNL     1      22.745  46.227  30.470  1.00  0.00    -0.246 OA
ATOM     14  O   UNL     1      22.377  44.576  29.004  1.00  0.00    -0.422 OA
ENDROOT
TORSDOF 0
ENDMDL
MODEL 7
REMARK VINA RESULT:    -3.900      1.466      2.884
REMARK INTER + INTRA:          -3.900
REMARK INTER:                  -3.900
REMARK INTRA:                   0.000
REMARK UNBOUND:                 0.000
REMARK SMILES O=c1ccc2ccc3occc3c2o1
REMARK SMILES IDX 6 1 7 2 8 3 12 4 11 5 10 6 9 7 13 8 5 9 4 10 3 11 2 12 1 13
REMARK SMILES IDX 14 14
REMARK H PARENT
REMARK Flexibility Score: inf
ROOT
ATOM      1  C   UNL     1      22.548  44.500  28.210  1.00  0.00     0.016 A 
ATOM      2  C   UNL     1      22.821  44.861  26.877  1.00  0.00     0.048 A 
ATOM      3  C   UNL     1      22.500  43.951  25.872  1.00  0.00     0.137 A 
ATOM      4  C   UNL     1      21.933  42.735  26.149  1.00  0.00     0.064 A 
ATOM      5  C   UNL     1      21.749  42.095  24.945  1.00  0.00     0.054 A 
ATOM      6  C   UNL     1      22.229  42.991  23.996  1.00  0.00     0.196 A 
ATOM      7  O   UNL     1      22.671  44.090  24.579  1.00  0.00    -0.464 OA
ATOM      8  C   UNL     1      21.647  42.341  27.454  1.00  0.00     0.149 A 
ATOM      9  C   UNL     1      21.962  43.244  28.503  1.00  0.00     0.018 A 
ATOM     10  C   UNL     1      21.677  42.854  29.815  1.00  0.00     0.019 A 
ATOM     11  C   UNL     1      21.099  41.604  30.047  1.00  0.00     0.094 A 
ATOM     12  C   UNL     1      20.818  40.769  28.960  1.00  0.00     0.336 A 
ATOM     13  O   UNL     1      20.297  39.640  29.155  1.00  0.00    -0.246 OA
ATOM     14  O   UNL     1      21.097  41.159  27.718  1.00  0.00    -0.422 OA
ENDROOT
TORSDOF 0
ENDMDL
MODEL 8
REMARK VINA RESULT:    -3.825      1.587      3.671
REMARK INTER + INTRA:          -3.825
REMARK INTER:                  -3.825
REMARK INTRA:                   0.000
REMARK UNBOUND:                 0.000
REMARK SMILES O=c1ccc2ccc3occc3c2o1
REMARK SMILES IDX 6 1 7 2 8 3 12 4 11 5 10 6 9 7 13 8 5 9 4 10 3 11 2 12 1 13
REMARK SMILES IDX 14 14
REMARK H PARENT
REMARK Flexibility Score: inf
ROOT
ATOM      1  C   UNL     1      21.119  41.399  29.309  1.00  0.00     0.016 A 
ATOM      2  C   UNL     1      21.158  42.131  30.511  1.00  0.00     0.048 A 
ATOM      3  C   UNL     1      21.615  43.447  30.464  1.00  0.00     0.137 A 
ATOM      4  C   UNL     1      22.019  44.031  29.293  1.00  0.00     0.064 A 
ATOM      5  C   UNL     1      22.403  45.316  29.600  1.00  0.00     0.054 A 
ATOM      6  C   UNL     1      22.201  45.424  30.971  1.00  0.00     0.196 A 
ATOM      7  O   UNL     1      21.730  44.292  31.460  1.00  0.00    -0.464 OA
ATOM      8  C   UNL     1      21.995  43.342  28.084  1.00  0.00     0.149 A 
ATOM      9  C   UNL     1      21.535  41.999  28.095  1.00  0.00     0.018 A 
ATOM     10  C   UNL     1      21.509  41.301  26.884  1.00  0.00     0.019 A 
ATOM     11  C   UNL     1      21.930  41.941  25.717  1.00  0.00     0.094 A 
ATOM     12  C   UNL     1      22.371  43.268  25.786  1.00  0.00     0.336 A 
ATOM     13  O   UNL     1      22.754  43.857  24.742  1.00  0.00    -0.246 OA
ATOM     14  O   UNL     1      22.388  43.914  26.949  1.00  0.00    -0.422 OA
ENDROOT
TORSDOF 0
ENDMDL
MODEL 9
REMARK VINA RESULT:    -3.806      1.801      4.800
REMARK INTER + INTRA:          -3.806
REMARK INTER:                  -3.806
REMARK INTRA:                   0.000
REMARK UNBOUND:                 0.000
REMARK SMILES O=c1ccc2ccc3occc3c2o1
REMARK SMILES IDX 6 1 7 2 8 3 12 4 11 5 10 6 9 7 13 8 5 9 4 10 3 11 2 12 1 13
REMARK SMILES IDX 14 14
REMARK H PARENT
REMARK Flexibility Score: inf
ROOT
ATOM      1  C   UNL     1      22.152  43.971  29.112  1.00  0.00     0.016 A 
ATOM      2  C   UNL     1      21.664  43.045  30.054  1.00  0.00     0.048 A 
ATOM      3  C   UNL     1      21.245  41.799  29.592  1.00  0.00     0.137 A 
ATOM      4  C   UNL     1      21.297  41.463  28.266  1.00  0.00     0.064 A 
ATOM      5  C   UNL     1      20.815  40.179  28.159  1.00  0.00     0.054 A 
ATOM      6  C   UNL     1      20.495  39.816  29.463  1.00  0.00     0.196 A 
ATOM      7  O   UNL     1      20.762  40.804  30.297  1.00  0.00    -0.464 OA
ATOM      8  C   UNL     1      21.773  42.350  27.303  1.00  0.00     0.149 A 
ATOM      9  C   UNL     1      22.208  43.629  27.738  1.00  0.00     0.018 A 
ATOM     10  C   UNL     1      22.687  44.524  26.777  1.00  0.00     0.019 A 
ATOM     11  C   UNL     1      22.720  44.135  25.436  1.00  0.00     0.094 A 
ATOM     12  C   UNL     1      22.273  42.855  25.085  1.00  0.00     0.336 A 
ATOM     13  O   UNL     1      22.298  42.491  23.880  1.00  0.00    -0.246 OA
ATOM     14  O   UNL     1      21.821  42.019  26.016  1.00  0.00    -0.422 OA
ENDROOT
TORSDOF 0
ENDMDL
