MODEL 1
REMARK VINA RESULT:    -4.216      0.000      0.000
REMARK INTER + INTRA:          -9.777
REMARK INTER:                  -7.666
REMARK INTRA:                  -2.111
REMARK UNBOUND:                -2.111
REMARK SMILES CCCCCCCCCCCCCC[C@H](C)C(=O)[O-]
REMARK SMILES IDX 9 1 10 2 11 3 12 4 13 5 14 6 15 7 16 8 17 9 18 10 19 11 8 12
REMARK SMILES IDX 7 13 6 14 5 15 4 16 3 17 2 18 1 19
REMARK H PARENT
REMARK Flexibility Score: inf
ROOT
ATOM      1  C   UNL     1      -7.897  14.836   0.909  1.00  0.00     0.000 C 
ENDROOT
BRANCH   1   2
ATOM      2  C   UNL     1      -9.122  15.337   0.129  1.00  0.00     0.000 C 
BRANCH   2   3
ATOM      3  C   UNL     1      -9.031  16.830  -0.220  1.00  0.00     0.000 C 
BRANCH   3   4
ATOM      4  C   UNL     1      -9.380  17.072  -1.695  1.00  0.00     0.000 C 
BRANCH   4   5
ATOM      5  C   UNL     1      -9.416  15.776  -2.525  1.00  0.00     0.001 C 
BRANCH   5   6
ATOM      6  C   UNL     1      -8.588  15.810  -3.828  1.00  0.00     0.009 C 
BRANCH   6   7
ATOM      7  C   UNL     1      -7.597  14.636  -3.986  1.00  0.00     0.032 C 
ATOM      8  C   UNL     1      -6.563  14.655  -2.855  1.00  0.00     0.014 C 
BRANCH   7   9
ATOM      9  C   UNL     1      -6.895  14.683  -5.316  1.00  0.00     0.044 C 
ATOM     10  O   UNL     1      -5.940  13.897  -5.554  1.00  0.00    -0.550 OA
ATOM     11  O   UNL     1      -7.292  15.593  -6.289  1.00  0.00    -0.550 OA
ENDBRANCH   7   9
ENDBRANCH   6   7
ENDBRANCH   5   6
ENDBRANCH   4   5
ENDBRANCH   3   4
ENDBRANCH   2   3
ENDBRANCH   1   2
BRANCH   1  12
ATOM     12  C   UNL     1      -6.677  15.761   0.751  1.00  0.00     0.000 C 
BRANCH  12  13
ATOM     13  C   UNL     1      -6.196  16.338   2.091  1.00  0.00    -0.000 C 
BRANCH  13  14
ATOM     14  C   UNL     1      -6.387  17.859   2.181  1.00  0.00    -0.000 C 
BRANCH  14  15
ATOM     15  C   UNL     1      -7.229  18.239   3.406  1.00  0.00    -0.000 C 
BRANCH  15  16
ATOM     16  C   UNL     1      -8.646  17.642   3.368  1.00  0.00    -0.000 C 
BRANCH  16  17
ATOM     17  C   UNL     1      -9.762  18.704   3.275  1.00  0.00    -0.000 C 
BRANCH  17  18
ATOM     18  C   UNL     1     -11.119  18.089   2.903  1.00  0.00    -0.003 C 
ATOM     19  C   UNL     1     -11.059  16.564   2.930  1.00  0.00     0.004 C 
ENDBRANCH  17  18
ENDBRANCH  16  17
ENDBRANCH  15  16
ENDBRANCH  14  15
ENDBRANCH  13  14
ENDBRANCH  12  13
ENDBRANCH   1  12
TORSDOF 14
ENDMDL
MODEL 2
REMARK VINA RESULT:    -4.107      1.607      3.197
REMARK INTER + INTRA:          -9.580
REMARK INTER:                  -7.387
REMARK INTRA:                  -2.193
REMARK UNBOUND:                -2.111
REMARK SMILES CCCCCCCCCCCCCC[C@H](C)C(=O)[O-]
REMARK SMILES IDX 9 1 10 2 11 3 12 4 13 5 14 6 15 7 16 8 17 9 18 10 19 11 8 12
REMARK SMILES IDX 7 13 6 14 5 15 4 16 3 17 2 18 1 19
REMARK H PARENT
REMARK Flexibility Score: inf
ROOT
ATOM      1  C   UNL     1      -6.173  15.299  -0.082  1.00  0.00     0.000 C 
ENDROOT
BRANCH   1   2
ATOM      2  C   UNL     1      -6.560  13.813  -0.065  1.00  0.00     0.000 C 
BRANCH   2   3
ATOM      3  C   UNL     1      -7.191  13.351  -1.387  1.00  0.00     0.000 C 
BRANCH   3   4
ATOM      4  C   UNL     1      -6.782  14.276  -2.543  1.00  0.00     0.000 C 
BRANCH   4   5
ATOM      5  C   UNL     1      -7.265  13.773  -3.915  1.00  0.00     0.001 C 
BRANCH   5   6
ATOM      6  C   UNL     1      -6.445  14.275  -5.122  1.00  0.00     0.009 C 
BRANCH   6   7
ATOM      7  C   UNL     1      -7.234  15.169  -6.104  1.00  0.00     0.032 C 
ATOM      8  C   UNL     1      -8.483  15.738  -5.422  1.00  0.00     0.014 C 
BRANCH   7   9
ATOM      9  C   UNL     1      -7.633  14.411  -7.341  1.00  0.00     0.044 C 
ATOM     10  O   UNL     1      -7.135  13.277  -7.575  1.00  0.00    -0.550 OA
ATOM     11  O   UNL     1      -8.550  14.953  -8.233  1.00  0.00    -0.550 OA
ENDBRANCH   7   9
ENDBRANCH   6   7
ENDBRANCH   5   6
ENDBRANCH   4   5
ENDBRANCH   3   4
ENDBRANCH   2   3
ENDBRANCH   1   2
BRANCH   1  12
ATOM     12  C   UNL     1      -5.974  15.875   1.332  1.00  0.00     0.000 C 
BRANCH  12  13
ATOM     13  C   UNL     1      -6.655  17.239   1.515  1.00  0.00    -0.000 C 
BRANCH  13  14
ATOM     14  C   UNL     1      -7.767  17.206   2.574  1.00  0.00    -0.000 C 
BRANCH  14  15
ATOM     15  C   UNL     1      -8.970  16.388   2.087  1.00  0.00    -0.000 C 
BRANCH  15  16
ATOM     16  C   UNL     1      -9.498  16.855   0.720  1.00  0.00    -0.000 C 
BRANCH  16  17
ATOM     17  C   UNL     1     -10.004  15.704  -0.175  1.00  0.00    -0.000 C 
BRANCH  17  18
ATOM     18  C   UNL     1      -9.829  16.009  -1.669  1.00  0.00    -0.003 C 
ATOM     19  C   UNL     1      -8.971  17.254  -1.881  1.00  0.00     0.004 C 
ENDBRANCH  17  18
ENDBRANCH  16  17
ENDBRANCH  15  16
ENDBRANCH  14  15
ENDBRANCH  13  14
ENDBRANCH  12  13
ENDBRANCH   1  12
TORSDOF 14
ENDMDL
MODEL 3
REMARK VINA RESULT:    -4.068      2.488      7.019
REMARK INTER + INTRA:          -9.508
REMARK INTER:                  -7.165
REMARK INTRA:                  -2.343
REMARK UNBOUND:                -2.111
REMARK SMILES CCCCCCCCCCCCCC[C@H](C)C(=O)[O-]
REMARK SMILES IDX 9 1 10 2 11 3 12 4 13 5 14 6 15 7 16 8 17 9 18 10 19 11 8 12
REMARK SMILES IDX 7 13 6 14 5 15 4 16 3 17 2 18 1 19
REMARK H PARENT
REMARK Flexibility Score: inf
ROOT
ATOM      1  C   UNL     1      -9.374  14.799  -2.941  1.00  0.00     0.000 C 
ENDROOT
BRANCH   1   2
ATOM      2  C   UNL     1      -8.721  16.123  -3.365  1.00  0.00     0.000 C 
BRANCH   2   3
ATOM      3  C   UNL     1      -8.726  17.171  -2.241  1.00  0.00     0.000 C 
BRANCH   3   4
ATOM      4  C   UNL     1      -9.788  16.837  -1.184  1.00  0.00     0.000 C 
BRANCH   4   5
ATOM      5  C   UNL     1      -9.217  16.777   0.244  1.00  0.00     0.001 C 
BRANCH   5   6
ATOM      6  C   UNL     1      -8.748  15.380   0.703  1.00  0.00     0.009 C 
BRANCH   6   7
ATOM      7  C   UNL     1      -7.232  15.274   0.981  1.00  0.00     0.032 C 
ATOM      8  C   UNL     1      -6.636  16.664   1.226  1.00  0.00     0.014 C 
BRANCH   7   9
ATOM      9  C   UNL     1      -6.509  14.606  -0.157  1.00  0.00     0.044 C 
ATOM     10  O   UNL     1      -5.920  15.301  -1.026  1.00  0.00    -0.550 OA
ATOM     11  O   UNL     1      -6.486  13.219  -0.258  1.00  0.00    -0.550 OA
ENDBRANCH   7   9
ENDBRANCH   6   7
ENDBRANCH   5   6
ENDBRANCH   4   5
ENDBRANCH   3   4
ENDBRANCH   2   3
ENDBRANCH   1   2
BRANCH   1  12
ATOM     12  C   UNL     1      -8.464  13.583  -3.191  1.00  0.00     0.000 C 
BRANCH  12  13
ATOM     13  C   UNL     1      -7.177  13.955  -3.943  1.00  0.00    -0.000 C 
BRANCH  13  14
ATOM     14  C   UNL     1      -6.905  13.031  -5.139  1.00  0.00    -0.000 C 
BRANCH  14  15
ATOM     15  C   UNL     1      -6.471  13.836  -6.371  1.00  0.00    -0.000 C 
BRANCH  15  16
ATOM     16  C   UNL     1      -7.475  14.937  -6.753  1.00  0.00    -0.000 C 
BRANCH  16  17
ATOM     17  C   UNL     1      -8.401  14.550  -7.925  1.00  0.00    -0.000 C 
BRANCH  17  18
ATOM     18  C   UNL     1      -9.885  14.736  -7.579  1.00  0.00    -0.003 C 
ATOM     19  C   UNL     1     -10.313  13.788  -6.461  1.00  0.00     0.004 C 
ENDBRANCH  17  18
ENDBRANCH  16  17
ENDBRANCH  15  16
ENDBRANCH  14  15
ENDBRANCH  13  14
ENDBRANCH  12  13
ENDBRANCH   1  12
TORSDOF 14
ENDMDL
MODEL 4
REMARK VINA RESULT:    -4.057      1.931      3.873
REMARK INTER + INTRA:          -9.488
REMARK INTER:                  -7.181
REMARK INTRA:                  -2.307
REMARK UNBOUND:                -2.111
REMARK SMILES CCCCCCCCCCCCCC[C@H](C)C(=O)[O-]
REMARK SMILES IDX 9 1 10 2 11 3 12 4 13 5 14 6 15 7 16 8 17 9 18 10 19 11 8 12
REMARK SMILES IDX 7 13 6 14 5 15 4 16 3 17 2 18 1 19
REMARK H PARENT
REMARK Flexibility Score: inf
ROOT
ATOM      1  C   UNL     1      -9.683  16.762  -0.128  1.00  0.00     0.000 C 
ENDROOT
BRANCH   1   2
ATOM      2  C   UNL     1      -9.751  16.246  -1.574  1.00  0.00     0.000 C 
BRANCH   2   3
ATOM      3  C   UNL     1      -8.761  16.962  -2.504  1.00  0.00     0.000 C 
BRANCH   3   4
ATOM      4  C   UNL     1      -8.493  16.130  -3.767  1.00  0.00     0.000 C 
BRANCH   4   5
ATOM      5  C   UNL     1      -9.341  14.848  -3.833  1.00  0.00     0.001 C 
BRANCH   5   6
ATOM      6  C   UNL     1      -9.062  13.941  -5.050  1.00  0.00     0.009 C 
BRANCH   6   7
ATOM      7  C   UNL     1      -9.382  14.587  -6.416  1.00  0.00     0.032 C 
ATOM      8  C   UNL     1     -10.590  13.899  -7.062  1.00  0.00     0.014 C 
BRANCH   7   9
ATOM      9  C   UNL     1      -8.203  14.520  -7.348  1.00  0.00     0.044 C 
ATOM     10  O   UNL     1      -7.076  14.160  -6.916  1.00  0.00    -0.550 OA
ATOM     11  O   UNL     1      -8.347  14.855  -8.689  1.00  0.00    -0.550 OA
ENDBRANCH   7   9
ENDBRANCH   6   7
ENDBRANCH   5   6
ENDBRANCH   4   5
ENDBRANCH   3   4
ENDBRANCH   2   3
ENDBRANCH   1   2
BRANCH   1  12
ATOM     12  C   UNL     1      -9.629  15.622   0.904  1.00  0.00     0.000 C 
BRANCH  12  13
ATOM     13  C   UNL     1      -8.389  15.702   1.808  1.00  0.00    -0.000 C 
BRANCH  13  14
ATOM     14  C   UNL     1      -7.427  16.824   1.391  1.00  0.00    -0.000 C 
BRANCH  14  15
ATOM     15  C   UNL     1      -6.029  16.268   1.091  1.00  0.00    -0.000 C 
BRANCH  15  16
ATOM     16  C   UNL     1      -6.061  14.844   0.512  1.00  0.00    -0.000 C 
BRANCH  16  17
ATOM     17  C   UNL     1      -6.054  14.801  -1.031  1.00  0.00    -0.000 C 
BRANCH  17  18
ATOM     18  C   UNL     1      -6.876  13.628  -1.583  1.00  0.00    -0.003 C 
ATOM     19  C   UNL     1      -7.518  12.824  -0.456  1.00  0.00     0.004 C 
ENDBRANCH  17  18
ENDBRANCH  16  17
ENDBRANCH  15  16
ENDBRANCH  14  15
ENDBRANCH  13  14
ENDBRANCH  12  13
ENDBRANCH   1  12
TORSDOF 14
ENDMDL
MODEL 5
REMARK VINA RESULT:    -4.050      2.187      4.483
REMARK INTER + INTRA:          -9.476
REMARK INTER:                  -7.983
REMARK INTRA:                  -1.492
REMARK UNBOUND:                -2.111
REMARK SMILES CCCCCCCCCCCCCC[C@H](C)C(=O)[O-]
REMARK SMILES IDX 9 1 10 2 11 3 12 4 13 5 14 6 15 7 16 8 17 9 18 10 19 11 8 12
REMARK SMILES IDX 7 13 6 14 5 15 4 16 3 17 2 18 1 19
REMARK H PARENT
REMARK Flexibility Score: inf
ROOT
ATOM      1  C   UNL     1      -9.366  14.828  -3.328  1.00  0.00     0.000 C 
ENDROOT
BRANCH   1   2
ATOM      2  C   UNL     1      -8.489  13.654  -3.791  1.00  0.00     0.000 C 
BRANCH   2   3
ATOM      3  C   UNL     1      -9.238  12.688  -4.720  1.00  0.00     0.000 C 
BRANCH   3   4
ATOM      4  C   UNL     1     -10.480  13.358  -5.325  1.00  0.00     0.000 C 
BRANCH   4   5
ATOM      5  C   UNL     1     -10.447  13.406  -6.863  1.00  0.00     0.001 C 
BRANCH   5   6
ATOM      6  C   UNL     1      -9.817  14.681  -7.464  1.00  0.00     0.009 C 
BRANCH   6   7
ATOM      7  C   UNL     1      -8.434  14.463  -8.117  1.00  0.00     0.032 C 
ATOM      8  C   UNL     1      -8.340  13.053  -8.710  1.00  0.00     0.014 C 
BRANCH   7   9
ATOM      9  C   UNL     1      -7.319  14.673  -7.130  1.00  0.00     0.044 C 
ATOM     10  O   UNL     1      -7.128  15.812  -6.625  1.00  0.00    -0.550 OA
ATOM     11  O   UNL     1      -6.492  13.616  -6.767  1.00  0.00    -0.550 OA
ENDBRANCH   7   9
ENDBRANCH   6   7
ENDBRANCH   5   6
ENDBRANCH   4   5
ENDBRANCH   3   4
ENDBRANCH   2   3
ENDBRANCH   1   2
BRANCH   1  12
ATOM     12  C   UNL     1      -8.662  16.188  -3.480  1.00  0.00     0.000 C 
BRANCH  12  13
ATOM     13  C   UNL     1      -8.886  17.108  -2.270  1.00  0.00    -0.000 C 
BRANCH  13  14
ATOM     14  C   UNL     1     -10.033  16.628  -1.369  1.00  0.00    -0.000 C 
BRANCH  14  15
ATOM     15  C   UNL     1      -9.658  16.752   0.114  1.00  0.00    -0.000 C 
BRANCH  15  16
ATOM     16  C   UNL     1      -8.197  16.364   0.398  1.00  0.00    -0.000 C 
BRANCH  16  17
ATOM     17  C   UNL     1      -7.767  16.597   1.862  1.00  0.00    -0.000 C 
BRANCH  17  18
ATOM     18  C   UNL     1      -6.473  17.417   1.964  1.00  0.00    -0.003 C 
ATOM     19  C   UNL     1      -6.388  18.149   3.300  1.00  0.00     0.004 C 
ENDBRANCH  17  18
ENDBRANCH  16  17
ENDBRANCH  15  16
ENDBRANCH  14  15
ENDBRANCH  13  14
ENDBRANCH  12  13
ENDBRANCH   1  12
TORSDOF 14
ENDMDL
MODEL 6
REMARK VINA RESULT:    -4.030      3.556      7.882
REMARK INTER + INTRA:          -9.438
REMARK INTER:                  -7.249
REMARK INTRA:                  -2.189
REMARK UNBOUND:                -2.111
REMARK SMILES CCCCCCCCCCCCCC[C@H](C)C(=O)[O-]
REMARK SMILES IDX 9 1 10 2 11 3 12 4 13 5 14 6 15 7 16 8 17 9 18 10 19 11 8 12
REMARK SMILES IDX 7 13 6 14 5 15 4 16 3 17 2 18 1 19
REMARK H PARENT
REMARK Flexibility Score: inf
ROOT
ATOM      1  C   UNL     1      -8.445  13.828  -2.954  1.00  0.00     0.000 C 
ENDROOT
BRANCH   1   2
ATOM      2  C   UNL     1      -7.733  15.171  -3.178  1.00  0.00     0.000 C 
BRANCH   2   3
ATOM      3  C   UNL     1      -8.716  16.332  -3.392  1.00  0.00     0.000 C 
BRANCH   3   4
ATOM      4  C   UNL     1      -8.717  17.280  -2.184  1.00  0.00     0.000 C 
BRANCH   4   5
ATOM      5  C   UNL     1      -9.747  16.885  -1.111  1.00  0.00     0.001 C 
BRANCH   5   6
ATOM      6  C   UNL     1      -9.168  16.126   0.103  1.00  0.00     0.009 C 
BRANCH   6   7
ATOM      7  C   UNL     1      -7.687  16.440   0.406  1.00  0.00     0.032 C 
ATOM      8  C   UNL     1      -6.836  15.172   0.278  1.00  0.00     0.014 C 
BRANCH   7   9
ATOM      9  C   UNL     1      -7.519  17.026   1.782  1.00  0.00     0.044 C 
ATOM     10  O   UNL     1      -8.400  16.838   2.661  1.00  0.00    -0.550 OA
ATOM     11  O   UNL     1      -6.392  17.779   2.092  1.00  0.00    -0.550 OA
ENDBRANCH   7   9
ENDBRANCH   6   7
ENDBRANCH   5   6
ENDBRANCH   4   5
ENDBRANCH   3   4
ENDBRANCH   2   3
ENDBRANCH   1   2
BRANCH   1  12
ATOM     12  C   UNL     1      -9.854  13.796  -3.572  1.00  0.00     0.000 C 
BRANCH  12  13
ATOM     13  C   UNL     1      -9.944  12.864  -4.790  1.00  0.00    -0.000 C 
BRANCH  13  14
ATOM     14  C   UNL     1     -10.899  13.395  -5.869  1.00  0.00    -0.000 C 
BRANCH  14  15
ATOM     15  C   UNL     1     -10.259  13.311  -7.262  1.00  0.00    -0.000 C 
BRANCH  15  16
ATOM     16  C   UNL     1      -9.676  14.653  -7.735  1.00  0.00    -0.000 C 
BRANCH  16  17
ATOM     17  C   UNL     1      -8.166  14.596  -8.049  1.00  0.00    -0.000 C 
BRANCH  17  18
ATOM     18  C   UNL     1      -7.304  14.858  -6.805  1.00  0.00    -0.003 C 
ATOM     19  C   UNL     1      -6.568  13.594  -6.368  1.00  0.00     0.004 C 
ENDBRANCH  17  18
ENDBRANCH  16  17
ENDBRANCH  15  16
ENDBRANCH  14  15
ENDBRANCH  13  14
ENDBRANCH  12  13
ENDBRANCH   1  12
TORSDOF 14
ENDMDL
MODEL 7
REMARK VINA RESULT:    -4.028      1.929      3.977
REMARK INTER + INTRA:          -9.436
REMARK INTER:                  -7.900
REMARK INTRA:                  -1.536
REMARK UNBOUND:                -2.111
REMARK SMILES CCCCCCCCCCCCCC[C@H](C)C(=O)[O-]
REMARK SMILES IDX 9 1 10 2 11 3 12 4 13 5 14 6 15 7 16 8 17 9 18 10 19 11 8 12
REMARK SMILES IDX 7 13 6 14 5 15 4 16 3 17 2 18 1 19
REMARK H PARENT
REMARK Flexibility Score: inf
ROOT
ATOM      1  C   UNL     1      -8.796  16.248  -3.331  1.00  0.00     0.000 C 
ENDROOT
BRANCH   1   2
ATOM      2  C   UNL     1      -9.044  14.806  -2.864  1.00  0.00     0.000 C 
BRANCH   2   3
ATOM      3  C   UNL     1      -7.772  13.946  -2.903  1.00  0.00     0.000 C 
BRANCH   3   4
ATOM      4  C   UNL     1      -6.683  14.613  -3.755  1.00  0.00     0.000 C 
BRANCH   4   5
ATOM      5  C   UNL     1      -6.481  13.926  -5.118  1.00  0.00     0.001 C 
BRANCH   5   6
ATOM      6  C   UNL     1      -7.195  14.605  -6.306  1.00  0.00     0.009 C 
BRANCH   6   7
ATOM      7  C   UNL     1      -8.677  14.203  -6.475  1.00  0.00     0.032 C 
ATOM      8  C   UNL     1      -8.837  12.684  -6.339  1.00  0.00     0.014 C 
BRANCH   7   9
ATOM      9  C   UNL     1      -9.222  14.653  -7.803  1.00  0.00     0.044 C 
ATOM     10  O   UNL     1     -10.432  14.986  -7.909  1.00  0.00    -0.550 OA
ATOM     11  O   UNL     1      -8.397  14.704  -8.921  1.00  0.00    -0.550 OA
ENDBRANCH   7   9
ENDBRANCH   6   7
ENDBRANCH   5   6
ENDBRANCH   4   5
ENDBRANCH   3   4
ENDBRANCH   2   3
ENDBRANCH   1   2
BRANCH   1  12
ATOM     12  C   UNL     1      -8.835  17.260  -2.172  1.00  0.00     0.000 C 
BRANCH  12  13
ATOM     13  C   UNL     1      -9.853  16.876  -1.088  1.00  0.00    -0.000 C 
BRANCH  13  14
ATOM     14  C   UNL     1      -9.212  16.737   0.301  1.00  0.00    -0.000 C 
BRANCH  14  15
ATOM     15  C   UNL     1      -7.727  16.366   0.188  1.00  0.00    -0.000 C 
BRANCH  15  16
ATOM     16  C   UNL     1      -7.033  16.250   1.556  1.00  0.00    -0.000 C 
BRANCH  16  17
ATOM     17  C   UNL     1      -6.439  17.581   2.063  1.00  0.00    -0.000 C 
BRANCH  17  18
ATOM     18  C   UNL     1      -7.219  18.148   3.258  1.00  0.00    -0.003 C 
ATOM     19  C   UNL     1      -6.299  18.401   4.448  1.00  0.00     0.004 C 
ENDBRANCH  17  18
ENDBRANCH  16  17
ENDBRANCH  15  16
ENDBRANCH  14  15
ENDBRANCH  13  14
ENDBRANCH  12  13
ENDBRANCH   1  12
TORSDOF 14
ENDMDL
MODEL 8
REMARK VINA RESULT:    -4.024      3.516      7.620
REMARK INTER + INTRA:          -9.428
REMARK INTER:                  -7.482
REMARK INTRA:                  -1.946
REMARK UNBOUND:                -2.111
REMARK SMILES CCCCCCCCCCCCCC[C@H](C)C(=O)[O-]
REMARK SMILES IDX 9 1 10 2 11 3 12 4 13 5 14 6 15 7 16 8 17 9 18 10 19 11 8 12
REMARK SMILES IDX 7 13 6 14 5 15 4 16 3 17 2 18 1 19
REMARK H PARENT
REMARK Flexibility Score: inf
ROOT
ATOM      1  C   UNL     1      -8.799  14.749  -2.989  1.00  0.00     0.000 C 
ENDROOT
BRANCH   1   2
ATOM      2  C   UNL     1      -8.702  16.228  -3.394  1.00  0.00     0.000 C 
BRANCH   2   3
ATOM      3  C   UNL     1      -8.764  17.177  -2.187  1.00  0.00     0.000 C 
BRANCH   3   4
ATOM      4  C   UNL     1      -9.864  16.747  -1.206  1.00  0.00     0.000 C 
BRANCH   4   5
ATOM      5  C   UNL     1      -9.420  16.821   0.265  1.00  0.00     0.001 C 
BRANCH   5   6
ATOM      6  C   UNL     1      -8.231  15.910   0.637  1.00  0.00     0.009 C 
BRANCH   6   7
ATOM      7  C   UNL     1      -6.959  16.667   1.078  1.00  0.00     0.032 C 
ATOM      8  C   UNL     1      -5.706  15.863   0.715  1.00  0.00     0.014 C 
BRANCH   7   9
ATOM      9  C   UNL     1      -6.970  16.948   2.556  1.00  0.00     0.044 C 
ATOM     10  O   UNL     1      -6.781  16.013   3.379  1.00  0.00    -0.550 OA
ATOM     11  O   UNL     1      -7.188  18.238   3.025  1.00  0.00    -0.550 OA
ENDBRANCH   7   9
ENDBRANCH   6   7
ENDBRANCH   5   6
ENDBRANCH   4   5
ENDBRANCH   3   4
ENDBRANCH   2   3
ENDBRANCH   1   2
BRANCH   1  12
ATOM     12  C   UNL     1      -9.627  13.917  -3.985  1.00  0.00     0.000 C 
BRANCH  12  13
ATOM     13  C   UNL     1      -8.948  12.589  -4.351  1.00  0.00    -0.000 C 
BRANCH  13  14
ATOM     14  C   UNL     1      -7.417  12.662  -4.254  1.00  0.00    -0.000 C 
BRANCH  14  15
ATOM     15  C   UNL     1      -6.791  12.960  -5.623  1.00  0.00    -0.000 C 
BRANCH  15  16
ATOM     16  C   UNL     1      -6.349  14.425  -5.774  1.00  0.00    -0.000 C 
BRANCH  16  17
ATOM     17  C   UNL     1      -7.278  15.263  -6.678  1.00  0.00    -0.000 C 
BRANCH  17  18
ATOM     18  C   UNL     1      -7.967  14.409  -7.752  1.00  0.00    -0.003 C 
ATOM     19  C   UNL     1      -9.484  14.569  -7.694  1.00  0.00     0.004 C 
ENDBRANCH  17  18
ENDBRANCH  16  17
ENDBRANCH  15  16
ENDBRANCH  14  15
ENDBRANCH  13  14
ENDBRANCH  12  13
ENDBRANCH   1  12
TORSDOF 14
ENDMDL
MODEL 9
REMARK VINA RESULT:    -3.989      2.122      4.173
REMARK INTER + INTRA:          -9.365
REMARK INTER:                  -6.647
REMARK INTRA:                  -2.718
REMARK UNBOUND:                -2.111
REMARK SMILES CCCCCCCCCCCCCC[C@H](C)C(=O)[O-]
REMARK SMILES IDX 9 1 10 2 11 3 12 4 13 5 14 6 15 7 16 8 17 9 18 10 19 11 8 12
REMARK SMILES IDX 7 13 6 14 5 15 4 16 3 17 2 18 1 19
REMARK H PARENT
REMARK Flexibility Score: inf
ROOT
ATOM      1  C   UNL     1      -9.934  16.722  -1.101  1.00  0.00     0.000 C 
ENDROOT
BRANCH   1   2
ATOM      2  C   UNL     1      -8.898  17.257  -2.102  1.00  0.00     0.000 C 
BRANCH   2   3
ATOM      3  C   UNL     1      -8.675  16.305  -3.287  1.00  0.00     0.000 C 
BRANCH   3   4
ATOM      4  C   UNL     1      -9.502  15.022  -3.124  1.00  0.00     0.000 C 
BRANCH   4   5
ATOM      5  C   UNL     1      -8.969  13.852  -3.970  1.00  0.00     0.001 C 
BRANCH   5   6
ATOM      6  C   UNL     1      -7.537  14.037  -4.516  1.00  0.00     0.009 C 
BRANCH   6   7
ATOM      7  C   UNL     1      -7.335  13.536  -5.962  1.00  0.00     0.032 C 
ATOM      8  C   UNL     1      -5.929  12.949  -6.132  1.00  0.00     0.014 C 
BRANCH   7   9
ATOM      9  C   UNL     1      -7.547  14.640  -6.962  1.00  0.00     0.044 C 
ATOM     10  O   UNL     1      -7.153  15.809  -6.706  1.00  0.00    -0.550 OA
ATOM     11  O   UNL     1      -8.178  14.381  -8.173  1.00  0.00    -0.550 OA
ENDBRANCH   7   9
ENDBRANCH   6   7
ENDBRANCH   5   6
ENDBRANCH   4   5
ENDBRANCH   3   4
ENDBRANCH   2   3
ENDBRANCH   1   2
BRANCH   1  12
ATOM     12  C   UNL     1      -9.465  16.849   0.359  1.00  0.00     0.000 C 
BRANCH  12  13
ATOM     13  C   UNL     1      -9.684  15.558   1.164  1.00  0.00    -0.000 C 
BRANCH  13  14
ATOM     14  C   UNL     1     -10.276  14.426   0.312  1.00  0.00    -0.000 C 
BRANCH  14  15
ATOM     15  C   UNL     1      -9.302  13.245   0.210  1.00  0.00    -0.000 C 
BRANCH  15  16
ATOM     16  C   UNL     1      -7.842  13.647   0.477  1.00  0.00    -0.000 C 
BRANCH  16  17
ATOM     17  C   UNL     1      -6.967  13.685  -0.794  1.00  0.00    -0.000 C 
BRANCH  17  18
ATOM     18  C   UNL     1      -6.131  14.969  -0.886  1.00  0.00    -0.003 C 
ATOM     19  C   UNL     1      -5.957  15.614   0.487  1.00  0.00     0.004 C 
ENDBRANCH  17  18
ENDBRANCH  16  17
ENDBRANCH  15  16
ENDBRANCH  14  15
ENDBRANCH  13  14
ENDBRANCH  12  13
ENDBRANCH   1  12
TORSDOF 14
ENDMDL
