MODEL 1
REMARK VINA RESULT:     5.505      0.000      0.000
REMARK INTER + INTRA:           8.025
REMARK INTER:                   8.080
REMARK INTRA:                  -0.055
REMARK UNBOUND:                -0.055
REMARK SMILES Cc1cc2c(C(C)C)c(O)c(O)c(C=O)c2c(O)c1-c1c(C)cc2c(C(C)C)c(O)c(O)c(C=O)c2c1O
REMARK SMILES IDX 1 1 2 2 3 3 4 4 16 5 13 6 11 7 9 8 5 9 17 10 19 11 20 12
REMARK SMILES IDX 37 13 21 14 36 15 23 16 22 17 24 18 33 19 25 20 31 21 29 22
REMARK SMILES IDX 38 23 34 25 35 26 26 27 27 28 28 29 32 30 30 32 18 34 6 36
REMARK SMILES IDX 7 37 8 38 14 39 15 40 10 41 12 43
REMARK H PARENT 38 24 32 31 30 33 18 35 10 42 12 44
REMARK Flexibility Score: inf
ROOT
ATOM      1  C   UNL     1      -6.735  17.256   2.883  1.00  0.00     0.045 C 
ATOM      2  C   UNL     1      -8.181  17.246   2.452  1.00  0.00    -0.039 A 
ATOM      3  C   UNL     1      -8.580  16.383   1.430  1.00  0.00     0.013 A 
ATOM      4  C   UNL     1      -9.912  16.348   0.959  1.00  0.00    -0.006 A 
ATOM      5  C   UNL     1     -10.882  17.188   1.586  1.00  0.00     0.039 A 
ATOM      6  C   UNL     1     -12.222  17.168   1.103  1.00  0.00     0.072 A 
ATOM      7  C   UNL     1     -12.617  16.173   0.192  1.00  0.00     0.169 A 
ATOM      8  C   UNL     1     -11.679  15.287  -0.349  1.00  0.00     0.162 A 
ATOM      9  C   UNL     1     -10.296  15.472  -0.106  1.00  0.00     0.008 A 
ATOM     10  C   UNL     1     -10.492  17.983   2.702  1.00  0.00     0.132 A 
ATOM     11  C   UNL     1      -9.142  18.028   3.112  1.00  0.00     0.031 A 
ENDROOT
BRANCH  11  12
ATOM     12  C   UNL     1      -8.740  18.873   4.268  1.00  0.00     0.031 A 
ATOM     13  C   UNL     1      -8.718  18.331   5.569  1.00  0.00     0.132 A 
ATOM     14  C   UNL     1      -8.368  20.209   4.056  1.00  0.00    -0.039 A 
ATOM     15  C   UNL     1      -8.372  19.149   6.691  1.00  0.00     0.039 A 
ATOM     16  C   UNL     1      -7.985  20.996   5.142  1.00  0.00     0.013 A 
ATOM     17  C   UNL     1      -8.364  20.806   2.669  1.00  0.00     0.045 C 
ATOM     18  C   UNL     1      -7.980  20.507   6.465  1.00  0.00    -0.006 A 
ATOM     19  C   UNL     1      -8.381  18.644   8.027  1.00  0.00     0.072 A 
ATOM     20  C   UNL     1      -7.580  21.338   7.562  1.00  0.00     0.008 A 
ATOM     21  C   UNL     1      -7.962  19.465   9.091  1.00  0.00     0.169 A 
ATOM     22  C   UNL     1      -7.540  20.776   8.858  1.00  0.00     0.162 A 
BRANCH  13  23
ATOM     23  O   UNL     1      -9.019  16.975   5.744  1.00  0.00    -0.507 OA
ATOM     24  H   UNL     1      -8.327  16.257   5.919  1.00  0.00     0.293 HD
ENDBRANCH  13  23
BRANCH  19  25
ATOM     25  C   UNL     1      -8.855  17.282   8.346  1.00  0.00     0.264 C 
ATOM     26  O   UNL     1      -8.036  16.368   8.626  1.00  0.00    -0.298 OA
ENDBRANCH  19  25
BRANCH  20  27
ATOM     27  C   UNL     1      -7.168  22.820   7.417  1.00  0.00     0.017 C 
ATOM     28  C   UNL     1      -6.867  23.200   5.960  1.00  0.00     0.012 C 
ATOM     29  C   UNL     1      -8.120  23.810   8.123  1.00  0.00     0.012 C 
ENDBRANCH  20  27
BRANCH  21  30
ATOM     30  O   UNL     1      -7.977  19.011  10.417  1.00  0.00    -0.504 OA
ATOM     31  H   UNL     1      -8.797  19.013  11.009  1.00  0.00     0.293 HD
ENDBRANCH  21  30
BRANCH  22  32
ATOM     32  O   UNL     1      -7.083  21.541   9.937  1.00  0.00    -0.504 OA
ATOM     33  H   UNL     1      -6.101  21.718  10.116  1.00  0.00     0.293 HD
ENDBRANCH  22  32
ENDBRANCH  11  12
BRANCH  10  34
ATOM     34  O   UNL     1     -11.454  18.686   3.437  1.00  0.00    -0.507 OA
ATOM     35  H   UNL     1     -12.198  19.229   3.020  1.00  0.00     0.293 HD
ENDBRANCH  10  34
BRANCH   9  36
ATOM     36  C   UNL     1      -9.236  14.808  -1.005  1.00  0.00     0.017 C 
ATOM     37  C   UNL     1      -7.966  15.659  -1.125  1.00  0.00     0.012 C 
ATOM     38  C   UNL     1      -8.919  13.344  -0.642  1.00  0.00     0.012 C 
ENDBRANCH   9  36
BRANCH   6  39
ATOM     39  C   UNL     1     -13.208  18.215   1.468  1.00  0.00     0.264 C 
ATOM     40  O   UNL     1     -13.059  19.411   1.103  1.00  0.00    -0.298 OA
ENDBRANCH   6  39
BRANCH   8  41
ATOM     41  O   UNL     1     -12.166  14.233  -1.125  1.00  0.00    -0.504 OA
ATOM     42  H   UNL     1     -12.807  13.538  -0.774  1.00  0.00     0.293 HD
ENDBRANCH   8  41
BRANCH   7  43
ATOM     43  O   UNL     1     -13.959  16.082  -0.192  1.00  0.00    -0.504 OA
ATOM     44  H   UNL     1     -14.280  16.298  -1.129  1.00  0.00     0.293 HD
ENDBRANCH   7  43
TORSDOF 11
ENDMDL
MODEL 2
REMARK VINA RESULT:     6.511      2.541      4.151
REMARK INTER + INTRA:           9.501
REMARK INTER:                   7.902
REMARK INTRA:                   1.599
REMARK UNBOUND:                -0.055
REMARK SMILES Cc1cc2c(C(C)C)c(O)c(O)c(C=O)c2c(O)c1-c1c(C)cc2c(C(C)C)c(O)c(O)c(C=O)c2c1O
REMARK SMILES IDX 1 1 2 2 3 3 4 4 16 5 13 6 11 7 9 8 5 9 17 10 19 11 20 12
REMARK SMILES IDX 37 13 21 14 36 15 23 16 22 17 24 18 33 19 25 20 31 21 29 22
REMARK SMILES IDX 38 23 34 25 35 26 26 27 27 28 28 29 32 30 30 32 18 34 6 36
REMARK SMILES IDX 7 37 8 38 14 39 15 40 10 41 12 43
REMARK H PARENT 38 24 32 31 30 33 18 35 10 42 12 44
REMARK Flexibility Score: inf
ROOT
ATOM      1  C   UNL     1     -10.793  18.168   6.445  1.00  0.00     0.045 C 
ATOM      2  C   UNL     1     -10.121  18.385   5.112  1.00  0.00    -0.039 A 
ATOM      3  C   UNL     1     -10.888  18.335   3.947  1.00  0.00     0.013 A 
ATOM      4  C   UNL     1     -10.315  18.499   2.666  1.00  0.00    -0.006 A 
ATOM      5  C   UNL     1      -8.916  18.773   2.572  1.00  0.00     0.039 A 
ATOM      6  C   UNL     1      -8.331  18.922   1.282  1.00  0.00     0.072 A 
ATOM      7  C   UNL     1      -9.160  19.029   0.152  1.00  0.00     0.169 A 
ATOM      8  C   UNL     1     -10.543  18.854   0.262  1.00  0.00     0.162 A 
ATOM      9  C   UNL     1     -11.115  18.420   1.482  1.00  0.00     0.008 A 
ATOM     10  C   UNL     1      -8.160  18.936   3.770  1.00  0.00     0.132 A 
ATOM     11  C   UNL     1      -8.759  18.717   5.029  1.00  0.00     0.031 A 
ENDROOT
BRANCH  11  12
ATOM     12  C   UNL     1      -7.959  18.872   6.273  1.00  0.00     0.031 A 
ATOM     13  C   UNL     1      -7.852  17.802   7.185  1.00  0.00     0.132 A 
ATOM     14  C   UNL     1      -7.299  20.082   6.529  1.00  0.00    -0.039 A 
ATOM     15  C   UNL     1      -7.119  17.956   8.404  1.00  0.00     0.039 A 
ATOM     16  C   UNL     1      -6.545  20.221   7.694  1.00  0.00     0.013 A 
ATOM     17  C   UNL     1      -7.382  21.236   5.558  1.00  0.00     0.045 C 
ATOM     18  C   UNL     1      -6.437  19.191   8.651  1.00  0.00    -0.006 A 
ATOM     19  C   UNL     1      -7.026  16.908   9.369  1.00  0.00     0.072 A 
ATOM     20  C   UNL     1      -5.653  19.359   9.839  1.00  0.00     0.008 A 
ATOM     21  C   UNL     1      -6.232  17.080  10.519  1.00  0.00     0.169 A 
ATOM     22  C   UNL     1      -5.535  18.272  10.733  1.00  0.00     0.162 A 
BRANCH  13  23
ATOM     23  O   UNL     1      -8.457  16.579   6.869  1.00  0.00    -0.507 OA
ATOM     24  H   UNL     1      -9.142  16.458   6.134  1.00  0.00     0.293 HD
ENDBRANCH  13  23
BRANCH  19  25
ATOM     25  C   UNL     1      -7.771  15.641   9.223  1.00  0.00     0.264 C 
ATOM     26  O   UNL     1      -9.026  15.622   9.311  1.00  0.00    -0.298 OA
ENDBRANCH  19  25
BRANCH  20  27
ATOM     27  C   UNL     1      -4.906  20.662  10.202  1.00  0.00     0.017 C 
ATOM     28  C   UNL     1      -5.129  21.071  11.665  1.00  0.00     0.012 C 
ATOM     29  C   UNL     1      -3.419  20.672   9.785  1.00  0.00     0.012 C 
ENDBRANCH  20  27
BRANCH  21  30
ATOM     30  O   UNL     1      -6.134  16.083  11.498  1.00  0.00    -0.504 OA
ATOM     31  H   UNL     1      -5.990  16.264  12.483  1.00  0.00     0.293 HD
ENDBRANCH  21  30
BRANCH  22  32
ATOM     32  O   UNL     1      -4.717  18.382  11.863  1.00  0.00    -0.504 OA
ATOM     33  H   UNL     1      -3.778  18.763  11.834  1.00  0.00     0.293 HD
ENDBRANCH  22  32
ENDBRANCH  11  12
BRANCH  10  34
ATOM     34  O   UNL     1      -6.830  19.368   3.710  1.00  0.00    -0.507 OA
ATOM     35  H   UNL     1      -6.349  19.598   2.850  1.00  0.00     0.293 HD
ENDBRANCH  10  34
BRANCH   9  36
ATOM     36  C   UNL     1     -12.530  17.813   1.525  1.00  0.00     0.017 C 
ATOM     37  C   UNL     1     -13.622  18.887   1.453  1.00  0.00     0.012 C 
ATOM     38  C   UNL     1     -12.767  16.677   0.509  1.00  0.00     0.012 C 
ENDBRANCH   9  36
BRANCH   6  39
ATOM     39  C   UNL     1      -6.862  18.892   1.074  1.00  0.00     0.264 C 
ATOM     40  O   UNL     1      -6.214  17.813   1.135  1.00  0.00    -0.298 OA
ENDBRANCH   6  39
BRANCH   8  41
ATOM     41  O   UNL     1     -11.315  19.125  -0.870  1.00  0.00    -0.504 OA
ATOM     42  H   UNL     1     -11.114  19.879  -1.510  1.00  0.00     0.293 HD
ENDBRANCH   8  41
BRANCH   7  43
ATOM     43  O   UNL     1      -8.591  19.292  -1.098  1.00  0.00    -0.504 OA
ATOM     44  H   UNL     1      -8.755  20.152  -1.609  1.00  0.00     0.293 HD
ENDBRANCH   7  43
TORSDOF 11
ENDMDL
MODEL 3
REMARK VINA RESULT:     7.228      2.520      4.390
REMARK INTER + INTRA:          10.553
REMARK INTER:                   8.354
REMARK INTRA:                   2.199
REMARK UNBOUND:                -0.055
REMARK SMILES Cc1cc2c(C(C)C)c(O)c(O)c(C=O)c2c(O)c1-c1c(C)cc2c(C(C)C)c(O)c(O)c(C=O)c2c1O
REMARK SMILES IDX 1 1 2 2 3 3 4 4 16 5 13 6 11 7 9 8 5 9 17 10 19 11 20 12
REMARK SMILES IDX 37 13 21 14 36 15 23 16 22 17 24 18 33 19 25 20 31 21 29 22
REMARK SMILES IDX 38 23 34 25 35 26 26 27 27 28 28 29 32 30 30 32 18 34 6 36
REMARK SMILES IDX 7 37 8 38 14 39 15 40 10 41 12 43
REMARK H PARENT 38 24 32 31 30 33 18 35 10 42 12 44
REMARK Flexibility Score: inf
ROOT
ATOM      1  C   UNL     1      -6.027  20.500   5.216  1.00  0.00     0.045 C 
ATOM      2  C   UNL     1      -7.025  19.669   4.448  1.00  0.00    -0.039 A 
ATOM      3  C   UNL     1      -6.630  19.067   3.252  1.00  0.00     0.013 A 
ATOM      4  C   UNL     1      -7.525  18.302   2.469  1.00  0.00    -0.006 A 
ATOM      5  C   UNL     1      -8.856  18.104   2.948  1.00  0.00     0.039 A 
ATOM      6  C   UNL     1      -9.766  17.348   2.154  1.00  0.00     0.072 A 
ATOM      7  C   UNL     1      -9.287  16.625   1.048  1.00  0.00     0.169 A 
ATOM      8  C   UNL     1      -7.955  16.747   0.638  1.00  0.00     0.162 A 
ATOM      9  C   UNL     1      -7.107  17.712   1.235  1.00  0.00     0.008 A 
ATOM     10  C   UNL     1      -9.219  18.627   4.224  1.00  0.00     0.132 A 
ATOM     11  C   UNL     1      -8.312  19.426   4.953  1.00  0.00     0.031 A 
ENDROOT
BRANCH  11  12
ATOM     12  C   UNL     1      -8.704  19.982   6.275  1.00  0.00     0.031 A 
ATOM     13  C   UNL     1      -8.642  21.372   6.507  1.00  0.00     0.132 A 
ATOM     14  C   UNL     1      -9.151  19.121   7.288  1.00  0.00    -0.039 A 
ATOM     15  C   UNL     1      -8.977  21.911   7.789  1.00  0.00     0.039 A 
ATOM     16  C   UNL     1      -9.523  19.648   8.524  1.00  0.00     0.013 A 
ATOM     17  C   UNL     1      -9.246  17.631   7.057  1.00  0.00     0.045 C 
ATOM     18  C   UNL     1      -9.445  21.026   8.812  1.00  0.00    -0.006 A 
ATOM     19  C   UNL     1      -8.884  23.308   8.071  1.00  0.00     0.072 A 
ATOM     20  C   UNL     1      -9.837  21.540  10.091  1.00  0.00     0.008 A 
ATOM     21  C   UNL     1      -9.296  23.801   9.323  1.00  0.00     0.169 A 
ATOM     22  C   UNL     1      -9.792  22.937  10.302  1.00  0.00     0.162 A 
BRANCH  13  23
ATOM     23  O   UNL     1      -8.266  22.218   5.456  1.00  0.00    -0.507 OA
ATOM     24  H   UNL     1      -7.349  22.637   5.365  1.00  0.00     0.293 HD
ENDBRANCH  13  23
BRANCH  19  25
ATOM     25  C   UNL     1      -8.330  24.268   7.095  1.00  0.00     0.264 C 
ATOM     26  O   UNL     1      -7.103  24.258   6.811  1.00  0.00    -0.298 OA
ENDBRANCH  19  25
BRANCH  20  27
ATOM     27  C   UNL     1     -10.328  20.661  11.262  1.00  0.00     0.017 C 
ATOM     28  C   UNL     1      -9.726  21.094  12.607  1.00  0.00     0.012 C 
ATOM     29  C   UNL     1     -11.860  20.474  11.310  1.00  0.00     0.012 C 
ENDBRANCH  20  27
BRANCH  21  30
ATOM     30  O   UNL     1      -9.199  25.162   9.643  1.00  0.00    -0.504 OA
ATOM     31  H   UNL     1      -9.379  25.544  10.562  1.00  0.00     0.293 HD
ENDBRANCH  21  30
BRANCH  22  32
ATOM     32  O   UNL     1     -10.237  23.475  11.515  1.00  0.00    -0.504 OA
ATOM     33  H   UNL     1     -10.558  24.431  11.614  1.00  0.00     0.293 HD
ENDBRANCH  22  32
ENDBRANCH  11  12
BRANCH  10  34
ATOM     34  O   UNL     1     -10.458  18.308   4.789  1.00  0.00    -0.507 OA
ATOM     35  H   UNL     1     -10.682  17.405   5.186  1.00  0.00     0.293 HD
ENDBRANCH  10  34
BRANCH   9  36
ATOM     36  C   UNL     1      -5.809  18.167   0.541  1.00  0.00     0.017 C 
ATOM     37  C   UNL     1      -4.568  17.489   1.134  1.00  0.00     0.012 C 
ATOM     38  C   UNL     1      -5.842  18.070  -0.997  1.00  0.00     0.012 C 
ENDBRANCH   9  36
BRANCH   6  39
ATOM     39  C   UNL     1     -11.228  17.357   2.406  1.00  0.00     0.264 C 
ATOM     40  O   UNL     1     -11.941  18.347   2.094  1.00  0.00    -0.298 OA
ENDBRANCH   6  39
BRANCH   8  41
ATOM     41  O   UNL     1      -7.513  15.886  -0.369  1.00  0.00    -0.504 OA
ATOM     42  H   UNL     1      -7.096  16.209  -1.229  1.00  0.00     0.293 HD
ENDBRANCH   8  41
BRANCH   7  43
ATOM     43  O   UNL     1     -10.157  15.791   0.339  1.00  0.00    -0.504 OA
ATOM     44  H   UNL     1      -9.936  14.829   0.113  1.00  0.00     0.293 HD
ENDBRANCH   7  43
TORSDOF 11
ENDMDL
