MODEL 1
REMARK VINA RESULT:    -3.622      0.000      0.000
REMARK INTER + INTRA:          -5.362
REMARK INTER:                  -4.893
REMARK INTRA:                  -0.469
REMARK UNBOUND:                -0.469
REMARK SMILES [NH3+]CCCC[C@@H]([NH3+])C(=O)[O-]
REMARK SMILES IDX 4 1 3 2 2 3 1 4 5 8 6 9 7 10 8 14 9 15 10 16
REMARK H PARENT 1 5 1 6 1 7 7 11 7 12 7 13
REMARK Flexibility Score: inf
ROOT
ATOM      1  C   UNL     1       2.655  -2.924   7.331  1.00  0.00     0.012 C 
ENDROOT
BRANCH   1   2
ATOM      2  C   UNL     1       1.544  -3.601   6.514  1.00  0.00     0.061 C 
BRANCH   2   3
ATOM      3  C   UNL     1       1.411  -5.101   6.827  1.00  0.00     0.258 C 
BRANCH   3   4
ATOM      4  N   UNL     1       2.026  -5.938   5.794  1.00  0.00    -0.358 N 
ATOM      5  H   UNL     1       3.008  -6.176   6.056  1.00  0.00     0.344 HD
ATOM      6  H   UNL     1       2.010  -5.448   4.870  1.00  0.00     0.344 HD
ATOM      7  H   UNL     1       1.482  -6.827   5.711  1.00  0.00     0.344 HD
ENDBRANCH   3   4
ENDBRANCH   2   3
ENDBRANCH   1   2
BRANCH   1   8
ATOM      8  C   UNL     1       3.635  -2.176   6.413  1.00  0.00     0.072 C 
BRANCH   8   9
ATOM      9  C   UNL     1       3.916  -2.934   5.097  1.00  0.00     0.227 C 
BRANCH   9  10
ATOM     10  N   UNL     1       4.217  -2.012   3.992  1.00  0.00    -0.350 N 
ATOM     11  H   UNL     1       3.496  -1.254   3.955  1.00  0.00     0.345 HD
ATOM     12  H   UNL     1       5.143  -1.555   4.146  1.00  0.00     0.345 HD
ATOM     13  H   UNL     1       4.227  -2.518   3.077  1.00  0.00     0.345 HD
ENDBRANCH   9  10
BRANCH   9  14
ATOM     14  C   UNL     1       5.064  -3.885   5.301  1.00  0.00     0.099 C 
ATOM     15  O   UNL     1       4.898  -4.947   5.957  1.00  0.00    -0.544 OA
ATOM     16  O   UNL     1       6.320  -3.588   4.784  1.00  0.00    -0.544 OA
ENDBRANCH   9  14
ENDBRANCH   8   9
ENDBRANCH   1   8
TORSDOF 7
ENDMDL
MODEL 2
REMARK VINA RESULT:    -3.549      2.137      3.864
REMARK INTER + INTRA:          -5.263
REMARK INTER:                  -5.130
REMARK INTRA:                  -0.133
REMARK UNBOUND:                -0.469
REMARK SMILES [NH3+]CCCC[C@@H]([NH3+])C(=O)[O-]
REMARK SMILES IDX 4 1 3 2 2 3 1 4 5 8 6 9 7 10 8 14 9 15 10 16
REMARK H PARENT 1 5 1 6 1 7 7 11 7 12 7 13
REMARK Flexibility Score: inf
ROOT
ATOM      1  C   UNL     1       2.982  -2.454   4.630  1.00  0.00     0.012 C 
ENDROOT
BRANCH   1   2
ATOM      2  C   UNL     1       3.826  -1.393   3.907  1.00  0.00     0.061 C 
BRANCH   2   3
ATOM      3  C   UNL     1       3.018  -0.608   2.860  1.00  0.00     0.258 C 
BRANCH   3   4
ATOM      4  N   UNL     1       3.430   0.795   2.783  1.00  0.00    -0.358 N 
ATOM      5  H   UNL     1       4.224   0.978   3.436  1.00  0.00     0.344 HD
ATOM      6  H   UNL     1       2.627   1.425   3.011  1.00  0.00     0.344 HD
ATOM      7  H   UNL     1       3.751   1.000   1.809  1.00  0.00     0.344 HD
ENDBRANCH   3   4
ENDBRANCH   2   3
ENDBRANCH   1   2
BRANCH   1   8
ATOM      8  C   UNL     1       3.694  -3.816   4.630  1.00  0.00     0.072 C 
BRANCH   8   9
ATOM      9  C   UNL     1       4.357  -4.143   5.987  1.00  0.00     0.227 C 
BRANCH   9  10
ATOM     10  N   UNL     1       3.640  -5.210   6.699  1.00  0.00    -0.350 N 
ATOM     11  H   UNL     1       3.706  -6.105   6.159  1.00  0.00     0.345 HD
ATOM     12  H   UNL     1       4.076  -5.376   7.633  1.00  0.00     0.345 HD
ATOM     13  H   UNL     1       2.632  -4.962   6.826  1.00  0.00     0.345 HD
ENDBRANCH   9  10
BRANCH   9  14
ATOM     14  C   UNL     1       5.789  -4.547   5.761  1.00  0.00     0.099 C 
ATOM     15  O   UNL     1       6.278  -5.524   6.386  1.00  0.00    -0.544 OA
ATOM     16  O   UNL     1       6.587  -3.831   4.876  1.00  0.00    -0.544 OA
ENDBRANCH   9  14
ENDBRANCH   8   9
ENDBRANCH   1   8
TORSDOF 7
ENDMDL
MODEL 3
REMARK VINA RESULT:    -3.503      1.988      4.007
REMARK INTER + INTRA:          -5.200
REMARK INTER:                  -5.046
REMARK INTRA:                  -0.154
REMARK UNBOUND:                -0.469
REMARK SMILES [NH3+]CCCC[C@@H]([NH3+])C(=O)[O-]
REMARK SMILES IDX 4 1 3 2 2 3 1 4 5 8 6 9 7 10 8 14 9 15 10 16
REMARK H PARENT 1 5 1 6 1 7 7 11 7 12 7 13
REMARK Flexibility Score: inf
ROOT
ATOM      1  C   UNL     1       2.952  -2.361   4.731  1.00  0.00     0.012 C 
ENDROOT
BRANCH   1   2
ATOM      2  C   UNL     1       3.796  -1.388   3.894  1.00  0.00     0.061 C 
BRANCH   2   3
ATOM      3  C   UNL     1       2.949  -0.577   2.899  1.00  0.00     0.258 C 
BRANCH   3   4
ATOM      4  N   UNL     1       3.411   0.807   2.780  1.00  0.00    -0.358 N 
ATOM      5  H   UNL     1       3.512   1.072   1.775  1.00  0.00     0.344 HD
ATOM      6  H   UNL     1       4.323   0.932   3.277  1.00  0.00     0.344 HD
ATOM      7  H   UNL     1       2.702   1.439   3.216  1.00  0.00     0.344 HD
ENDBRANCH   3   4
ENDBRANCH   2   3
ENDBRANCH   1   2
BRANCH   1   8
ATOM      8  C   UNL     1       3.430  -2.386   6.192  1.00  0.00     0.072 C 
BRANCH   8   9
ATOM      9  C   UNL     1       3.168  -3.743   6.882  1.00  0.00     0.227 C 
BRANCH   9  10
ATOM     10  N   UNL     1       1.736  -4.070   6.915  1.00  0.00    -0.350 N 
ATOM     11  H   UNL     1       1.567  -4.977   6.420  1.00  0.00     0.345 HD
ATOM     12  H   UNL     1       1.415  -4.188   7.902  1.00  0.00     0.345 HD
ATOM     13  H   UNL     1       1.172  -3.319   6.454  1.00  0.00     0.345 HD
ENDBRANCH   9  10
BRANCH   9  14
ATOM     14  C   UNL     1       3.928  -4.825   6.163  1.00  0.00     0.099 C 
ATOM     15  O   UNL     1       5.184  -4.776   6.090  1.00  0.00    -0.544 OA
ATOM     16  O   UNL     1       3.247  -5.875   5.558  1.00  0.00    -0.544 OA
ENDBRANCH   9  14
ENDBRANCH   8   9
ENDBRANCH   1   8
TORSDOF 7
ENDMDL
MODEL 4
REMARK VINA RESULT:    -3.442      1.479      3.240
REMARK INTER + INTRA:          -5.118
REMARK INTER:                  -4.514
REMARK INTRA:                  -0.604
REMARK UNBOUND:                -0.469
REMARK SMILES [NH3+]CCCC[C@@H]([NH3+])C(=O)[O-]
REMARK SMILES IDX 4 1 3 2 2 3 1 4 5 8 6 9 7 10 8 14 9 15 10 16
REMARK H PARENT 1 5 1 6 1 7 7 11 7 12 7 13
REMARK Flexibility Score: inf
ROOT
ATOM      1  C   UNL     1       2.259  -3.228   6.273  1.00  0.00     0.012 C 
ENDROOT
BRANCH   1   2
ATOM      2  C   UNL     1       3.261  -2.204   5.720  1.00  0.00     0.061 C 
BRANCH   2   3
ATOM      3  C   UNL     1       3.870  -2.640   4.376  1.00  0.00     0.258 C 
BRANCH   3   4
ATOM      4  N   UNL     1       5.251  -3.106   4.520  1.00  0.00    -0.358 N 
ATOM      5  H   UNL     1       5.750  -2.546   5.248  1.00  0.00     0.344 HD
ATOM      6  H   UNL     1       5.757  -3.037   3.607  1.00  0.00     0.344 HD
ATOM      7  H   UNL     1       5.241  -4.106   4.824  1.00  0.00     0.344 HD
ENDBRANCH   3   4
ENDBRANCH   2   3
ENDBRANCH   1   2
BRANCH   1   8
ATOM      8  C   UNL     1       2.927  -4.147   7.309  1.00  0.00     0.072 C 
BRANCH   8   9
ATOM      9  C   UNL     1       3.105  -5.593   6.796  1.00  0.00     0.227 C 
BRANCH   9  10
ATOM     10  N   UNL     1       2.436  -5.799   5.504  1.00  0.00    -0.350 N 
ATOM     11  H   UNL     1       1.978  -4.910   5.196  1.00  0.00     0.345 HD
ATOM     12  H   UNL     1       3.135  -6.061   4.774  1.00  0.00     0.345 HD
ATOM     13  H   UNL     1       1.710  -6.550   5.576  1.00  0.00     0.345 HD
ENDBRANCH   9  10
BRANCH   9  14
ATOM     14  C   UNL     1       4.573  -5.904   6.671  1.00  0.00     0.099 C 
ATOM     15  O   UNL     1       5.430  -5.002   6.866  1.00  0.00    -0.544 OA
ATOM     16  O   UNL     1       4.991  -7.182   6.319  1.00  0.00    -0.544 OA
ENDBRANCH   9  14
ENDBRANCH   8   9
ENDBRANCH   1   8
TORSDOF 7
ENDMDL
MODEL 5
REMARK VINA RESULT:    -3.373     14.090     14.710
REMARK INTER + INTRA:          -5.025
REMARK INTER:                  -4.594
REMARK INTRA:                  -0.431
REMARK UNBOUND:                -0.469
REMARK SMILES [NH3+]CCCC[C@@H]([NH3+])C(=O)[O-]
REMARK SMILES IDX 4 1 3 2 2 3 1 4 5 8 6 9 7 10 8 14 9 15 10 16
REMARK H PARENT 1 5 1 6 1 7 7 11 7 12 7 13
REMARK Flexibility Score: inf
ROOT
ATOM      1  C   UNL     1       8.115  -4.849  -8.374  1.00  0.00     0.012 C 
ENDROOT
BRANCH   1   2
ATOM      2  C   UNL     1       7.995  -6.262  -8.964  1.00  0.00     0.061 C 
BRANCH   2   3
ATOM      3  C   UNL     1       7.458  -7.283  -7.946  1.00  0.00     0.258 C 
BRANCH   3   4
ATOM      4  N   UNL     1       6.025  -7.113  -7.696  1.00  0.00    -0.358 N 
ATOM      5  H   UNL     1       5.861  -6.306  -7.054  1.00  0.00     0.344 HD
ATOM      6  H   UNL     1       5.620  -7.985  -7.286  1.00  0.00     0.344 HD
ATOM      7  H   UNL     1       5.545  -6.914  -8.603  1.00  0.00     0.344 HD
ENDBRANCH   3   4
ENDBRANCH   2   3
ENDBRANCH   1   2
BRANCH   1   8
ATOM      8  C   UNL     1       7.129  -3.884  -9.052  1.00  0.00     0.072 C 
BRANCH   8   9
ATOM      9  C   UNL     1       6.364  -3.004  -8.039  1.00  0.00     0.227 C 
BRANCH   9  10
ATOM     10  N   UNL     1       6.500  -1.574  -8.350  1.00  0.00    -0.350 N 
ATOM     11  H   UNL     1       7.502  -1.346  -8.546  1.00  0.00     0.345 HD
ATOM     12  H   UNL     1       5.951  -1.338  -9.207  1.00  0.00     0.345 HD
ATOM     13  H   UNL     1       6.166  -0.986  -7.551  1.00  0.00     0.345 HD
ENDBRANCH   9  10
BRANCH   9  14
ATOM     14  C   UNL     1       4.910  -3.395  -8.034  1.00  0.00     0.099 C 
ATOM     15  O   UNL     1       4.581  -4.610  -8.033  1.00  0.00    -0.544 OA
ATOM     16  O   UNL     1       3.923  -2.417  -8.049  1.00  0.00    -0.544 OA
ENDBRANCH   9  14
ENDBRANCH   8   9
ENDBRANCH   1   8
TORSDOF 7
ENDMDL
MODEL 6
REMARK VINA RESULT:    -3.346     13.386     14.258
REMARK INTER + INTRA:          -4.989
REMARK INTER:                  -4.854
REMARK INTRA:                  -0.135
REMARK UNBOUND:                -0.469
REMARK SMILES [NH3+]CCCC[C@@H]([NH3+])C(=O)[O-]
REMARK SMILES IDX 4 1 3 2 2 3 1 4 5 8 6 9 7 10 8 14 9 15 10 16
REMARK H PARENT 1 5 1 6 1 7 7 11 7 12 7 13
REMARK Flexibility Score: inf
ROOT
ATOM      1  C   UNL     1       7.588  -2.547  -6.622  1.00  0.00     0.012 C 
ENDROOT
BRANCH   1   2
ATOM      2  C   UNL     1       8.829  -1.654  -6.472  1.00  0.00     0.061 C 
BRANCH   2   3
ATOM      3  C   UNL     1       8.689  -0.318  -7.222  1.00  0.00     0.258 C 
BRANCH   3   4
ATOM      4  N   UNL     1       9.309   0.791  -6.495  1.00  0.00    -0.358 N 
ATOM      5  H   UNL     1       8.991   0.797  -5.500  1.00  0.00     0.344 HD
ATOM      6  H   UNL     1       9.076   1.703  -6.951  1.00  0.00     0.344 HD
ATOM      7  H   UNL     1      10.347   0.665  -6.507  1.00  0.00     0.344 HD
ENDBRANCH   3   4
ENDBRANCH   2   3
ENDBRANCH   1   2
BRANCH   1   8
ATOM      8  C   UNL     1       6.913  -2.325  -7.985  1.00  0.00     0.072 C 
BRANCH   8   9
ATOM      9  C   UNL     1       5.934  -3.461  -8.357  1.00  0.00     0.227 C 
BRANCH   9  10
ATOM     10  N   UNL     1       6.463  -4.780  -7.983  1.00  0.00    -0.350 N 
ATOM     11  H   UNL     1       6.588  -4.831  -6.945  1.00  0.00     0.345 HD
ATOM     12  H   UNL     1       5.788  -5.529  -8.254  1.00  0.00     0.345 HD
ATOM     13  H   UNL     1       7.384  -4.958  -8.447  1.00  0.00     0.345 HD
ENDBRANCH   9  10
BRANCH   9  14
ATOM     14  C   UNL     1       4.611  -3.225  -7.678  1.00  0.00     0.099 C 
ATOM     15  O   UNL     1       4.281  -3.915  -6.678  1.00  0.00    -0.544 OA
ATOM     16  O   UNL     1       3.737  -2.259  -8.163  1.00  0.00    -0.544 OA
ENDBRANCH   9  14
ENDBRANCH   8   9
ENDBRANCH   1   8
TORSDOF 7
ENDMDL
MODEL 7
REMARK VINA RESULT:    -3.335     13.619     14.381
REMARK INTER + INTRA:          -4.974
REMARK INTER:                  -4.606
REMARK INTRA:                  -0.368
REMARK UNBOUND:                -0.469
REMARK SMILES [NH3+]CCCC[C@@H]([NH3+])C(=O)[O-]
REMARK SMILES IDX 4 1 3 2 2 3 1 4 5 8 6 9 7 10 8 14 9 15 10 16
REMARK H PARENT 1 5 1 6 1 7 7 11 7 12 7 13
REMARK Flexibility Score: inf
ROOT
ATOM      1  C   UNL     1       7.258  -2.866  -6.840  1.00  0.00     0.012 C 
ENDROOT
BRANCH   1   2
ATOM      2  C   UNL     1       8.570  -2.766  -7.632  1.00  0.00     0.061 C 
BRANCH   2   3
ATOM      3  C   UNL     1       9.085  -4.139  -8.098  1.00  0.00     0.258 C 
BRANCH   3   4
ATOM      4  N   UNL     1       8.453  -5.242  -7.370  1.00  0.00    -0.358 N 
ATOM      5  H   UNL     1       7.702  -5.678  -7.951  1.00  0.00     0.344 HD
ATOM      6  H   UNL     1       8.053  -4.902  -6.466  1.00  0.00     0.344 HD
ATOM      7  H   UNL     1       9.175  -5.970  -7.166  1.00  0.00     0.344 HD
ENDBRANCH   3   4
ENDBRANCH   2   3
ENDBRANCH   1   2
BRANCH   1   8
ATOM      8  C   UNL     1       6.044  -2.660  -7.760  1.00  0.00     0.072 C 
BRANCH   8   9
ATOM      9  C   UNL     1       4.935  -3.710  -7.528  1.00  0.00     0.227 C 
BRANCH   9  10
ATOM     10  N   UNL     1       3.608  -3.188  -7.883  1.00  0.00    -0.350 N 
ATOM     11  H   UNL     1       2.886  -3.580  -7.233  1.00  0.00     0.345 HD
ATOM     12  H   UNL     1       3.590  -2.149  -7.779  1.00  0.00     0.345 HD
ATOM     13  H   UNL     1       3.357  -3.443  -8.866  1.00  0.00     0.345 HD
ENDBRANCH   9  10
BRANCH   9  14
ATOM     14  C   UNL     1       5.236  -4.944  -8.337  1.00  0.00     0.099 C 
ATOM     15  O   UNL     1       4.765  -6.059  -7.991  1.00  0.00    -0.544 OA
ATOM     16  O   UNL     1       6.052  -4.863  -9.459  1.00  0.00    -0.544 OA
ENDBRANCH   9  14
ENDBRANCH   8   9
ENDBRANCH   1   8
TORSDOF 7
ENDMDL
MODEL 8
REMARK VINA RESULT:    -3.304     13.628     14.855
REMARK INTER + INTRA:          -4.932
REMARK INTER:                  -4.433
REMARK INTRA:                  -0.499
REMARK UNBOUND:                -0.469
REMARK SMILES [NH3+]CCCC[C@@H]([NH3+])C(=O)[O-]
REMARK SMILES IDX 4 1 3 2 2 3 1 4 5 8 6 9 7 10 8 14 9 15 10 16
REMARK H PARENT 1 5 1 6 1 7 7 11 7 12 7 13
REMARK Flexibility Score: inf
ROOT
ATOM      1  C   UNL     1       8.017  -3.461  -8.897  1.00  0.00     0.012 C 
ENDROOT
BRANCH   1   2
ATOM      2  C   UNL     1       8.696  -2.330  -8.109  1.00  0.00     0.061 C 
BRANCH   2   3
ATOM      3  C   UNL     1       7.918  -1.005  -8.190  1.00  0.00     0.258 C 
BRANCH   3   4
ATOM      4  N   UNL     1       7.090  -0.923  -9.395  1.00  0.00    -0.358 N 
ATOM      5  H   UNL     1       6.102  -0.698  -9.143  1.00  0.00     0.344 HD
ATOM      6  H   UNL     1       7.128  -1.823  -9.927  1.00  0.00     0.344 HD
ATOM      7  H   UNL     1       7.456  -0.157 -10.005  1.00  0.00     0.344 HD
ENDBRANCH   3   4
ENDBRANCH   2   3
ENDBRANCH   1   2
BRANCH   1   8
ATOM      8  C   UNL     1       7.272  -4.418  -7.953  1.00  0.00     0.072 C 
BRANCH   8   9
ATOM      9  C   UNL     1       5.798  -4.633  -8.363  1.00  0.00     0.227 C 
BRANCH   9  10
ATOM     10  N   UNL     1       5.320  -5.972  -7.992  1.00  0.00    -0.350 N 
ATOM     11  H   UNL     1       4.800  -5.925  -7.084  1.00  0.00     0.345 HD
ATOM     12  H   UNL     1       4.656  -6.331  -8.714  1.00  0.00     0.345 HD
ATOM     13  H   UNL     1       6.119  -6.640  -7.893  1.00  0.00     0.345 HD
ENDBRANCH   9  10
BRANCH   9  14
ATOM     14  C   UNL     1       4.939  -3.581  -7.713  1.00  0.00     0.099 C 
ATOM     15  O   UNL     1       4.716  -2.492  -8.304  1.00  0.00    -0.544 OA
ATOM     16  O   UNL     1       4.403  -3.797  -6.450  1.00  0.00    -0.544 OA
ENDBRANCH   9  14
ENDBRANCH   8   9
ENDBRANCH   1   8
TORSDOF 7
ENDMDL
MODEL 9
REMARK VINA RESULT:    -3.262     13.867     14.444
REMARK INTER + INTRA:          -4.875
REMARK INTER:                  -4.356
REMARK INTRA:                  -0.519
REMARK UNBOUND:                -0.469
REMARK SMILES [NH3+]CCCC[C@@H]([NH3+])C(=O)[O-]
REMARK SMILES IDX 4 1 3 2 2 3 1 4 5 8 6 9 7 10 8 14 9 15 10 16
REMARK H PARENT 1 5 1 6 1 7 7 11 7 12 7 13
REMARK Flexibility Score: inf
ROOT
ATOM      1  C   UNL     1       5.486  -4.014  -8.013  1.00  0.00     0.012 C 
ENDROOT
BRANCH   1   2
ATOM      2  C   UNL     1       6.433  -4.677  -9.025  1.00  0.00     0.061 C 
BRANCH   2   3
ATOM      3  C   UNL     1       7.270  -5.806  -8.399  1.00  0.00     0.258 C 
BRANCH   3   4
ATOM      4  N   UNL     1       8.247  -5.299  -7.433  1.00  0.00    -0.358 N 
ATOM      5  H   UNL     1       9.124  -5.008  -7.920  1.00  0.00     0.344 HD
ATOM      6  H   UNL     1       8.461  -6.027  -6.714  1.00  0.00     0.344 HD
ATOM      7  H   UNL     1       7.845  -4.461  -6.953  1.00  0.00     0.344 HD
ENDBRANCH   3   4
ENDBRANCH   2   3
ENDBRANCH   1   2
BRANCH   1   8
ATOM      8  C   UNL     1       5.674  -2.489  -8.003  1.00  0.00     0.072 C 
BRANCH   8   9
ATOM      9  C   UNL     1       7.086  -2.058  -8.457  1.00  0.00     0.227 C 
BRANCH   9  10
ATOM     10  N   UNL     1       7.032  -1.002  -9.477  1.00  0.00    -0.350 N 
ATOM     11  H   UNL     1       7.117  -0.063  -9.022  1.00  0.00     0.345 HD
ATOM     12  H   UNL     1       7.831  -1.102 -10.142  1.00  0.00     0.345 HD
ATOM     13  H   UNL     1       6.131  -1.043 -10.008  1.00  0.00     0.345 HD
ENDBRANCH   9  10
BRANCH   9  14
ATOM     14  C   UNL     1       7.873  -1.581  -7.264  1.00  0.00     0.099 C 
ATOM     15  O   UNL     1       8.189  -2.388  -6.351  1.00  0.00    -0.544 OA
ATOM     16  O   UNL     1       8.237  -0.245  -7.154  1.00  0.00    -0.544 OA
ENDBRANCH   9  14
ENDBRANCH   8   9
ENDBRANCH   1   8
TORSDOF 7
ENDMDL
