MODEL 1
REMARK VINA RESULT:     6.208      0.000      0.000
REMARK INTER + INTRA:           6.208
REMARK INTER:                   6.208
REMARK INTRA:                   0.000
REMARK UNBOUND:                 0.000
REMARK SMILES Cc1cc2cc3c(C)cc(=O)oc3c(C)c2o1
REMARK SMILES IDX 8 1 7 2 9 3 10 4 11 5 12 6 13 7 6 8 5 9 4 10 3 11 2 12 17 13
REMARK SMILES IDX 16 14 14 15 15 16 1 17
REMARK H PARENT
REMARK Flexibility Score: inf
ROOT
ATOM      1  C   UNL     1     -37.812  25.680   7.725  1.00  0.00     0.045 C 
ATOM      2  C   UNL     1     -37.881  24.778   6.520  1.00  0.00    -0.033 A 
ATOM      3  C   UNL     1     -37.876  25.344   5.239  1.00  0.00     0.098 A 
ATOM      4  C   UNL     1     -37.937  24.515   4.117  1.00  0.00     0.336 A 
ATOM      5  O   UNL     1     -37.931  25.019   2.964  1.00  0.00    -0.246 OA
ATOM      6  O   UNL     1     -38.003  23.197   4.256  1.00  0.00    -0.422 OA
ATOM      7  C   UNL     1     -38.013  22.593   5.441  1.00  0.00     0.145 A 
ATOM      8  C   UNL     1     -37.949  23.372   6.641  1.00  0.00     0.022 A 
ATOM      9  C   UNL     1     -37.950  22.720   7.898  1.00  0.00     0.024 A 
ATOM     10  C   UNL     1     -38.010  21.331   7.916  1.00  0.00     0.022 A 
ATOM     11  C   UNL     1     -38.016  20.451   8.973  1.00  0.00     0.054 A 
ATOM     12  C   UNL     1     -38.081  19.198   8.373  1.00  0.00     0.102 A 
ATOM     13  O   UNL     1     -38.113  19.308   7.058  1.00  0.00    -0.461 OA
ATOM     14  C   UNL     1     -38.072  20.587   6.768  1.00  0.00     0.140 A 
ATOM     15  C   UNL     1     -38.087  21.181   5.504  1.00  0.00     0.036 A 
ATOM     16  C   UNL     1     -38.125  20.346   4.254  1.00  0.00     0.052 C 
ATOM     17  C   UNL     1     -38.115  17.897   9.101  1.00  0.00     0.087 C 
ENDROOT
TORSDOF 0
ENDMDL
