MODEL 1
REMARK VINA RESULT:    -3.215      0.000      0.000
REMARK INTER + INTRA:          -3.524
REMARK INTER:                  -3.496
REMARK INTRA:                  -0.027
REMARK UNBOUND:                -0.027
REMARK SMILES O=C([O-])c1ccc(O)cc1
REMARK SMILES IDX 7 1 6 2 9 3 5 4 10 5 4 6 8 7 2 9 1 10 3 11
REMARK H PARENT 8 8
REMARK Flexibility Score: inf
ROOT
ATOM      1  C   UNL     1       8.936   9.800  -3.469  1.00  0.00     0.115 A 
ATOM      2  C   UNL     1       7.585   9.912  -3.125  1.00  0.00     0.047 A 
ATOM      3  C   UNL     1       9.861   9.363  -2.513  1.00  0.00     0.047 A 
ATOM      4  C   UNL     1       7.159   9.590  -1.832  1.00  0.00     0.014 A 
ATOM      5  C   UNL     1       9.439   9.040  -1.221  1.00  0.00     0.014 A 
ATOM      6  C   UNL     1       8.083   9.150  -0.866  1.00  0.00    -0.003 A 
ENDROOT
BRANCH   1   7
ATOM      7  O   UNL     1       9.346  10.125  -4.760  1.00  0.00    -0.508 OA
ATOM      8  H   UNL     1       8.792  10.731  -5.354  1.00  0.00     0.293 HD
ENDBRANCH   1   7
BRANCH   6   9
ATOM      9  C   UNL     1       7.638   8.808   0.503  1.00  0.00     0.071 C 
ATOM     10  O   UNL     1       7.363   9.715   1.333  1.00  0.00    -0.545 OA
ATOM     11  O   UNL     1       7.516   7.479   0.892  1.00  0.00    -0.545 OA
ENDBRANCH   6   9
TORSDOF 2
ENDMDL
MODEL 2
REMARK VINA RESULT:    -3.135     23.422     24.188
REMARK INTER + INTRA:          -3.437
REMARK INTER:                  -3.403
REMARK INTRA:                  -0.034
REMARK UNBOUND:                -0.027
REMARK SMILES O=C([O-])c1ccc(O)cc1
REMARK SMILES IDX 7 1 6 2 9 3 5 4 10 5 4 6 8 7 2 9 1 10 3 11
REMARK H PARENT 8 8
REMARK Flexibility Score: inf
ROOT
ATOM      1  C   UNL     1      -6.160  -5.719 -13.719  1.00  0.00     0.115 A 
ATOM      2  C   UNL     1      -5.772  -4.389 -13.909  1.00  0.00     0.047 A 
ATOM      3  C   UNL     1      -7.482  -6.012 -13.363  1.00  0.00     0.047 A 
ATOM      4  C   UNL     1      -6.699  -3.355 -13.742  1.00  0.00     0.014 A 
ATOM      5  C   UNL     1      -8.411  -4.981 -13.196  1.00  0.00     0.014 A 
ATOM      6  C   UNL     1      -8.030  -3.641 -13.384  1.00  0.00    -0.003 A 
ENDROOT
BRANCH   1   7
ATOM      7  O   UNL     1      -5.226  -6.738 -13.888  1.00  0.00    -0.508 OA
ATOM      8  H   UNL     1      -4.524  -6.934 -13.184  1.00  0.00     0.293 HD
ENDBRANCH   1   7
BRANCH   6   9
ATOM      9  C   UNL     1      -9.014  -2.551 -13.207  1.00  0.00     0.071 C 
ATOM     10  O   UNL     1      -8.861  -1.447 -13.795  1.00  0.00    -0.545 OA
ATOM     11  O   UNL     1     -10.124  -2.731 -12.389  1.00  0.00    -0.545 OA
ENDBRANCH   6   9
TORSDOF 2
ENDMDL
MODEL 3
REMARK VINA RESULT:    -3.130     23.677     24.362
REMARK INTER + INTRA:          -3.432
REMARK INTER:                  -3.397
REMARK INTRA:                  -0.035
REMARK UNBOUND:                -0.027
REMARK SMILES O=C([O-])c1ccc(O)cc1
REMARK SMILES IDX 7 1 6 2 9 3 5 4 10 5 4 6 8 7 2 9 1 10 3 11
REMARK H PARENT 8 8
REMARK Flexibility Score: inf
ROOT
ATOM      1  C   UNL     1      -8.687  -2.527 -13.374  1.00  0.00     0.115 A 
ATOM      2  C   UNL     1      -9.203  -3.603 -12.647  1.00  0.00     0.047 A 
ATOM      3  C   UNL     1      -7.509  -2.689 -14.113  1.00  0.00     0.047 A 
ATOM      4  C   UNL     1      -8.545  -4.838 -12.656  1.00  0.00     0.014 A 
ATOM      5  C   UNL     1      -6.849  -3.922 -14.125  1.00  0.00     0.014 A 
ATOM      6  C   UNL     1      -7.361  -5.010 -13.396  1.00  0.00    -0.003 A 
ENDROOT
BRANCH   1   7
ATOM      7  O   UNL     1      -9.352  -1.303 -13.356  1.00  0.00    -0.508 OA
ATOM      8  H   UNL     1      -9.946  -1.012 -14.123  1.00  0.00     0.293 HD
ENDBRANCH   1   7
BRANCH   6   9
ATOM      9  C   UNL     1      -6.662  -6.313 -13.409  1.00  0.00     0.071 C 
ATOM     10  O   UNL     1      -5.467  -6.396 -13.800  1.00  0.00    -0.545 OA
ATOM     11  O   UNL     1      -7.314  -7.467 -12.987  1.00  0.00    -0.545 OA
ENDBRANCH   6   9
TORSDOF 2
ENDMDL
MODEL 4
REMARK VINA RESULT:    -3.113     17.602     18.863
REMARK INTER + INTRA:          -3.414
REMARK INTER:                  -3.381
REMARK INTRA:                  -0.033
REMARK UNBOUND:                -0.027
REMARK SMILES O=C([O-])c1ccc(O)cc1
REMARK SMILES IDX 7 1 6 2 9 3 5 4 10 5 4 6 8 7 2 9 1 10 3 11
REMARK H PARENT 8 8
REMARK Flexibility Score: inf
ROOT
ATOM      1  C   UNL     1      -8.701   7.813  -5.915  1.00  0.00     0.115 A 
ATOM      2  C   UNL     1      -7.562   7.791  -6.725  1.00  0.00     0.047 A 
ATOM      3  C   UNL     1      -9.938   8.171  -6.465  1.00  0.00     0.047 A 
ATOM      4  C   UNL     1      -7.656   8.129  -8.079  1.00  0.00     0.014 A 
ATOM      5  C   UNL     1     -10.035   8.508  -7.818  1.00  0.00     0.014 A 
ATOM      6  C   UNL     1      -8.895   8.491  -8.640  1.00  0.00    -0.003 A 
ENDROOT
BRANCH   1   7
ATOM      7  O   UNL     1      -8.592   7.475  -4.567  1.00  0.00    -0.508 OA
ATOM      8  H   UNL     1      -9.388   7.529  -3.943  1.00  0.00     0.293 HD
ENDBRANCH   1   7
BRANCH   6   9
ATOM      9  C   UNL     1      -9.000   8.847 -10.072  1.00  0.00     0.071 C 
ATOM     10  O   UNL     1      -8.072   9.480 -10.644  1.00  0.00    -0.545 OA
ATOM     11  O   UNL     1     -10.125   8.488 -10.806  1.00  0.00    -0.545 OA
ENDBRANCH   6   9
TORSDOF 2
ENDMDL
MODEL 5
REMARK VINA RESULT:    -3.075     17.045     17.859
REMARK INTER + INTRA:          -3.372
REMARK INTER:                  -3.337
REMARK INTRA:                  -0.035
REMARK UNBOUND:                -0.027
REMARK SMILES O=C([O-])c1ccc(O)cc1
REMARK SMILES IDX 7 1 6 2 9 3 5 4 10 5 4 6 8 7 2 9 1 10 3 11
REMARK H PARENT 8 8
REMARK Flexibility Score: inf
ROOT
ATOM      1  C   UNL     1      -7.456   9.512 -10.307  1.00  0.00     0.115 A 
ATOM      2  C   UNL     1      -8.765   9.041 -10.173  1.00  0.00     0.047 A 
ATOM      3  C   UNL     1      -6.576   9.433  -9.221  1.00  0.00     0.047 A 
ATOM      4  C   UNL     1      -9.197   8.495  -8.960  1.00  0.00     0.014 A 
ATOM      5  C   UNL     1      -7.003   8.887  -8.007  1.00  0.00     0.014 A 
ATOM      6  C   UNL     1      -8.318   8.412  -7.864  1.00  0.00    -0.003 A 
ENDROOT
BRANCH   1   7
ATOM      7  O   UNL     1      -7.041  10.054 -11.522  1.00  0.00    -0.508 OA
ATOM      8  H   UNL     1      -7.312  10.989 -11.804  1.00  0.00     0.293 HD
ENDBRANCH   1   7
BRANCH   6   9
ATOM      9  C   UNL     1      -8.769   7.834  -6.578  1.00  0.00     0.071 C 
ATOM     10  O   UNL     1      -7.931   7.422  -5.732  1.00  0.00    -0.545 OA
ATOM     11  O   UNL     1     -10.125   7.740  -6.286  1.00  0.00    -0.545 OA
ENDBRANCH   6   9
TORSDOF 2
ENDMDL
MODEL 6
REMARK VINA RESULT:    -3.053      2.302      4.732
REMARK INTER + INTRA:          -3.348
REMARK INTER:                  -3.315
REMARK INTRA:                  -0.033
REMARK UNBOUND:                -0.027
REMARK SMILES O=C([O-])c1ccc(O)cc1
REMARK SMILES IDX 7 1 6 2 9 3 5 4 10 5 4 6 8 7 2 9 1 10 3 11
REMARK H PARENT 8 8
REMARK Flexibility Score: inf
ROOT
ATOM      1  C   UNL     1       9.330   8.571   2.472  1.00  0.00     0.115 A 
ATOM      2  C   UNL     1      10.101   7.896   1.522  1.00  0.00     0.047 A 
ATOM      3  C   UNL     1       8.194   9.283   2.066  1.00  0.00     0.047 A 
ATOM      4  C   UNL     1       9.743   7.932   0.170  1.00  0.00     0.014 A 
ATOM      5  C   UNL     1       7.833   9.321   0.716  1.00  0.00     0.014 A 
ATOM      6  C   UNL     1       8.604   8.645  -0.247  1.00  0.00    -0.003 A 
ENDROOT
BRANCH   1   7
ATOM      7  O   UNL     1       9.699   8.527   3.815  1.00  0.00    -0.508 OA
ATOM      8  H   UNL     1      10.321   9.219   4.215  1.00  0.00     0.293 HD
ENDBRANCH   1   7
BRANCH   6   9
ATOM      9  C   UNL     1       8.220   8.686  -1.675  1.00  0.00     0.071 C 
ATOM     10  O   UNL     1       7.008   8.749  -2.011  1.00  0.00    -0.545 OA
ATOM     11  O   UNL     1       9.194   8.656  -2.667  1.00  0.00    -0.545 OA
ENDBRANCH   6   9
TORSDOF 2
ENDMDL
MODEL 7
REMARK VINA RESULT:    -3.048     24.222     24.929
REMARK INTER + INTRA:          -3.343
REMARK INTER:                  -3.316
REMARK INTRA:                  -0.027
REMARK UNBOUND:                -0.027
REMARK SMILES O=C([O-])c1ccc(O)cc1
REMARK SMILES IDX 7 1 6 2 9 3 5 4 10 5 4 6 8 7 2 9 1 10 3 11
REMARK H PARENT 8 8
REMARK Flexibility Score: inf
ROOT
ATOM      1  C   UNL     1      -5.938  -4.580 -13.745  1.00  0.00     0.115 A 
ATOM      2  C   UNL     1      -5.925  -5.936 -14.081  1.00  0.00     0.047 A 
ATOM      3  C   UNL     1      -7.020  -4.052 -13.030  1.00  0.00     0.047 A 
ATOM      4  C   UNL     1      -6.989  -6.764 -13.707  1.00  0.00     0.014 A 
ATOM      5  C   UNL     1      -8.084  -4.876 -12.653  1.00  0.00     0.014 A 
ATOM      6  C   UNL     1      -8.080  -6.242 -12.988  1.00  0.00    -0.003 A 
ENDROOT
BRANCH   1   7
ATOM      7  O   UNL     1      -4.872  -3.767 -14.125  1.00  0.00    -0.508 OA
ATOM      8  H   UNL     1      -4.921  -3.184 -14.952  1.00  0.00     0.293 HD
ENDBRANCH   1   7
BRANCH   6   9
ATOM      9  C   UNL     1      -9.207  -7.113 -12.589  1.00  0.00     0.071 C 
ATOM     10  O   UNL     1     -10.124  -7.389 -13.408  1.00  0.00    -0.545 OA
ATOM     11  O   UNL     1      -9.269  -7.641 -11.304  1.00  0.00    -0.545 OA
ENDBRANCH   6   9
TORSDOF 2
ENDMDL
MODEL 8
REMARK VINA RESULT:    -2.854     24.372     25.106
REMARK INTER + INTRA:          -3.132
REMARK INTER:                  -3.104
REMARK INTRA:                  -0.028
REMARK UNBOUND:                -0.027
REMARK SMILES O=C([O-])c1ccc(O)cc1
REMARK SMILES IDX 7 1 6 2 9 3 5 4 10 5 4 6 8 7 2 9 1 10 3 11
REMARK H PARENT 8 8
REMARK Flexibility Score: inf
ROOT
ATOM      1  C   UNL     1      -7.550  -4.007 -13.330  1.00  0.00     0.115 A 
ATOM      2  C   UNL     1      -6.543  -4.812 -13.871  1.00  0.00     0.047 A 
ATOM      3  C   UNL     1      -8.585  -4.594 -12.592  1.00  0.00     0.047 A 
ATOM      4  C   UNL     1      -6.569  -6.197 -13.680  1.00  0.00     0.014 A 
ATOM      5  C   UNL     1      -8.614  -5.978 -12.398  1.00  0.00     0.014 A 
ATOM      6  C   UNL     1      -7.606  -6.795 -12.940  1.00  0.00    -0.003 A 
ENDROOT
BRANCH   1   7
ATOM      7  O   UNL     1      -7.511  -2.629 -13.530  1.00  0.00    -0.508 OA
ATOM      8  H   UNL     1      -6.669  -2.093 -13.358  1.00  0.00     0.293 HD
ENDBRANCH   1   7
BRANCH   6   9
ATOM      9  C   UNL     1      -7.638  -8.259 -12.733  1.00  0.00     0.071 C 
ATOM     10  O   UNL     1      -7.799  -9.041 -13.709  1.00  0.00    -0.545 OA
ATOM     11  O   UNL     1      -7.490  -8.794 -11.458  1.00  0.00    -0.545 OA
ENDBRANCH   6   9
TORSDOF 2
ENDMDL
MODEL 9
REMARK VINA RESULT:    -2.135     16.973     18.252
REMARK INTER + INTRA:          -2.349
REMARK INTER:                  -2.314
REMARK INTRA:                  -0.035
REMARK UNBOUND:                -0.027
REMARK SMILES O=C([O-])c1ccc(O)cc1
REMARK SMILES IDX 7 1 6 2 9 3 5 4 10 5 4 6 8 7 2 9 1 10 3 11
REMARK H PARENT 8 8
REMARK Flexibility Score: inf
ROOT
ATOM      1  C   UNL     1      -9.482   7.905  -5.091  1.00  0.00     0.115 A 
ATOM      2  C   UNL     1      -8.185   7.406  -5.234  1.00  0.00     0.047 A 
ATOM      3  C   UNL     1     -10.125   8.491  -6.190  1.00  0.00     0.047 A 
ATOM      4  C   UNL     1      -7.528   7.492  -6.466  1.00  0.00     0.014 A 
ATOM      5  C   UNL     1      -9.473   8.578  -7.423  1.00  0.00     0.014 A 
ATOM      6  C   UNL     1      -8.167   8.079  -7.574  1.00  0.00    -0.003 A 
ENDROOT
BRANCH   1   7
ATOM      7  O   UNL     1     -10.123   7.814  -3.858  1.00  0.00    -0.508 OA
ATOM      8  H   UNL     1      -9.682   8.143  -3.007  1.00  0.00     0.293 HD
ENDBRANCH   1   7
BRANCH   6   9
ATOM      9  C   UNL     1      -7.478   8.172  -8.880  1.00  0.00     0.071 C 
ATOM     10  O   UNL     1      -6.442   7.491  -9.108  1.00  0.00    -0.545 OA
ATOM     11  O   UNL     1      -7.965   9.012  -9.875  1.00  0.00    -0.545 OA
ENDBRANCH   6   9
TORSDOF 2
ENDMDL
