MODEL 1
REMARK VINA RESULT:    -5.051      0.000      0.000
REMARK INTER + INTRA:          -9.801
REMARK INTER:                  -8.595
REMARK INTRA:                  -1.207
REMARK UNBOUND:                -1.207
REMARK SMILES CCCCCCCCCCCCCC(=O)[O-]
REMARK SMILES IDX 8 1 9 2 10 3 11 4 12 5 13 6 14 7 15 8 16 9 7 10 6 11 5 12
REMARK SMILES IDX 4 13 3 14 2 15 1 16
REMARK H PARENT
REMARK Flexibility Score: inf
ROOT
ATOM      1  C   UNL     1      13.682   1.715 -34.899  1.00  0.00     0.000 C 
ENDROOT
BRANCH   1   2
ATOM      2  C   UNL     1      14.171   1.921 -33.456  1.00  0.00     0.000 C 
BRANCH   2   3
ATOM      3  C   UNL     1      13.401   3.027 -32.712  1.00  0.00     0.000 C 
BRANCH   3   4
ATOM      4  C   UNL     1      13.563   3.023 -31.181  1.00  0.00     0.000 C 
BRANCH   4   5
ATOM      5  C   UNL     1      12.243   3.278 -30.435  1.00  0.00     0.006 C 
BRANCH   5   6
ATOM      6  C   UNL     1      11.018   3.032 -31.325  1.00  0.00     0.053 C 
BRANCH   6   7
ATOM      7  C   UNL     1      10.235   1.839 -30.869  1.00  0.00     0.041 C 
ATOM      8  O   UNL     1      10.669   1.114 -29.935  1.00  0.00    -0.550 OA
ATOM      9  O   UNL     1       9.007   1.549 -31.451  1.00  0.00    -0.550 OA
ENDBRANCH   6   7
ENDBRANCH   5   6
ENDBRANCH   4   5
ENDBRANCH   3   4
ENDBRANCH   2   3
ENDBRANCH   1   2
BRANCH   1  10
ATOM     10  C   UNL     1      12.849   2.899 -35.423  1.00  0.00     0.000 C 
BRANCH  10  11
ATOM     11  C   UNL     1      11.383   2.567 -35.768  1.00  0.00    -0.000 C 
BRANCH  11  12
ATOM     12  C   UNL     1      10.669   1.630 -34.775  1.00  0.00    -0.000 C 
BRANCH  12  13
ATOM     13  C   UNL     1       9.243   1.214 -35.181  1.00  0.00    -0.000 C 
BRANCH  13  14
ATOM     14  C   UNL     1       8.713   2.003 -36.390  1.00  0.00    -0.000 C 
BRANCH  14  15
ATOM     15  C   UNL     1       8.001   1.103 -37.413  1.00  0.00    -0.003 C 
ATOM     16  C   UNL     1       8.972   0.250 -38.230  1.00  0.00     0.004 C 
ENDBRANCH  14  15
ENDBRANCH  13  14
ENDBRANCH  12  13
ENDBRANCH  11  12
ENDBRANCH  10  11
ENDBRANCH   1  10
TORSDOF 12
ENDMDL
MODEL 2
REMARK VINA RESULT:    -5.004      2.678      5.236
REMARK INTER + INTRA:          -9.721
REMARK INTER:                  -8.860
REMARK INTRA:                  -0.862
REMARK UNBOUND:                -1.207
REMARK SMILES CCCCCCCCCCCCCC(=O)[O-]
REMARK SMILES IDX 8 1 9 2 10 3 11 4 12 5 13 6 14 7 15 8 16 9 7 10 6 11 5 12
REMARK SMILES IDX 4 13 3 14 2 15 1 16
REMARK H PARENT
REMARK Flexibility Score: inf
ROOT
ATOM      1  C   UNL     1       7.021   0.120 -35.178  1.00  0.00     0.000 C 
ENDROOT
BRANCH   1   2
ATOM      2  C   UNL     1       5.743   0.383 -34.364  1.00  0.00     0.000 C 
BRANCH   2   3
ATOM      3  C   UNL     1       6.004   1.196 -33.083  1.00  0.00     0.000 C 
BRANCH   3   4
ATOM      4  C   UNL     1       7.483   1.327 -32.679  1.00  0.00     0.000 C 
BRANCH   4   5
ATOM      5  C   UNL     1       7.672   1.852 -31.246  1.00  0.00     0.006 C 
BRANCH   5   6
ATOM      6  C   UNL     1       6.505   1.464 -30.329  1.00  0.00     0.053 C 
BRANCH   6   7
ATOM      7  C   UNL     1       6.831   0.261 -29.498  1.00  0.00     0.041 C 
ATOM      8  O   UNL     1       7.922   0.198 -28.873  1.00  0.00    -0.550 OA
ATOM      9  O   UNL     1       5.913  -0.776 -29.385  1.00  0.00    -0.550 OA
ENDBRANCH   6   7
ENDBRANCH   5   6
ENDBRANCH   4   5
ENDBRANCH   3   4
ENDBRANCH   2   3
ENDBRANCH   1   2
BRANCH   1  10
ATOM     10  C   UNL     1       7.185   1.087 -36.365  1.00  0.00     0.000 C 
BRANCH  10  11
ATOM     11  C   UNL     1       8.183   2.240 -36.137  1.00  0.00    -0.000 C 
BRANCH  11  12
ATOM     12  C   UNL     1       9.669   1.831 -36.120  1.00  0.00    -0.000 C 
BRANCH  12  13
ATOM     13  C   UNL     1      10.197   1.350 -34.756  1.00  0.00    -0.000 C 
BRANCH  13  14
ATOM     14  C   UNL     1      11.382   2.187 -34.247  1.00  0.00    -0.000 C 
BRANCH  14  15
ATOM     15  C   UNL     1      12.437   2.436 -35.336  1.00  0.00    -0.003 C 
ATOM     16  C   UNL     1      13.813   1.879 -34.970  1.00  0.00     0.004 C 
ENDBRANCH  14  15
ENDBRANCH  13  14
ENDBRANCH  12  13
ENDBRANCH  11  12
ENDBRANCH  10  11
ENDBRANCH   1  10
TORSDOF 12
ENDMDL
MODEL 3
REMARK VINA RESULT:    -5.001      2.562      5.539
REMARK INTER + INTRA:          -9.716
REMARK INTER:                  -8.877
REMARK INTRA:                  -0.839
REMARK UNBOUND:                -1.207
REMARK SMILES CCCCCCCCCCCCCC(=O)[O-]
REMARK SMILES IDX 8 1 9 2 10 3 11 4 12 5 13 6 14 7 15 8 16 9 7 10 6 11 5 12
REMARK SMILES IDX 4 13 3 14 2 15 1 16
REMARK H PARENT
REMARK Flexibility Score: inf
ROOT
ATOM      1  C   UNL     1       7.454  -0.401 -36.105  1.00  0.00     0.000 C 
ENDROOT
BRANCH   1   2
ATOM      2  C   UNL     1       6.690   0.476 -35.100  1.00  0.00     0.000 C 
BRANCH   2   3
ATOM      3  C   UNL     1       5.388  -0.176 -34.600  1.00  0.00     0.000 C 
BRANCH   3   4
ATOM      4  C   UNL     1       5.092   0.014 -33.102  1.00  0.00     0.000 C 
BRANCH   4   5
ATOM      5  C   UNL     1       6.029   1.029 -32.427  1.00  0.00     0.006 C 
BRANCH   5   6
ATOM      6  C   UNL     1       6.404   0.612 -31.000  1.00  0.00     0.053 C 
BRANCH   6   7
ATOM      7  C   UNL     1       7.683   1.252 -30.555  1.00  0.00     0.041 C 
ATOM      8  O   UNL     1       8.388   1.900 -31.374  1.00  0.00    -0.550 OA
ATOM      9  O   UNL     1       8.080   1.164 -29.227  1.00  0.00    -0.550 OA
ENDBRANCH   6   7
ENDBRANCH   5   6
ENDBRANCH   4   5
ENDBRANCH   3   4
ENDBRANCH   2   3
ENDBRANCH   1   2
BRANCH   1  10
ATOM     10  C   UNL     1       8.404   0.409 -37.006  1.00  0.00     0.000 C 
BRANCH  10  11
ATOM     11  C   UNL     1       8.815   1.788 -36.452  1.00  0.00    -0.000 C 
BRANCH  11  12
ATOM     12  C   UNL     1      10.206   1.844 -35.790  1.00  0.00    -0.000 C 
BRANCH  12  13
ATOM     13  C   UNL     1      10.234   1.465 -34.298  1.00  0.00    -0.000 C 
BRANCH  13  14
ATOM     14  C   UNL     1      11.511   1.942 -33.586  1.00  0.00    -0.000 C 
BRANCH  14  15
ATOM     15  C   UNL     1      12.780   1.285 -34.151  1.00  0.00    -0.003 C 
ATOM     16  C   UNL     1      13.737   2.293 -34.788  1.00  0.00     0.004 C 
ENDBRANCH  14  15
ENDBRANCH  13  14
ENDBRANCH  12  13
ENDBRANCH  11  12
ENDBRANCH  10  11
ENDBRANCH   1  10
TORSDOF 12
ENDMDL
MODEL 4
REMARK VINA RESULT:    -4.885      3.528      6.812
REMARK INTER + INTRA:          -9.519
REMARK INTER:                  -8.756
REMARK INTRA:                  -0.763
REMARK UNBOUND:                -1.207
REMARK SMILES CCCCCCCCCCCCCC(=O)[O-]
REMARK SMILES IDX 8 1 9 2 10 3 11 4 12 5 13 6 14 7 15 8 16 9 7 10 6 11 5 12
REMARK SMILES IDX 4 13 3 14 2 15 1 16
REMARK H PARENT
REMARK Flexibility Score: inf
ROOT
ATOM      1  C   UNL     1       6.449   0.620 -33.665  1.00  0.00     0.000 C 
ENDROOT
BRANCH   1   2
ATOM      2  C   UNL     1       7.583   1.538 -34.150  1.00  0.00     0.000 C 
BRANCH   2   3
ATOM      3  C   UNL     1       7.718   1.567 -35.683  1.00  0.00     0.000 C 
BRANCH   3   4
ATOM      4  C   UNL     1       9.147   1.791 -36.212  1.00  0.00     0.000 C 
BRANCH   4   5
ATOM      5  C   UNL     1      10.228   1.533 -35.149  1.00  0.00     0.006 C 
BRANCH   5   6
ATOM      6  C   UNL     1      11.531   2.283 -35.454  1.00  0.00     0.053 C 
BRANCH   6   7
ATOM      7  C   UNL     1      12.542   2.101 -34.365  1.00  0.00     0.041 C 
ATOM      8  O   UNL     1      12.260   2.412 -33.178  1.00  0.00    -0.550 OA
ATOM      9  O   UNL     1      13.785   1.553 -34.654  1.00  0.00    -0.550 OA
ENDBRANCH   6   7
ENDBRANCH   5   6
ENDBRANCH   4   5
ENDBRANCH   3   4
ENDBRANCH   2   3
ENDBRANCH   1   2
BRANCH   1  10
ATOM     10  C   UNL     1       6.006   0.926 -32.223  1.00  0.00     0.000 C 
BRANCH  10  11
ATOM     11  C   UNL     1       6.917   1.900 -31.450  1.00  0.00    -0.000 C 
BRANCH  11  12
ATOM     12  C   UNL     1       6.700   1.935 -29.924  1.00  0.00    -0.000 C 
BRANCH  12  13
ATOM     13  C   UNL     1       7.821   1.287 -29.090  1.00  0.00    -0.000 C 
BRANCH  13  14
ATOM     14  C   UNL     1       7.289   0.277 -28.060  1.00  0.00    -0.000 C 
BRANCH  14  15
ATOM     15  C   UNL     1       7.014  -1.103 -28.677  1.00  0.00    -0.003 C 
ATOM     16  C   UNL     1       5.530  -1.469 -28.676  1.00  0.00     0.004 C 
ENDBRANCH  14  15
ENDBRANCH  13  14
ENDBRANCH  12  13
ENDBRANCH  11  12
ENDBRANCH  10  11
ENDBRANCH   1  10
TORSDOF 12
ENDMDL
MODEL 5
REMARK VINA RESULT:    -4.867      3.207      6.215
REMARK INTER + INTRA:          -9.487
REMARK INTER:                  -8.378
REMARK INTRA:                  -1.110
REMARK UNBOUND:                -1.207
REMARK SMILES CCCCCCCCCCCCCC(=O)[O-]
REMARK SMILES IDX 8 1 9 2 10 3 11 4 12 5 13 6 14 7 15 8 16 9 7 10 6 11 5 12
REMARK SMILES IDX 4 13 3 14 2 15 1 16
REMARK H PARENT
REMARK Flexibility Score: inf
ROOT
ATOM      1  C   UNL     1       6.628  -0.109 -35.333  1.00  0.00     0.000 C 
ENDROOT
BRANCH   1   2
ATOM      2  C   UNL     1       6.998   1.069 -36.248  1.00  0.00     0.000 C 
BRANCH   2   3
ATOM      3  C   UNL     1       8.214   1.865 -35.741  1.00  0.00     0.000 C 
BRANCH   3   4
ATOM      4  C   UNL     1       8.740   1.447 -34.356  1.00  0.00     0.000 C 
BRANCH   4   5
ATOM      5  C   UNL     1      10.275   1.470 -34.263  1.00  0.00     0.006 C 
BRANCH   5   6
ATOM      6  C   UNL     1      10.768   1.445 -32.810  1.00  0.00     0.053 C 
BRANCH   6   7
ATOM      7  C   UNL     1      11.797   2.503 -32.558  1.00  0.00     0.041 C 
ATOM      8  O   UNL     1      12.853   2.538 -33.243  1.00  0.00    -0.550 OA
ATOM      9  O   UNL     1      11.575   3.472 -31.588  1.00  0.00    -0.550 OA
ENDBRANCH   6   7
ENDBRANCH   5   6
ENDBRANCH   4   5
ENDBRANCH   3   4
ENDBRANCH   2   3
ENDBRANCH   1   2
BRANCH   1  10
ATOM     10  C   UNL     1       5.195  -0.010 -34.779  1.00  0.00     0.000 C 
BRANCH  10  11
ATOM     11  C   UNL     1       5.039   0.861 -33.516  1.00  0.00    -0.000 C 
BRANCH  11  12
ATOM     12  C   UNL     1       5.923   0.453 -32.321  1.00  0.00    -0.000 C 
BRANCH  12  13
ATOM     13  C   UNL     1       6.535   1.625 -31.531  1.00  0.00    -0.000 C 
BRANCH  13  14
ATOM     14  C   UNL     1       7.332   1.162 -30.300  1.00  0.00    -0.000 C 
BRANCH  14  15
ATOM     15  C   UNL     1       6.474   0.351 -29.316  1.00  0.00    -0.003 C 
ATOM     16  C   UNL     1       7.264  -0.751 -28.609  1.00  0.00     0.004 C 
ENDBRANCH  14  15
ENDBRANCH  13  14
ENDBRANCH  12  13
ENDBRANCH  11  12
ENDBRANCH  10  11
ENDBRANCH   1  10
TORSDOF 12
ENDMDL
MODEL 6
REMARK VINA RESULT:    -4.867      2.997      6.324
REMARK INTER + INTRA:          -9.487
REMARK INTER:                  -8.420
REMARK INTRA:                  -1.067
REMARK UNBOUND:                -1.207
REMARK SMILES CCCCCCCCCCCCCC(=O)[O-]
REMARK SMILES IDX 8 1 9 2 10 3 11 4 12 5 13 6 14 7 15 8 16 9 7 10 6 11 5 12
REMARK SMILES IDX 4 13 3 14 2 15 1 16
REMARK H PARENT
REMARK Flexibility Score: inf
ROOT
ATOM      1  C   UNL     1       7.319   1.819 -30.586  1.00  0.00     0.000 C 
ENDROOT
BRANCH   1   2
ATOM      2  C   UNL     1       6.379   1.204 -31.636  1.00  0.00     0.000 C 
BRANCH   2   3
ATOM      3  C   UNL     1       6.576   1.801 -33.042  1.00  0.00     0.000 C 
BRANCH   3   4
ATOM      4  C   UNL     1       7.019   0.799 -34.124  1.00  0.00     0.000 C 
BRANCH   4   5
ATOM      5  C   UNL     1       8.080   1.374 -35.077  1.00  0.00     0.006 C 
BRANCH   5   6
ATOM      6  C   UNL     1       7.610   1.371 -36.537  1.00  0.00     0.053 C 
BRANCH   6   7
ATOM      7  C   UNL     1       8.297   0.307 -37.336  1.00  0.00     0.041 C 
ATOM      8  O   UNL     1       9.018   0.617 -38.320  1.00  0.00    -0.550 OA
ATOM      9  O   UNL     1       8.168  -1.028 -36.973  1.00  0.00    -0.550 OA
ENDBRANCH   6   7
ENDBRANCH   5   6
ENDBRANCH   4   5
ENDBRANCH   3   4
ENDBRANCH   2   3
ENDBRANCH   1   2
BRANCH   1  10
ATOM     10  C   UNL     1       8.752   1.261 -30.664  1.00  0.00     0.000 C 
BRANCH  10  11
ATOM     11  C   UNL     1       9.757   2.143 -31.432  1.00  0.00    -0.000 C 
BRANCH  11  12
ATOM     12  C   UNL     1      10.679   1.390 -32.411  1.00  0.00    -0.000 C 
BRANCH  12  13
ATOM     13  C   UNL     1      11.708   2.269 -33.146  1.00  0.00    -0.000 C 
BRANCH  13  14
ATOM     14  C   UNL     1      11.627   2.130 -34.675  1.00  0.00    -0.000 C 
BRANCH  14  15
ATOM     15  C   UNL     1      12.996   2.292 -35.353  1.00  0.00    -0.003 C 
ATOM     16  C   UNL     1      14.159   2.246 -34.362  1.00  0.00     0.004 C 
ENDBRANCH  14  15
ENDBRANCH  13  14
ENDBRANCH  12  13
ENDBRANCH  11  12
ENDBRANCH  10  11
ENDBRANCH   1  10
TORSDOF 12
ENDMDL
MODEL 7
REMARK VINA RESULT:    -4.849      3.817      6.162
REMARK INTER + INTRA:          -9.457
REMARK INTER:                  -8.436
REMARK INTRA:                  -1.021
REMARK UNBOUND:                -1.207
REMARK SMILES CCCCCCCCCCCCCC(=O)[O-]
REMARK SMILES IDX 8 1 9 2 10 3 11 4 12 5 13 6 14 7 15 8 16 9 7 10 6 11 5 12
REMARK SMILES IDX 4 13 3 14 2 15 1 16
REMARK H PARENT
REMARK Flexibility Score: inf
ROOT
ATOM      1  C   UNL     1       8.462   0.452 -38.466  1.00  0.00     0.000 C 
ENDROOT
BRANCH   1   2
ATOM      2  C   UNL     1       7.454   1.272 -37.642  1.00  0.00     0.000 C 
BRANCH   2   3
ATOM      3  C   UNL     1       8.131   2.249 -36.664  1.00  0.00     0.000 C 
BRANCH   3   4
ATOM      4  C   UNL     1       8.189   1.777 -35.200  1.00  0.00     0.000 C 
BRANCH   4   5
ATOM      5  C   UNL     1       9.607   1.388 -34.749  1.00  0.00     0.006 C 
BRANCH   5   6
ATOM      6  C   UNL     1      10.685   1.923 -35.701  1.00  0.00     0.053 C 
BRANCH   6   7
ATOM      7  C   UNL     1      11.983   2.154 -34.991  1.00  0.00     0.041 C 
ATOM      8  O   UNL     1      12.738   3.100 -35.340  1.00  0.00    -0.550 OA
ATOM      9  O   UNL     1      12.345   1.345 -33.921  1.00  0.00    -0.550 OA
ENDBRANCH   6   7
ENDBRANCH   5   6
ENDBRANCH   4   5
ENDBRANCH   3   4
ENDBRANCH   2   3
ENDBRANCH   1   2
BRANCH   1  10
ATOM     10  C   UNL     1       8.814  -0.896 -37.812  1.00  0.00     0.000 C 
BRANCH  10  11
ATOM     11  C   UNL     1       7.724  -1.482 -36.891  1.00  0.00    -0.000 C 
BRANCH  11  12
ATOM     12  C   UNL     1       7.545  -3.011 -36.973  1.00  0.00    -0.000 C 
BRANCH  12  13
ATOM     13  C   UNL     1       6.222  -3.545 -36.394  1.00  0.00    -0.000 C 
BRANCH  13  14
ATOM     14  C   UNL     1       6.375  -4.095 -34.966  1.00  0.00    -0.000 C 
BRANCH  14  15
ATOM     15  C   UNL     1       7.386  -5.251 -34.887  1.00  0.00    -0.003 C 
ATOM     16  C   UNL     1       7.725  -5.645 -33.450  1.00  0.00     0.004 C 
ENDBRANCH  14  15
ENDBRANCH  13  14
ENDBRANCH  12  13
ENDBRANCH  11  12
ENDBRANCH  10  11
ENDBRANCH   1  10
TORSDOF 12
ENDMDL
MODEL 8
REMARK VINA RESULT:    -4.831      3.135      6.320
REMARK INTER + INTRA:          -9.427
REMARK INTER:                  -8.217
REMARK INTRA:                  -1.210
REMARK UNBOUND:                -1.207
REMARK SMILES CCCCCCCCCCCCCC(=O)[O-]
REMARK SMILES IDX 8 1 9 2 10 3 11 4 12 5 13 6 14 7 15 8 16 9 7 10 6 11 5 12
REMARK SMILES IDX 4 13 3 14 2 15 1 16
REMARK H PARENT
REMARK Flexibility Score: inf
ROOT
ATOM      1  C   UNL     1       7.352  -2.974 -36.553  1.00  0.00     0.000 C 
ENDROOT
BRANCH   1   2
ATOM      2  C   UNL     1       5.895  -3.030 -36.065  1.00  0.00     0.000 C 
BRANCH   2   3
ATOM      3  C   UNL     1       5.650  -2.175 -34.808  1.00  0.00     0.000 C 
BRANCH   3   4
ATOM      4  C   UNL     1       5.074  -0.772 -35.072  1.00  0.00     0.000 C 
BRANCH   4   5
ATOM      5  C   UNL     1       5.711   0.316 -34.192  1.00  0.00     0.006 C 
BRANCH   5   6
ATOM      6  C   UNL     1       5.467   0.068 -32.698  1.00  0.00     0.053 C 
BRANCH   6   7
ATOM      7  C   UNL     1       6.376   0.898 -31.845  1.00  0.00     0.041 C 
ATOM      8  O   UNL     1       6.882   1.958 -32.300  1.00  0.00    -0.550 OA
ATOM      9  O   UNL     1       6.637   0.521 -30.534  1.00  0.00    -0.550 OA
ENDBRANCH   6   7
ENDBRANCH   5   6
ENDBRANCH   4   5
ENDBRANCH   3   4
ENDBRANCH   2   3
ENDBRANCH   1   2
BRANCH   1  10
ATOM     10  C   UNL     1       7.592  -1.868 -37.597  1.00  0.00     0.000 C 
BRANCH  10  11
ATOM     11  C   UNL     1       8.434  -0.674 -37.105  1.00  0.00    -0.000 C 
BRANCH  11  12
ATOM     12  C   UNL     1       8.058   0.692 -37.712  1.00  0.00    -0.000 C 
BRANCH  12  13
ATOM     13  C   UNL     1       8.065   1.871 -36.721  1.00  0.00    -0.000 C 
BRANCH  13  14
ATOM     14  C   UNL     1       8.903   1.587 -35.464  1.00  0.00    -0.000 C 
BRANCH  14  15
ATOM     15  C   UNL     1      10.390   1.925 -35.659  1.00  0.00    -0.003 C 
ATOM     16  C   UNL     1      11.202   1.796 -34.370  1.00  0.00     0.004 C 
ENDBRANCH  14  15
ENDBRANCH  13  14
ENDBRANCH  12  13
ENDBRANCH  11  12
ENDBRANCH  10  11
ENDBRANCH   1  10
TORSDOF 12
ENDMDL
MODEL 9
REMARK VINA RESULT:    -4.743      4.122      6.110
REMARK INTER + INTRA:          -9.277
REMARK INTER:                  -8.458
REMARK INTRA:                  -0.819
REMARK UNBOUND:                -1.207
REMARK SMILES CCCCCCCCCCCCCC(=O)[O-]
REMARK SMILES IDX 8 1 9 2 10 3 11 4 12 5 13 6 14 7 15 8 16 9 7 10 6 11 5 12
REMARK SMILES IDX 4 13 3 14 2 15 1 16
REMARK H PARENT
REMARK Flexibility Score: inf
ROOT
ATOM      1  C   UNL     1       6.241   0.766 -32.120  1.00  0.00     0.000 C 
ENDROOT
BRANCH   1   2
ATOM      2  C   UNL     1       7.392   1.575 -31.500  1.00  0.00     0.000 C 
BRANCH   2   3
ATOM      3  C   UNL     1       7.761   1.103 -30.082  1.00  0.00     0.000 C 
BRANCH   3   4
ATOM      4  C   UNL     1       6.566   0.814 -29.155  1.00  0.00     0.000 C 
BRANCH   4   5
ATOM      5  C   UNL     1       6.821  -0.359 -28.193  1.00  0.00     0.006 C 
BRANCH   5   6
ATOM      6  C   UNL     1       6.156  -1.656 -28.671  1.00  0.00     0.053 C 
BRANCH   6   7
ATOM      7  C   UNL     1       6.206  -2.722 -27.621  1.00  0.00     0.041 C 
ATOM      8  O   UNL     1       6.344  -3.930 -27.949  1.00  0.00    -0.550 OA
ATOM      9  O   UNL     1       6.135  -2.379 -26.277  1.00  0.00    -0.550 OA
ENDBRANCH   6   7
ENDBRANCH   5   6
ENDBRANCH   4   5
ENDBRANCH   3   4
ENDBRANCH   2   3
ENDBRANCH   1   2
BRANCH   1  10
ATOM     10  C   UNL     1       6.284   0.746 -33.659  1.00  0.00     0.000 C 
BRANCH  10  11
ATOM     11  C   UNL     1       7.312   1.701 -34.298  1.00  0.00    -0.000 C 
BRANCH  11  12
ATOM     12  C   UNL     1       8.174   1.086 -35.419  1.00  0.00    -0.000 C 
BRANCH  12  13
ATOM     13  C   UNL     1       9.659   1.494 -35.398  1.00  0.00    -0.000 C 
BRANCH  13  14
ATOM     14  C   UNL     1      10.274   1.431 -33.991  1.00  0.00    -0.000 C 
BRANCH  14  15
ATOM     15  C   UNL     1      11.768   1.793 -33.985  1.00  0.00    -0.003 C 
ATOM     16  C   UNL     1      12.221   2.464 -35.282  1.00  0.00     0.004 C 
ENDBRANCH  14  15
ENDBRANCH  13  14
ENDBRANCH  12  13
ENDBRANCH  11  12
ENDBRANCH  10  11
ENDBRANCH   1  10
TORSDOF 12
ENDMDL
