MODEL 1
REMARK VINA RESULT:    -4.413      0.000      0.000
REMARK INTER + INTRA:         -15.951
REMARK INTER:                 -11.636
REMARK INTRA:                  -4.315
REMARK UNBOUND:                -4.315
REMARK SMILES CCCCCCCCCCCCCCCCCCCCCCCCCCCCCC(=O)[O-]
REMARK SMILES IDX 16 1 17 2 18 3 19 4 20 5 21 6 22 7 23 8 24 9 25 10 26 11
REMARK SMILES IDX 27 12 28 13 29 14 30 15 31 16 32 17 15 18 14 19 13 20 12 21
REMARK SMILES IDX 11 22 10 23 9 24 8 25 7 26 6 27 5 28 4 29 3 30 2 31 1 32
REMARK H PARENT
REMARK Flexibility Score: inf
ROOT
ATOM      1  C   UNL     1     183.091 180.933 184.254  1.00  0.00     0.000 C 
ENDROOT
BRANCH   1   2
ATOM      2  C   UNL     1     181.680 181.377 183.823  1.00  0.00     0.000 C 
BRANCH   2   3
ATOM      3  C   UNL     1     181.374 182.878 184.020  1.00  0.00     0.000 C 
BRANCH   3   4
ATOM      4  C   UNL     1     180.376 183.485 183.014  1.00  0.00     0.000 C 
BRANCH   4   5
ATOM      5  C   UNL     1     179.004 183.872 183.604  1.00  0.00     0.000 C 
BRANCH   5   6
ATOM      6  C   UNL     1     177.794 183.427 182.765  1.00  0.00     0.000 C 
BRANCH   6   7
ATOM      7  C   UNL     1     178.180 183.048 181.323  1.00  0.00     0.000 C 
BRANCH   7   8
ATOM      8  C   UNL     1     177.932 181.562 181.017  1.00  0.00     0.000 C 
BRANCH   8   9
ATOM      9  C   UNL     1     178.021 180.674 182.269  1.00  0.00     0.000 C 
BRANCH   9  10
ATOM     10  C   UNL     1     176.755 179.824 182.484  1.00  0.00     0.000 C 
BRANCH  10  11
ATOM     11  C   UNL     1     176.725 178.495 181.703  1.00  0.00     0.000 C 
BRANCH  11  12
ATOM     12  C   UNL     1     175.586 177.530 182.096  1.00  0.00     0.000 C 
BRANCH  12  13
ATOM     13  C   UNL     1     175.977 176.041 182.123  1.00  0.00     0.006 C 
BRANCH  13  14
ATOM     14  C   UNL     1     174.954 175.168 182.859  1.00  0.00     0.053 C 
BRANCH  14  15
ATOM     15  C   UNL     1     174.383 175.900 184.033  1.00  0.00     0.041 C 
ATOM     16  O   UNL     1     173.158 176.189 184.062  1.00  0.00    -0.550 OA
ATOM     17  O   UNL     1     175.194 176.243 185.105  1.00  0.00    -0.550 OA
ENDBRANCH  14  15
ENDBRANCH  13  14
ENDBRANCH  12  13
ENDBRANCH  11  12
ENDBRANCH  10  11
ENDBRANCH   9  10
ENDBRANCH   8   9
ENDBRANCH   7   8
ENDBRANCH   6   7
ENDBRANCH   5   6
ENDBRANCH   4   5
ENDBRANCH   3   4
ENDBRANCH   2   3
ENDBRANCH   1   2
BRANCH   1  18
ATOM     18  C   UNL     1     183.958 180.472 183.071  1.00  0.00     0.000 C 
BRANCH  18  19
ATOM     19  C   UNL     1     185.363 180.010 183.502  1.00  0.00     0.000 C 
BRANCH  19  20
ATOM     20  C   UNL     1     186.511 180.608 182.660  1.00  0.00     0.000 C 
BRANCH  20  21
ATOM     21  C   UNL     1     185.993 181.395 181.443  1.00  0.00     0.000 C 
BRANCH  21  22
ATOM     22  C   UNL     1     186.533 182.836 181.391  1.00  0.00     0.000 C 
BRANCH  22  23
ATOM     23  C   UNL     1     185.662 183.886 182.109  1.00  0.00     0.000 C 
BRANCH  23  24
ATOM     24  C   UNL     1     184.139 183.719 181.925  1.00  0.00    -0.000 C 
BRANCH  24  25
ATOM     25  C   UNL     1     183.475 184.763 181.007  1.00  0.00    -0.000 C 
BRANCH  25  26
ATOM     26  C   UNL     1     182.267 184.195 180.244  1.00  0.00    -0.000 C 
BRANCH  26  27
ATOM     27  C   UNL     1     182.549 182.809 179.633  1.00  0.00    -0.000 C 
BRANCH  27  28
ATOM     28  C   UNL     1     181.421 182.274 178.733  1.00  0.00    -0.000 C 
BRANCH  28  29
ATOM     29  C   UNL     1     180.992 180.836 179.091  1.00  0.00    -0.000 C 
BRANCH  29  30
ATOM     30  C   UNL     1     181.538 180.360 180.452  1.00  0.00    -0.000 C 
BRANCH  30  31
ATOM     31  C   UNL     1     180.828 179.123 181.026  1.00  0.00    -0.003 C 
ATOM     32  C   UNL     1     181.782 177.998 181.426  1.00  0.00     0.004 C 
ENDBRANCH  30  31
ENDBRANCH  29  30
ENDBRANCH  28  29
ENDBRANCH  27  28
ENDBRANCH  26  27
ENDBRANCH  25  26
ENDBRANCH  24  25
ENDBRANCH  23  24
ENDBRANCH  22  23
ENDBRANCH  21  22
ENDBRANCH  20  21
ENDBRANCH  19  20
ENDBRANCH  18  19
ENDBRANCH   1  18
TORSDOF 28
ENDMDL
MODEL 2
REMARK VINA RESULT:    -4.397      5.175      9.789
REMARK INTER + INTRA:         -15.910
REMARK INTER:                 -11.557
REMARK INTRA:                  -4.354
REMARK UNBOUND:                -4.315
REMARK SMILES CCCCCCCCCCCCCCCCCCCCCCCCCCCCCC(=O)[O-]
REMARK SMILES IDX 16 1 17 2 18 3 19 4 20 5 21 6 22 7 23 8 24 9 25 10 26 11
REMARK SMILES IDX 27 12 28 13 29 14 30 15 31 16 32 17 15 18 14 19 13 20 12 21
REMARK SMILES IDX 11 22 10 23 9 24 8 25 7 26 6 27 5 28 4 29 3 30 2 31 1 32
REMARK H PARENT
REMARK Flexibility Score: inf
ROOT
ATOM      1  C   UNL     1     179.503 183.495 182.866  1.00  0.00     0.000 C 
ENDROOT
BRANCH   1   2
ATOM      2  C   UNL     1     180.997 183.322 183.202  1.00  0.00     0.000 C 
BRANCH   2   3
ATOM      3  C   UNL     1     181.297 182.859 184.644  1.00  0.00     0.000 C 
BRANCH   3   4
ATOM      4  C   UNL     1     182.179 181.600 184.763  1.00  0.00     0.000 C 
BRANCH   4   5
ATOM      5  C   UNL     1     182.982 181.241 183.496  1.00  0.00     0.000 C 
BRANCH   5   6
ATOM      6  C   UNL     1     184.043 180.145 183.695  1.00  0.00     0.000 C 
BRANCH   6   7
ATOM      7  C   UNL     1     185.394 180.504 183.049  1.00  0.00     0.000 C 
BRANCH   7   8
ATOM      8  C   UNL     1     185.265 180.823 181.551  1.00  0.00     0.000 C 
BRANCH   8   9
ATOM      9  C   UNL     1     186.163 181.992 181.113  1.00  0.00     0.000 C 
BRANCH   9  10
ATOM     10  C   UNL     1     185.785 183.319 181.796  1.00  0.00     0.000 C 
BRANCH  10  11
ATOM     11  C   UNL     1     186.981 184.166 182.277  1.00  0.00     0.000 C 
BRANCH  11  12
ATOM     12  C   UNL     1     187.272 185.425 181.433  1.00  0.00     0.000 C 
BRANCH  12  13
ATOM     13  C   UNL     1     188.608 186.123 181.749  1.00  0.00     0.006 C 
BRANCH  13  14
ATOM     14  C   UNL     1     188.438 187.603 182.111  1.00  0.00     0.053 C 
BRANCH  14  15
ATOM     15  C   UNL     1     189.400 187.997 183.187  1.00  0.00     0.041 C 
ATOM     16  O   UNL     1     189.032 188.008 184.390  1.00  0.00    -0.550 OA
ATOM     17  O   UNL     1     190.709 188.330 182.867  1.00  0.00    -0.550 OA
ENDBRANCH  14  15
ENDBRANCH  13  14
ENDBRANCH  12  13
ENDBRANCH  11  12
ENDBRANCH  10  11
ENDBRANCH   9  10
ENDBRANCH   8   9
ENDBRANCH   7   8
ENDBRANCH   6   7
ENDBRANCH   5   6
ENDBRANCH   4   5
ENDBRANCH   3   4
ENDBRANCH   2   3
ENDBRANCH   1   2
BRANCH   1  18
ATOM     18  C   UNL     1     179.229 183.508 181.354  1.00  0.00     0.000 C 
BRANCH  18  19
ATOM     19  C   UNL     1     178.354 182.327 180.893  1.00  0.00     0.000 C 
BRANCH  19  20
ATOM     20  C   UNL     1     177.676 181.556 182.046  1.00  0.00     0.000 C 
BRANCH  20  21
ATOM     21  C   UNL     1     178.215 180.122 182.186  1.00  0.00     0.000 C 
BRANCH  21  22
ATOM     22  C   UNL     1     179.746 180.043 182.048  1.00  0.00     0.000 C 
BRANCH  22  23
ATOM     23  C   UNL     1     180.267 178.840 181.235  1.00  0.00     0.000 C 
BRANCH  23  24
ATOM     24  C   UNL     1     181.737 178.936 180.780  1.00  0.00    -0.000 C 
BRANCH  24  25
ATOM     25  C   UNL     1     182.152 180.301 180.199  1.00  0.00    -0.000 C 
BRANCH  25  26
ATOM     26  C   UNL     1     181.223 180.769 179.066  1.00  0.00    -0.000 C 
BRANCH  26  27
ATOM     27  C   UNL     1     181.545 182.198 178.588  1.00  0.00    -0.000 C 
BRANCH  27  28
ATOM     28  C   UNL     1     182.929 182.712 179.024  1.00  0.00    -0.000 C 
BRANCH  28  29
ATOM     29  C   UNL     1     182.891 183.490 180.357  1.00  0.00    -0.000 C 
BRANCH  29  30
ATOM     30  C   UNL     1     182.357 184.928 180.207  1.00  0.00    -0.000 C 
BRANCH  30  31
ATOM     31  C   UNL     1     182.994 185.947 181.167  1.00  0.00    -0.003 C 
ATOM     32  C   UNL     1     182.013 186.996 181.688  1.00  0.00     0.004 C 
ENDBRANCH  30  31
ENDBRANCH  29  30
ENDBRANCH  28  29
ENDBRANCH  27  28
ENDBRANCH  26  27
ENDBRANCH  25  26
ENDBRANCH  24  25
ENDBRANCH  23  24
ENDBRANCH  22  23
ENDBRANCH  21  22
ENDBRANCH  20  21
ENDBRANCH  19  20
ENDBRANCH  18  19
ENDBRANCH   1  18
TORSDOF 28
ENDMDL
MODEL 3
REMARK VINA RESULT:    -4.358      3.149      6.418
REMARK INTER + INTRA:         -15.806
REMARK INTER:                 -11.149
REMARK INTRA:                  -4.658
REMARK UNBOUND:                -4.315
REMARK SMILES CCCCCCCCCCCCCCCCCCCCCCCCCCCCCC(=O)[O-]
REMARK SMILES IDX 16 1 17 2 18 3 19 4 20 5 21 6 22 7 23 8 24 9 25 10 26 11
REMARK SMILES IDX 27 12 28 13 29 14 30 15 31 16 32 17 15 18 14 19 13 20 12 21
REMARK SMILES IDX 11 22 10 23 9 24 8 25 7 26 6 27 5 28 4 29 3 30 2 31 1 32
REMARK H PARENT
REMARK Flexibility Score: inf
ROOT
ATOM      1  C   UNL     1     181.326 183.756 182.121  1.00  0.00     0.000 C 
ENDROOT
BRANCH   1   2
ATOM      2  C   UNL     1     181.527 184.183 180.654  1.00  0.00     0.000 C 
BRANCH   2   3
ATOM      3  C   UNL     1     182.935 183.912 180.078  1.00  0.00     0.000 C 
BRANCH   3   4
ATOM      4  C   UNL     1     183.007 182.803 179.009  1.00  0.00     0.000 C 
BRANCH   4   5
ATOM      5  C   UNL     1     181.647 182.210 178.587  1.00  0.00     0.000 C 
BRANCH   5   6
ATOM      6  C   UNL     1     181.428 180.745 179.000  1.00  0.00     0.000 C 
BRANCH   6   7
ATOM      7  C   UNL     1     182.402 180.288 180.101  1.00  0.00     0.000 C 
BRANCH   7   8
ATOM      8  C   UNL     1     181.937 179.001 180.803  1.00  0.00     0.000 C 
BRANCH   8   9
ATOM      9  C   UNL     1     180.422 178.980 181.063  1.00  0.00     0.000 C 
BRANCH   9  10
ATOM     10  C   UNL     1     179.977 180.069 182.057  1.00  0.00     0.000 C 
BRANCH  10  11
ATOM     11  C   UNL     1     178.555 180.619 181.824  1.00  0.00     0.000 C 
BRANCH  11  12
ATOM     12  C   UNL     1     178.472 181.838 180.881  1.00  0.00     0.000 C 
BRANCH  12  13
ATOM     13  C   UNL     1     177.868 183.107 181.512  1.00  0.00     0.006 C 
BRANCH  13  14
ATOM     14  C   UNL     1     177.173 182.835 182.851  1.00  0.00     0.053 C 
BRANCH  14  15
ATOM     15  C   UNL     1     177.461 183.932 183.827  1.00  0.00     0.041 C 
ATOM     16  O   UNL     1     176.515 184.516 184.417  1.00  0.00    -0.550 OA
ATOM     17  O   UNL     1     178.771 184.293 184.106  1.00  0.00    -0.550 OA
ENDBRANCH  14  15
ENDBRANCH  13  14
ENDBRANCH  12  13
ENDBRANCH  11  12
ENDBRANCH  10  11
ENDBRANCH   9  10
ENDBRANCH   8   9
ENDBRANCH   7   8
ENDBRANCH   6   7
ENDBRANCH   5   6
ENDBRANCH   4   5
ENDBRANCH   3   4
ENDBRANCH   2   3
ENDBRANCH   1   2
BRANCH   1  18
ATOM     18  C   UNL     1     182.346 182.703 182.582  1.00  0.00     0.000 C 
BRANCH  18  19
ATOM     19  C   UNL     1     182.162 182.295 184.056  1.00  0.00     0.000 C 
BRANCH  19  20
ATOM     20  C   UNL     1     182.771 180.922 184.412  1.00  0.00     0.000 C 
BRANCH  20  21
ATOM     21  C   UNL     1     183.694 180.387 183.302  1.00  0.00     0.000 C 
BRANCH  21  22
ATOM     22  C   UNL     1     185.124 180.106 183.799  1.00  0.00     0.000 C 
BRANCH  22  23
ATOM     23  C   UNL     1     186.247 180.581 182.855  1.00  0.00     0.000 C 
BRANCH  23  24
ATOM     24  C   UNL     1     185.816 180.857 181.401  1.00  0.00    -0.000 C 
BRANCH  24  25
ATOM     25  C   UNL     1     185.951 182.323 180.947  1.00  0.00    -0.000 C 
BRANCH  25  26
ATOM     26  C   UNL     1     185.903 183.313 182.123  1.00  0.00    -0.000 C 
BRANCH  26  27
ATOM     27  C   UNL     1     187.225 184.086 182.300  1.00  0.00    -0.000 C 
BRANCH  27  28
ATOM     28  C   UNL     1     187.292 185.409 181.516  1.00  0.00    -0.000 C 
BRANCH  28  29
ATOM     29  C   UNL     1     188.604 186.186 181.756  1.00  0.00    -0.000 C 
BRANCH  29  30
ATOM     30  C   UNL     1     188.392 187.706 181.899  1.00  0.00    -0.000 C 
BRANCH  30  31
ATOM     31  C   UNL     1     189.234 188.365 183.004  1.00  0.00    -0.003 C 
ATOM     32  C   UNL     1     188.879 187.891 184.412  1.00  0.00     0.004 C 
ENDBRANCH  30  31
ENDBRANCH  29  30
ENDBRANCH  28  29
ENDBRANCH  27  28
ENDBRANCH  26  27
ENDBRANCH  25  26
ENDBRANCH  24  25
ENDBRANCH  23  24
ENDBRANCH  22  23
ENDBRANCH  21  22
ENDBRANCH  20  21
ENDBRANCH  19  20
ENDBRANCH  18  19
ENDBRANCH   1  18
TORSDOF 28
ENDMDL
MODEL 4
REMARK VINA RESULT:    -4.293      3.905      7.820
REMARK INTER + INTRA:         -15.635
REMARK INTER:                 -11.380
REMARK INTRA:                  -4.255
REMARK UNBOUND:                -4.315
REMARK SMILES CCCCCCCCCCCCCCCCCCCCCCCCCCCCCC(=O)[O-]
REMARK SMILES IDX 16 1 17 2 18 3 19 4 20 5 21 6 22 7 23 8 24 9 25 10 26 11
REMARK SMILES IDX 27 12 28 13 29 14 30 15 31 16 32 17 15 18 14 19 13 20 12 21
REMARK SMILES IDX 11 22 10 23 9 24 8 25 7 26 6 27 5 28 4 29 3 30 2 31 1 32
REMARK H PARENT
REMARK Flexibility Score: inf
ROOT
ATOM      1  C   UNL     1     178.434 183.516 182.943  1.00  0.00     0.000 C 
ENDROOT
BRANCH   1   2
ATOM      2  C   UNL     1     178.920 183.123 181.534  1.00  0.00     0.000 C 
BRANCH   2   3
ATOM      3  C   UNL     1     178.079 182.037 180.827  1.00  0.00     0.000 C 
BRANCH   3   4
ATOM      4  C   UNL     1     177.426 180.997 181.761  1.00  0.00     0.000 C 
BRANCH   4   5
ATOM      5  C   UNL     1     178.325 179.802 182.138  1.00  0.00     0.000 C 
BRANCH   5   6
ATOM      6  C   UNL     1     179.827 180.025 181.898  1.00  0.00     0.000 C 
BRANCH   6   7
ATOM      7  C   UNL     1     180.534 178.770 181.353  1.00  0.00     0.000 C 
BRANCH   7   8
ATOM      8  C   UNL     1     181.797 179.108 180.544  1.00  0.00     0.000 C 
BRANCH   8   9
ATOM      9  C   UNL     1     181.895 180.602 180.193  1.00  0.00     0.000 C 
BRANCH   9  10
ATOM     10  C   UNL     1     181.399 180.910 178.768  1.00  0.00     0.000 C 
BRANCH  10  11
ATOM     11  C   UNL     1     181.900 182.244 178.180  1.00  0.00     0.000 C 
BRANCH  11  12
ATOM     12  C   UNL     1     182.875 183.031 179.080  1.00  0.00     0.000 C 
BRANCH  12  13
ATOM     13  C   UNL     1     182.208 183.838 180.210  1.00  0.00     0.006 C 
BRANCH  13  14
ATOM     14  C   UNL     1     183.221 184.511 181.143  1.00  0.00     0.053 C 
BRANCH  14  15
ATOM     15  C   UNL     1     183.132 186.001 181.032  1.00  0.00     0.041 C 
ATOM     16  O   UNL     1     183.988 186.636 180.365  1.00  0.00    -0.550 OA
ATOM     17  O   UNL     1     182.092 186.686 181.644  1.00  0.00    -0.550 OA
ENDBRANCH  14  15
ENDBRANCH  13  14
ENDBRANCH  12  13
ENDBRANCH  11  12
ENDBRANCH  10  11
ENDBRANCH   9  10
ENDBRANCH   8   9
ENDBRANCH   7   8
ENDBRANCH   6   7
ENDBRANCH   5   6
ENDBRANCH   4   5
ENDBRANCH   3   4
ENDBRANCH   2   3
ENDBRANCH   1   2
BRANCH   1  18
ATOM     18  C   UNL     1     179.579 183.960 183.866  1.00  0.00     0.000 C 
BRANCH  18  19
ATOM     19  C   UNL     1     180.915 183.266 183.541  1.00  0.00     0.000 C 
BRANCH  19  20
ATOM     20  C   UNL     1     181.684 182.764 184.783  1.00  0.00     0.000 C 
BRANCH  20  21
ATOM     21  C   UNL     1     182.242 181.343 184.590  1.00  0.00     0.000 C 
BRANCH  21  22
ATOM     22  C   UNL     1     183.125 181.213 183.334  1.00  0.00     0.000 C 
BRANCH  22  23
ATOM     23  C   UNL     1     184.277 180.196 183.450  1.00  0.00     0.000 C 
BRANCH  23  24
ATOM     24  C   UNL     1     185.534 180.524 182.618  1.00  0.00    -0.000 C 
BRANCH  24  25
ATOM     25  C   UNL     1     185.261 180.942 181.161  1.00  0.00    -0.000 C 
BRANCH  25  26
ATOM     26  C   UNL     1     185.885 182.303 180.809  1.00  0.00    -0.000 C 
BRANCH  26  27
ATOM     27  C   UNL     1     186.681 182.910 181.981  1.00  0.00    -0.000 C 
BRANCH  27  28
ATOM     28  C   UNL     1     186.659 184.449 182.028  1.00  0.00    -0.000 C 
BRANCH  28  29
ATOM     29  C   UNL     1     188.022 185.083 181.676  1.00  0.00    -0.000 C 
BRANCH  29  30
ATOM     30  C   UNL     1     188.012 186.622 181.742  1.00  0.00    -0.000 C 
BRANCH  30  31
ATOM     31  C   UNL     1     189.128 187.231 182.607  1.00  0.00    -0.003 C 
ATOM     32  C   UNL     1     189.128 188.759 182.624  1.00  0.00     0.004 C 
ENDBRANCH  30  31
ENDBRANCH  29  30
ENDBRANCH  28  29
ENDBRANCH  27  28
ENDBRANCH  26  27
ENDBRANCH  25  26
ENDBRANCH  24  25
ENDBRANCH  23  24
ENDBRANCH  22  23
ENDBRANCH  21  22
ENDBRANCH  20  21
ENDBRANCH  19  20
ENDBRANCH  18  19
ENDBRANCH   1  18
TORSDOF 28
ENDMDL
MODEL 5
REMARK VINA RESULT:    -4.256      0.908      3.551
REMARK INTER + INTRA:         -15.537
REMARK INTER:                 -11.194
REMARK INTRA:                  -4.343
REMARK UNBOUND:                -4.315
REMARK SMILES CCCCCCCCCCCCCCCCCCCCCCCCCCCCCC(=O)[O-]
REMARK SMILES IDX 16 1 17 2 18 3 19 4 20 5 21 6 22 7 23 8 24 9 25 10 26 11
REMARK SMILES IDX 27 12 28 13 29 14 30 15 31 16 32 17 15 18 14 19 13 20 12 21
REMARK SMILES IDX 11 22 10 23 9 24 8 25 7 26 6 27 5 28 4 29 3 30 2 31 1 32
REMARK H PARENT
REMARK Flexibility Score: inf
ROOT
ATOM      1  C   UNL     1     183.410 179.957 183.165  1.00  0.00     0.000 C 
ENDROOT
BRANCH   1   2
ATOM      2  C   UNL     1     182.976 181.146 184.044  1.00  0.00     0.000 C 
BRANCH   2   3
ATOM      3  C   UNL     1     181.505 181.585 183.875  1.00  0.00     0.000 C 
BRANCH   3   4
ATOM      4  C   UNL     1     181.268 183.109 183.864  1.00  0.00     0.000 C 
BRANCH   4   5
ATOM      5  C   UNL     1     180.168 183.595 182.898  1.00  0.00     0.000 C 
BRANCH   5   6
ATOM      6  C   UNL     1     178.857 184.023 183.579  1.00  0.00     0.000 C 
BRANCH   6   7
ATOM      7  C   UNL     1     177.612 183.438 182.888  1.00  0.00     0.000 C 
BRANCH   7   8
ATOM      8  C   UNL     1     177.920 182.881 181.489  1.00  0.00     0.000 C 
BRANCH   8   9
ATOM      9  C   UNL     1     177.354 181.467 181.275  1.00  0.00     0.000 C 
BRANCH   9  10
ATOM     10  C   UNL     1     177.918 180.444 182.279  1.00  0.00     0.000 C 
BRANCH  10  11
ATOM     11  C   UNL     1     177.097 179.146 182.413  1.00  0.00     0.000 C 
BRANCH  11  12
ATOM     12  C   UNL     1     175.649 179.229 181.884  1.00  0.00     0.000 C 
BRANCH  12  13
ATOM     13  C   UNL     1     174.850 177.915 181.973  1.00  0.00     0.006 C 
BRANCH  13  14
ATOM     14  C   UNL     1     175.709 176.721 182.402  1.00  0.00     0.053 C 
BRANCH  14  15
ATOM     15  C   UNL     1     174.935 175.809 183.301  1.00  0.00     0.041 C 
ATOM     16  O   UNL     1     174.882 176.037 184.537  1.00  0.00    -0.550 OA
ATOM     17  O   UNL     1     174.253 174.721 182.774  1.00  0.00    -0.550 OA
ENDBRANCH  14  15
ENDBRANCH  13  14
ENDBRANCH  12  13
ENDBRANCH  11  12
ENDBRANCH  10  11
ENDBRANCH   9  10
ENDBRANCH   8   9
ENDBRANCH   7   8
ENDBRANCH   6   7
ENDBRANCH   5   6
ENDBRANCH   4   5
ENDBRANCH   3   4
ENDBRANCH   2   3
ENDBRANCH   1   2
BRANCH   1  18
ATOM     18  C   UNL     1     183.014 180.129 181.690  1.00  0.00     0.000 C 
BRANCH  18  19
ATOM     19  C   UNL     1     182.013 179.061 181.210  1.00  0.00     0.000 C 
BRANCH  19  20
ATOM     20  C   UNL     1     180.711 179.639 180.613  1.00  0.00     0.000 C 
BRANCH  20  21
ATOM     21  C   UNL     1     180.870 181.105 180.174  1.00  0.00     0.000 C 
BRANCH  21  22
ATOM     22  C   UNL     1     180.881 181.272 178.644  1.00  0.00     0.000 C 
BRANCH  22  23
ATOM     23  C   UNL     1     182.020 182.152 178.092  1.00  0.00     0.000 C 
BRANCH  23  24
ATOM     24  C   UNL     1     183.132 182.504 179.101  1.00  0.00    -0.000 C 
BRANCH  24  25
ATOM     25  C   UNL     1     182.834 183.714 180.006  1.00  0.00    -0.000 C 
BRANCH  25  26
ATOM     26  C   UNL     1     183.451 183.572 181.407  1.00  0.00    -0.000 C 
BRANCH  26  27
ATOM     27  C   UNL     1     184.851 184.207 181.504  1.00  0.00    -0.000 C 
BRANCH  27  28
ATOM     28  C   UNL     1     185.965 183.221 181.902  1.00  0.00    -0.000 C 
BRANCH  28  29
ATOM     29  C   UNL     1     185.897 181.888 181.126  1.00  0.00    -0.000 C 
BRANCH  29  30
ATOM     30  C   UNL     1     186.691 180.752 181.800  1.00  0.00    -0.000 C 
BRANCH  30  31
ATOM     31  C   UNL     1     186.896 180.927 183.313  1.00  0.00    -0.003 C 
ATOM     32  C   UNL     1     186.872 179.614 184.093  1.00  0.00     0.004 C 
ENDBRANCH  30  31
ENDBRANCH  29  30
ENDBRANCH  28  29
ENDBRANCH  27  28
ENDBRANCH  26  27
ENDBRANCH  25  26
ENDBRANCH  24  25
ENDBRANCH  23  24
ENDBRANCH  22  23
ENDBRANCH  21  22
ENDBRANCH  20  21
ENDBRANCH  19  20
ENDBRANCH  18  19
ENDBRANCH   1  18
TORSDOF 28
ENDMDL
MODEL 6
REMARK VINA RESULT:    -4.243      1.947      6.530
REMARK INTER + INTRA:         -15.504
REMARK INTER:                 -11.757
REMARK INTRA:                  -3.747
REMARK UNBOUND:                -4.315
REMARK SMILES CCCCCCCCCCCCCCCCCCCCCCCCCCCCCC(=O)[O-]
REMARK SMILES IDX 16 1 17 2 18 3 19 4 20 5 21 6 22 7 23 8 24 9 25 10 26 11
REMARK SMILES IDX 27 12 28 13 29 14 30 15 31 16 32 17 15 18 14 19 13 20 12 21
REMARK SMILES IDX 11 22 10 23 9 24 8 25 7 26 6 27 5 28 4 29 3 30 2 31 1 32
REMARK H PARENT
REMARK Flexibility Score: inf
ROOT
ATOM      1  C   UNL     1     184.544 180.364 182.839  1.00  0.00     0.000 C 
ENDROOT
BRANCH   1   2
ATOM      2  C   UNL     1     184.424 180.565 181.316  1.00  0.00     0.000 C 
BRANCH   2   3
ATOM      3  C   UNL     1     185.458 181.530 180.697  1.00  0.00     0.000 C 
BRANCH   3   4
ATOM      4  C   UNL     1     186.411 182.209 181.702  1.00  0.00     0.000 C 
BRANCH   4   5
ATOM      5  C   UNL     1     186.126 183.701 181.970  1.00  0.00     0.000 C 
BRANCH   5   6
ATOM      6  C   UNL     1     184.635 184.058 182.096  1.00  0.00     0.000 C 
BRANCH   6   7
ATOM      7  C   UNL     1     184.094 184.788 180.853  1.00  0.00     0.000 C 
BRANCH   7   8
ATOM      8  C   UNL     1     182.566 184.959 180.888  1.00  0.00     0.000 C 
BRANCH   8   9
ATOM      9  C   UNL     1     181.820 183.760 180.278  1.00  0.00     0.000 C 
BRANCH   9  10
ATOM     10  C   UNL     1     182.650 183.028 179.207  1.00  0.00     0.000 C 
BRANCH  10  11
ATOM     11  C   UNL     1     181.989 181.762 178.626  1.00  0.00     0.000 C 
BRANCH  11  12
ATOM     12  C   UNL     1     180.683 181.327 179.323  1.00  0.00     0.000 C 
BRANCH  12  13
ATOM     13  C   UNL     1     180.878 180.502 180.609  1.00  0.00     0.006 C 
BRANCH  13  14
ATOM     14  C   UNL     1     181.787 179.285 180.406  1.00  0.00     0.053 C 
BRANCH  14  15
ATOM     15  C   UNL     1     181.209 178.076 181.074  1.00  0.00     0.041 C 
ATOM     16  O   UNL     1     181.856 177.483 181.975  1.00  0.00    -0.550 OA
ATOM     17  O   UNL     1     179.947 177.619 180.721  1.00  0.00    -0.550 OA
ENDBRANCH  14  15
ENDBRANCH  13  14
ENDBRANCH  12  13
ENDBRANCH  11  12
ENDBRANCH  10  11
ENDBRANCH   9  10
ENDBRANCH   8   9
ENDBRANCH   7   8
ENDBRANCH   6   7
ENDBRANCH   5   6
ENDBRANCH   4   5
ENDBRANCH   3   4
ENDBRANCH   2   3
ENDBRANCH   1   2
BRANCH   1  18
ATOM     18  C   UNL     1     183.200 180.513 183.569  1.00  0.00     0.000 C 
BRANCH  18  19
ATOM     19  C   UNL     1     182.748 181.980 183.698  1.00  0.00     0.000 C 
BRANCH  19  20
ATOM     20  C   UNL     1     181.736 182.232 184.836  1.00  0.00     0.000 C 
BRANCH  20  21
ATOM     21  C   UNL     1     180.788 183.403 184.527  1.00  0.00     0.000 C 
BRANCH  21  22
ATOM     22  C   UNL     1     180.322 183.424 183.060  1.00  0.00     0.000 C 
BRANCH  22  23
ATOM     23  C   UNL     1     178.794 183.370 182.859  1.00  0.00     0.000 C 
BRANCH  23  24
ATOM     24  C   UNL     1     178.326 183.078 181.419  1.00  0.00    -0.000 C 
BRANCH  24  25
ATOM     25  C   UNL     1     177.479 181.803 181.254  1.00  0.00    -0.000 C 
BRANCH  25  26
ATOM     26  C   UNL     1     177.938 180.663 182.178  1.00  0.00    -0.000 C 
BRANCH  26  27
ATOM     27  C   UNL     1     176.778 179.744 182.607  1.00  0.00    -0.000 C 
BRANCH  27  28
ATOM     28  C   UNL     1     176.610 178.489 181.730  1.00  0.00    -0.000 C 
BRANCH  28  29
ATOM     29  C   UNL     1     175.366 177.655 182.102  1.00  0.00    -0.000 C 
BRANCH  29  30
ATOM     30  C   UNL     1     175.690 176.176 182.392  1.00  0.00    -0.000 C 
BRANCH  30  31
ATOM     31  C   UNL     1     174.957 175.590 183.610  1.00  0.00    -0.003 C 
ATOM     32  C   UNL     1     173.452 175.854 183.606  1.00  0.00     0.004 C 
ENDBRANCH  30  31
ENDBRANCH  29  30
ENDBRANCH  28  29
ENDBRANCH  27  28
ENDBRANCH  26  27
ENDBRANCH  25  26
ENDBRANCH  24  25
ENDBRANCH  23  24
ENDBRANCH  22  23
ENDBRANCH  21  22
ENDBRANCH  20  21
ENDBRANCH  19  20
ENDBRANCH  18  19
ENDBRANCH   1  18
TORSDOF 28
ENDMDL
MODEL 7
REMARK VINA RESULT:    -4.236      5.165      9.591
REMARK INTER + INTRA:         -15.484
REMARK INTER:                 -11.264
REMARK INTRA:                  -4.220
REMARK UNBOUND:                -4.315
REMARK SMILES CCCCCCCCCCCCCCCCCCCCCCCCCCCCCC(=O)[O-]
REMARK SMILES IDX 16 1 17 2 18 3 19 4 20 5 21 6 22 7 23 8 24 9 25 10 26 11
REMARK SMILES IDX 27 12 28 13 29 14 30 15 31 16 32 17 15 18 14 19 13 20 12 21
REMARK SMILES IDX 11 22 10 23 9 24 8 25 7 26 6 27 5 28 4 29 3 30 2 31 1 32
REMARK H PARENT
REMARK Flexibility Score: inf
ROOT
ATOM      1  C   UNL     1     180.932 184.175 181.708  1.00  0.00     0.000 C 
ENDROOT
BRANCH   1   2
ATOM      2  C   UNL     1     180.810 184.157 183.244  1.00  0.00     0.000 C 
BRANCH   2   3
ATOM      3  C   UNL     1     181.119 182.799 183.913  1.00  0.00     0.000 C 
BRANCH   3   4
ATOM      4  C   UNL     1     182.592 182.348 183.839  1.00  0.00     0.000 C 
BRANCH   4   5
ATOM      5  C   UNL     1     182.805 180.827 183.700  1.00  0.00     0.000 C 
BRANCH   5   6
ATOM      6  C   UNL     1     183.863 180.418 182.661  1.00  0.00     0.000 C 
BRANCH   6   7
ATOM      7  C   UNL     1     185.192 179.986 183.308  1.00  0.00     0.000 C 
BRANCH   7   8
ATOM      8  C   UNL     1     186.341 180.961 183.003  1.00  0.00     0.000 C 
BRANCH   8   9
ATOM      9  C   UNL     1     186.486 181.260 181.501  1.00  0.00     0.000 C 
BRANCH   9  10
ATOM     10  C   UNL     1     186.322 182.755 181.176  1.00  0.00     0.000 C 
BRANCH  10  11
ATOM     11  C   UNL     1     186.905 183.717 182.231  1.00  0.00     0.000 C 
BRANCH  11  12
ATOM     12  C   UNL     1     186.943 185.202 181.813  1.00  0.00     0.000 C 
BRANCH  12  13
ATOM     13  C   UNL     1     188.340 185.850 181.847  1.00  0.00     0.006 C 
BRANCH  13  14
ATOM     14  C   UNL     1     188.288 187.382 181.859  1.00  0.00     0.053 C 
BRANCH  14  15
ATOM     15  C   UNL     1     189.203 187.934 182.907  1.00  0.00     0.041 C 
ATOM     16  O   UNL     1     188.852 187.930 184.115  1.00  0.00    -0.550 OA
ATOM     17  O   UNL     1     190.450 188.430 182.556  1.00  0.00    -0.550 OA
ENDBRANCH  14  15
ENDBRANCH  13  14
ENDBRANCH  12  13
ENDBRANCH  11  12
ENDBRANCH  10  11
ENDBRANCH   9  10
ENDBRANCH   8   9
ENDBRANCH   7   8
ENDBRANCH   6   7
ENDBRANCH   5   6
ENDBRANCH   4   5
ENDBRANCH   3   4
ENDBRANCH   2   3
ENDBRANCH   1   2
BRANCH   1  18
ATOM     18  C   UNL     1     181.962 185.199 181.204  1.00  0.00     0.000 C 
BRANCH  18  19
ATOM     19  C   UNL     1     183.212 184.540 180.590  1.00  0.00     0.000 C 
BRANCH  19  20
ATOM     20  C   UNL     1     183.057 183.029 180.311  1.00  0.00     0.000 C 
BRANCH  20  21
ATOM     21  C   UNL     1     183.152 182.699 178.812  1.00  0.00     0.000 C 
BRANCH  21  22
ATOM     22  C   UNL     1     182.092 181.679 178.356  1.00  0.00     0.000 C 
BRANCH  22  23
ATOM     23  C   UNL     1     181.097 181.240 179.449  1.00  0.00     0.000 C 
BRANCH  23  24
ATOM     24  C   UNL     1     181.330 179.828 180.024  1.00  0.00    -0.000 C 
BRANCH  24  25
ATOM     25  C   UNL     1     180.413 179.445 181.202  1.00  0.00    -0.000 C 
BRANCH  25  26
ATOM     26  C   UNL     1     179.702 180.661 181.818  1.00  0.00    -0.000 C 
BRANCH  26  27
ATOM     27  C   UNL     1     178.217 180.385 182.126  1.00  0.00    -0.000 C 
BRANCH  27  28
ATOM     28  C   UNL     1     177.236 181.302 181.374  1.00  0.00    -0.000 C 
BRANCH  28  29
ATOM     29  C   UNL     1     177.444 182.799 181.690  1.00  0.00    -0.000 C 
BRANCH  29  30
ATOM     30  C   UNL     1     177.714 183.073 183.183  1.00  0.00    -0.000 C 
BRANCH  30  31
ATOM     31  C   UNL     1     176.899 184.234 183.775  1.00  0.00    -0.003 C 
ATOM     32  C   UNL     1     177.591 184.940 184.940  1.00  0.00     0.004 C 
ENDBRANCH  30  31
ENDBRANCH  29  30
ENDBRANCH  28  29
ENDBRANCH  27  28
ENDBRANCH  26  27
ENDBRANCH  25  26
ENDBRANCH  24  25
ENDBRANCH  23  24
ENDBRANCH  22  23
ENDBRANCH  21  22
ENDBRANCH  20  21
ENDBRANCH  19  20
ENDBRANCH  18  19
ENDBRANCH   1  18
TORSDOF 28
ENDMDL
MODEL 8
REMARK VINA RESULT:    -4.155      0.863      3.028
REMARK INTER + INTRA:         -15.271
REMARK INTER:                 -11.051
REMARK INTRA:                  -4.220
REMARK UNBOUND:                -4.315
REMARK SMILES CCCCCCCCCCCCCCCCCCCCCCCCCCCCCC(=O)[O-]
REMARK SMILES IDX 16 1 17 2 18 3 19 4 20 5 21 6 22 7 23 8 24 9 25 10 26 11
REMARK SMILES IDX 27 12 28 13 29 14 30 15 31 16 32 17 15 18 14 19 13 20 12 21
REMARK SMILES IDX 11 22 10 23 9 24 8 25 7 26 6 27 5 28 4 29 3 30 2 31 1 32
REMARK H PARENT
REMARK Flexibility Score: inf
ROOT
ATOM      1  C   UNL     1     181.609 184.791 180.544  1.00  0.00     0.000 C 
ENDROOT
BRANCH   1   2
ATOM      2  C   UNL     1     180.548 184.181 181.480  1.00  0.00     0.000 C 
BRANCH   2   3
ATOM      3  C   UNL     1     181.077 183.696 182.847  1.00  0.00     0.000 C 
BRANCH   3   4
ATOM      4  C   UNL     1     180.003 183.487 183.934  1.00  0.00     0.000 C 
BRANCH   4   5
ATOM      5  C   UNL     1     178.653 184.182 183.663  1.00  0.00     0.000 C 
BRANCH   5   6
ATOM      6  C   UNL     1     177.533 183.245 183.179  1.00  0.00     0.000 C 
BRANCH   6   7
ATOM      7  C   UNL     1     177.499 183.104 181.647  1.00  0.00     0.000 C 
BRANCH   7   8
ATOM      8  C   UNL     1     177.542 181.637 181.188  1.00  0.00     0.000 C 
BRANCH   8   9
ATOM      9  C   UNL     1     178.197 180.709 182.225  1.00  0.00     0.000 C 
BRANCH   9  10
ATOM     10  C   UNL     1     177.358 179.448 182.505  1.00  0.00     0.000 C 
BRANCH  10  11
ATOM     11  C   UNL     1     176.027 179.368 181.730  1.00  0.00     0.000 C 
BRANCH  11  12
ATOM     12  C   UNL     1     175.235 178.058 181.924  1.00  0.00     0.000 C 
BRANCH  12  13
ATOM     13  C   UNL     1     176.101 176.797 182.106  1.00  0.00     0.006 C 
BRANCH  13  14
ATOM     14  C   UNL     1     175.307 175.599 182.639  1.00  0.00     0.053 C 
BRANCH  14  15
ATOM     15  C   UNL     1     174.608 175.954 183.913  1.00  0.00     0.041 C 
ATOM     16  O   UNL     1     175.274 176.224 184.945  1.00  0.00    -0.550 OA
ATOM     17  O   UNL     1     173.222 176.010 183.958  1.00  0.00    -0.550 OA
ENDBRANCH  14  15
ENDBRANCH  13  14
ENDBRANCH  12  13
ENDBRANCH  11  12
ENDBRANCH  10  11
ENDBRANCH   9  10
ENDBRANCH   8   9
ENDBRANCH   7   8
ENDBRANCH   6   7
ENDBRANCH   5   6
ENDBRANCH   4   5
ENDBRANCH   3   4
ENDBRANCH   2   3
ENDBRANCH   1   2
BRANCH   1  18
ATOM     18  C   UNL     1     182.658 185.625 181.295  1.00  0.00     0.000 C 
BRANCH  18  19
ATOM     19  C   UNL     1     184.103 185.173 181.007  1.00  0.00     0.000 C 
BRANCH  19  20
ATOM     20  C   UNL     1     184.541 183.920 181.795  1.00  0.00     0.000 C 
BRANCH  20  21
ATOM     21  C   UNL     1     186.067 183.725 181.781  1.00  0.00     0.000 C 
BRANCH  21  22
ATOM     22  C   UNL     1     186.480 182.251 181.614  1.00  0.00     0.000 C 
BRANCH  22  23
ATOM     23  C   UNL     1     185.315 181.242 181.627  1.00  0.00     0.000 C 
BRANCH  23  24
ATOM     24  C   UNL     1     185.172 180.413 182.919  1.00  0.00    -0.000 C 
BRANCH  24  25
ATOM     25  C   UNL     1     183.749 180.363 183.508  1.00  0.00    -0.000 C 
BRANCH  25  26
ATOM     26  C   UNL     1     182.662 180.608 182.449  1.00  0.00    -0.000 C 
BRANCH  26  27
ATOM     27  C   UNL     1     182.240 179.316 181.723  1.00  0.00    -0.000 C 
BRANCH  27  28
ATOM     28  C   UNL     1     181.316 179.545 180.513  1.00  0.00    -0.000 C 
BRANCH  28  29
ATOM     29  C   UNL     1     181.034 181.038 180.242  1.00  0.00    -0.000 C 
BRANCH  29  30
ATOM     30  C   UNL     1     180.743 181.343 178.760  1.00  0.00    -0.000 C 
BRANCH  30  31
ATOM     31  C   UNL     1     181.972 181.785 177.948  1.00  0.00    -0.003 C 
ATOM     32  C   UNL     1     183.113 182.328 178.807  1.00  0.00     0.004 C 
ENDBRANCH  30  31
ENDBRANCH  29  30
ENDBRANCH  28  29
ENDBRANCH  27  28
ENDBRANCH  26  27
ENDBRANCH  25  26
ENDBRANCH  24  25
ENDBRANCH  23  24
ENDBRANCH  22  23
ENDBRANCH  21  22
ENDBRANCH  20  21
ENDBRANCH  19  20
ENDBRANCH  18  19
ENDBRANCH   1  18
TORSDOF 28
ENDMDL
MODEL 9
REMARK VINA RESULT:    -4.122      1.933      5.285
REMARK INTER + INTRA:         -15.183
REMARK INTER:                 -11.497
REMARK INTRA:                  -3.686
REMARK UNBOUND:                -4.315
REMARK SMILES CCCCCCCCCCCCCCCCCCCCCCCCCCCCCC(=O)[O-]
REMARK SMILES IDX 16 1 17 2 18 3 19 4 20 5 21 6 22 7 23 8 24 9 25 10 26 11
REMARK SMILES IDX 27 12 28 13 29 14 30 15 31 16 32 17 15 18 14 19 13 20 12 21
REMARK SMILES IDX 11 22 10 23 9 24 8 25 7 26 6 27 5 28 4 29 3 30 2 31 1 32
REMARK H PARENT
REMARK Flexibility Score: inf
ROOT
ATOM      1  C   UNL     1     182.118 182.194 178.334  1.00  0.00     0.000 C 
ENDROOT
BRANCH   1   2
ATOM      2  C   UNL     1     183.141 182.530 179.437  1.00  0.00     0.000 C 
BRANCH   2   3
ATOM      3  C   UNL     1     183.184 184.013 179.864  1.00  0.00     0.000 C 
BRANCH   3   4
ATOM      4  C   UNL     1     182.672 184.304 181.289  1.00  0.00     0.000 C 
BRANCH   4   5
ATOM      5  C   UNL     1     181.156 184.109 181.493  1.00  0.00     0.000 C 
BRANCH   5   6
ATOM      6  C   UNL     1     180.766 183.449 182.827  1.00  0.00     0.000 C 
BRANCH   6   7
ATOM      7  C   UNL     1     179.242 183.396 183.038  1.00  0.00     0.000 C 
BRANCH   7   8
ATOM      8  C   UNL     1     178.467 183.255 181.718  1.00  0.00     0.000 C 
BRANCH   8   9
ATOM      9  C   UNL     1     177.451 182.101 181.745  1.00  0.00     0.000 C 
BRANCH   9  10
ATOM     10  C   UNL     1     178.096 180.752 182.113  1.00  0.00     0.000 C 
BRANCH  10  11
ATOM     11  C   UNL     1     177.113 179.679 182.622  1.00  0.00     0.000 C 
BRANCH  11  12
ATOM     12  C   UNL     1     176.117 179.151 181.568  1.00  0.00     0.000 C 
BRANCH  12  13
ATOM     13  C   UNL     1     175.075 178.151 182.104  1.00  0.00     0.006 C 
BRANCH  13  14
ATOM     14  C   UNL     1     175.687 176.801 182.492  1.00  0.00     0.053 C 
BRANCH  14  15
ATOM     15  C   UNL     1     174.804 176.079 183.461  1.00  0.00     0.041 C 
ATOM     16  O   UNL     1     173.748 175.524 183.060  1.00  0.00    -0.550 OA
ATOM     17  O   UNL     1     175.155 175.998 184.801  1.00  0.00    -0.550 OA
ENDBRANCH  14  15
ENDBRANCH  13  14
ENDBRANCH  12  13
ENDBRANCH  11  12
ENDBRANCH  10  11
ENDBRANCH   9  10
ENDBRANCH   8   9
ENDBRANCH   7   8
ENDBRANCH   6   7
ENDBRANCH   5   6
ENDBRANCH   4   5
ENDBRANCH   3   4
ENDBRANCH   2   3
ENDBRANCH   1   2
BRANCH   1  18
ATOM     18  C   UNL     1     180.847 181.527 178.883  1.00  0.00     0.000 C 
BRANCH  18  19
ATOM     19  C   UNL     1     181.046 180.920 180.285  1.00  0.00     0.000 C 
BRANCH  19  20
ATOM     20  C   UNL     1     181.627 179.489 180.277  1.00  0.00     0.000 C 
BRANCH  20  21
ATOM     21  C   UNL     1     182.652 179.269 181.404  1.00  0.00     0.000 C 
BRANCH  21  22
ATOM     22  C   UNL     1     182.641 180.398 182.450  1.00  0.00     0.000 C 
BRANCH  22  23
ATOM     23  C   UNL     1     183.981 181.142 182.621  1.00  0.00     0.000 C 
BRANCH  23  24
ATOM     24  C   UNL     1     185.073 180.781 181.595  1.00  0.00    -0.000 C 
BRANCH  24  25
ATOM     25  C   UNL     1     186.040 181.927 181.240  1.00  0.00    -0.000 C 
BRANCH  25  26
ATOM     26  C   UNL     1     186.523 182.698 182.479  1.00  0.00    -0.000 C 
BRANCH  26  27
ATOM     27  C   UNL     1     186.464 184.226 182.287  1.00  0.00    -0.000 C 
BRANCH  27  28
ATOM     28  C   UNL     1     187.557 184.788 181.360  1.00  0.00    -0.000 C 
BRANCH  28  29
ATOM     29  C   UNL     1     188.459 185.831 182.053  1.00  0.00    -0.000 C 
BRANCH  29  30
ATOM     30  C   UNL     1     188.053 187.286 181.744  1.00  0.00    -0.000 C 
BRANCH  30  31
ATOM     31  C   UNL     1     188.834 188.347 182.537  1.00  0.00    -0.003 C 
ATOM     32  C   UNL     1     189.168 187.923 183.966  1.00  0.00     0.004 C 
ENDBRANCH  30  31
ENDBRANCH  29  30
ENDBRANCH  28  29
ENDBRANCH  27  28
ENDBRANCH  26  27
ENDBRANCH  25  26
ENDBRANCH  24  25
ENDBRANCH  23  24
ENDBRANCH  22  23
ENDBRANCH  21  22
ENDBRANCH  20  21
ENDBRANCH  19  20
ENDBRANCH  18  19
ENDBRANCH   1  18
TORSDOF 28
ENDMDL
