MODEL 1
REMARK VINA RESULT:    -5.242      0.000      0.000
REMARK INTER + INTRA:          -8.856
REMARK INTER:                  -7.846
REMARK INTRA:                  -1.010
REMARK UNBOUND:                -1.010
REMARK SMILES COC(=O)C1=CO[C@H](O[C@H]2O[C@@H](CO)[C@@H](O)[C@@H](O)[C@@H]2O)[C@H]2C(CO)=CC[C@@H]12
REMARK SMILES IDX 9 1 8 2 5 3 6 4 27 5 7 6 21 7 26 8 22 9 25 10 3 11 4 12 2 13
REMARK SMILES IDX 1 14 23 15 24 16 10 18 19 19 11 20 17 21 12 22 15 23 20 24
REMARK SMILES IDX 18 26 13 28 14 29 16 31
REMARK H PARENT 24 17 20 25 18 27 14 30 16 32
REMARK Flexibility Score: inf
ROOT
ATOM      1  O   UNL     1      46.258  14.539  -3.521  1.00  0.00    -0.310 OA
ENDROOT
BRANCH   1   2
ATOM      2  C   UNL     1      45.088  15.322  -3.693  1.00  0.00     0.316 C 
ATOM      3  C   UNL     1      43.063  17.139  -2.755  1.00  0.00     0.076 C 
ATOM      4  C   UNL     1      43.088  15.869  -2.338  1.00  0.00     0.202 C 
ATOM      5  C   UNL     1      44.205  17.714  -3.567  1.00  0.00     0.047 C 
ATOM      6  O   UNL     1      44.150  15.024  -2.660  1.00  0.00    -0.471 OA
ATOM      7  C   UNL     1      45.459  16.821  -3.651  1.00  0.00     0.094 C 
ATOM      8  C   UNL     1      43.838  18.007  -5.026  1.00  0.00     0.037 C 
ATOM      9  C   UNL     1      46.046  17.251  -4.962  1.00  0.00    -0.039 C 
ATOM     10  C   UNL     1      45.146  17.865  -5.725  1.00  0.00    -0.024 C 
BRANCH   3  11
ATOM     11  C   UNL     1      41.960  18.031  -2.349  1.00  0.00     0.337 C 
ATOM     12  O   UNL     1      40.769  17.673  -2.569  1.00  0.00    -0.246 OA
BRANCH  11  13
ATOM     13  O   UNL     1      42.196  19.285  -1.763  1.00  0.00    -0.466 OA
ATOM     14  C   UNL     1      41.591  19.712  -0.545  1.00  0.00     0.282 C 
ENDBRANCH  11  13
ENDBRANCH   3  11
BRANCH   9  15
ATOM     15  C   UNL     1      47.479  17.032  -5.360  1.00  0.00     0.187 C 
BRANCH  15  16
ATOM     16  O   UNL     1      48.277  16.866  -4.220  1.00  0.00    -0.392 OA
ATOM     17  H   UNL     1      48.175  17.689  -3.678  1.00  0.00     0.211 HD
ENDBRANCH  15  16
ENDBRANCH   9  15
ENDBRANCH   1   2
BRANCH   1  18
ATOM     18  C   UNL     1      46.031  13.158  -3.779  1.00  0.00     0.286 C 
ATOM     19  C   UNL     1      45.738  12.369  -2.476  1.00  0.00     0.202 C 
ATOM     20  O   UNL     1      47.115  12.604  -4.520  1.00  0.00    -0.341 OA
ATOM     21  C   UNL     1      47.006  12.231  -1.612  1.00  0.00     0.179 C 
ATOM     22  C   UNL     1      48.325  12.424  -3.786  1.00  0.00     0.178 C 
ATOM     23  C   UNL     1      48.127  11.632  -2.470  1.00  0.00     0.177 C 
BRANCH  19  24
ATOM     24  O   UNL     1      45.279  11.078  -2.796  1.00  0.00    -0.385 OA
ATOM     25  H   UNL     1      44.342  11.153  -3.102  1.00  0.00     0.211 HD
ENDBRANCH  19  24
BRANCH  21  26
ATOM     26  O   UNL     1      47.440  13.437  -1.022  1.00  0.00    -0.387 OA
ATOM     27  H   UNL     1      46.710  14.116  -1.062  1.00  0.00     0.211 HD
ENDBRANCH  21  26
BRANCH  22  28
ATOM     28  C   UNL     1      49.146  13.732  -3.650  1.00  0.00     0.191 C 
BRANCH  28  29
ATOM     29  O   UNL     1      50.524  13.473  -3.744  1.00  0.00    -0.394 OA
ATOM     30  H   UNL     1      50.871  13.446  -2.816  1.00  0.00     0.210 HD
ENDBRANCH  28  29
ENDBRANCH  22  28
BRANCH  23  31
ATOM     31  O   UNL     1      49.329  11.563  -1.739  1.00  0.00    -0.387 OA
ATOM     32  H   UNL     1      50.001  12.099  -2.235  1.00  0.00     0.211 HD
ENDBRANCH  23  31
ENDBRANCH   1  18
TORSDOF 11
ENDMDL
MODEL 2
REMARK VINA RESULT:    -5.184      2.043      7.790
REMARK INTER + INTRA:          -8.770
REMARK INTER:                  -7.494
REMARK INTRA:                  -1.276
REMARK UNBOUND:                -1.010
REMARK SMILES COC(=O)C1=CO[C@H](O[C@H]2O[C@@H](CO)[C@@H](O)[C@@H](O)[C@@H]2O)[C@H]2C(CO)=CC[C@@H]12
REMARK SMILES IDX 9 1 8 2 5 3 6 4 27 5 7 6 21 7 26 8 22 9 25 10 3 11 4 12 2 13
REMARK SMILES IDX 1 14 23 15 24 16 10 18 19 19 11 20 17 21 12 22 15 23 20 24
REMARK SMILES IDX 18 26 13 28 14 29 16 31
REMARK H PARENT 24 17 20 25 18 27 14 30 16 32
REMARK Flexibility Score: inf
ROOT
ATOM      1  O   UNL     1      42.280  17.627  -2.805  1.00  0.00    -0.310 OA
ENDROOT
BRANCH   1   2
ATOM      2  C   UNL     1      43.209  16.768  -3.445  1.00  0.00     0.316 C 
ATOM      3  C   UNL     1      45.670  15.279  -3.545  1.00  0.00     0.076 C 
ATOM      4  C   UNL     1      45.676  16.614  -3.617  1.00  0.00     0.202 C 
ATOM      5  C   UNL     1      44.403  14.523  -3.207  1.00  0.00     0.047 C 
ATOM      6  O   UNL     1      44.510  17.353  -3.412  1.00  0.00    -0.471 OA
ATOM      7  C   UNL     1      43.229  15.401  -2.726  1.00  0.00     0.094 C 
ATOM      8  C   UNL     1      43.832  13.721  -4.382  1.00  0.00     0.037 C 
ATOM      9  C   UNL     1      42.048  14.576  -3.141  1.00  0.00    -0.039 C 
ATOM     10  C   UNL     1      42.375  13.685  -4.073  1.00  0.00    -0.024 C 
BRANCH   3  11
ATOM     11  C   UNL     1      46.928  14.524  -3.703  1.00  0.00     0.337 C 
ATOM     12  O   UNL     1      47.257  14.113  -4.851  1.00  0.00    -0.246 OA
BRANCH  11  13
ATOM     13  O   UNL     1      47.750  14.212  -2.608  1.00  0.00    -0.466 OA
ATOM     14  C   UNL     1      47.481  13.149  -1.698  1.00  0.00     0.282 C 
ENDBRANCH  11  13
ENDBRANCH   3  11
BRANCH   9  15
ATOM     15  C   UNL     1      40.668  14.722  -2.563  1.00  0.00     0.187 C 
BRANCH  15  16
ATOM     16  O   UNL     1      40.713  15.501  -1.398  1.00  0.00    -0.392 OA
ATOM     17  H   UNL     1      40.214  15.002  -0.703  1.00  0.00     0.211 HD
ENDBRANCH  15  16
ENDBRANCH   9  15
ENDBRANCH   1   2
BRANCH   1  18
ATOM     18  C   UNL     1      42.509  18.998  -3.108  1.00  0.00     0.286 C 
ATOM     19  C   UNL     1      43.175  19.747  -1.924  1.00  0.00     0.202 C 
ATOM     20  O   UNL     1      41.301  19.622  -3.536  1.00  0.00    -0.341 OA
ATOM     21  C   UNL     1      42.187  19.935  -0.757  1.00  0.00     0.179 C 
ATOM     22  C   UNL     1      40.337  19.853  -2.510  1.00  0.00     0.178 C 
ATOM     23  C   UNL     1      40.917  20.609  -1.289  1.00  0.00     0.177 C 
BRANCH  19  24
ATOM     24  O   UNL     1      43.607  21.017  -2.347  1.00  0.00    -0.385 OA
ATOM     25  H   UNL     1      42.837  21.636  -2.292  1.00  0.00     0.211 HD
ENDBRANCH  19  24
BRANCH  21  26
ATOM     26  O   UNL     1      41.856  18.743  -0.079  1.00  0.00    -0.387 OA
ATOM     27  H   UNL     1      42.092  17.955  -0.643  1.00  0.00     0.211 HD
ENDBRANCH  21  26
BRANCH  22  28
ATOM     28  C   UNL     1      39.508  18.588  -2.169  1.00  0.00     0.191 C 
BRANCH  28  29
ATOM     29  O   UNL     1      39.377  17.755  -3.293  1.00  0.00    -0.394 OA
ATOM     30  H   UNL     1      38.782  18.228  -3.928  1.00  0.00     0.210 HD
ENDBRANCH  28  29
ENDBRANCH  22  28
BRANCH  23  31
ATOM     31  O   UNL     1      39.953  20.727  -0.268  1.00  0.00    -0.387 OA
ATOM     32  H   UNL     1      40.001  21.659   0.069  1.00  0.00     0.211 HD
ENDBRANCH  23  31
ENDBRANCH   1  18
TORSDOF 11
ENDMDL
MODEL 3
REMARK VINA RESULT:    -4.961      1.974      7.754
REMARK INTER + INTRA:          -8.436
REMARK INTER:                  -7.266
REMARK INTRA:                  -1.170
REMARK UNBOUND:                -1.010
REMARK SMILES COC(=O)C1=CO[C@H](O[C@H]2O[C@@H](CO)[C@@H](O)[C@@H](O)[C@@H]2O)[C@H]2C(CO)=CC[C@@H]12
REMARK SMILES IDX 9 1 8 2 5 3 6 4 27 5 7 6 21 7 26 8 22 9 25 10 3 11 4 12 2 13
REMARK SMILES IDX 1 14 23 15 24 16 10 18 19 19 11 20 17 21 12 22 15 23 20 24
REMARK SMILES IDX 18 26 13 28 14 29 16 31
REMARK H PARENT 24 17 20 25 18 27 14 30 16 32
REMARK Flexibility Score: inf
ROOT
ATOM      1  O   UNL     1      43.212  17.792  -2.744  1.00  0.00    -0.310 OA
ENDROOT
BRANCH   1   2
ATOM      2  C   UNL     1      43.884  16.725  -3.393  1.00  0.00     0.316 C 
ATOM      3  C   UNL     1      45.884  14.659  -3.518  1.00  0.00     0.076 C 
ATOM      4  C   UNL     1      46.228  15.948  -3.595  1.00  0.00     0.202 C 
ATOM      5  C   UNL     1      44.470  14.250  -3.162  1.00  0.00     0.047 C 
ATOM      6  O   UNL     1      45.291  16.960  -3.378  1.00  0.00    -0.471 OA
ATOM      7  C   UNL     1      43.565  15.398  -2.669  1.00  0.00     0.094 C 
ATOM      8  C   UNL     1      43.698  13.619  -4.326  1.00  0.00     0.037 C 
ATOM      9  C   UNL     1      42.207  14.900  -3.067  1.00  0.00    -0.039 C 
ATOM     10  C   UNL     1      42.285  13.955  -3.999  1.00  0.00    -0.024 C 
BRANCH   3  11
ATOM     11  C   UNL     1      46.906  13.608  -3.689  1.00  0.00     0.337 C 
ATOM     12  O   UNL     1      47.692  13.671  -4.675  1.00  0.00    -0.246 OA
BRANCH  11  13
ATOM     13  O   UNL     1      47.003  12.517  -2.810  1.00  0.00    -0.466 OA
ATOM     14  C   UNL     1      47.694  12.568  -1.564  1.00  0.00     0.282 C 
ENDBRANCH  11  13
ENDBRANCH   3  11
BRANCH   9  15
ATOM     15  C   UNL     1      40.918  15.393  -2.472  1.00  0.00     0.187 C 
BRANCH  15  16
ATOM     16  O   UNL     1      41.112  15.759  -1.133  1.00  0.00    -0.392 OA
ATOM     17  H   UNL     1      41.971  16.251  -1.093  1.00  0.00     0.211 HD
ENDBRANCH  15  16
ENDBRANCH   9  15
ENDBRANCH   1   2
BRANCH   1  18
ATOM     18  C   UNL     1      42.644  18.716  -3.665  1.00  0.00     0.286 C 
ATOM     19  C   UNL     1      43.472  20.025  -3.752  1.00  0.00     0.202 C 
ATOM     20  O   UNL     1      41.275  18.957  -3.349  1.00  0.00    -0.341 OA
ATOM     21  C   UNL     1      43.323  20.865  -2.469  1.00  0.00     0.179 C 
ATOM     22  C   UNL     1      41.049  19.748  -2.183  1.00  0.00     0.178 C 
ATOM     23  C   UNL     1      41.831  21.084  -2.191  1.00  0.00     0.177 C 
BRANCH  19  24
ATOM     24  O   UNL     1      43.026  20.798  -4.840  1.00  0.00    -0.385 OA
ATOM     25  H   UNL     1      42.692  21.659  -4.487  1.00  0.00     0.211 HD
ENDBRANCH  19  24
BRANCH  21  26
ATOM     26  O   UNL     1      43.951  20.306  -1.335  1.00  0.00    -0.387 OA
ATOM     27  H   UNL     1      44.929  20.207  -1.502  1.00  0.00     0.211 HD
ENDBRANCH  21  26
BRANCH  22  28
ATOM     28  C   UNL     1      41.160  18.928  -0.872  1.00  0.00     0.191 C 
BRANCH  28  29
ATOM     29  O   UNL     1      40.554  19.608   0.199  1.00  0.00    -0.394 OA
ATOM     30  H   UNL     1      39.694  19.150   0.375  1.00  0.00     0.210 HD
ENDBRANCH  28  29
ENDBRANCH  22  28
BRANCH  23  31
ATOM     31  O   UNL     1      41.649  21.780  -0.981  1.00  0.00    -0.387 OA
ATOM     32  H   UNL     1      41.167  21.170  -0.365  1.00  0.00     0.211 HD
ENDBRANCH  23  31
ENDBRANCH   1  18
TORSDOF 11
ENDMDL
MODEL 4
REMARK VINA RESULT:    -4.939      1.005      1.878
REMARK INTER + INTRA:          -8.403
REMARK INTER:                  -6.938
REMARK INTRA:                  -1.465
REMARK UNBOUND:                -1.010
REMARK SMILES COC(=O)C1=CO[C@H](O[C@H]2O[C@@H](CO)[C@@H](O)[C@@H](O)[C@@H]2O)[C@H]2C(CO)=CC[C@@H]12
REMARK SMILES IDX 9 1 8 2 5 3 6 4 27 5 7 6 21 7 26 8 22 9 25 10 3 11 4 12 2 13
REMARK SMILES IDX 1 14 23 15 24 16 10 18 19 19 11 20 17 21 12 22 15 23 20 24
REMARK SMILES IDX 18 26 13 28 14 29 16 31
REMARK H PARENT 24 17 20 25 18 27 14 30 16 32
REMARK Flexibility Score: inf
ROOT
ATOM      1  O   UNL     1      45.978  14.195  -3.801  1.00  0.00    -0.310 OA
ENDROOT
BRANCH   1   2
ATOM      2  C   UNL     1      44.888  15.099  -3.884  1.00  0.00     0.316 C 
ATOM      3  C   UNL     1      42.929  16.858  -2.721  1.00  0.00     0.076 C 
ATOM      4  C   UNL     1      42.823  15.532  -2.585  1.00  0.00     0.202 C 
ATOM      5  C   UNL     1      44.176  17.483  -3.310  1.00  0.00     0.047 C 
ATOM      6  O   UNL     1      43.844  14.679  -3.006  1.00  0.00    -0.471 OA
ATOM      7  C   UNL     1      45.364  16.517  -3.495  1.00  0.00     0.094 C 
ATOM      8  C   UNL     1      43.961  18.104  -4.694  1.00  0.00     0.037 C 
ATOM      9  C   UNL     1      46.092  17.154  -4.640  1.00  0.00    -0.039 C 
ATOM     10  C   UNL     1      45.310  17.993  -5.314  1.00  0.00    -0.024 C 
BRANCH   3  11
ATOM     11  C   UNL     1      41.863  17.742  -2.212  1.00  0.00     0.337 C 
ATOM     12  O   UNL     1      40.681  17.303  -2.144  1.00  0.00    -0.246 OA
BRANCH  11  13
ATOM     13  O   UNL     1      42.117  19.072  -1.838  1.00  0.00    -0.466 OA
ATOM     14  C   UNL     1      41.731  19.626  -0.583  1.00  0.00     0.282 C 
ENDBRANCH  11  13
ENDBRANCH   3  11
BRANCH   9  15
ATOM     15  C   UNL     1      47.535  16.894  -4.975  1.00  0.00     0.187 C 
BRANCH  15  16
ATOM     16  O   UNL     1      48.229  16.476  -3.831  1.00  0.00    -0.392 OA
ATOM     17  H   UNL     1      49.079  16.984  -3.812  1.00  0.00     0.211 HD
ENDBRANCH  15  16
ENDBRANCH   9  15
ENDBRANCH   1   2
BRANCH   1  18
ATOM     18  C   UNL     1      46.092  13.597  -2.515  1.00  0.00     0.286 C 
ATOM     19  C   UNL     1      47.472  13.881  -1.868  1.00  0.00     0.202 C 
ATOM     20  O   UNL     1      45.800  12.204  -2.585  1.00  0.00    -0.341 OA
ATOM     21  C   UNL     1      48.593  13.100  -2.580  1.00  0.00     0.179 C 
ATOM     22  C   UNL     1      46.799  11.402  -3.213  1.00  0.00     0.178 C 
ATOM     23  C   UNL     1      48.213  11.615  -2.619  1.00  0.00     0.177 C 
BRANCH  19  24
ATOM     24  O   UNL     1      47.453  13.492  -0.516  1.00  0.00    -0.385 OA
ATOM     25  H   UNL     1      47.708  14.275   0.031  1.00  0.00     0.211 HD
ENDBRANCH  19  24
BRANCH  21  26
ATOM     26  O   UNL     1      48.884  13.560  -3.882  1.00  0.00    -0.387 OA
ATOM     27  H   UNL     1      49.216  14.500  -3.844  1.00  0.00     0.211 HD
ENDBRANCH  21  26
BRANCH  22  28
ATOM     28  C   UNL     1      46.721  11.450  -4.761  1.00  0.00     0.191 C 
BRANCH  28  29
ATOM     29  O   UNL     1      45.468  11.921  -5.187  1.00  0.00    -0.394 OA
ATOM     30  H   UNL     1      44.939  11.124  -5.446  1.00  0.00     0.210 HD
ENDBRANCH  28  29
ENDBRANCH  22  28
BRANCH  23  31
ATOM     31  O   UNL     1      49.175  10.875  -3.334  1.00  0.00    -0.387 OA
ATOM     32  H   UNL     1      49.297  10.017  -2.851  1.00  0.00     0.211 HD
ENDBRANCH  23  31
ENDBRANCH   1  18
TORSDOF 11
ENDMDL
MODEL 5
REMARK VINA RESULT:    -4.884      1.723      6.950
REMARK INTER + INTRA:          -8.321
REMARK INTER:                  -6.883
REMARK INTRA:                  -1.438
REMARK UNBOUND:                -1.010
REMARK SMILES COC(=O)C1=CO[C@H](O[C@H]2O[C@@H](CO)[C@@H](O)[C@@H](O)[C@@H]2O)[C@H]2C(CO)=CC[C@@H]12
REMARK SMILES IDX 9 1 8 2 5 3 6 4 27 5 7 6 21 7 26 8 22 9 25 10 3 11 4 12 2 13
REMARK SMILES IDX 1 14 23 15 24 16 10 18 19 19 11 20 17 21 12 22 15 23 20 24
REMARK SMILES IDX 18 26 13 28 14 29 16 31
REMARK H PARENT 24 17 20 25 18 27 14 30 16 32
REMARK Flexibility Score: inf
ROOT
ATOM      1  O   UNL     1      43.424  17.481  -3.213  1.00  0.00    -0.310 OA
ENDROOT
BRANCH   1   2
ATOM      2  C   UNL     1      44.702  16.866  -3.214  1.00  0.00     0.316 C 
ATOM      3  C   UNL     1      46.450  14.596  -3.480  1.00  0.00     0.076 C 
ATOM      4  C   UNL     1      45.658  14.726  -2.412  1.00  0.00     0.202 C 
ATOM      5  C   UNL     1      46.310  15.520  -4.671  1.00  0.00     0.047 C 
ATOM      6  O   UNL     1      44.696  15.735  -2.345  1.00  0.00    -0.471 OA
ATOM      7  C   UNL     1      45.061  16.425  -4.650  1.00  0.00     0.094 C 
ATOM      8  C   UNL     1      47.487  16.487  -4.842  1.00  0.00     0.037 C 
ATOM      9  C   UNL     1      45.528  17.599  -5.457  1.00  0.00    -0.039 C 
ATOM     10  C   UNL     1      46.855  17.650  -5.527  1.00  0.00    -0.024 C 
BRANCH   3  11
ATOM     11  C   UNL     1      47.417  13.483  -3.554  1.00  0.00     0.337 C 
ATOM     12  O   UNL     1      47.412  12.732  -4.569  1.00  0.00    -0.246 OA
BRANCH  11  13
ATOM     13  O   UNL     1      48.315  13.209  -2.510  1.00  0.00    -0.466 OA
ATOM     14  C   UNL     1      48.244  12.042  -1.694  1.00  0.00     0.282 C 
ENDBRANCH  11  13
ENDBRANCH   3  11
BRANCH   9  15
ATOM     15  C   UNL     1      44.611  18.588  -6.121  1.00  0.00     0.187 C 
BRANCH  15  16
ATOM     16  O   UNL     1      44.440  19.714  -5.303  1.00  0.00    -0.392 OA
ATOM     17  H   UNL     1      43.466  19.889  -5.259  1.00  0.00     0.211 HD
ENDBRANCH  15  16
ENDBRANCH   9  15
ENDBRANCH   1   2
BRANCH   1  18
ATOM     18  C   UNL     1      42.670  17.163  -2.048  1.00  0.00     0.286 C 
ATOM     19  C   UNL     1      41.439  16.280  -2.382  1.00  0.00     0.202 C 
ATOM     20  O   UNL     1      42.314  18.351  -1.346  1.00  0.00    -0.341 OA
ATOM     21  C   UNL     1      40.363  17.086  -3.135  1.00  0.00     0.179 C 
ATOM     22  C   UNL     1      41.305  19.147  -1.967  1.00  0.00     0.178 C 
ATOM     23  C   UNL     1      40.030  18.344  -2.325  1.00  0.00     0.177 C 
BRANCH  19  24
ATOM     24  O   UNL     1      40.871  15.788  -1.192  1.00  0.00    -0.385 OA
ATOM     25  H   UNL     1      40.153  15.154  -1.436  1.00  0.00     0.211 HD
ENDBRANCH  19  24
BRANCH  21  26
ATOM     26  O   UNL     1      40.720  17.438  -4.454  1.00  0.00    -0.387 OA
ATOM     27  H   UNL     1      39.939  17.850  -4.919  1.00  0.00     0.211 HD
ENDBRANCH  21  26
BRANCH  22  28
ATOM     28  C   UNL     1      41.862  20.041  -3.105  1.00  0.00     0.191 C 
BRANCH  28  29
ATOM     29  O   UNL     1      43.159  20.490  -2.803  1.00  0.00    -0.394 OA
ATOM     30  H   UNL     1      43.576  20.748  -3.663  1.00  0.00     0.210 HD
ENDBRANCH  28  29
ENDBRANCH  22  28
BRANCH  23  31
ATOM     31  O   UNL     1      39.107  19.151  -3.019  1.00  0.00    -0.387 OA
ATOM     32  H   UNL     1      39.633  19.756  -3.604  1.00  0.00     0.211 HD
ENDBRANCH  23  31
ENDBRANCH   1  18
TORSDOF 11
ENDMDL
MODEL 6
REMARK VINA RESULT:    -4.705      1.932      7.146
REMARK INTER + INTRA:          -8.052
REMARK INTER:                  -6.328
REMARK INTRA:                  -1.725
REMARK UNBOUND:                -1.010
REMARK SMILES COC(=O)C1=CO[C@H](O[C@H]2O[C@@H](CO)[C@@H](O)[C@@H](O)[C@@H]2O)[C@H]2C(CO)=CC[C@@H]12
REMARK SMILES IDX 9 1 8 2 5 3 6 4 27 5 7 6 21 7 26 8 22 9 25 10 3 11 4 12 2 13
REMARK SMILES IDX 1 14 23 15 24 16 10 18 19 19 11 20 17 21 12 22 15 23 20 24
REMARK SMILES IDX 18 26 13 28 14 29 16 31
REMARK H PARENT 24 17 20 25 18 27 14 30 16 32
REMARK Flexibility Score: inf
ROOT
ATOM      1  O   UNL     1      43.558  16.311  -4.042  1.00  0.00    -0.310 OA
ENDROOT
BRANCH   1   2
ATOM      2  C   UNL     1      44.611  15.363  -4.114  1.00  0.00     0.316 C 
ATOM      3  C   UNL     1      46.964  14.070  -3.079  1.00  0.00     0.076 C 
ATOM      4  C   UNL     1      47.021  15.323  -3.541  1.00  0.00     0.202 C 
ATOM      5  C   UNL     1      45.636  13.366  -2.897  1.00  0.00     0.047 C 
ATOM      6  O   UNL     1      45.862  16.014  -3.898  1.00  0.00    -0.471 OA
ATOM      7  C   UNL     1      44.394  14.270  -3.044  1.00  0.00     0.094 C 
ATOM      8  C   UNL     1      45.403  12.221  -3.889  1.00  0.00     0.037 C 
ATOM      9  C   UNL     1      43.361  13.286  -3.505  1.00  0.00    -0.039 C 
ATOM     10  C   UNL     1      43.918  12.184  -4.000  1.00  0.00    -0.024 C 
BRANCH   3  11
ATOM     11  C   UNL     1      48.197  13.382  -2.650  1.00  0.00     0.337 C 
ATOM     12  O   UNL     1      49.241  13.499  -3.351  1.00  0.00    -0.246 OA
BRANCH  11  13
ATOM     13  O   UNL     1      48.234  12.568  -1.506  1.00  0.00    -0.466 OA
ATOM     14  C   UNL     1      48.462  11.162  -1.546  1.00  0.00     0.282 C 
ENDBRANCH  11  13
ENDBRANCH   3  11
BRANCH   9  15
ATOM     15  C   UNL     1      41.877  13.507  -3.403  1.00  0.00     0.187 C 
BRANCH  15  16
ATOM     16  O   UNL     1      41.443  14.352  -4.434  1.00  0.00    -0.392 OA
ATOM     17  H   UNL     1      42.031  15.149  -4.416  1.00  0.00     0.211 HD
ENDBRANCH  15  16
ENDBRANCH   9  15
ENDBRANCH   1   2
BRANCH   1  18
ATOM     18  C   UNL     1      43.458  16.916  -2.758  1.00  0.00     0.286 C 
ATOM     19  C   UNL     1      41.998  16.924  -2.236  1.00  0.00     0.202 C 
ATOM     20  O   UNL     1      44.038  18.218  -2.775  1.00  0.00    -0.341 OA
ATOM     21  C   UNL     1      41.129  17.923  -3.025  1.00  0.00     0.179 C 
ATOM     22  C   UNL     1      43.285  19.212  -3.469  1.00  0.00     0.178 C 
ATOM     23  C   UNL     1      41.811  19.296  -3.001  1.00  0.00     0.177 C 
BRANCH  19  24
ATOM     24  O   UNL     1      41.979  17.297  -0.880  1.00  0.00    -0.385 OA
ATOM     25  H   UNL     1      42.702  17.956  -0.734  1.00  0.00     0.211 HD
ENDBRANCH  19  24
BRANCH  21  26
ATOM     26  O   UNL     1      40.864  17.536  -4.356  1.00  0.00    -0.387 OA
ATOM     27  H   UNL     1      41.263  18.197  -4.987  1.00  0.00     0.211 HD
ENDBRANCH  21  26
BRANCH  22  28
ATOM     28  C   UNL     1      43.485  19.153  -5.005  1.00  0.00     0.191 C 
BRANCH  28  29
ATOM     29  O   UNL     1      44.780  18.710  -5.326  1.00  0.00    -0.394 OA
ATOM     30  H   UNL     1      44.730  18.328  -6.239  1.00  0.00     0.210 HD
ENDBRANCH  28  29
ENDBRANCH  22  28
BRANCH  23  31
ATOM     31  O   UNL     1      41.089  20.222  -3.779  1.00  0.00    -0.387 OA
ATOM     32  H   UNL     1      41.723  20.598  -4.445  1.00  0.00     0.211 HD
ENDBRANCH  23  31
ENDBRANCH   1  18
TORSDOF 11
ENDMDL
MODEL 7
REMARK VINA RESULT:    -4.619      2.295      7.341
REMARK INTER + INTRA:          -7.924
REMARK INTER:                  -6.430
REMARK INTRA:                  -1.495
REMARK UNBOUND:                -1.010
REMARK SMILES COC(=O)C1=CO[C@H](O[C@H]2O[C@@H](CO)[C@@H](O)[C@@H](O)[C@@H]2O)[C@H]2C(CO)=CC[C@@H]12
REMARK SMILES IDX 9 1 8 2 5 3 6 4 27 5 7 6 21 7 26 8 22 9 25 10 3 11 4 12 2 13
REMARK SMILES IDX 1 14 23 15 24 16 10 18 19 19 11 20 17 21 12 22 15 23 20 24
REMARK SMILES IDX 18 26 13 28 14 29 16 31
REMARK H PARENT 24 17 20 25 18 27 14 30 16 32
REMARK Flexibility Score: inf
ROOT
ATOM      1  O   UNL     1      44.327  16.906  -3.525  1.00  0.00    -0.310 OA
ENDROOT
BRANCH   1   2
ATOM      2  C   UNL     1      45.398  16.299  -4.230  1.00  0.00     0.316 C 
ATOM      3  C   UNL     1      48.154  15.525  -4.527  1.00  0.00     0.076 C 
ATOM      4  C   UNL     1      47.790  16.807  -4.632  1.00  0.00     0.202 C 
ATOM      5  C   UNL     1      47.174  14.473  -4.053  1.00  0.00     0.047 C 
ATOM      6  O   UNL     1      46.488  17.214  -4.335  1.00  0.00    -0.471 OA
ATOM      7  C   UNL     1      45.851  15.025  -3.483  1.00  0.00     0.094 C 
ATOM      8  C   UNL     1      46.746  13.490  -5.148  1.00  0.00     0.037 C 
ATOM      9  C   UNL     1      44.909  13.892  -3.764  1.00  0.00    -0.039 C 
ATOM     10  C   UNL     1      45.386  13.078  -4.701  1.00  0.00    -0.024 C 
BRANCH   3  11
ATOM     11  C   UNL     1      49.552  15.129  -4.786  1.00  0.00     0.337 C 
ATOM     12  O   UNL     1      50.098  14.277  -4.031  1.00  0.00    -0.246 OA
BRANCH  11  13
ATOM     13  O   UNL     1      50.307  15.703  -5.822  1.00  0.00    -0.466 OA
ATOM     14  C   UNL     1      51.692  16.020  -5.706  1.00  0.00     0.282 C 
ENDBRANCH  11  13
ENDBRANCH   3  11
BRANCH   9  15
ATOM     15  C   UNL     1      43.596  13.690  -3.061  1.00  0.00     0.187 C 
BRANCH  15  16
ATOM     16  O   UNL     1      42.550  14.221  -3.829  1.00  0.00    -0.392 OA
ATOM     17  H   UNL     1      42.017  13.452  -4.155  1.00  0.00     0.211 HD
ENDBRANCH  15  16
ENDBRANCH   9  15
ENDBRANCH   1   2
BRANCH   1  18
ATOM     18  C   UNL     1      43.364  17.487  -4.396  1.00  0.00     0.286 C 
ATOM     19  C   UNL     1      43.434  19.036  -4.381  1.00  0.00     0.202 C 
ATOM     20  O   UNL     1      42.060  16.998  -4.094  1.00  0.00    -0.341 OA
ATOM     21  C   UNL     1      42.908  19.606  -3.050  1.00  0.00     0.179 C 
ATOM     22  C   UNL     1      41.488  17.493  -2.884  1.00  0.00     0.178 C 
ATOM     23  C   UNL     1      41.507  19.039  -2.790  1.00  0.00     0.177 C 
BRANCH  19  24
ATOM     24  O   UNL     1      42.649  19.558  -5.426  1.00  0.00    -0.385 OA
ATOM     25  H   UNL     1      42.047  20.242  -5.043  1.00  0.00     0.211 HD
ENDBRANCH  19  24
BRANCH  21  26
ATOM     26  O   UNL     1      43.745  19.357  -1.941  1.00  0.00    -0.387 OA
ATOM     27  H   UNL     1      44.701  19.400  -2.221  1.00  0.00     0.211 HD
ENDBRANCH  21  26
BRANCH  22  28
ATOM     28  C   UNL     1      42.008  16.751  -1.626  1.00  0.00     0.191 C 
BRANCH  28  29
ATOM     29  O   UNL     1      41.155  15.689  -1.281  1.00  0.00    -0.394 OA
ATOM     30  H   UNL     1      40.733  15.379  -2.122  1.00  0.00     0.210 HD
ENDBRANCH  28  29
ENDBRANCH  22  28
BRANCH  23  31
ATOM     31  O   UNL     1      41.020  19.472  -1.541  1.00  0.00    -0.387 OA
ATOM     32  H   UNL     1      40.053  19.251  -1.514  1.00  0.00     0.211 HD
ENDBRANCH  23  31
ENDBRANCH   1  18
TORSDOF 11
ENDMDL
MODEL 8
REMARK VINA RESULT:    -4.411      2.390      7.735
REMARK INTER + INTRA:          -7.613
REMARK INTER:                  -6.090
REMARK INTRA:                  -1.523
REMARK UNBOUND:                -1.010
REMARK SMILES COC(=O)C1=CO[C@H](O[C@H]2O[C@@H](CO)[C@@H](O)[C@@H](O)[C@@H]2O)[C@H]2C(CO)=CC[C@@H]12
REMARK SMILES IDX 9 1 8 2 5 3 6 4 27 5 7 6 21 7 26 8 22 9 25 10 3 11 4 12 2 13
REMARK SMILES IDX 1 14 23 15 24 16 10 18 19 19 11 20 17 21 12 22 15 23 20 24
REMARK SMILES IDX 18 26 13 28 14 29 16 31
REMARK H PARENT 24 17 20 25 18 27 14 30 16 32
REMARK Flexibility Score: inf
ROOT
ATOM      1  O   UNL     1      44.044  18.257  -3.953  1.00  0.00    -0.310 OA
ENDROOT
BRANCH   1   2
ATOM      2  C   UNL     1      44.789  17.074  -4.194  1.00  0.00     0.316 C 
ATOM      3  C   UNL     1      47.109  15.401  -3.877  1.00  0.00     0.076 C 
ATOM      4  C   UNL     1      47.164  16.512  -4.618  1.00  0.00     0.202 C 
ATOM      5  C   UNL     1      45.898  15.095  -3.021  1.00  0.00     0.047 C 
ATOM      6  O   UNL     1      46.097  17.411  -4.652  1.00  0.00    -0.471 OA
ATOM      7  C   UNL     1      44.884  16.250  -2.890  1.00  0.00     0.094 C 
ATOM      8  C   UNL     1      45.071  13.907  -3.526  1.00  0.00     0.037 C 
ATOM      9  C   UNL     1      43.607  15.501  -2.651  1.00  0.00    -0.039 C 
ATOM     10  C   UNL     1      43.703  14.232  -3.035  1.00  0.00    -0.024 C 
BRANCH   3  11
ATOM     11  C   UNL     1      48.274  14.498  -3.808  1.00  0.00     0.337 C 
ATOM     12  O   UNL     1      49.071  14.449  -4.786  1.00  0.00    -0.246 OA
BRANCH  11  13
ATOM     13  O   UNL     1      48.501  13.661  -2.703  1.00  0.00    -0.466 OA
ATOM     14  C   UNL     1      48.576  12.240  -2.793  1.00  0.00     0.282 C 
ENDBRANCH  11  13
ENDBRANCH   3  11
BRANCH   9  15
ATOM     15  C   UNL     1      42.376  16.105  -2.035  1.00  0.00     0.187 C 
BRANCH  15  16
ATOM     16  O   UNL     1      42.655  17.395  -1.561  1.00  0.00    -0.392 OA
ATOM     17  H   UNL     1      41.909  17.645  -0.959  1.00  0.00     0.211 HD
ENDBRANCH  15  16
ENDBRANCH   9  15
ENDBRANCH   1   2
BRANCH   1  18
ATOM     18  C   UNL     1      44.120  19.176  -5.036  1.00  0.00     0.286 C 
ATOM     19  C   UNL     1      43.769  20.620  -4.592  1.00  0.00     0.202 C 
ATOM     20  O   UNL     1      43.316  18.730  -6.125  1.00  0.00    -0.341 OA
ATOM     21  C   UNL     1      42.266  20.758  -4.283  1.00  0.00     0.179 C 
ATOM     22  C   UNL     1      41.907  18.844  -5.929  1.00  0.00     0.178 C 
ATOM     23  C   UNL     1      41.465  20.262  -5.493  1.00  0.00     0.177 C 
BRANCH  19  24
ATOM     24  O   UNL     1      44.094  21.525  -5.619  1.00  0.00    -0.385 OA
ATOM     25  H   UNL     1      43.349  22.170  -5.705  1.00  0.00     0.211 HD
ENDBRANCH  19  24
BRANCH  21  26
ATOM     26  O   UNL     1      41.849  20.083  -3.116  1.00  0.00    -0.387 OA
ATOM     27  H   UNL     1      41.563  20.744  -2.426  1.00  0.00     0.211 HD
ENDBRANCH  21  26
BRANCH  22  28
ATOM     28  C   UNL     1      41.323  17.683  -5.083  1.00  0.00     0.191 C 
BRANCH  28  29
ATOM     29  O   UNL     1      39.982  17.438  -5.422  1.00  0.00    -0.394 OA
ATOM     30  H   UNL     1      39.622  16.828  -4.730  1.00  0.00     0.210 HD
ENDBRANCH  28  29
ENDBRANCH  22  28
BRANCH  23  31
ATOM     31  O   UNL     1      40.083  20.297  -5.221  1.00  0.00    -0.387 OA
ATOM     32  H   UNL     1      39.983  20.374  -4.237  1.00  0.00     0.211 HD
ENDBRANCH  23  31
ENDBRANCH   1  18
TORSDOF 11
ENDMDL
MODEL 9
REMARK VINA RESULT:    -4.399      1.806      4.012
REMARK INTER + INTRA:          -7.594
REMARK INTER:                  -6.275
REMARK INTRA:                  -1.319
REMARK UNBOUND:                -1.010
REMARK SMILES COC(=O)C1=CO[C@H](O[C@H]2O[C@@H](CO)[C@@H](O)[C@@H](O)[C@@H]2O)[C@H]2C(CO)=CC[C@@H]12
REMARK SMILES IDX 9 1 8 2 5 3 6 4 27 5 7 6 21 7 26 8 22 9 25 10 3 11 4 12 2 13
REMARK SMILES IDX 1 14 23 15 24 16 10 18 19 19 11 20 17 21 12 22 15 23 20 24
REMARK SMILES IDX 18 26 13 28 14 29 16 31
REMARK H PARENT 24 17 20 25 18 27 14 30 16 32
REMARK Flexibility Score: inf
ROOT
ATOM      1  O   UNL     1      44.579  14.964  -3.297  1.00  0.00    -0.310 OA
ENDROOT
BRANCH   1   2
ATOM      2  C   UNL     1      43.645  15.905  -2.794  1.00  0.00     0.316 C 
ATOM      3  C   UNL     1      42.151  18.361  -2.946  1.00  0.00     0.076 C 
ATOM      4  C   UNL     1      43.466  18.375  -2.706  1.00  0.00     0.202 C 
ATOM      5  C   UNL     1      41.446  17.081  -3.344  1.00  0.00     0.047 C 
ATOM      6  O   UNL     1      44.227  17.208  -2.785  1.00  0.00    -0.471 OA
ATOM      7  C   UNL     1      42.380  15.900  -3.681  1.00  0.00     0.094 C 
ATOM      8  C   UNL     1      40.503  16.536  -2.266  1.00  0.00     0.037 C 
ATOM      9  C   UNL     1      41.510  14.726  -3.343  1.00  0.00    -0.039 C 
ATOM     10  C   UNL     1      40.508  15.072  -2.540  1.00  0.00    -0.024 C 
BRANCH   3  11
ATOM     11  C   UNL     1      41.379  19.618  -2.917  1.00  0.00     0.337 C 
ATOM     12  O   UNL     1      40.670  19.926  -3.914  1.00  0.00    -0.246 OA
BRANCH  11  13
ATOM     13  O   UNL     1      41.443  20.503  -1.828  1.00  0.00    -0.466 OA
ATOM     14  C   UNL     1      40.968  20.183  -0.523  1.00  0.00     0.282 C 
ENDBRANCH  11  13
ENDBRANCH   3  11
BRANCH   9  15
ATOM     15  C   UNL     1      41.731  13.333  -3.863  1.00  0.00     0.187 C 
BRANCH  15  16
ATOM     16  O   UNL     1      41.864  12.434  -2.795  1.00  0.00    -0.392 OA
ATOM     17  H   UNL     1      42.534  12.822  -2.177  1.00  0.00     0.211 HD
ENDBRANCH  15  16
ENDBRANCH   9  15
ENDBRANCH   1   2
BRANCH   1  18
ATOM     18  C   UNL     1      45.906  15.227  -2.855  1.00  0.00     0.286 C 
ATOM     19  C   UNL     1      46.810  15.729  -4.012  1.00  0.00     0.202 C 
ATOM     20  O   UNL     1      46.448  14.085  -2.197  1.00  0.00    -0.341 OA
ATOM     21  C   UNL     1      47.123  14.595  -5.007  1.00  0.00     0.179 C 
ATOM     22  C   UNL     1      46.786  12.993  -3.051  1.00  0.00     0.178 C 
ATOM     23  C   UNL     1      47.700  13.404  -4.232  1.00  0.00     0.177 C 
BRANCH  19  24
ATOM     24  O   UNL     1      48.025  16.209  -3.491  1.00  0.00    -0.385 OA
ATOM     25  H   UNL     1      48.220  17.078  -3.920  1.00  0.00     0.211 HD
ENDBRANCH  19  24
BRANCH  21  26
ATOM     26  O   UNL     1      46.018  14.181  -5.781  1.00  0.00    -0.387 OA
ATOM     27  H   UNL     1      46.332  13.644  -6.560  1.00  0.00     0.211 HD
ENDBRANCH  21  26
BRANCH  22  28
ATOM     28  C   UNL     1      45.558  12.130  -3.438  1.00  0.00     0.191 C 
BRANCH  28  29
ATOM     29  O   UNL     1      44.696  11.961  -2.340  1.00  0.00    -0.394 OA
ATOM     30  H   UNL     1      45.073  12.500  -1.600  1.00  0.00     0.210 HD
ENDBRANCH  28  29
ENDBRANCH  22  28
BRANCH  23  31
ATOM     31  O   UNL     1      47.926  12.313  -5.095  1.00  0.00    -0.387 OA
ATOM     32  H   UNL     1      47.848  12.657  -6.022  1.00  0.00     0.211 HD
ENDBRANCH  23  31
ENDBRANCH   1  18
TORSDOF 11
ENDMDL
