MODEL 1
REMARK VINA RESULT:    -3.307      0.000      0.000
REMARK INTER + INTRA:         -12.929
REMARK INTER:                  -8.333
REMARK INTRA:                  -4.596
REMARK UNBOUND:                -4.596
REMARK SMILES CCCCCCCCCCCCCCCCCCCCCCCCCCCC(=O)[O-]
REMARK SMILES IDX 15 1 16 2 17 3 18 4 19 5 20 6 21 7 22 8 23 9 24 10 25 11
REMARK SMILES IDX 26 12 27 13 28 14 29 15 30 16 14 17 13 18 12 19 11 20 10 21
REMARK SMILES IDX 9 22 8 23 7 24 6 25 5 26 4 27 3 28 2 29 1 30
REMARK H PARENT
REMARK Flexibility Score: inf
ROOT
ATOM      1  C   UNL     1      61.710  33.037  60.525  1.00  0.00     0.000 C 
ENDROOT
BRANCH   1   2
ATOM      2  C   UNL     1      60.902  31.723  60.516  1.00  0.00     0.000 C 
BRANCH   2   3
ATOM      3  C   UNL     1      61.116  30.796  61.734  1.00  0.00     0.000 C 
BRANCH   3   4
ATOM      4  C   UNL     1      62.561  30.318  61.959  1.00  0.00     0.000 C 
BRANCH   4   5
ATOM      5  C   UNL     1      62.784  28.862  61.512  1.00  0.00     0.000 C 
BRANCH   5   6
ATOM      6  C   UNL     1      63.100  28.746  60.012  1.00  0.00     0.000 C 
BRANCH   6   7
ATOM      7  C   UNL     1      64.218  29.703  59.562  1.00  0.00     0.000 C 
BRANCH   7   8
ATOM      8  C   UNL     1      65.428  28.955  58.979  1.00  0.00     0.000 C 
BRANCH   8   9
ATOM      9  C   UNL     1      66.171  28.131  60.045  1.00  0.00     0.000 C 
BRANCH   9  10
ATOM     10  C   UNL     1      66.502  28.946  61.305  1.00  0.00     0.000 C 
BRANCH  10  11
ATOM     11  C   UNL     1      67.925  28.737  61.853  1.00  0.00     0.000 C 
BRANCH  11  12
ATOM     12  C   UNL     1      68.912  28.172  60.808  1.00  0.00     0.006 C 
BRANCH  12  13
ATOM     13  C   UNL     1      70.194  29.009  60.708  1.00  0.00     0.053 C 
BRANCH  13  14
ATOM     14  C   UNL     1      69.973  30.197  59.827  1.00  0.00     0.041 C 
ATOM     15  O   UNL     1      70.715  31.208  59.927  1.00  0.00    -0.550 OA
ATOM     16  O   UNL     1      68.973  30.170  58.862  1.00  0.00    -0.550 OA
ENDBRANCH  13  14
ENDBRANCH  12  13
ENDBRANCH  11  12
ENDBRANCH  10  11
ENDBRANCH   9  10
ENDBRANCH   8   9
ENDBRANCH   7   8
ENDBRANCH   6   7
ENDBRANCH   5   6
ENDBRANCH   4   5
ENDBRANCH   3   4
ENDBRANCH   2   3
ENDBRANCH   1   2
BRANCH   1  17
ATOM     17  C   UNL     1      62.804  33.123  59.435  1.00  0.00     0.000 C 
BRANCH  17  18
ATOM     18  C   UNL     1      64.195  33.490  59.984  1.00  0.00     0.000 C 
BRANCH  18  19
ATOM     19  C   UNL     1      64.182  34.143  61.378  1.00  0.00     0.000 C 
BRANCH  19  20
ATOM     20  C   UNL     1      64.912  35.498  61.471  1.00  0.00     0.000 C 
BRANCH  20  21
ATOM     21  C   UNL     1      64.084  36.718  61.028  1.00  0.00     0.000 C 
BRANCH  21  22
ATOM     22  C   UNL     1      62.636  36.682  61.546  1.00  0.00    -0.000 C 
BRANCH  22  23
ATOM     23  C   UNL     1      61.598  36.728  60.414  1.00  0.00    -0.000 C 
BRANCH  23  24
ATOM     24  C   UNL     1      62.242  36.812  59.018  1.00  0.00    -0.000 C 
BRANCH  24  25
ATOM     25  C   UNL     1      61.421  36.059  57.959  1.00  0.00    -0.000 C 
BRANCH  25  26
ATOM     26  C   UNL     1      59.918  36.035  58.288  1.00  0.00    -0.000 C 
BRANCH  26  27
ATOM     27  C   UNL     1      59.263  34.692  57.914  1.00  0.00    -0.000 C 
BRANCH  27  28
ATOM     28  C   UNL     1      60.087  33.858  56.914  1.00  0.00    -0.000 C 
BRANCH  28  29
ATOM     29  C   UNL     1      59.781  32.357  57.009  1.00  0.00    -0.003 C 
ATOM     30  C   UNL     1      58.457  32.113  57.726  1.00  0.00     0.004 C 
ENDBRANCH  28  29
ENDBRANCH  27  28
ENDBRANCH  26  27
ENDBRANCH  25  26
ENDBRANCH  24  25
ENDBRANCH  23  24
ENDBRANCH  22  23
ENDBRANCH  21  22
ENDBRANCH  20  21
ENDBRANCH  19  20
ENDBRANCH  18  19
ENDBRANCH  17  18
ENDBRANCH   1  17
TORSDOF 26
ENDMDL
MODEL 2
REMARK VINA RESULT:    -3.199      4.098      8.354
REMARK INTER + INTRA:         -12.657
REMARK INTER:                  -7.254
REMARK INTRA:                  -5.403
REMARK UNBOUND:                -4.596
REMARK SMILES CCCCCCCCCCCCCCCCCCCCCCCCCCCC(=O)[O-]
REMARK SMILES IDX 15 1 16 2 17 3 18 4 19 5 20 6 21 7 22 8 23 9 24 10 25 11
REMARK SMILES IDX 26 12 27 13 28 14 29 15 30 16 14 17 13 18 12 19 11 20 10 21
REMARK SMILES IDX 9 22 8 23 7 24 6 25 5 26 4 27 3 28 2 29 1 30
REMARK H PARENT
REMARK Flexibility Score: inf
ROOT
ATOM      1  C   UNL     1      63.980  29.539  60.253  1.00  0.00     0.000 C 
ENDROOT
BRANCH   1   2
ATOM      2  C   UNL     1      64.628  30.426  59.168  1.00  0.00     0.000 C 
BRANCH   2   3
ATOM      3  C   UNL     1      64.973  31.869  59.600  1.00  0.00     0.000 C 
BRANCH   3   4
ATOM      4  C   UNL     1      64.693  32.961  58.553  1.00  0.00     0.000 C 
BRANCH   4   5
ATOM      5  C   UNL     1      64.269  34.298  59.185  1.00  0.00     0.000 C 
BRANCH   5   6
ATOM      6  C   UNL     1      64.350  34.278  60.721  1.00  0.00     0.000 C 
BRANCH   6   7
ATOM      7  C   UNL     1      63.532  35.405  61.377  1.00  0.00     0.000 C 
BRANCH   7   8
ATOM      8  C   UNL     1      62.578  36.089  60.383  1.00  0.00     0.000 C 
BRANCH   8   9
ATOM      9  C   UNL     1      61.110  36.008  60.835  1.00  0.00     0.000 C 
BRANCH   9  10
ATOM     10  C   UNL     1      60.119  36.274  59.691  1.00  0.00     0.000 C 
BRANCH  10  11
ATOM     11  C   UNL     1      60.608  35.832  58.299  1.00  0.00     0.000 C 
BRANCH  11  12
ATOM     12  C   UNL     1      59.494  35.813  57.230  1.00  0.00     0.006 C 
BRANCH  12  13
ATOM     13  C   UNL     1      59.124  34.387  56.803  1.00  0.00     0.053 C 
BRANCH  13  14
ATOM     14  C   UNL     1      58.009  34.415  55.805  1.00  0.00     0.041 C 
ATOM     15  O   UNL     1      57.143  35.327  55.847  1.00  0.00    -0.550 OA
ATOM     16  O   UNL     1      57.953  33.458  54.800  1.00  0.00    -0.550 OA
ENDBRANCH  13  14
ENDBRANCH  12  13
ENDBRANCH  11  12
ENDBRANCH  10  11
ENDBRANCH   9  10
ENDBRANCH   8   9
ENDBRANCH   7   8
ENDBRANCH   6   7
ENDBRANCH   5   6
ENDBRANCH   4   5
ENDBRANCH   3   4
ENDBRANCH   2   3
ENDBRANCH   1   2
BRANCH   1  17
ATOM     17  C   UNL     1      63.529  30.304  61.519  1.00  0.00     0.000 C 
BRANCH  17  18
ATOM     18  C   UNL     1      62.106  29.943  61.984  1.00  0.00     0.000 C 
BRANCH  18  19
ATOM     19  C   UNL     1      61.075  31.076  61.831  1.00  0.00     0.000 C 
BRANCH  19  20
ATOM     20  C   UNL     1      61.503  32.224  60.893  1.00  0.00     0.000 C 
BRANCH  20  21
ATOM     21  C   UNL     1      60.633  32.398  59.635  1.00  0.00     0.000 C 
BRANCH  21  22
ATOM     22  C   UNL     1      61.344  31.951  58.346  1.00  0.00    -0.000 C 
BRANCH  22  23
ATOM     23  C   UNL     1      61.108  30.467  58.020  1.00  0.00    -0.000 C 
BRANCH  23  24
ATOM     24  C   UNL     1      59.830  29.910  58.673  1.00  0.00    -0.000 C 
BRANCH  24  25
ATOM     25  C   UNL     1      59.811  28.373  58.680  1.00  0.00    -0.000 C 
BRANCH  25  26
ATOM     26  C   UNL     1      59.765  27.792  60.104  1.00  0.00    -0.000 C 
BRANCH  26  27
ATOM     27  C   UNL     1      60.905  26.789  60.359  1.00  0.00    -0.000 C 
BRANCH  27  28
ATOM     28  C   UNL     1      60.916  26.212  61.788  1.00  0.00    -0.000 C 
BRANCH  28  29
ATOM     29  C   UNL     1      62.261  26.423  62.497  1.00  0.00    -0.003 C 
ATOM     30  C   UNL     1      63.426  26.096  61.568  1.00  0.00     0.004 C 
ENDBRANCH  28  29
ENDBRANCH  27  28
ENDBRANCH  26  27
ENDBRANCH  25  26
ENDBRANCH  24  25
ENDBRANCH  23  24
ENDBRANCH  22  23
ENDBRANCH  21  22
ENDBRANCH  20  21
ENDBRANCH  19  20
ENDBRANCH  18  19
ENDBRANCH  17  18
ENDBRANCH   1  17
TORSDOF 26
ENDMDL
MODEL 3
REMARK VINA RESULT:    -3.192      2.317      6.591
REMARK INTER + INTRA:         -12.639
REMARK INTER:                  -8.944
REMARK INTRA:                  -3.695
REMARK UNBOUND:                -4.596
REMARK SMILES CCCCCCCCCCCCCCCCCCCCCCCCCCCC(=O)[O-]
REMARK SMILES IDX 15 1 16 2 17 3 18 4 19 5 20 6 21 7 22 8 23 9 24 10 25 11
REMARK SMILES IDX 26 12 27 13 28 14 29 15 30 16 14 17 13 18 12 19 11 20 10 21
REMARK SMILES IDX 9 22 8 23 7 24 6 25 5 26 4 27 3 28 2 29 1 30
REMARK H PARENT
REMARK Flexibility Score: inf
ROOT
ATOM      1  C   UNL     1      67.041  27.451  60.870  1.00  0.00     0.000 C 
ENDROOT
BRANCH   1   2
ATOM      2  C   UNL     1      68.498  27.216  60.418  1.00  0.00     0.000 C 
BRANCH   2   3
ATOM      3  C   UNL     1      69.377  28.481  60.304  1.00  0.00     0.000 C 
BRANCH   3   4
ATOM      4  C   UNL     1      69.519  29.066  58.889  1.00  0.00     0.000 C 
BRANCH   4   5
ATOM      5  C   UNL     1      70.960  28.991  58.354  1.00  0.00     0.000 C 
BRANCH   5   6
ATOM      6  C   UNL     1      71.925  28.326  59.349  1.00  0.00     0.000 C 
BRANCH   6   7
ATOM      7  C   UNL     1      73.120  29.227  59.715  1.00  0.00     0.000 C 
BRANCH   7   8
ATOM      8  C   UNL     1      73.122  29.618  61.201  1.00  0.00     0.000 C 
BRANCH   8   9
ATOM      9  C   UNL     1      72.873  31.122  61.408  1.00  0.00     0.000 C 
BRANCH   9  10
ATOM     10  C   UNL     1      71.460  31.555  60.987  1.00  0.00     0.000 C 
BRANCH  10  11
ATOM     11  C   UNL     1      71.400  32.869  60.186  1.00  0.00     0.000 C 
BRANCH  11  12
ATOM     12  C   UNL     1      70.724  32.719  58.806  1.00  0.00     0.006 C 
BRANCH  12  13
ATOM     13  C   UNL     1      71.259  33.732  57.785  1.00  0.00     0.053 C 
BRANCH  13  14
ATOM     14  C   UNL     1      72.199  33.063  56.832  1.00  0.00     0.041 C 
ATOM     15  O   UNL     1      72.421  31.828  56.921  1.00  0.00    -0.550 OA
ATOM     16  O   UNL     1      72.796  33.798  55.815  1.00  0.00    -0.550 OA
ENDBRANCH  13  14
ENDBRANCH  12  13
ENDBRANCH  11  12
ENDBRANCH  10  11
ENDBRANCH   9  10
ENDBRANCH   8   9
ENDBRANCH   7   8
ENDBRANCH   6   7
ENDBRANCH   5   6
ENDBRANCH   4   5
ENDBRANCH   3   4
ENDBRANCH   2   3
ENDBRANCH   1   2
BRANCH   1  17
ATOM     17  C   UNL     1      66.036  27.649  59.712  1.00  0.00     0.000 C 
BRANCH  17  18
ATOM     18  C   UNL     1      65.414  29.058  59.667  1.00  0.00     0.000 C 
BRANCH  18  19
ATOM     19  C   UNL     1      65.442  29.812  61.009  1.00  0.00     0.000 C 
BRANCH  19  20
ATOM     20  C   UNL     1      64.057  30.098  61.625  1.00  0.00     0.000 C 
BRANCH  20  21
ATOM     21  C   UNL     1      62.995  29.011  61.378  1.00  0.00     0.000 C 
BRANCH  21  22
ATOM     22  C   UNL     1      61.606  29.589  61.055  1.00  0.00    -0.000 C 
BRANCH  22  23
ATOM     23  C   UNL     1      61.222  30.761  61.971  1.00  0.00    -0.000 C 
BRANCH  23  24
ATOM     24  C   UNL     1      60.961  32.064  61.194  1.00  0.00    -0.000 C 
BRANCH  24  25
ATOM     25  C   UNL     1      61.110  31.870  59.677  1.00  0.00    -0.000 C 
BRANCH  25  26
ATOM     26  C   UNL     1      62.063  32.899  59.044  1.00  0.00    -0.000 C 
BRANCH  26  27
ATOM     27  C   UNL     1      63.540  32.488  59.189  1.00  0.00    -0.000 C 
BRANCH  27  28
ATOM     28  C   UNL     1      64.419  33.562  59.859  1.00  0.00    -0.000 C 
BRANCH  28  29
ATOM     29  C   UNL     1      63.816  34.078  61.173  1.00  0.00    -0.003 C 
ATOM     30  C   UNL     1      64.658  35.209  61.755  1.00  0.00     0.004 C 
ENDBRANCH  28  29
ENDBRANCH  27  28
ENDBRANCH  26  27
ENDBRANCH  25  26
ENDBRANCH  24  25
ENDBRANCH  23  24
ENDBRANCH  22  23
ENDBRANCH  21  22
ENDBRANCH  20  21
ENDBRANCH  19  20
ENDBRANCH  18  19
ENDBRANCH  17  18
ENDBRANCH   1  17
TORSDOF 26
ENDMDL
MODEL 4
REMARK VINA RESULT:    -3.177      3.415      8.407
REMARK INTER + INTRA:         -12.602
REMARK INTER:                  -8.241
REMARK INTRA:                  -4.361
REMARK UNBOUND:                -4.596
REMARK SMILES CCCCCCCCCCCCCCCCCCCCCCCCCCCC(=O)[O-]
REMARK SMILES IDX 15 1 16 2 17 3 18 4 19 5 20 6 21 7 22 8 23 9 24 10 25 11
REMARK SMILES IDX 26 12 27 13 28 14 29 15 30 16 14 17 13 18 12 19 11 20 10 21
REMARK SMILES IDX 9 22 8 23 7 24 6 25 5 26 4 27 3 28 2 29 1 30
REMARK H PARENT
REMARK Flexibility Score: inf
ROOT
ATOM      1  C   UNL     1      64.791  30.392  58.485  1.00  0.00     0.000 C 
ENDROOT
BRANCH   1   2
ATOM      2  C   UNL     1      65.293  31.404  59.536  1.00  0.00     0.000 C 
BRANCH   2   3
ATOM      3  C   UNL     1      64.573  32.770  59.549  1.00  0.00     0.000 C 
BRANCH   3   4
ATOM      4  C   UNL     1      64.236  33.331  60.941  1.00  0.00     0.000 C 
BRANCH   4   5
ATOM      5  C   UNL     1      62.981  34.221  60.939  1.00  0.00     0.000 C 
BRANCH   5   6
ATOM      6  C   UNL     1      61.909  33.726  59.954  1.00  0.00     0.000 C 
BRANCH   6   7
ATOM      7  C   UNL     1      60.866  32.808  60.617  1.00  0.00     0.000 C 
BRANCH   7   8
ATOM      8  C   UNL     1      61.228  31.320  60.484  1.00  0.00     0.000 C 
BRANCH   8   9
ATOM      9  C   UNL     1      61.621  30.693  61.833  1.00  0.00     0.000 C 
BRANCH   9  10
ATOM     10  C   UNL     1      62.909  29.857  61.749  1.00  0.00     0.000 C 
BRANCH  10  11
ATOM     11  C   UNL     1      62.769  28.537  60.968  1.00  0.00     0.000 C 
BRANCH  11  12
ATOM     12  C   UNL     1      62.113  27.403  61.785  1.00  0.00     0.006 C 
BRANCH  12  13
ATOM     13  C   UNL     1      63.060  26.215  61.995  1.00  0.00     0.053 C 
BRANCH  13  14
ATOM     14  C   UNL     1      62.370  25.126  62.754  1.00  0.00     0.041 C 
ATOM     15  O   UNL     1      61.514  25.408  63.631  1.00  0.00    -0.550 OA
ATOM     16  O   UNL     1      62.641  23.795  62.460  1.00  0.00    -0.550 OA
ENDBRANCH  13  14
ENDBRANCH  12  13
ENDBRANCH  11  12
ENDBRANCH  10  11
ENDBRANCH   9  10
ENDBRANCH   8   9
ENDBRANCH   7   8
ENDBRANCH   6   7
ENDBRANCH   5   6
ENDBRANCH   4   5
ENDBRANCH   3   4
ENDBRANCH   2   3
ENDBRANCH   1   2
BRANCH   1  17
ATOM     17  C   UNL     1      65.862  29.944  57.464  1.00  0.00     0.000 C 
BRANCH  17  18
ATOM     18  C   UNL     1      66.339  28.493  57.665  1.00  0.00     0.000 C 
BRANCH  18  19
ATOM     19  C   UNL     1      65.638  27.742  58.811  1.00  0.00     0.000 C 
BRANCH  19  20
ATOM     20  C   UNL     1      66.563  27.308  59.967  1.00  0.00     0.000 C 
BRANCH  20  21
ATOM     21  C   UNL     1      66.438  28.144  61.254  1.00  0.00     0.000 C 
BRANCH  21  22
ATOM     22  C   UNL     1      67.800  28.524  61.859  1.00  0.00    -0.000 C 
BRANCH  22  23
ATOM     23  C   UNL     1      68.642  29.405  60.922  1.00  0.00    -0.000 C 
BRANCH  23  24
ATOM     24  C   UNL     1      69.804  28.637  60.266  1.00  0.00    -0.000 C 
BRANCH  24  25
ATOM     25  C   UNL     1      71.167  29.269  60.589  1.00  0.00    -0.000 C 
BRANCH  25  26
ATOM     26  C   UNL     1      71.035  30.564  61.409  1.00  0.00    -0.000 C 
BRANCH  26  27
ATOM     27  C   UNL     1      71.703  31.764  60.712  1.00  0.00    -0.000 C 
BRANCH  27  28
ATOM     28  C   UNL     1      71.660  31.689  59.173  1.00  0.00    -0.000 C 
BRANCH  28  29
ATOM     29  C   UNL     1      70.563  32.578  58.572  1.00  0.00    -0.003 C 
ATOM     30  C   UNL     1      69.334  31.755  58.199  1.00  0.00     0.004 C 
ENDBRANCH  28  29
ENDBRANCH  27  28
ENDBRANCH  26  27
ENDBRANCH  25  26
ENDBRANCH  24  25
ENDBRANCH  23  24
ENDBRANCH  22  23
ENDBRANCH  21  22
ENDBRANCH  20  21
ENDBRANCH  19  20
ENDBRANCH  18  19
ENDBRANCH  17  18
ENDBRANCH   1  17
TORSDOF 26
ENDMDL
MODEL 5
REMARK VINA RESULT:    -3.171      9.194     12.440
REMARK INTER + INTRA:         -12.586
REMARK INTER:                  -7.770
REMARK INTRA:                  -4.815
REMARK UNBOUND:                -4.596
REMARK SMILES CCCCCCCCCCCCCCCCCCCCCCCCCCCC(=O)[O-]
REMARK SMILES IDX 15 1 16 2 17 3 18 4 19 5 20 6 21 7 22 8 23 9 24 10 25 11
REMARK SMILES IDX 26 12 27 13 28 14 29 15 30 16 14 17 13 18 12 19 11 20 10 21
REMARK SMILES IDX 9 22 8 23 7 24 6 25 5 26 4 27 3 28 2 29 1 30
REMARK H PARENT
REMARK Flexibility Score: inf
ROOT
ATOM      1  C   UNL     1      54.569  26.501  49.621  1.00  0.00     0.000 C 
ENDROOT
BRANCH   1   2
ATOM      2  C   UNL     1      54.999  25.746  50.896  1.00  0.00     0.000 C 
BRANCH   2   3
ATOM      3  C   UNL     1      56.513  25.751  51.201  1.00  0.00     0.000 C 
BRANCH   3   4
ATOM      4  C   UNL     1      57.396  26.471  50.167  1.00  0.00     0.000 C 
BRANCH   4   5
ATOM      5  C   UNL     1      58.779  25.817  50.005  1.00  0.00     0.000 C 
BRANCH   5   6
ATOM      6  C   UNL     1      59.818  26.774  49.397  1.00  0.00     0.000 C 
BRANCH   6   7
ATOM      7  C   UNL     1      59.262  28.191  49.168  1.00  0.00     0.000 C 
BRANCH   7   8
ATOM      8  C   UNL     1      60.080  29.266  49.903  1.00  0.00     0.000 C 
BRANCH   8   9
ATOM      9  C   UNL     1      61.515  28.801  50.204  1.00  0.00     0.000 C 
BRANCH   9  10
ATOM     10  C   UNL     1      62.278  29.776  51.115  1.00  0.00     0.000 C 
BRANCH  10  11
ATOM     11  C   UNL     1      61.529  31.085  51.428  1.00  0.00     0.000 C 
BRANCH  11  12
ATOM     12  C   UNL     1      62.223  32.343  50.862  1.00  0.00     0.006 C 
BRANCH  12  13
ATOM     13  C   UNL     1      62.729  32.132  49.430  1.00  0.00     0.053 C 
BRANCH  13  14
ATOM     14  C   UNL     1      62.938  33.449  48.752  1.00  0.00     0.041 C 
ATOM     15  O   UNL     1      61.952  34.157  48.422  1.00  0.00    -0.550 OA
ATOM     16  O   UNL     1      64.227  33.916  48.523  1.00  0.00    -0.550 OA
ENDBRANCH  13  14
ENDBRANCH  12  13
ENDBRANCH  11  12
ENDBRANCH  10  11
ENDBRANCH   9  10
ENDBRANCH   8   9
ENDBRANCH   7   8
ENDBRANCH   6   7
ENDBRANCH   5   6
ENDBRANCH   4   5
ENDBRANCH   3   4
ENDBRANCH   2   3
ENDBRANCH   1   2
BRANCH   1  17
ATOM     17  C   UNL     1      53.161  27.136  49.696  1.00  0.00     0.000 C 
BRANCH  17  18
ATOM     18  C   UNL     1      53.181  28.666  49.867  1.00  0.00     0.000 C 
BRANCH  18  19
ATOM     19  C   UNL     1      54.492  29.228  50.446  1.00  0.00     0.000 C 
BRANCH  19  20
ATOM     20  C   UNL     1      54.472  29.495  51.965  1.00  0.00     0.000 C 
BRANCH  20  21
ATOM     21  C   UNL     1      55.701  28.979  52.736  1.00  0.00     0.000 C 
BRANCH  21  22
ATOM     22  C   UNL     1      57.034  29.384  52.082  1.00  0.00    -0.000 C 
BRANCH  22  23
ATOM     23  C   UNL     1      58.112  29.758  53.112  1.00  0.00    -0.000 C 
BRANCH  23  24
ATOM     24  C   UNL     1      59.259  28.734  53.173  1.00  0.00    -0.000 C 
BRANCH  24  25
ATOM     25  C   UNL     1      58.746  27.310  53.445  1.00  0.00    -0.000 C 
BRANCH  25  26
ATOM     26  C   UNL     1      59.890  26.311  53.691  1.00  0.00    -0.000 C 
BRANCH  26  27
ATOM     27  C   UNL     1      61.234  26.820  53.137  1.00  0.00    -0.000 C 
BRANCH  27  28
ATOM     28  C   UNL     1      62.461  26.102  53.733  1.00  0.00    -0.000 C 
BRANCH  28  29
ATOM     29  C   UNL     1      63.469  25.672  52.658  1.00  0.00    -0.003 C 
ATOM     30  C   UNL     1      62.794  25.540  51.296  1.00  0.00     0.004 C 
ENDBRANCH  28  29
ENDBRANCH  27  28
ENDBRANCH  26  27
ENDBRANCH  25  26
ENDBRANCH  24  25
ENDBRANCH  23  24
ENDBRANCH  22  23
ENDBRANCH  21  22
ENDBRANCH  20  21
ENDBRANCH  19  20
ENDBRANCH  18  19
ENDBRANCH  17  18
ENDBRANCH   1  17
TORSDOF 26
ENDMDL
MODEL 6
REMARK VINA RESULT:    -3.126      9.813     12.547
REMARK INTER + INTRA:         -12.474
REMARK INTER:                  -8.268
REMARK INTRA:                  -4.206
REMARK UNBOUND:                -4.596
REMARK SMILES CCCCCCCCCCCCCCCCCCCCCCCCCCCC(=O)[O-]
REMARK SMILES IDX 15 1 16 2 17 3 18 4 19 5 20 6 21 7 22 8 23 9 24 10 25 11
REMARK SMILES IDX 26 12 27 13 28 14 29 15 30 16 14 17 13 18 12 19 11 20 10 21
REMARK SMILES IDX 9 22 8 23 7 24 6 25 5 26 4 27 3 28 2 29 1 30
REMARK H PARENT
REMARK Flexibility Score: inf
ROOT
ATOM      1  C   UNL     1      57.671  29.257  50.068  1.00  0.00     0.000 C 
ENDROOT
BRANCH   1   2
ATOM      2  C   UNL     1      58.952  28.956  49.263  1.00  0.00     0.000 C 
BRANCH   2   3
ATOM      3  C   UNL     1      60.121  28.344  50.067  1.00  0.00     0.000 C 
BRANCH   3   4
ATOM      4  C   UNL     1      60.780  27.103  49.441  1.00  0.00     0.000 C 
BRANCH   4   5
ATOM      5  C   UNL     1      61.888  26.505  50.326  1.00  0.00     0.000 C 
BRANCH   5   6
ATOM      6  C   UNL     1      63.274  26.571  49.662  1.00  0.00     0.000 C 
BRANCH   6   7
ATOM      7  C   UNL     1      63.430  27.781  48.723  1.00  0.00     0.000 C 
BRANCH   7   8
ATOM      8  C   UNL     1      64.205  28.934  49.381  1.00  0.00     0.000 C 
BRANCH   8   9
ATOM      9  C   UNL     1      63.548  30.301  49.122  1.00  0.00     0.000 C 
BRANCH   9  10
ATOM     10  C   UNL     1      64.574  31.432  48.949  1.00  0.00     0.000 C 
BRANCH  10  11
ATOM     11  C   UNL     1      65.295  31.851  50.244  1.00  0.00     0.000 C 
BRANCH  11  12
ATOM     12  C   UNL     1      64.462  32.798  51.135  1.00  0.00     0.006 C 
BRANCH  12  13
ATOM     13  C   UNL     1      64.053  34.080  50.397  1.00  0.00     0.053 C 
BRANCH  13  14
ATOM     14  C   UNL     1      62.619  34.005  49.979  1.00  0.00     0.041 C 
ATOM     15  O   UNL     1      62.293  34.240  48.786  1.00  0.00    -0.550 OA
ATOM     16  O   UNL     1      61.646  33.631  50.897  1.00  0.00    -0.550 OA
ENDBRANCH  13  14
ENDBRANCH  12  13
ENDBRANCH  11  12
ENDBRANCH  10  11
ENDBRANCH   9  10
ENDBRANCH   8   9
ENDBRANCH   7   8
ENDBRANCH   6   7
ENDBRANCH   5   6
ENDBRANCH   4   5
ENDBRANCH   3   4
ENDBRANCH   2   3
ENDBRANCH   1   2
BRANCH   1  17
ATOM     17  C   UNL     1      57.885  29.364  51.596  1.00  0.00     0.000 C 
BRANCH  17  18
ATOM     18  C   UNL     1      56.652  28.954  52.423  1.00  0.00     0.000 C 
BRANCH  18  19
ATOM     19  C   UNL     1      55.566  30.040  52.534  1.00  0.00     0.000 C 
BRANCH  19  20
ATOM     20  C   UNL     1      54.167  29.615  52.043  1.00  0.00     0.000 C 
BRANCH  20  21
ATOM     21  C   UNL     1      54.009  29.530  50.514  1.00  0.00     0.000 C 
BRANCH  21  22
ATOM     22  C   UNL     1      53.835  28.089  50.007  1.00  0.00    -0.000 C 
BRANCH  22  23
ATOM     23  C   UNL     1      53.763  27.061  51.148  1.00  0.00    -0.000 C 
BRANCH  23  24
ATOM     24  C   UNL     1      54.788  25.924  50.992  1.00  0.00    -0.000 C 
BRANCH  24  25
ATOM     25  C   UNL     1      55.640  26.086  49.723  1.00  0.00    -0.000 C 
BRANCH  25  26
ATOM     26  C   UNL     1      57.143  25.907  49.998  1.00  0.00    -0.000 C 
BRANCH  26  27
ATOM     27  C   UNL     1      57.425  25.546  51.468  1.00  0.00    -0.000 C 
BRANCH  27  28
ATOM     28  C   UNL     1      58.543  24.500  51.646  1.00  0.00    -0.000 C 
BRANCH  28  29
ATOM     29  C   UNL     1      59.604  24.941  52.664  1.00  0.00    -0.003 C 
ATOM     30  C   UNL     1      59.344  26.365  53.143  1.00  0.00     0.004 C 
ENDBRANCH  28  29
ENDBRANCH  27  28
ENDBRANCH  26  27
ENDBRANCH  25  26
ENDBRANCH  24  25
ENDBRANCH  23  24
ENDBRANCH  22  23
ENDBRANCH  21  22
ENDBRANCH  20  21
ENDBRANCH  19  20
ENDBRANCH  18  19
ENDBRANCH  17  18
ENDBRANCH   1  17
TORSDOF 26
ENDMDL
MODEL 7
REMARK VINA RESULT:    -3.110      9.145     12.049
REMARK INTER + INTRA:         -12.433
REMARK INTER:                  -7.037
REMARK INTRA:                  -5.396
REMARK UNBOUND:                -4.596
REMARK SMILES CCCCCCCCCCCCCCCCCCCCCCCCCCCC(=O)[O-]
REMARK SMILES IDX 15 1 16 2 17 3 18 4 19 5 20 6 21 7 22 8 23 9 24 10 25 11
REMARK SMILES IDX 26 12 27 13 28 14 29 15 30 16 14 17 13 18 12 19 11 20 10 21
REMARK SMILES IDX 9 22 8 23 7 24 6 25 5 26 4 27 3 28 2 29 1 30
REMARK H PARENT
REMARK Flexibility Score: inf
ROOT
ATOM      1  C   UNL     1      54.673  26.405  49.655  1.00  0.00     0.000 C 
ENDROOT
BRANCH   1   2
ATOM      2  C   UNL     1      55.000  25.879  51.068  1.00  0.00     0.000 C 
BRANCH   2   3
ATOM      3  C   UNL     1      56.499  25.845  51.441  1.00  0.00     0.000 C 
BRANCH   3   4
ATOM      4  C   UNL     1      56.885  26.617  52.714  1.00  0.00     0.000 C 
BRANCH   4   5
ATOM      5  C   UNL     1      56.880  28.143  52.512  1.00  0.00     0.000 C 
BRANCH   5   6
ATOM      6  C   UNL     1      58.278  28.764  52.671  1.00  0.00     0.000 C 
BRANCH   6   7
ATOM      7  C   UNL     1      58.708  29.588  51.444  1.00  0.00     0.000 C 
BRANCH   7   8
ATOM      8  C   UNL     1      58.138  29.024  50.132  1.00  0.00     0.000 C 
BRANCH   8   9
ATOM      9  C   UNL     1      59.231  28.416  49.236  1.00  0.00     0.000 C 
BRANCH   9  10
ATOM     10  C   UNL     1      59.250  26.880  49.279  1.00  0.00     0.000 C 
BRANCH  10  11
ATOM     11  C   UNL     1      60.106  26.278  50.408  1.00  0.00     0.000 C 
BRANCH  11  12
ATOM     12  C   UNL     1      61.418  27.051  50.667  1.00  0.00     0.006 C 
BRANCH  12  13
ATOM     13  C   UNL     1      62.527  26.658  49.683  1.00  0.00     0.053 C 
BRANCH  13  14
ATOM     14  C   UNL     1      63.118  27.877  49.050  1.00  0.00     0.041 C 
ATOM     15  O   UNL     1      63.591  27.822  47.886  1.00  0.00    -0.550 OA
ATOM     16  O   UNL     1      63.105  29.089  49.731  1.00  0.00    -0.550 OA
ENDBRANCH  13  14
ENDBRANCH  12  13
ENDBRANCH  11  12
ENDBRANCH  10  11
ENDBRANCH   9  10
ENDBRANCH   8   9
ENDBRANCH   7   8
ENDBRANCH   6   7
ENDBRANCH   5   6
ENDBRANCH   4   5
ENDBRANCH   3   4
ENDBRANCH   2   3
ENDBRANCH   1   2
BRANCH   1  17
ATOM     17  C   UNL     1      53.698  27.605  49.628  1.00  0.00     0.000 C 
BRANCH  17  18
ATOM     18  C   UNL     1      54.224  28.846  50.373  1.00  0.00     0.000 C 
BRANCH  18  19
ATOM     19  C   UNL     1      53.136  29.684  51.070  1.00  0.00     0.000 C 
BRANCH  19  20
ATOM     20  C   UNL     1      53.148  29.615  52.611  1.00  0.00     0.000 C 
BRANCH  20  21
ATOM     21  C   UNL     1      53.185  28.193  53.201  1.00  0.00     0.000 C 
BRANCH  21  22
ATOM     22  C   UNL     1      53.822  28.139  54.601  1.00  0.00    -0.000 C 
BRANCH  22  23
ATOM     23  C   UNL     1      53.496  29.378  55.450  1.00  0.00    -0.000 C 
BRANCH  23  24
ATOM     24  C   UNL     1      54.471  29.569  56.625  1.00  0.00    -0.000 C 
BRANCH  24  25
ATOM     25  C   UNL     1      55.716  28.676  56.492  1.00  0.00    -0.000 C 
BRANCH  25  26
ATOM     26  C   UNL     1      56.955  29.462  56.028  1.00  0.00    -0.000 C 
BRANCH  26  27
ATOM     27  C   UNL     1      56.662  30.966  55.868  1.00  0.00    -0.000 C 
BRANCH  27  28
ATOM     28  C   UNL     1      57.328  31.598  54.631  1.00  0.00    -0.000 C 
BRANCH  28  29
ATOM     29  C   UNL     1      56.319  31.915  53.519  1.00  0.00    -0.003 C 
ATOM     30  C   UNL     1      55.006  32.430  54.100  1.00  0.00     0.004 C 
ENDBRANCH  28  29
ENDBRANCH  27  28
ENDBRANCH  26  27
ENDBRANCH  25  26
ENDBRANCH  24  25
ENDBRANCH  23  24
ENDBRANCH  22  23
ENDBRANCH  21  22
ENDBRANCH  20  21
ENDBRANCH  19  20
ENDBRANCH  18  19
ENDBRANCH  17  18
ENDBRANCH   1  17
TORSDOF 26
ENDMDL
MODEL 8
REMARK VINA RESULT:    -3.090      2.672      4.580
REMARK INTER + INTRA:         -12.382
REMARK INTER:                  -6.654
REMARK INTRA:                  -5.727
REMARK UNBOUND:                -4.596
REMARK SMILES CCCCCCCCCCCCCCCCCCCCCCCCCCCC(=O)[O-]
REMARK SMILES IDX 15 1 16 2 17 3 18 4 19 5 20 6 21 7 22 8 23 9 24 10 25 11
REMARK SMILES IDX 26 12 27 13 28 14 29 15 30 16 14 17 13 18 12 19 11 20 10 21
REMARK SMILES IDX 9 22 8 23 7 24 6 25 5 26 4 27 3 28 2 29 1 30
REMARK H PARENT
REMARK Flexibility Score: inf
ROOT
ATOM      1  C   UNL     1      64.531  30.872  60.954  1.00  0.00     0.000 C 
ENDROOT
BRANCH   1   2
ATOM      2  C   UNL     1      63.378  29.847  60.981  1.00  0.00     0.000 C 
BRANCH   2   3
ATOM      3  C   UNL     1      62.277  30.105  62.033  1.00  0.00     0.000 C 
BRANCH   3   4
ATOM      4  C   UNL     1      61.167  31.081  61.607  1.00  0.00     0.000 C 
BRANCH   4   5
ATOM      5  C   UNL     1      60.762  30.918  60.132  1.00  0.00     0.000 C 
BRANCH   5   6
ATOM      6  C   UNL     1      60.863  32.234  59.343  1.00  0.00     0.000 C 
BRANCH   6   7
ATOM      7  C   UNL     1      60.658  32.040  57.829  1.00  0.00     0.000 C 
BRANCH   7   8
ATOM      8  C   UNL     1      61.274  30.727  57.320  1.00  0.00     0.000 C 
BRANCH   8   9
ATOM      9  C   UNL     1      62.134  30.936  56.061  1.00  0.00     0.000 C 
BRANCH   9  10
ATOM     10  C   UNL     1      63.358  31.830  56.318  1.00  0.00     0.000 C 
BRANCH  10  11
ATOM     11  C   UNL     1      63.941  32.499  55.060  1.00  0.00     0.000 C 
BRANCH  11  12
ATOM     12  C   UNL     1      65.334  31.962  54.665  1.00  0.00     0.006 C 
BRANCH  12  13
ATOM     13  C   UNL     1      66.298  31.915  55.858  1.00  0.00     0.053 C 
BRANCH  13  14
ATOM     14  C   UNL     1      66.809  33.286  56.168  1.00  0.00     0.041 C 
ATOM     15  O   UNL     1      66.944  34.136  55.250  1.00  0.00    -0.550 OA
ATOM     16  O   UNL     1      67.096  33.640  57.481  1.00  0.00    -0.550 OA
ENDBRANCH  13  14
ENDBRANCH  12  13
ENDBRANCH  11  12
ENDBRANCH  10  11
ENDBRANCH   9  10
ENDBRANCH   8   9
ENDBRANCH   7   8
ENDBRANCH   6   7
ENDBRANCH   5   6
ENDBRANCH   4   5
ENDBRANCH   3   4
ENDBRANCH   2   3
ENDBRANCH   1   2
BRANCH   1  17
ATOM     17  C   UNL     1      64.691  31.620  59.610  1.00  0.00     0.000 C 
BRANCH  17  18
ATOM     18  C   UNL     1      64.451  33.137  59.715  1.00  0.00     0.000 C 
BRANCH  18  19
ATOM     19  C   UNL     1      63.836  33.597  61.050  1.00  0.00     0.000 C 
BRANCH  19  20
ATOM     20  C   UNL     1      64.462  34.873  61.651  1.00  0.00     0.000 C 
BRANCH  20  21
ATOM     21  C   UNL     1      63.564  36.123  61.609  1.00  0.00     0.000 C 
BRANCH  21  22
ATOM     22  C   UNL     1      62.157  35.835  61.057  1.00  0.00    -0.000 C 
BRANCH  22  23
ATOM     23  C   UNL     1      61.291  37.099  60.947  1.00  0.00    -0.000 C 
BRANCH  23  24
ATOM     24  C   UNL     1      60.336  37.064  59.740  1.00  0.00    -0.000 C 
BRANCH  24  25
ATOM     25  C   UNL     1      60.604  35.857  58.827  1.00  0.00    -0.000 C 
BRANCH  25  26
ATOM     26  C   UNL     1      61.461  36.226  57.604  1.00  0.00    -0.000 C 
BRANCH  26  27
ATOM     27  C   UNL     1      62.529  35.158  57.300  1.00  0.00    -0.000 C 
BRANCH  27  28
ATOM     28  C   UNL     1      63.936  35.740  57.062  1.00  0.00    -0.000 C 
BRANCH  28  29
ATOM     29  C   UNL     1      64.289  36.851  58.060  1.00  0.00    -0.003 C 
ATOM     30  C   UNL     1      65.689  36.651  58.630  1.00  0.00     0.004 C 
ENDBRANCH  28  29
ENDBRANCH  27  28
ENDBRANCH  26  27
ENDBRANCH  25  26
ENDBRANCH  24  25
ENDBRANCH  23  24
ENDBRANCH  22  23
ENDBRANCH  21  22
ENDBRANCH  20  21
ENDBRANCH  19  20
ENDBRANCH  18  19
ENDBRANCH  17  18
ENDBRANCH   1  17
TORSDOF 26
ENDMDL
MODEL 9
REMARK VINA RESULT:    -3.065      1.776      3.071
REMARK INTER + INTRA:         -12.319
REMARK INTER:                  -7.985
REMARK INTRA:                  -4.334
REMARK UNBOUND:                -4.596
REMARK SMILES CCCCCCCCCCCCCCCCCCCCCCCCCCCC(=O)[O-]
REMARK SMILES IDX 15 1 16 2 17 3 18 4 19 5 20 6 21 7 22 8 23 9 24 10 25 11
REMARK SMILES IDX 26 12 27 13 28 14 29 15 30 16 14 17 13 18 12 19 11 20 10 21
REMARK SMILES IDX 9 22 8 23 7 24 6 25 5 26 4 27 3 28 2 29 1 30
REMARK H PARENT
REMARK Flexibility Score: inf
ROOT
ATOM      1  C   UNL     1      60.812  32.698  59.078  1.00  0.00     0.000 C 
ENDROOT
BRANCH   1   2
ATOM      2  C   UNL     1      61.229  31.333  59.664  1.00  0.00     0.000 C 
BRANCH   2   3
ATOM      3  C   UNL     1      61.651  31.342  61.150  1.00  0.00     0.000 C 
BRANCH   3   4
ATOM      4  C   UNL     1      62.883  30.489  61.497  1.00  0.00     0.000 C 
BRANCH   4   5
ATOM      5  C   UNL     1      64.209  31.239  61.279  1.00  0.00     0.000 C 
BRANCH   5   6
ATOM      6  C   UNL     1      65.256  30.386  60.544  1.00  0.00     0.000 C 
BRANCH   6   7
ATOM      7  C   UNL     1      64.815  28.922  60.365  1.00  0.00     0.000 C 
BRANCH   7   8
ATOM      8  C   UNL     1      65.860  27.928  60.898  1.00  0.00     0.000 C 
BRANCH   8   9
ATOM      9  C   UNL     1      67.029  28.634  61.606  1.00  0.00     0.000 C 
BRANCH   9  10
ATOM     10  C   UNL     1      68.400  28.216  61.052  1.00  0.00     0.000 C 
BRANCH  10  11
ATOM     11  C   UNL     1      68.812  28.923  59.748  1.00  0.00     0.000 C 
BRANCH  11  12
ATOM     12  C   UNL     1      70.130  29.718  59.867  1.00  0.00     0.006 C 
BRANCH  12  13
ATOM     13  C   UNL     1      70.516  29.987  61.327  1.00  0.00     0.053 C 
BRANCH  13  14
ATOM     14  C   UNL     1      71.862  30.636  61.399  1.00  0.00     0.041 C 
ATOM     15  O   UNL     1      72.885  29.950  61.655  1.00  0.00    -0.550 OA
ATOM     16  O   UNL     1      71.993  31.995  61.139  1.00  0.00    -0.550 OA
ENDBRANCH  13  14
ENDBRANCH  12  13
ENDBRANCH  11  12
ENDBRANCH  10  11
ENDBRANCH   9  10
ENDBRANCH   8   9
ENDBRANCH   7   8
ENDBRANCH   6   7
ENDBRANCH   5   6
ENDBRANCH   4   5
ENDBRANCH   3   4
ENDBRANCH   2   3
ENDBRANCH   1   2
BRANCH   1  17
ATOM     17  C   UNL     1      61.168  33.912  59.967  1.00  0.00     0.000 C 
BRANCH  17  18
ATOM     18  C   UNL     1      61.149  35.255  59.214  1.00  0.00     0.000 C 
BRANCH  18  19
ATOM     19  C   UNL     1      60.635  36.447  60.043  1.00  0.00     0.000 C 
BRANCH  19  20
ATOM     20  C   UNL     1      61.565  36.892  61.190  1.00  0.00     0.000 C 
BRANCH  20  21
ATOM     21  C   UNL     1      63.059  36.973  60.827  1.00  0.00     0.000 C 
BRANCH  21  22
ATOM     22  C   UNL     1      63.925  35.978  61.618  1.00  0.00    -0.000 C 
BRANCH  22  23
ATOM     23  C   UNL     1      64.596  34.928  60.720  1.00  0.00    -0.000 C 
BRANCH  23  24
ATOM     24  C   UNL     1      65.171  35.530  59.425  1.00  0.00    -0.000 C 
BRANCH  24  25
ATOM     25  C   UNL     1      64.661  34.798  58.173  1.00  0.00    -0.000 C 
BRANCH  25  26
ATOM     26  C   UNL     1      64.436  33.297  58.421  1.00  0.00    -0.000 C 
BRANCH  26  27
ATOM     27  C   UNL     1      64.567  32.469  57.129  1.00  0.00    -0.000 C 
BRANCH  27  28
ATOM     28  C   UNL     1      63.949  31.061  57.229  1.00  0.00    -0.000 C 
BRANCH  28  29
ATOM     29  C   UNL     1      62.926  30.787  56.118  1.00  0.00    -0.003 C 
ATOM     30  C   UNL     1      62.227  32.073  55.689  1.00  0.00     0.004 C 
ENDBRANCH  28  29
ENDBRANCH  27  28
ENDBRANCH  26  27
ENDBRANCH  25  26
ENDBRANCH  24  25
ENDBRANCH  23  24
ENDBRANCH  22  23
ENDBRANCH  21  22
ENDBRANCH  20  21
ENDBRANCH  19  20
ENDBRANCH  18  19
ENDBRANCH  17  18
ENDBRANCH   1  17
TORSDOF 26
ENDMDL
