MODEL 1
REMARK VINA RESULT:    -2.873      0.000      0.000
REMARK INTER + INTRA:          -5.271
REMARK INTER:                  -4.385
REMARK INTRA:                  -0.886
REMARK UNBOUND:                -0.886
REMARK SMILES O=C([O-])CCCCCCCCC(=O)[O-]
REMARK SMILES IDX 7 1 6 2 5 3 4 4 2 5 1 6 3 7 8 8 9 9 10 10 11 11 12 12 13 13
REMARK SMILES IDX 14 14
REMARK H PARENT
REMARK Flexibility Score: inf
ROOT
ATOM      1  C   UNL     1     146.203 165.004 150.964  1.00  0.00     0.000 C 
ENDROOT
BRANCH   1   2
ATOM      2  C   UNL     1     146.022 165.284 152.461  1.00  0.00     0.000 C 
BRANCH   2   3
ATOM      3  C   UNL     1     147.114 166.227 152.981  1.00  0.00     0.006 C 
BRANCH   3   4
ATOM      4  C   UNL     1     148.256 165.440 153.628  1.00  0.00     0.053 C 
BRANCH   4   5
ATOM      5  C   UNL     1     147.992 165.236 155.087  1.00  0.00     0.041 C 
ATOM      6  O   UNL     1     148.428 164.212 155.673  1.00  0.00    -0.550 OA
ATOM      7  O   UNL     1     147.221 166.156 155.788  1.00  0.00    -0.550 OA
ENDBRANCH   4   5
ENDBRANCH   3   4
ENDBRANCH   2   3
ENDBRANCH   1   2
BRANCH   1   8
ATOM      8  C   UNL     1     146.603 163.544 150.722  1.00  0.00     0.000 C 
BRANCH   8   9
ATOM      9  C   UNL     1     146.224 162.664 151.919  1.00  0.00     0.000 C 
BRANCH   9  10
ATOM     10  C   UNL     1     146.879 161.279 151.814  1.00  0.00     0.006 C 
BRANCH  10  11
ATOM     11  C   UNL     1     148.412 161.359 151.812  1.00  0.00     0.053 C 
BRANCH  11  12
ATOM     12  C   UNL     1     148.957 161.621 153.183  1.00  0.00     0.041 C 
ATOM     13  O   UNL     1     149.970 162.355 153.332  1.00  0.00    -0.550 OA
ATOM     14  O   UNL     1     148.367 161.029 154.291  1.00  0.00    -0.550 OA
ENDBRANCH  11  12
ENDBRANCH  10  11
ENDBRANCH   9  10
ENDBRANCH   8   9
ENDBRANCH   1   8
TORSDOF 9
ENDMDL
MODEL 2
REMARK VINA RESULT:    -2.859      2.296      4.039
REMARK INTER + INTRA:          -5.249
REMARK INTER:                  -4.358
REMARK INTRA:                  -0.891
REMARK UNBOUND:                -0.886
REMARK SMILES O=C([O-])CCCCCCCCC(=O)[O-]
REMARK SMILES IDX 7 1 6 2 5 3 4 4 2 5 1 6 3 7 8 8 9 9 10 10 11 11 12 12 13 13
REMARK SMILES IDX 14 14
REMARK H PARENT
REMARK Flexibility Score: inf
ROOT
ATOM      1  C   UNL     1     145.875 165.292 154.677  1.00  0.00     0.000 C 
ENDROOT
BRANCH   1   2
ATOM      2  C   UNL     1     146.279 164.484 155.917  1.00  0.00     0.000 C 
BRANCH   2   3
ATOM      3  C   UNL     1     147.372 163.464 155.578  1.00  0.00     0.006 C 
BRANCH   3   4
ATOM      4  C   UNL     1     146.855 162.410 154.595  1.00  0.00     0.053 C 
BRANCH   4   5
ATOM      5  C   UNL     1     147.767 161.225 154.569  1.00  0.00     0.041 C 
ATOM      6  O   UNL     1     147.885 160.493 155.585  1.00  0.00    -0.550 OA
ATOM      7  O   UNL     1     148.527 160.958 153.435  1.00  0.00    -0.550 OA
ENDBRANCH   4   5
ENDBRANCH   3   4
ENDBRANCH   2   3
ENDBRANCH   1   2
BRANCH   1   8
ATOM      8  C   UNL     1     147.050 166.131 154.161  1.00  0.00     0.000 C 
BRANCH   8   9
ATOM      9  C   UNL     1     147.191 166.002 152.639  1.00  0.00     0.000 C 
BRANCH   9  10
ATOM     10  C   UNL     1     145.968 165.302 152.030  1.00  0.00     0.006 C 
BRANCH  10  11
ATOM     11  C   UNL     1     146.301 164.593 150.710  1.00  0.00     0.053 C 
BRANCH  11  12
ATOM     12  C   UNL     1     146.979 163.278 150.941  1.00  0.00     0.041 C 
ATOM     13  O   UNL     1     146.300 162.256 151.225  1.00  0.00    -0.550 OA
ATOM     14  O   UNL     1     148.363 163.187 150.874  1.00  0.00    -0.550 OA
ENDBRANCH  11  12
ENDBRANCH  10  11
ENDBRANCH   9  10
ENDBRANCH   8   9
ENDBRANCH   1   8
TORSDOF 9
ENDMDL
MODEL 3
REMARK VINA RESULT:    -2.806      8.918     11.117
REMARK INTER + INTRA:          -5.168
REMARK INTER:                  -4.350
REMARK INTRA:                  -0.818
REMARK UNBOUND:                -0.886
REMARK SMILES O=C([O-])CCCCCCCCC(=O)[O-]
REMARK SMILES IDX 7 1 6 2 5 3 4 4 2 5 1 6 3 7 8 8 9 9 10 10 11 11 12 12 13 13
REMARK SMILES IDX 14 14
REMARK H PARENT
REMARK Flexibility Score: inf
ROOT
ATOM      1  C   UNL     1     147.540 156.842 162.518  1.00  0.00     0.000 C 
ENDROOT
BRANCH   1   2
ATOM      2  C   UNL     1     146.116 156.459 162.098  1.00  0.00     0.000 C 
BRANCH   2   3
ATOM      3  C   UNL     1     146.074 156.023 160.628  1.00  0.00     0.006 C 
BRANCH   3   4
ATOM      4  C   UNL     1     147.254 155.108 160.293  1.00  0.00     0.053 C 
BRANCH   4   5
ATOM      5  C   UNL     1     146.771 153.839 159.663  1.00  0.00     0.041 C 
ATOM      6  O   UNL     1     145.875 153.155 160.222  1.00  0.00    -0.550 OA
ATOM      7  O   UNL     1     147.348 153.386 158.483  1.00  0.00    -0.550 OA
ENDBRANCH   4   5
ENDBRANCH   3   4
ENDBRANCH   2   3
ENDBRANCH   1   2
BRANCH   1   8
ATOM      8  C   UNL     1     147.691 158.364 162.623  1.00  0.00     0.000 C 
BRANCH   8   9
ATOM      9  C   UNL     1     146.377 159.074 162.273  1.00  0.00     0.000 C 
BRANCH   9  10
ATOM     10  C   UNL     1     146.588 160.100 161.150  1.00  0.00     0.006 C 
BRANCH  10  11
ATOM     11  C   UNL     1     147.700 159.680 160.179  1.00  0.00     0.053 C 
BRANCH  11  12
ATOM     12  C   UNL     1     147.149 158.994 158.967  1.00  0.00     0.041 C 
ATOM     13  O   UNL     1     147.851 158.156 158.340  1.00  0.00    -0.550 OA
ATOM     14  O   UNL     1     145.875 159.303 158.510  1.00  0.00    -0.550 OA
ENDBRANCH  11  12
ENDBRANCH  10  11
ENDBRANCH   9  10
ENDBRANCH   8   9
ENDBRANCH   1   8
TORSDOF 9
ENDMDL
MODEL 4
REMARK VINA RESULT:    -2.804      2.069      2.938
REMARK INTER + INTRA:          -5.166
REMARK INTER:                  -4.283
REMARK INTRA:                  -0.883
REMARK UNBOUND:                -0.886
REMARK SMILES O=C([O-])CCCCCCCCC(=O)[O-]
REMARK SMILES IDX 7 1 6 2 5 3 4 4 2 5 1 6 3 7 8 8 9 9 10 10 11 11 12 12 13 13
REMARK SMILES IDX 14 14
REMARK H PARENT
REMARK Flexibility Score: inf
ROOT
ATOM      1  C   UNL     1     145.899 163.618 155.335  1.00  0.00     0.000 C 
ENDROOT
BRANCH   1   2
ATOM      2  C   UNL     1     145.929 164.919 156.146  1.00  0.00     0.000 C 
BRANCH   2   3
ATOM      3  C   UNL     1     147.009 165.872 155.621  1.00  0.00     0.006 C 
BRANCH   3   4
ATOM      4  C   UNL     1     146.904 166.038 154.103  1.00  0.00     0.053 C 
BRANCH   4   5
ATOM      5  C   UNL     1     148.229 165.784 153.455  1.00  0.00     0.041 C 
ATOM      6  O   UNL     1     149.181 165.307 154.125  1.00  0.00    -0.550 OA
ATOM      7  O   UNL     1     148.426 166.122 152.121  1.00  0.00    -0.550 OA
ENDBRANCH   4   5
ENDBRANCH   3   4
ENDBRANCH   2   3
ENDBRANCH   1   2
BRANCH   1   8
ATOM      8  C   UNL     1     147.153 162.776 155.600  1.00  0.00     0.000 C 
BRANCH   8   9
ATOM      9  C   UNL     1     147.384 161.763 154.472  1.00  0.00     0.000 C 
BRANCH   9  10
ATOM     10  C   UNL     1     146.733 162.237 153.164  1.00  0.00     0.006 C 
BRANCH  10  11
ATOM     11  C   UNL     1     147.166 161.391 151.959  1.00  0.00     0.053 C 
BRANCH  11  12
ATOM     12  C   UNL     1     148.608 161.608 151.616  1.00  0.00     0.041 C 
ATOM     13  O   UNL     1     149.057 162.776 151.477  1.00  0.00    -0.550 OA
ATOM     14  O   UNL     1     149.447 160.520 151.417  1.00  0.00    -0.550 OA
ENDBRANCH  11  12
ENDBRANCH  10  11
ENDBRANCH   9  10
ENDBRANCH   8   9
ENDBRANCH   1   8
TORSDOF 9
ENDMDL
MODEL 5
REMARK VINA RESULT:    -2.802      2.450      3.745
REMARK INTER + INTRA:          -5.162
REMARK INTER:                  -4.231
REMARK INTRA:                  -0.930
REMARK UNBOUND:                -0.886
REMARK SMILES O=C([O-])CCCCCCCCC(=O)[O-]
REMARK SMILES IDX 7 1 6 2 5 3 4 4 2 5 1 6 3 7 8 8 9 9 10 10 11 11 12 12 13 13
REMARK SMILES IDX 14 14
REMARK H PARENT
REMARK Flexibility Score: inf
ROOT
ATOM      1  C   UNL     1     147.407 165.660 155.651  1.00  0.00     0.000 C 
ENDROOT
BRANCH   1   2
ATOM      2  C   UNL     1     146.276 165.877 154.638  1.00  0.00     0.000 C 
BRANCH   2   3
ATOM      3  C   UNL     1     146.820 165.912 153.204  1.00  0.00     0.006 C 
BRANCH   3   4
ATOM      4  C   UNL     1     145.914 165.125 152.254  1.00  0.00     0.053 C 
BRANCH   4   5
ATOM      5  C   UNL     1     146.440 165.190 150.855  1.00  0.00     0.041 C 
ATOM      6  O   UNL     1     146.599 166.303 150.289  1.00  0.00    -0.550 OA
ATOM      7  O   UNL     1     146.707 164.018 150.157  1.00  0.00    -0.550 OA
ENDBRANCH   4   5
ENDBRANCH   3   4
ENDBRANCH   2   3
ENDBRANCH   1   2
BRANCH   1   8
ATOM      8  C   UNL     1     148.267 164.451 155.265  1.00  0.00     0.000 C 
BRANCH   8   9
ATOM      9  C   UNL     1     147.583 163.139 155.666  1.00  0.00     0.000 C 
BRANCH   9  10
ATOM     10  C   UNL     1     147.274 162.280 154.431  1.00  0.00     0.006 C 
BRANCH  10  11
ATOM     11  C   UNL     1     148.317 162.462 153.320  1.00  0.00     0.053 C 
BRANCH  11  12
ATOM     12  C   UNL     1     148.348 161.289 152.389  1.00  0.00     0.041 C 
ATOM     13  O   UNL     1     149.381 160.573 152.306  1.00  0.00    -0.550 OA
ATOM     14  O   UNL     1     147.249 161.006 151.589  1.00  0.00    -0.550 OA
ENDBRANCH  11  12
ENDBRANCH  10  11
ENDBRANCH   9  10
ENDBRANCH   8   9
ENDBRANCH   1   8
TORSDOF 9
ENDMDL
MODEL 6
REMARK VINA RESULT:    -2.748      2.737      4.850
REMARK INTER + INTRA:          -5.079
REMARK INTER:                  -4.175
REMARK INTRA:                  -0.904
REMARK UNBOUND:                -0.886
REMARK SMILES O=C([O-])CCCCCCCCC(=O)[O-]
REMARK SMILES IDX 7 1 6 2 5 3 4 4 2 5 1 6 3 7 8 8 9 9 10 10 11 11 12 12 13 13
REMARK SMILES IDX 14 14
REMARK H PARENT
REMARK Flexibility Score: inf
ROOT
ATOM      1  C   UNL     1     147.059 161.887 153.447  1.00  0.00     0.000 C 
ENDROOT
BRANCH   1   2
ATOM      2  C   UNL     1     146.730 161.601 151.977  1.00  0.00     0.000 C 
BRANCH   2   3
ATOM      3  C   UNL     1     146.598 162.904 151.178  1.00  0.00     0.006 C 
BRANCH   3   4
ATOM      4  C   UNL     1     147.963 163.377 150.671  1.00  0.00     0.053 C 
BRANCH   4   5
ATOM      5  C   UNL     1     147.795 164.380 149.573  1.00  0.00     0.041 C 
ATOM      6  O   UNL     1     148.761 164.659 148.817  1.00  0.00    -0.550 OA
ATOM      7  O   UNL     1     146.584 165.044 149.418  1.00  0.00    -0.550 OA
ENDBRANCH   4   5
ENDBRANCH   3   4
ENDBRANCH   2   3
ENDBRANCH   1   2
BRANCH   1   8
ATOM      8  C   UNL     1     146.081 162.906 154.042  1.00  0.00     0.000 C 
BRANCH   8   9
ATOM      9  C   UNL     1     146.652 163.537 155.318  1.00  0.00     0.000 C 
BRANCH   9  10
ATOM     10  C   UNL     1     146.685 165.068 155.208  1.00  0.00     0.006 C 
BRANCH  10  11
ATOM     11  C   UNL     1     146.322 165.557 153.799  1.00  0.00     0.053 C 
BRANCH  11  12
ATOM     12  C   UNL     1     147.516 166.102 153.075  1.00  0.00     0.041 C 
ATOM     13  O   UNL     1     147.362 166.858 152.080  1.00  0.00    -0.550 OA
ATOM     14  O   UNL     1     148.796 165.749 153.479  1.00  0.00    -0.550 OA
ENDBRANCH  11  12
ENDBRANCH  10  11
ENDBRANCH   9  10
ENDBRANCH   8   9
ENDBRANCH   1   8
TORSDOF 9
ENDMDL
MODEL 7
REMARK VINA RESULT:    -2.726      1.575      2.044
REMARK INTER + INTRA:          -5.046
REMARK INTER:                  -3.990
REMARK INTRA:                  -1.056
REMARK UNBOUND:                -0.886
REMARK SMILES O=C([O-])CCCCCCCCC(=O)[O-]
REMARK SMILES IDX 7 1 6 2 5 3 4 4 2 5 1 6 3 7 8 8 9 9 10 10 11 11 12 12 13 13
REMARK SMILES IDX 14 14
REMARK H PARENT
REMARK Flexibility Score: inf
ROOT
ATOM      1  C   UNL     1     145.940 165.081 151.881  1.00  0.00     0.000 C 
ENDROOT
BRANCH   1   2
ATOM      2  C   UNL     1     146.997 166.061 152.404  1.00  0.00     0.000 C 
BRANCH   2   3
ATOM      3  C   UNL     1     147.458 165.673 153.815  1.00  0.00     0.006 C 
BRANCH   3   4
ATOM      4  C   UNL     1     146.304 165.078 154.625  1.00  0.00     0.053 C 
BRANCH   4   5
ATOM      5  C   UNL     1     146.728 163.801 155.280  1.00  0.00     0.041 C 
ATOM      6  O   UNL     1     145.875 162.918 155.557  1.00  0.00    -0.550 OA
ATOM      7  O   UNL     1     148.059 163.607 155.630  1.00  0.00    -0.550 OA
ENDBRANCH   4   5
ENDBRANCH   3   4
ENDBRANCH   2   3
ENDBRANCH   1   2
BRANCH   1   8
ATOM      8  C   UNL     1     146.591 163.947 151.080  1.00  0.00     0.000 C 
BRANCH   8   9
ATOM      9  C   UNL     1     146.199 162.577 151.649  1.00  0.00     0.000 C 
BRANCH   9  10
ATOM     10  C   UNL     1     147.414 161.870 152.267  1.00  0.00     0.006 C 
BRANCH  10  11
ATOM     11  C   UNL     1     148.717 162.648 152.041  1.00  0.00     0.053 C 
BRANCH  11  12
ATOM     12  C   UNL     1     149.818 161.758 151.549  1.00  0.00     0.041 C 
ATOM     13  O   UNL     1     149.552 160.611 151.102  1.00  0.00    -0.550 OA
ATOM     14  O   UNL     1     151.137 162.183 151.614  1.00  0.00    -0.550 OA
ENDBRANCH  11  12
ENDBRANCH  10  11
ENDBRANCH   9  10
ENDBRANCH   8   9
ENDBRANCH   1   8
TORSDOF 9
ENDMDL
MODEL 8
REMARK VINA RESULT:    -2.713      2.050      4.047
REMARK INTER + INTRA:          -5.026
REMARK INTER:                  -4.179
REMARK INTRA:                  -0.847
REMARK UNBOUND:                -0.886
REMARK SMILES O=C([O-])CCCCCCCCC(=O)[O-]
REMARK SMILES IDX 7 1 6 2 5 3 4 4 2 5 1 6 3 7 8 8 9 9 10 10 11 11 12 12 13 13
REMARK SMILES IDX 14 14
REMARK H PARENT
REMARK Flexibility Score: inf
ROOT
ATOM      1  C   UNL     1     147.416 165.531 153.936  1.00  0.00     0.000 C 
ENDROOT
BRANCH   1   2
ATOM      2  C   UNL     1     146.961 166.038 152.562  1.00  0.00     0.000 C 
BRANCH   2   3
ATOM      3  C   UNL     1     147.038 164.924 151.511  1.00  0.00     0.006 C 
BRANCH   3   4
ATOM      4  C   UNL     1     146.163 163.733 151.907  1.00  0.00     0.053 C 
BRANCH   4   5
ATOM      5  C   UNL     1     146.963 162.468 151.898  1.00  0.00     0.041 C 
ATOM      6  O   UNL     1     146.515 161.430 152.450  1.00  0.00    -0.550 OA
ATOM      7  O   UNL     1     148.228 162.451 151.322  1.00  0.00    -0.550 OA
ENDBRANCH   4   5
ENDBRANCH   3   4
ENDBRANCH   2   3
ENDBRANCH   1   2
BRANCH   1   8
ATOM      8  C   UNL     1     146.671 166.253 155.064  1.00  0.00     0.000 C 
BRANCH   8   9
ATOM      9  C   UNL     1     146.105 165.253 156.079  1.00  0.00     0.000 C 
BRANCH   9  10
ATOM     10  C   UNL     1     145.914 163.870 155.441  1.00  0.00     0.006 C 
BRANCH  10  11
ATOM     11  C   UNL     1     146.289 162.730 156.398  1.00  0.00     0.053 C 
BRANCH  11  12
ATOM     12  C   UNL     1     147.433 161.918 155.873  1.00  0.00     0.041 C 
ATOM     13  O   UNL     1     147.424 160.663 155.987  1.00  0.00    -0.550 OA
ATOM     14  O   UNL     1     148.524 162.547 155.288  1.00  0.00    -0.550 OA
ENDBRANCH  11  12
ENDBRANCH  10  11
ENDBRANCH   9  10
ENDBRANCH   8   9
ENDBRANCH   1   8
TORSDOF 9
ENDMDL
MODEL 9
REMARK VINA RESULT:    -2.416      1.863      2.970
REMARK INTER + INTRA:          -4.573
REMARK INTER:                  -3.773
REMARK INTRA:                  -0.800
REMARK UNBOUND:                -0.886
REMARK SMILES O=C([O-])CCCCCCCCC(=O)[O-]
REMARK SMILES IDX 7 1 6 2 5 3 4 4 2 5 1 6 3 7 8 8 9 9 10 10 11 11 12 12 13 13
REMARK SMILES IDX 14 14
REMARK H PARENT
REMARK Flexibility Score: inf
ROOT
ATOM      1  C   UNL     1     147.476 165.622 153.862  1.00  0.00     0.000 C 
ENDROOT
BRANCH   1   2
ATOM      2  C   UNL     1     146.620 166.283 154.950  1.00  0.00     0.000 C 
BRANCH   2   3
ATOM      3  C   UNL     1     146.148 165.251 155.981  1.00  0.00     0.006 C 
BRANCH   3   4
ATOM      4  C   UNL     1     145.881 163.896 155.321  1.00  0.00     0.053 C 
BRANCH   4   5
ATOM      5  C   UNL     1     146.638 162.813 156.021  1.00  0.00     0.041 C 
ATOM      6  O   UNL     1     146.043 162.029 156.805  1.00  0.00    -0.550 OA
ATOM      7  O   UNL     1     148.012 162.701 155.846  1.00  0.00    -0.550 OA
ENDBRANCH   4   5
ENDBRANCH   3   4
ENDBRANCH   2   3
ENDBRANCH   1   2
BRANCH   1   8
ATOM      8  C   UNL     1     147.018 166.054 152.464  1.00  0.00     0.000 C 
BRANCH   8   9
ATOM      9  C   UNL     1     145.875 165.163 151.960  1.00  0.00     0.000 C 
BRANCH   9  10
ATOM     10  C   UNL     1     146.406 164.056 151.039  1.00  0.00     0.006 C 
BRANCH  10  11
ATOM     11  C   UNL     1     146.515 162.704 151.757  1.00  0.00     0.053 C 
BRANCH  11  12
ATOM     12  C   UNL     1     147.938 162.249 151.873  1.00  0.00     0.041 C 
ATOM     13  O   UNL     1     148.298 161.538 152.848  1.00  0.00    -0.550 OA
ATOM     14  O   UNL     1     148.873 162.638 150.923  1.00  0.00    -0.550 OA
ENDBRANCH  11  12
ENDBRANCH  10  11
ENDBRANCH   9  10
ENDBRANCH   8   9
ENDBRANCH   1   8
TORSDOF 9
ENDMDL
