MODEL 1
REMARK VINA RESULT:    -3.456      0.000      0.000
REMARK INTER + INTRA:         -11.367
REMARK INTER:                  -7.497
REMARK INTRA:                  -3.870
REMARK UNBOUND:                -3.870
REMARK SMILES CCCCCCCCCCCCCCCCCCCCCC(=O)[O-]
REMARK SMILES IDX 12 1 11 2 10 3 9 4 8 5 7 6 6 7 5 8 4 9 3 10 2 11 1 12 13 13
REMARK SMILES IDX 14 14 15 15 16 16 17 17 18 18 19 19 20 20 21 21 22 22 23 23
REMARK SMILES IDX 24 24
REMARK H PARENT
REMARK Flexibility Score: inf
ROOT
ATOM      1  C   UNL     1      28.997  33.884   3.882  1.00  0.00     0.000 C 
ENDROOT
BRANCH   1   2
ATOM      2  C   UNL     1      28.125  32.866   3.127  1.00  0.00     0.000 C 
BRANCH   2   3
ATOM      3  C   UNL     1      26.733  33.449   2.827  1.00  0.00     0.000 C 
BRANCH   3   4
ATOM      4  C   UNL     1      26.358  33.356   1.339  1.00  0.00    -0.000 C 
BRANCH   4   5
ATOM      5  C   UNL     1      24.857  33.588   1.089  1.00  0.00    -0.000 C 
BRANCH   5   6
ATOM      6  C   UNL     1      24.548  33.860  -0.392  1.00  0.00    -0.000 C 
BRANCH   6   7
ATOM      7  C   UNL     1      25.806  34.210  -1.206  1.00  0.00    -0.000 C 
BRANCH   7   8
ATOM      8  C   UNL     1      25.866  35.697  -1.598  1.00  0.00    -0.000 C 
BRANCH   8   9
ATOM      9  C   UNL     1      24.552  36.480  -1.399  1.00  0.00    -0.000 C 
BRANCH   9  10
ATOM     10  C   UNL     1      24.597  37.558  -0.301  1.00  0.00    -0.000 C 
BRANCH  10  11
ATOM     11  C   UNL     1      25.937  37.588   0.448  1.00  0.00    -0.003 C 
ATOM     12  C   UNL     1      25.771  37.118   1.890  1.00  0.00     0.004 C 
ENDBRANCH  10  11
ENDBRANCH   9  10
ENDBRANCH   8   9
ENDBRANCH   7   8
ENDBRANCH   6   7
ENDBRANCH   5   6
ENDBRANCH   4   5
ENDBRANCH   3   4
ENDBRANCH   2   3
ENDBRANCH   1   2
BRANCH   1  13
ATOM     13  C   UNL     1      28.751  35.335   3.430  1.00  0.00     0.000 C 
BRANCH  13  14
ATOM     14  C   UNL     1      29.748  35.849   2.368  1.00  0.00     0.000 C 
BRANCH  14  15
ATOM     15  C   UNL     1      29.193  35.838   0.933  1.00  0.00     0.000 C 
BRANCH  15  16
ATOM     16  C   UNL     1      29.622  34.595   0.135  1.00  0.00     0.000 C 
BRANCH  16  17
ATOM     17  C   UNL     1      31.090  34.211   0.384  1.00  0.00     0.000 C 
BRANCH  17  18
ATOM     18  C   UNL     1      31.233  32.831   1.045  1.00  0.00     0.000 C 
BRANCH  18  19
ATOM     19  C   UNL     1      32.543  32.677   1.837  1.00  0.00     0.000 C 
BRANCH  19  20
ATOM     20  C   UNL     1      32.521  33.251   3.267  1.00  0.00     0.006 C 
BRANCH  20  21
ATOM     21  C   UNL     1      33.854  33.854   3.734  1.00  0.00     0.053 C 
BRANCH  21  22
ATOM     22  C   UNL     1      34.318  34.957   2.834  1.00  0.00     0.041 C 
ATOM     23  O   UNL     1      35.493  34.958   2.382  1.00  0.00    -0.550 OA
ATOM     24  O   UNL     1      33.453  35.991   2.502  1.00  0.00    -0.550 OA
ENDBRANCH  21  22
ENDBRANCH  20  21
ENDBRANCH  19  20
ENDBRANCH  18  19
ENDBRANCH  17  18
ENDBRANCH  16  17
ENDBRANCH  15  16
ENDBRANCH  14  15
ENDBRANCH  13  14
ENDBRANCH   1  13
TORSDOF 20
ENDMDL
MODEL 2
REMARK VINA RESULT:    -3.442      3.694      8.037
REMARK INTER + INTRA:         -11.336
REMARK INTER:                  -8.132
REMARK INTRA:                  -3.204
REMARK UNBOUND:                -3.870
REMARK SMILES CCCCCCCCCCCCCCCCCCCCCC(=O)[O-]
REMARK SMILES IDX 12 1 11 2 10 3 9 4 8 5 7 6 6 7 5 8 4 9 3 10 2 11 1 12 13 13
REMARK SMILES IDX 14 14 15 15 16 16 17 17 18 18 19 19 20 20 21 21 22 22 23 23
REMARK SMILES IDX 24 24
REMARK H PARENT
REMARK Flexibility Score: inf
ROOT
ATOM      1  C   UNL     1      27.038  32.898   2.776  1.00  0.00     0.000 C 
ENDROOT
BRANCH   1   2
ATOM      2  C   UNL     1      27.773  33.879   3.704  1.00  0.00     0.000 C 
BRANCH   2   3
ATOM      3  C   UNL     1      29.100  33.279   4.200  1.00  0.00     0.000 C 
BRANCH   3   4
ATOM      4  C   UNL     1      30.301  33.697   3.337  1.00  0.00    -0.000 C 
BRANCH   4   5
ATOM      5  C   UNL     1      29.966  34.844   2.366  1.00  0.00    -0.000 C 
BRANCH   5   6
ATOM      6  C   UNL     1      30.170  34.443   0.896  1.00  0.00    -0.000 C 
BRANCH   6   7
ATOM      7  C   UNL     1      30.769  33.035   0.744  1.00  0.00    -0.000 C 
BRANCH   7   8
ATOM      8  C   UNL     1      32.028  33.018  -0.143  1.00  0.00    -0.000 C 
BRANCH   8   9
ATOM      9  C   UNL     1      33.359  33.228   0.606  1.00  0.00    -0.000 C 
BRANCH   9  10
ATOM     10  C   UNL     1      33.415  32.621   2.019  1.00  0.00    -0.000 C 
BRANCH  10  11
ATOM     11  C   UNL     1      33.782  33.653   3.095  1.00  0.00    -0.003 C 
ATOM     12  C   UNL     1      33.690  35.075   2.546  1.00  0.00     0.004 C 
ENDBRANCH  10  11
ENDBRANCH   9  10
ENDBRANCH   8   9
ENDBRANCH   7   8
ENDBRANCH   6   7
ENDBRANCH   5   6
ENDBRANCH   4   5
ENDBRANCH   3   4
ENDBRANCH   2   3
ENDBRANCH   1   2
BRANCH   1  13
ATOM     13  C   UNL     1      26.006  33.592   1.868  1.00  0.00     0.000 C 
BRANCH  13  14
ATOM     14  C   UNL     1      26.561  34.036   0.496  1.00  0.00     0.000 C 
BRANCH  14  15
ATOM     15  C   UNL     1      26.556  35.560   0.284  1.00  0.00     0.000 C 
BRANCH  15  16
ATOM     16  C   UNL     1      26.089  36.335   1.526  1.00  0.00     0.000 C 
BRANCH  16  17
ATOM     17  C   UNL     1      24.752  37.061   1.304  1.00  0.00     0.000 C 
BRANCH  17  18
ATOM     18  C   UNL     1      24.336  37.087  -0.175  1.00  0.00     0.000 C 
BRANCH  18  19
ATOM     19  C   UNL     1      22.820  36.914  -0.376  1.00  0.00     0.000 C 
BRANCH  19  20
ATOM     20  C   UNL     1      22.293  35.474  -0.225  1.00  0.00     0.006 C 
BRANCH  20  21
ATOM     21  C   UNL     1      23.145  34.405  -0.925  1.00  0.00     0.053 C 
BRANCH  21  22
ATOM     22  C   UNL     1      22.690  33.018  -0.593  1.00  0.00     0.041 C 
ATOM     23  O   UNL     1      23.349  32.307   0.212  1.00  0.00    -0.550 OA
ATOM     24  O   UNL     1      21.542  32.505  -1.181  1.00  0.00    -0.550 OA
ENDBRANCH  21  22
ENDBRANCH  20  21
ENDBRANCH  19  20
ENDBRANCH  18  19
ENDBRANCH  17  18
ENDBRANCH  16  17
ENDBRANCH  15  16
ENDBRANCH  14  15
ENDBRANCH  13  14
ENDBRANCH   1  13
TORSDOF 20
ENDMDL
MODEL 3
REMARK VINA RESULT:    -3.437      3.671      7.305
REMARK INTER + INTRA:         -11.325
REMARK INTER:                  -7.917
REMARK INTRA:                  -3.408
REMARK UNBOUND:                -3.870
REMARK SMILES CCCCCCCCCCCCCCCCCCCCCC(=O)[O-]
REMARK SMILES IDX 12 1 11 2 10 3 9 4 8 5 7 6 6 7 5 8 4 9 3 10 2 11 1 12 13 13
REMARK SMILES IDX 14 14 15 15 16 16 17 17 18 18 19 19 20 20 21 21 22 22 23 23
REMARK SMILES IDX 24 24
REMARK H PARENT
REMARK Flexibility Score: inf
ROOT
ATOM      1  C   UNL     1      29.717  33.184   3.889  1.00  0.00     0.000 C 
ENDROOT
BRANCH   1   2
ATOM      2  C   UNL     1      31.246  33.126   3.726  1.00  0.00     0.000 C 
BRANCH   2   3
ATOM      3  C   UNL     1      31.630  32.605   2.330  1.00  0.00     0.000 C 
BRANCH   3   4
ATOM      4  C   UNL     1      33.094  32.903   1.968  1.00  0.00    -0.000 C 
BRANCH   4   5
ATOM      5  C   UNL     1      33.236  33.641   0.624  1.00  0.00    -0.000 C 
BRANCH   5   6
ATOM      6  C   UNL     1      32.997  32.714  -0.579  1.00  0.00    -0.000 C 
BRANCH   6   7
ATOM      7  C   UNL     1      32.051  33.330  -1.623  1.00  0.00    -0.000 C 
BRANCH   7   8
ATOM      8  C   UNL     1      31.394  34.633  -1.133  1.00  0.00    -0.000 C 
BRANCH   8   9
ATOM      9  C   UNL     1      29.880  34.539  -0.855  1.00  0.00    -0.000 C 
BRANCH   9  10
ATOM     10  C   UNL     1      29.359  35.484   0.243  1.00  0.00    -0.000 C 
BRANCH  10  11
ATOM     11  C   UNL     1      30.481  36.291   0.913  1.00  0.00    -0.003 C 
ATOM     12  C   UNL     1      30.198  36.495   2.398  1.00  0.00     0.004 C 
ENDBRANCH  10  11
ENDBRANCH   9  10
ENDBRANCH   8   9
ENDBRANCH   7   8
ENDBRANCH   6   7
ENDBRANCH   5   6
ENDBRANCH   4   5
ENDBRANCH   3   4
ENDBRANCH   2   3
ENDBRANCH   1   2
BRANCH   1  13
ATOM     13  C   UNL     1      28.962  32.800   2.603  1.00  0.00     0.000 C 
BRANCH  13  14
ATOM     14  C   UNL     1      27.423  32.848   2.730  1.00  0.00     0.000 C 
BRANCH  14  15
ATOM     15  C   UNL     1      26.847  34.273   2.799  1.00  0.00     0.000 C 
BRANCH  15  16
ATOM     16  C   UNL     1      25.722  34.513   1.780  1.00  0.00     0.000 C 
BRANCH  16  17
ATOM     17  C   UNL     1      25.777  35.917   1.156  1.00  0.00     0.000 C 
BRANCH  17  18
ATOM     18  C   UNL     1      25.796  35.878  -0.380  1.00  0.00     0.000 C 
BRANCH  18  19
ATOM     19  C   UNL     1      25.808  34.446  -0.945  1.00  0.00     0.000 C 
BRANCH  19  20
ATOM     20  C   UNL     1      24.581  34.062  -1.794  1.00  0.00     0.006 C 
BRANCH  20  21
ATOM     21  C   UNL     1      23.236  34.182  -1.065  1.00  0.00     0.053 C 
BRANCH  21  22
ATOM     22  C   UNL     1      22.759  32.861  -0.544  1.00  0.00     0.041 C 
ATOM     23  O   UNL     1      21.704  32.342  -0.996  1.00  0.00    -0.550 OA
ATOM     24  O   UNL     1      23.475  32.208   0.450  1.00  0.00    -0.550 OA
ENDBRANCH  21  22
ENDBRANCH  20  21
ENDBRANCH  19  20
ENDBRANCH  18  19
ENDBRANCH  17  18
ENDBRANCH  16  17
ENDBRANCH  15  16
ENDBRANCH  14  15
ENDBRANCH  13  14
ENDBRANCH   1  13
TORSDOF 20
ENDMDL
MODEL 4
REMARK VINA RESULT:    -3.408      3.971      6.892
REMARK INTER + INTRA:         -11.263
REMARK INTER:                  -8.000
REMARK INTRA:                  -3.263
REMARK UNBOUND:                -3.870
REMARK SMILES CCCCCCCCCCCCCCCCCCCCCC(=O)[O-]
REMARK SMILES IDX 12 1 11 2 10 3 9 4 8 5 7 6 6 7 5 8 4 9 3 10 2 11 1 12 13 13
REMARK SMILES IDX 14 14 15 15 16 16 17 17 18 18 19 19 20 20 21 21 22 22 23 23
REMARK SMILES IDX 24 24
REMARK H PARENT
REMARK Flexibility Score: inf
ROOT
ATOM      1  C   UNL     1      32.209  33.208   3.189  1.00  0.00     0.000 C 
ENDROOT
BRANCH   1   2
ATOM      2  C   UNL     1      32.977  32.581   2.013  1.00  0.00     0.000 C 
BRANCH   2   3
ATOM      3  C   UNL     1      33.540  33.668   1.081  1.00  0.00     0.000 C 
BRANCH   3   4
ATOM      4  C   UNL     1      32.842  33.696  -0.288  1.00  0.00    -0.000 C 
BRANCH   4   5
ATOM      5  C   UNL     1      31.856  34.870  -0.430  1.00  0.00    -0.000 C 
BRANCH   5   6
ATOM      6  C   UNL     1      30.526  34.441  -1.071  1.00  0.00    -0.000 C 
BRANCH   6   7
ATOM      7  C   UNL     1      29.358  34.445  -0.071  1.00  0.00    -0.000 C 
BRANCH   7   8
ATOM      8  C   UNL     1      28.351  35.578  -0.339  1.00  0.00    -0.000 C 
BRANCH   8   9
ATOM      9  C   UNL     1      28.155  36.570   0.826  1.00  0.00    -0.000 C 
BRANCH   9  10
ATOM     10  C   UNL     1      29.380  37.442   1.151  1.00  0.00    -0.000 C 
BRANCH  10  11
ATOM     11  C   UNL     1      29.960  37.156   2.543  1.00  0.00    -0.003 C 
ATOM     12  C   UNL     1      29.092  37.772   3.637  1.00  0.00     0.004 C 
ENDBRANCH  10  11
ENDBRANCH   9  10
ENDBRANCH   8   9
ENDBRANCH   7   8
ENDBRANCH   6   7
ENDBRANCH   5   6
ENDBRANCH   4   5
ENDBRANCH   3   4
ENDBRANCH   2   3
ENDBRANCH   1   2
BRANCH   1  13
ATOM     13  C   UNL     1      30.764  33.596   2.822  1.00  0.00     0.000 C 
BRANCH  13  14
ATOM     14  C   UNL     1      29.687  32.977   3.741  1.00  0.00     0.000 C 
BRANCH  14  15
ATOM     15  C   UNL     1      28.693  34.001   4.316  1.00  0.00     0.000 C 
BRANCH  15  16
ATOM     16  C   UNL     1      27.415  34.134   3.471  1.00  0.00     0.000 C 
BRANCH  16  17
ATOM     17  C   UNL     1      27.127  32.878   2.632  1.00  0.00     0.000 C 
BRANCH  17  18
ATOM     18  C   UNL     1      26.178  33.162   1.457  1.00  0.00     0.000 C 
BRANCH  18  19
ATOM     19  C   UNL     1      25.235  34.349   1.719  1.00  0.00     0.000 C 
BRANCH  19  20
ATOM     20  C   UNL     1      24.294  34.715   0.554  1.00  0.00     0.006 C 
BRANCH  20  21
ATOM     21  C   UNL     1      24.214  33.659  -0.558  1.00  0.00     0.053 C 
BRANCH  21  22
ATOM     22  C   UNL     1      22.902  32.939  -0.556  1.00  0.00     0.041 C 
ATOM     23  O   UNL     1      22.791  31.819   0.011  1.00  0.00    -0.550 OA
ATOM     24  O   UNL     1      21.801  33.500  -1.189  1.00  0.00    -0.550 OA
ENDBRANCH  21  22
ENDBRANCH  20  21
ENDBRANCH  19  20
ENDBRANCH  18  19
ENDBRANCH  17  18
ENDBRANCH  16  17
ENDBRANCH  15  16
ENDBRANCH  14  15
ENDBRANCH  13  14
ENDBRANCH   1  13
TORSDOF 20
ENDMDL
MODEL 5
REMARK VINA RESULT:    -3.407      1.606      2.862
REMARK INTER + INTRA:         -11.259
REMARK INTER:                  -8.538
REMARK INTRA:                  -2.722
REMARK UNBOUND:                -3.870
REMARK SMILES CCCCCCCCCCCCCCCCCCCCCC(=O)[O-]
REMARK SMILES IDX 12 1 11 2 10 3 9 4 8 5 7 6 6 7 5 8 4 9 3 10 2 11 1 12 13 13
REMARK SMILES IDX 14 14 15 15 16 16 17 17 18 18 19 19 20 20 21 21 22 22 23 23
REMARK SMILES IDX 24 24
REMARK H PARENT
REMARK Flexibility Score: inf
ROOT
ATOM      1  C   UNL     1      28.552  33.999   3.962  1.00  0.00     0.000 C 
ENDROOT
BRANCH   1   2
ATOM      2  C   UNL     1      27.685  32.988   3.193  1.00  0.00     0.000 C 
BRANCH   2   3
ATOM      3  C   UNL     1      26.378  33.639   2.710  1.00  0.00     0.000 C 
BRANCH   3   4
ATOM      4  C   UNL     1      26.043  33.290   1.251  1.00  0.00    -0.000 C 
BRANCH   4   5
ATOM      5  C   UNL     1      26.112  34.511   0.316  1.00  0.00    -0.000 C 
BRANCH   5   6
ATOM      6  C   UNL     1      25.260  35.685   0.826  1.00  0.00    -0.000 C 
BRANCH   6   7
ATOM      7  C   UNL     1      23.751  35.428   0.684  1.00  0.00    -0.000 C 
BRANCH   7   8
ATOM      8  C   UNL     1      23.356  34.975  -0.733  1.00  0.00    -0.000 C 
BRANCH   8   9
ATOM      9  C   UNL     1      22.316  33.838  -0.791  1.00  0.00    -0.000 C 
BRANCH   9  10
ATOM     10  C   UNL     1      22.823  32.467  -0.310  1.00  0.00    -0.000 C 
BRANCH  10  11
ATOM     11  C   UNL     1      22.283  31.304  -1.155  1.00  0.00    -0.003 C 
ATOM     12  C   UNL     1      20.785  31.457  -1.407  1.00  0.00     0.004 C 
ENDBRANCH  10  11
ENDBRANCH   9  10
ENDBRANCH   8   9
ENDBRANCH   7   8
ENDBRANCH   6   7
ENDBRANCH   5   6
ENDBRANCH   4   5
ENDBRANCH   3   4
ENDBRANCH   2   3
ENDBRANCH   1   2
BRANCH   1  13
ATOM     13  C   UNL     1      28.670  35.356   3.242  1.00  0.00     0.000 C 
BRANCH  13  14
ATOM     14  C   UNL     1      29.934  35.503   2.366  1.00  0.00     0.000 C 
BRANCH  14  15
ATOM     15  C   UNL     1      29.646  35.532   0.854  1.00  0.00     0.000 C 
BRANCH  15  16
ATOM     16  C   UNL     1      30.138  34.270   0.128  1.00  0.00     0.000 C 
BRANCH  16  17
ATOM     17  C   UNL     1      30.731  33.227   1.088  1.00  0.00     0.000 C 
BRANCH  17  18
ATOM     18  C   UNL     1      32.236  33.009   0.864  1.00  0.00     0.000 C 
BRANCH  18  19
ATOM     19  C   UNL     1      32.971  32.537   2.131  1.00  0.00     0.000 C 
BRANCH  19  20
ATOM     20  C   UNL     1      33.010  33.554   3.289  1.00  0.00     0.006 C 
BRANCH  20  21
ATOM     21  C   UNL     1      34.330  34.329   3.413  1.00  0.00     0.053 C 
BRANCH  21  22
ATOM     22  C   UNL     1      34.422  35.445   2.420  1.00  0.00     0.041 C 
ATOM     23  O   UNL     1      35.478  35.622   1.757  1.00  0.00    -0.550 OA
ATOM     24  O   UNL     1      33.343  36.299   2.234  1.00  0.00    -0.550 OA
ENDBRANCH  21  22
ENDBRANCH  20  21
ENDBRANCH  19  20
ENDBRANCH  18  19
ENDBRANCH  17  18
ENDBRANCH  16  17
ENDBRANCH  15  16
ENDBRANCH  14  15
ENDBRANCH  13  14
ENDBRANCH   1  13
TORSDOF 20
ENDMDL
MODEL 6
REMARK VINA RESULT:    -3.395      1.446      3.005
REMARK INTER + INTRA:         -11.234
REMARK INTER:                  -7.867
REMARK INTRA:                  -3.367
REMARK UNBOUND:                -3.870
REMARK SMILES CCCCCCCCCCCCCCCCCCCCCC(=O)[O-]
REMARK SMILES IDX 12 1 11 2 10 3 9 4 8 5 7 6 6 7 5 8 4 9 3 10 2 11 1 12 13 13
REMARK SMILES IDX 14 14 15 15 16 16 17 17 18 18 19 19 20 20 21 21 22 22 23 23
REMARK SMILES IDX 24 24
REMARK H PARENT
REMARK Flexibility Score: inf
ROOT
ATOM      1  C   UNL     1      26.834  32.932   2.303  1.00  0.00     0.000 C 
ENDROOT
BRANCH   1   2
ATOM      2  C   UNL     1      25.847  33.689   1.398  1.00  0.00     0.000 C 
BRANCH   2   3
ATOM      3  C   UNL     1      26.582  34.379   0.237  1.00  0.00     0.000 C 
BRANCH   3   4
ATOM      4  C   UNL     1      26.639  35.907   0.393  1.00  0.00    -0.000 C 
BRANCH   4   5
ATOM      5  C   UNL     1      25.770  36.419   1.556  1.00  0.00    -0.000 C 
BRANCH   5   6
ATOM      6  C   UNL     1      24.991  37.692   1.187  1.00  0.00    -0.000 C 
BRANCH   6   7
ATOM      7  C   UNL     1      23.468  37.504   1.285  1.00  0.00    -0.000 C 
BRANCH   7   8
ATOM      8  C   UNL     1      23.031  36.049   1.032  1.00  0.00    -0.000 C 
BRANCH   8   9
ATOM      9  C   UNL     1      22.396  35.788  -0.349  1.00  0.00    -0.000 C 
BRANCH   9  10
ATOM     10  C   UNL     1      23.371  35.290  -1.430  1.00  0.00    -0.000 C 
BRANCH  10  11
ATOM     11  C   UNL     1      23.455  33.757  -1.493  1.00  0.00    -0.003 C 
ATOM     12  C   UNL     1      22.181  33.115  -0.951  1.00  0.00     0.004 C 
ENDBRANCH  10  11
ENDBRANCH   9  10
ENDBRANCH   8   9
ENDBRANCH   7   8
ENDBRANCH   6   7
ENDBRANCH   5   6
ENDBRANCH   4   5
ENDBRANCH   3   4
ENDBRANCH   2   3
ENDBRANCH   1   2
BRANCH   1  13
ATOM     13  C   UNL     1      27.066  33.632   3.654  1.00  0.00     0.000 C 
BRANCH  13  14
ATOM     14  C   UNL     1      28.532  34.046   3.914  1.00  0.00     0.000 C 
BRANCH  14  15
ATOM     15  C   UNL     1      28.946  35.351   3.213  1.00  0.00     0.000 C 
BRANCH  15  16
ATOM     16  C   UNL     1      30.246  35.210   2.406  1.00  0.00     0.000 C 
BRANCH  16  17
ATOM     17  C   UNL     1      30.027  34.533   1.043  1.00  0.00     0.000 C 
BRANCH  17  18
ATOM     18  C   UNL     1      31.025  33.394   0.785  1.00  0.00     0.000 C 
BRANCH  18  19
ATOM     19  C   UNL     1      31.564  32.762   2.081  1.00  0.00     0.000 C 
BRANCH  19  20
ATOM     20  C   UNL     1      33.091  32.557   2.130  1.00  0.00     0.006 C 
BRANCH  20  21
ATOM     21  C   UNL     1      33.915  33.826   1.871  1.00  0.00     0.053 C 
BRANCH  21  22
ATOM     22  C   UNL     1      33.960  34.721   3.071  1.00  0.00     0.041 C 
ATOM     23  O   UNL     1      33.719  35.952   2.957  1.00  0.00    -0.550 OA
ATOM     24  O   UNL     1      34.279  34.196   4.316  1.00  0.00    -0.550 OA
ENDBRANCH  21  22
ENDBRANCH  20  21
ENDBRANCH  19  20
ENDBRANCH  18  19
ENDBRANCH  17  18
ENDBRANCH  16  17
ENDBRANCH  15  16
ENDBRANCH  14  15
ENDBRANCH  13  14
ENDBRANCH   1  13
TORSDOF 20
ENDMDL
MODEL 7
REMARK VINA RESULT:    -3.379      4.086      8.183
REMARK INTER + INTRA:         -11.199
REMARK INTER:                  -8.338
REMARK INTRA:                  -2.861
REMARK UNBOUND:                -3.870
REMARK SMILES CCCCCCCCCCCCCCCCCCCCCC(=O)[O-]
REMARK SMILES IDX 12 1 11 2 10 3 9 4 8 5 7 6 6 7 5 8 4 9 3 10 2 11 1 12 13 13
REMARK SMILES IDX 14 14 15 15 16 16 17 17 18 18 19 19 20 20 21 21 22 22 23 23
REMARK SMILES IDX 24 24
REMARK H PARENT
REMARK Flexibility Score: inf
ROOT
ATOM      1  C   UNL     1      29.898  33.201   2.239  1.00  0.00     0.000 C 
ENDROOT
BRANCH   1   2
ATOM      2  C   UNL     1      30.065  34.597   1.616  1.00  0.00     0.000 C 
BRANCH   2   3
ATOM      3  C   UNL     1      29.997  34.527   0.081  1.00  0.00     0.000 C 
BRANCH   3   4
ATOM      4  C   UNL     1      31.035  35.432  -0.602  1.00  0.00    -0.000 C 
BRANCH   4   5
ATOM      5  C   UNL     1      31.733  34.746  -1.790  1.00  0.00    -0.000 C 
BRANCH   5   6
ATOM      6  C   UNL     1      31.523  33.223  -1.790  1.00  0.00    -0.000 C 
BRANCH   6   7
ATOM      7  C   UNL     1      32.718  32.460  -1.194  1.00  0.00    -0.000 C 
BRANCH   7   8
ATOM      8  C   UNL     1      33.946  33.360  -0.972  1.00  0.00    -0.000 C 
BRANCH   8   9
ATOM      9  C   UNL     1      34.419  33.474   0.492  1.00  0.00    -0.000 C 
BRANCH   9  10
ATOM     10  C   UNL     1      33.449  32.892   1.535  1.00  0.00    -0.000 C 
BRANCH  10  11
ATOM     11  C   UNL     1      33.583  33.563   2.910  1.00  0.00    -0.003 C 
ATOM     12  C   UNL     1      33.462  35.080   2.794  1.00  0.00     0.004 C 
ENDBRANCH  10  11
ENDBRANCH   9  10
ENDBRANCH   8   9
ENDBRANCH   7   8
ENDBRANCH   6   7
ENDBRANCH   5   6
ENDBRANCH   4   5
ENDBRANCH   3   4
ENDBRANCH   2   3
ENDBRANCH   1   2
BRANCH   1  13
ATOM     13  C   UNL     1      29.551  33.251   3.738  1.00  0.00     0.000 C 
BRANCH  13  14
ATOM     14  C   UNL     1      28.193  33.917   4.055  1.00  0.00     0.000 C 
BRANCH  14  15
ATOM     15  C   UNL     1      26.999  33.279   3.324  1.00  0.00     0.000 C 
BRANCH  15  16
ATOM     16  C   UNL     1      26.326  34.238   2.328  1.00  0.00     0.000 C 
BRANCH  16  17
ATOM     17  C   UNL     1      25.902  33.538   1.027  1.00  0.00     0.000 C 
BRANCH  17  18
ATOM     18  C   UNL     1      26.277  34.347  -0.225  1.00  0.00     0.000 C 
BRANCH  18  19
ATOM     19  C   UNL     1      25.178  34.332  -1.302  1.00  0.00     0.000 C 
BRANCH  19  20
ATOM     20  C   UNL     1      23.775  33.930  -0.808  1.00  0.00     0.006 C 
BRANCH  20  21
ATOM     21  C   UNL     1      23.032  32.946  -1.723  1.00  0.00     0.053 C 
BRANCH  21  22
ATOM     22  C   UNL     1      22.176  31.994  -0.948  1.00  0.00     0.041 C 
ATOM     23  O   UNL     1      22.632  31.414   0.073  1.00  0.00    -0.550 OA
ATOM     24  O   UNL     1      20.875  31.738  -1.359  1.00  0.00    -0.550 OA
ENDBRANCH  21  22
ENDBRANCH  20  21
ENDBRANCH  19  20
ENDBRANCH  18  19
ENDBRANCH  17  18
ENDBRANCH  16  17
ENDBRANCH  15  16
ENDBRANCH  14  15
ENDBRANCH  13  14
ENDBRANCH   1  13
TORSDOF 20
ENDMDL
MODEL 8
REMARK VINA RESULT:    -3.352      4.217      7.871
REMARK INTER + INTRA:         -11.141
REMARK INTER:                  -7.748
REMARK INTRA:                  -3.393
REMARK UNBOUND:                -3.870
REMARK SMILES CCCCCCCCCCCCCCCCCCCCCC(=O)[O-]
REMARK SMILES IDX 12 1 11 2 10 3 9 4 8 5 7 6 6 7 5 8 4 9 3 10 2 11 1 12 13 13
REMARK SMILES IDX 14 14 15 15 16 16 17 17 18 18 19 19 20 20 21 21 22 22 23 23
REMARK SMILES IDX 24 24
REMARK H PARENT
REMARK Flexibility Score: inf
ROOT
ATOM      1  C   UNL     1      28.633  34.350   3.939  1.00  0.00     0.000 C 
ENDROOT
BRANCH   1   2
ATOM      2  C   UNL     1      28.640  35.818   3.478  1.00  0.00     0.000 C 
BRANCH   2   3
ATOM      3  C   UNL     1      29.479  35.989   2.200  1.00  0.00     0.000 C 
BRANCH   3   4
ATOM      4  C   UNL     1      28.756  36.810   1.120  1.00  0.00    -0.000 C 
BRANCH   4   5
ATOM      5  C   UNL     1      29.007  36.277  -0.302  1.00  0.00    -0.000 C 
BRANCH   5   6
ATOM      6  C   UNL     1      29.071  34.741  -0.346  1.00  0.00    -0.000 C 
BRANCH   6   7
ATOM      7  C   UNL     1      30.348  34.220  -1.027  1.00  0.00    -0.000 C 
BRANCH   7   8
ATOM      8  C   UNL     1      31.632  34.803  -0.407  1.00  0.00    -0.000 C 
BRANCH   8   9
ATOM      9  C   UNL     1      32.409  33.840   0.513  1.00  0.00    -0.000 C 
BRANCH   9  10
ATOM     10  C   UNL     1      31.534  32.963   1.426  1.00  0.00    -0.000 C 
BRANCH  10  11
ATOM     11  C   UNL     1      31.890  33.114   2.912  1.00  0.00    -0.003 C 
ATOM     12  C   UNL     1      33.337  33.567   3.088  1.00  0.00     0.004 C 
ENDBRANCH  10  11
ENDBRANCH   9  10
ENDBRANCH   8   9
ENDBRANCH   7   8
ENDBRANCH   6   7
ENDBRANCH   5   6
ENDBRANCH   4   5
ENDBRANCH   3   4
ENDBRANCH   2   3
ENDBRANCH   1   2
BRANCH   1  13
ATOM     13  C   UNL     1      27.306  33.633   3.631  1.00  0.00     0.000 C 
BRANCH  13  14
ATOM     14  C   UNL     1      27.283  32.888   2.277  1.00  0.00     0.000 C 
BRANCH  14  15
ATOM     15  C   UNL     1      26.089  33.260   1.380  1.00  0.00     0.000 C 
BRANCH  15  16
ATOM     16  C   UNL     1      25.618  34.709   1.583  1.00  0.00     0.000 C 
BRANCH  16  17
ATOM     17  C   UNL     1      25.020  35.321   0.305  1.00  0.00     0.000 C 
BRANCH  17  18
ATOM     18  C   UNL     1      25.405  34.537  -0.959  1.00  0.00     0.000 C 
BRANCH  18  19
ATOM     19  C   UNL     1      24.201  33.855  -1.633  1.00  0.00     0.000 C 
BRANCH  19  20
ATOM     20  C   UNL     1      22.992  33.590  -0.715  1.00  0.00     0.006 C 
BRANCH  20  21
ATOM     21  C   UNL     1      22.829  32.126  -0.280  1.00  0.00     0.053 C 
BRANCH  21  22
ATOM     22  C   UNL     1      21.913  31.368  -1.189  1.00  0.00     0.041 C 
ATOM     23  O   UNL     1      20.724  31.749  -1.357  1.00  0.00    -0.550 OA
ATOM     24  O   UNL     1      22.369  30.233  -1.845  1.00  0.00    -0.550 OA
ENDBRANCH  21  22
ENDBRANCH  20  21
ENDBRANCH  19  20
ENDBRANCH  18  19
ENDBRANCH  17  18
ENDBRANCH  16  17
ENDBRANCH  15  16
ENDBRANCH  14  15
ENDBRANCH  13  14
ENDBRANCH   1  13
TORSDOF 20
ENDMDL
MODEL 9
REMARK VINA RESULT:    -3.342      3.740      7.439
REMARK INTER + INTRA:         -11.120
REMARK INTER:                  -7.297
REMARK INTRA:                  -3.823
REMARK UNBOUND:                -3.870
REMARK SMILES CCCCCCCCCCCCCCCCCCCCCC(=O)[O-]
REMARK SMILES IDX 12 1 11 2 10 3 9 4 8 5 7 6 6 7 5 8 4 9 3 10 2 11 1 12 13 13
REMARK SMILES IDX 14 14 15 15 16 16 17 17 18 18 19 19 20 20 21 21 22 22 23 23
REMARK SMILES IDX 24 24
REMARK H PARENT
REMARK Flexibility Score: inf
ROOT
ATOM      1  C   UNL     1      30.286  33.118   3.304  1.00  0.00     0.000 C 
ENDROOT
BRANCH   1   2
ATOM      2  C   UNL     1      31.016  32.761   1.998  1.00  0.00     0.000 C 
BRANCH   2   3
ATOM      3  C   UNL     1      32.521  32.560   2.246  1.00  0.00     0.000 C 
BRANCH   3   4
ATOM      4  C   UNL     1      33.116  33.623   3.183  1.00  0.00    -0.000 C 
BRANCH   4   5
ATOM      5  C   UNL     1      34.368  34.300   2.597  1.00  0.00    -0.000 C 
BRANCH   5   6
ATOM      6  C   UNL     1      34.141  35.791   2.299  1.00  0.00    -0.000 C 
BRANCH   6   7
ATOM      7  C   UNL     1      32.756  36.068   1.689  1.00  0.00    -0.000 C 
BRANCH   7   8
ATOM      8  C   UNL     1      32.800  36.209   0.156  1.00  0.00    -0.000 C 
BRANCH   8   9
ATOM      9  C   UNL     1      32.429  34.935  -0.629  1.00  0.00    -0.000 C 
BRANCH   9  10
ATOM     10  C   UNL     1      33.616  34.024  -0.989  1.00  0.00    -0.000 C 
BRANCH  10  11
ATOM     11  C   UNL     1      33.174  32.624  -1.439  1.00  0.00    -0.003 C 
ATOM     12  C   UNL     1      31.660  32.556  -1.618  1.00  0.00     0.004 C 
ENDBRANCH  10  11
ENDBRANCH   9  10
ENDBRANCH   8   9
ENDBRANCH   7   8
ENDBRANCH   6   7
ENDBRANCH   5   6
ENDBRANCH   4   5
ENDBRANCH   3   4
ENDBRANCH   2   3
ENDBRANCH   1   2
BRANCH   1  13
ATOM     13  C   UNL     1      28.766  32.890   3.221  1.00  0.00     0.000 C 
BRANCH  13  14
ATOM     14  C   UNL     1      27.915  34.117   3.618  1.00  0.00     0.000 C 
BRANCH  14  15
ATOM     15  C   UNL     1      28.656  35.459   3.486  1.00  0.00     0.000 C 
BRANCH  15  16
ATOM     16  C   UNL     1      28.265  36.236   2.219  1.00  0.00     0.000 C 
BRANCH  16  17
ATOM     17  C   UNL     1      29.185  35.928   1.027  1.00  0.00     0.000 C 
BRANCH  17  18
ATOM     18  C   UNL     1      28.548  34.948   0.030  1.00  0.00     0.000 C 
BRANCH  18  19
ATOM     19  C   UNL     1      27.009  34.984   0.051  1.00  0.00     0.000 C 
BRANCH  19  20
ATOM     20  C   UNL     1      26.322  33.651   0.404  1.00  0.00     0.006 C 
BRANCH  20  21
ATOM     21  C   UNL     1      25.046  33.793   1.245  1.00  0.00     0.053 C 
BRANCH  21  22
ATOM     22  C   UNL     1      23.814  33.468   0.458  1.00  0.00     0.041 C 
ATOM     23  O   UNL     1      23.183  34.379  -0.142  1.00  0.00    -0.550 OA
ATOM     24  O   UNL     1      23.357  32.159   0.395  1.00  0.00    -0.550 OA
ENDBRANCH  21  22
ENDBRANCH  20  21
ENDBRANCH  19  20
ENDBRANCH  18  19
ENDBRANCH  17  18
ENDBRANCH  16  17
ENDBRANCH  15  16
ENDBRANCH  14  15
ENDBRANCH  13  14
ENDBRANCH   1  13
TORSDOF 20
ENDMDL
