MODEL 1
REMARK VINA RESULT:    -4.373      0.000      0.000
REMARK INTER + INTRA:          -8.989
REMARK INTER:                  -7.440
REMARK INTRA:                  -1.549
REMARK UNBOUND:                -1.549
REMARK SMILES CCCCCCCCCCCCCC(=O)[O-]
REMARK SMILES IDX 8 1 9 2 10 3 11 4 12 5 13 6 14 7 15 8 16 9 7 10 6 11 5 12
REMARK SMILES IDX 4 13 3 14 2 15 1 16
REMARK H PARENT
REMARK Flexibility Score: inf
ROOT
ATOM      1  C   UNL     1      -7.538  -8.082 -11.731  1.00  0.00     0.000 C 
ENDROOT
BRANCH   1   2
ATOM      2  C   UNL     1      -7.765  -7.457 -10.351  1.00  0.00     0.000 C 
BRANCH   2   3
ATOM      3  C   UNL     1      -8.727  -6.266 -10.436  1.00  0.00     0.000 C 
BRANCH   3   4
ATOM      4  C   UNL     1      -7.969  -4.936 -10.345  1.00  0.00     0.000 C 
BRANCH   4   5
ATOM      5  C   UNL     1      -6.564  -5.142  -9.766  1.00  0.00     0.006 C 
BRANCH   5   6
ATOM      6  C   UNL     1      -6.126  -3.926  -8.945  1.00  0.00     0.053 C 
BRANCH   6   7
ATOM      7  C   UNL     1      -5.031  -4.302  -7.996  1.00  0.00     0.041 C 
ATOM      8  O   UNL     1      -4.320  -3.409  -7.463  1.00  0.00    -0.550 OA
ATOM      9  O   UNL     1      -4.826  -5.635  -7.665  1.00  0.00    -0.550 OA
ENDBRANCH   6   7
ENDBRANCH   5   6
ENDBRANCH   4   5
ENDBRANCH   3   4
ENDBRANCH   2   3
ENDBRANCH   1   2
BRANCH   1  10
ATOM     10  C   UNL     1      -8.844  -8.124 -12.538  1.00  0.00     0.000 C 
BRANCH  10  11
ATOM     11  C   UNL     1      -8.672  -7.607 -13.976  1.00  0.00    -0.000 C 
BRANCH  11  12
ATOM     12  C   UNL     1      -8.508  -6.078 -14.037  1.00  0.00    -0.000 C 
BRANCH  12  13
ATOM     13  C   UNL     1      -7.116  -5.655 -14.535  1.00  0.00    -0.000 C 
BRANCH  13  14
ATOM     14  C   UNL     1      -6.163  -5.281 -13.390  1.00  0.00    -0.000 C 
BRANCH  14  15
ATOM     15  C   UNL     1      -5.813  -3.789 -13.433  1.00  0.00    -0.003 C 
ATOM     16  C   UNL     1      -6.988  -2.932 -12.969  1.00  0.00     0.004 C 
ENDBRANCH  14  15
ENDBRANCH  13  14
ENDBRANCH  12  13
ENDBRANCH  11  12
ENDBRANCH  10  11
ENDBRANCH   1  10
TORSDOF 12
ENDMDL
MODEL 2
REMARK VINA RESULT:    -4.342      2.283      4.577
REMARK INTER + INTRA:          -8.937
REMARK INTER:                  -7.360
REMARK INTRA:                  -1.576
REMARK UNBOUND:                -1.549
REMARK SMILES CCCCCCCCCCCCCC(=O)[O-]
REMARK SMILES IDX 8 1 9 2 10 3 11 4 12 5 13 6 14 7 15 8 16 9 7 10 6 11 5 12
REMARK SMILES IDX 4 13 3 14 2 15 1 16
REMARK H PARENT
REMARK Flexibility Score: inf
ROOT
ATOM      1  C   UNL     1     -10.159  -6.959 -11.775  1.00  0.00     0.000 C 
ENDROOT
BRANCH   1   2
ATOM      2  C   UNL     1      -9.468  -8.001 -12.662  1.00  0.00     0.000 C 
BRANCH   2   3
ATOM      3  C   UNL     1      -8.953  -7.368 -13.960  1.00  0.00     0.000 C 
BRANCH   3   4
ATOM      4  C   UNL     1      -7.425  -7.247 -13.946  1.00  0.00     0.000 C 
BRANCH   4   5
ATOM      5  C   UNL     1      -6.977  -5.877 -14.469  1.00  0.00     0.006 C 
BRANCH   5   6
ATOM      6  C   UNL     1      -7.729  -4.746 -13.761  1.00  0.00     0.053 C 
BRANCH   6   7
ATOM      7  C   UNL     1      -6.765  -3.758 -13.183  1.00  0.00     0.041 C 
ATOM      8  O   UNL     1      -5.566  -4.087 -12.979  1.00  0.00    -0.550 OA
ATOM      9  O   UNL     1      -7.178  -2.460 -12.915  1.00  0.00    -0.550 OA
ENDBRANCH   6   7
ENDBRANCH   5   6
ENDBRANCH   4   5
ENDBRANCH   3   4
ENDBRANCH   2   3
ENDBRANCH   1   2
BRANCH   1  10
ATOM     10  C   UNL     1      -9.503  -6.896 -10.387  1.00  0.00     0.000 C 
BRANCH  10  11
ATOM     11  C   UNL     1      -8.068  -7.450 -10.382  1.00  0.00    -0.000 C 
BRANCH  11  12
ATOM     12  C   UNL     1      -7.007  -6.335 -10.355  1.00  0.00    -0.000 C 
BRANCH  12  13
ATOM     13  C   UNL     1      -7.620  -4.944 -10.122  1.00  0.00    -0.000 C 
BRANCH  13  14
ATOM     14  C   UNL     1      -6.652  -3.979  -9.419  1.00  0.00    -0.000 C 
BRANCH  14  15
ATOM     15  C   UNL     1      -5.557  -4.749  -8.672  1.00  0.00    -0.003 C 
ATOM     16  C   UNL     1      -4.876  -3.867  -7.629  1.00  0.00     0.004 C 
ENDBRANCH  14  15
ENDBRANCH  13  14
ENDBRANCH  12  13
ENDBRANCH  11  12
ENDBRANCH  10  11
ENDBRANCH   1  10
TORSDOF 12
ENDMDL
MODEL 3
REMARK VINA RESULT:    -4.315      2.412      4.437
REMARK INTER + INTRA:          -8.890
REMARK INTER:                  -7.109
REMARK INTRA:                  -1.782
REMARK UNBOUND:                -1.549
REMARK SMILES CCCCCCCCCCCCCC(=O)[O-]
REMARK SMILES IDX 8 1 9 2 10 3 11 4 12 5 13 6 14 7 15 8 16 9 7 10 6 11 5 12
REMARK SMILES IDX 4 13 3 14 2 15 1 16
REMARK H PARENT
REMARK Flexibility Score: inf
ROOT
ATOM      1  C   UNL     1     -10.212  -8.075 -12.663  1.00  0.00     0.000 C 
ENDROOT
BRANCH   1   2
ATOM      2  C   UNL     1     -10.588  -7.243 -13.894  1.00  0.00     0.000 C 
BRANCH   2   3
ATOM      3  C   UNL     1      -9.350  -6.582 -14.513  1.00  0.00     0.000 C 
BRANCH   3   4
ATOM      4  C   UNL     1      -8.061  -7.242 -14.006  1.00  0.00     0.000 C 
BRANCH   4   5
ATOM      5  C   UNL     1      -6.965  -6.197 -13.767  1.00  0.00     0.006 C 
BRANCH   5   6
ATOM      6  C   UNL     1      -7.496  -4.780 -14.003  1.00  0.00     0.053 C 
BRANCH   6   7
ATOM      7  C   UNL     1      -6.657  -3.779 -13.274  1.00  0.00     0.041 C 
ATOM      8  O   UNL     1      -5.459  -4.043 -12.988  1.00  0.00    -0.550 OA
ATOM      9  O   UNL     1      -7.183  -2.534 -12.952  1.00  0.00    -0.550 OA
ENDBRANCH   6   7
ENDBRANCH   5   6
ENDBRANCH   4   5
ENDBRANCH   3   4
ENDBRANCH   2   3
ENDBRANCH   1   2
BRANCH   1  10
ATOM     10  C   UNL     1     -10.951  -7.572 -11.414  1.00  0.00     0.000 C 
BRANCH  10  11
ATOM     11  C   UNL     1     -10.009  -7.334 -10.222  1.00  0.00    -0.000 C 
BRANCH  11  12
ATOM     12  C   UNL     1      -8.688  -8.114 -10.349  1.00  0.00    -0.000 C 
BRANCH  12  13
ATOM     13  C   UNL     1      -7.460  -7.190 -10.388  1.00  0.00    -0.000 C 
BRANCH  13  14
ATOM     14  C   UNL     1      -7.828  -5.705 -10.242  1.00  0.00    -0.000 C 
BRANCH  14  15
ATOM     15  C   UNL     1      -6.631  -4.890  -9.739  1.00  0.00    -0.003 C 
ATOM     16  C   UNL     1      -6.967  -3.403  -9.666  1.00  0.00     0.004 C 
ENDBRANCH  14  15
ENDBRANCH  13  14
ENDBRANCH  12  13
ENDBRANCH  11  12
ENDBRANCH  10  11
ENDBRANCH   1  10
TORSDOF 12
ENDMDL
MODEL 4
REMARK VINA RESULT:    -4.085      1.039      3.200
REMARK INTER + INTRA:          -8.499
REMARK INTER:                  -6.901
REMARK INTRA:                  -1.598
REMARK UNBOUND:                -1.549
REMARK SMILES CCCCCCCCCCCCCC(=O)[O-]
REMARK SMILES IDX 8 1 9 2 10 3 11 4 12 5 13 6 14 7 15 8 16 9 7 10 6 11 5 12
REMARK SMILES IDX 4 13 3 14 2 15 1 16
REMARK H PARENT
REMARK Flexibility Score: inf
ROOT
ATOM      1  C   UNL     1      -6.686  -4.887 -14.143  1.00  0.00     0.000 C 
ENDROOT
BRANCH   1   2
ATOM      2  C   UNL     1      -6.306  -3.805 -13.127  1.00  0.00     0.000 C 
BRANCH   2   3
ATOM      3  C   UNL     1      -6.598  -4.266 -11.693  1.00  0.00     0.000 C 
BRANCH   3   4
ATOM      4  C   UNL     1      -6.878  -3.070 -10.776  1.00  0.00     0.000 C 
BRANCH   4   5
ATOM      5  C   UNL     1      -6.744  -3.465  -9.301  1.00  0.00     0.006 C 
BRANCH   5   6
ATOM      6  C   UNL     1      -6.018  -4.805  -9.155  1.00  0.00     0.053 C 
BRANCH   6   7
ATOM      7  C   UNL     1      -5.051  -4.755  -8.014  1.00  0.00     0.041 C 
ATOM      8  O   UNL     1      -4.720  -5.814  -7.417  1.00  0.00    -0.550 OA
ATOM      9  O   UNL     1      -4.478  -3.547  -7.641  1.00  0.00    -0.550 OA
ENDBRANCH   6   7
ENDBRANCH   5   6
ENDBRANCH   4   5
ENDBRANCH   3   4
ENDBRANCH   2   3
ENDBRANCH   1   2
BRANCH   1  10
ATOM     10  C   UNL     1      -8.034  -5.529 -13.784  1.00  0.00     0.000 C 
BRANCH  10  11
ATOM     11  C   UNL     1      -8.206  -6.931 -14.392  1.00  0.00    -0.000 C 
BRANCH  11  12
ATOM     12  C   UNL     1      -8.060  -8.049 -13.344  1.00  0.00    -0.000 C 
BRANCH  12  13
ATOM     13  C   UNL     1      -7.027  -7.708 -12.259  1.00  0.00    -0.000 C 
BRANCH  13  14
ATOM     14  C   UNL     1      -7.580  -7.881 -10.836  1.00  0.00    -0.000 C 
BRANCH  14  15
ATOM     15  C   UNL     1      -9.084  -7.587 -10.794  1.00  0.00    -0.003 C 
ATOM     16  C   UNL     1      -9.357  -6.171 -10.294  1.00  0.00     0.004 C 
ENDBRANCH  14  15
ENDBRANCH  13  14
ENDBRANCH  12  13
ENDBRANCH  11  12
ENDBRANCH  10  11
ENDBRANCH   1  10
TORSDOF 12
ENDMDL
MODEL 5
REMARK VINA RESULT:    -4.073      3.353      6.072
REMARK INTER + INTRA:          -8.478
REMARK INTER:                  -7.118
REMARK INTRA:                  -1.361
REMARK UNBOUND:                -1.549
REMARK SMILES CCCCCCCCCCCCCC(=O)[O-]
REMARK SMILES IDX 8 1 9 2 10 3 11 4 12 5 13 6 14 7 15 8 16 9 7 10 6 11 5 12
REMARK SMILES IDX 4 13 3 14 2 15 1 16
REMARK H PARENT
REMARK Flexibility Score: inf
ROOT
ATOM      1  C   UNL     1      -6.627  -3.224 -11.202  1.00  0.00     0.000 C 
ENDROOT
BRANCH   1   2
ATOM      2  C   UNL     1      -7.082  -3.347 -12.660  1.00  0.00     0.000 C 
BRANCH   2   3
ATOM      3  C   UNL     1      -6.068  -4.143 -13.490  1.00  0.00     0.000 C 
BRANCH   3   4
ATOM      4  C   UNL     1      -6.772  -5.184 -14.369  1.00  0.00     0.000 C 
BRANCH   4   5
ATOM      5  C   UNL     1      -6.983  -6.497 -13.606  1.00  0.00     0.006 C 
BRANCH   5   6
ATOM      6  C   UNL     1      -7.782  -7.498 -14.445  1.00  0.00     0.053 C 
BRANCH   6   7
ATOM      7  C   UNL     1      -9.249  -7.323 -14.212  1.00  0.00     0.041 C 
ATOM      8  O   UNL     1      -9.873  -8.123 -13.465  1.00  0.00    -0.550 OA
ATOM      9  O   UNL     1      -9.920  -6.248 -14.781  1.00  0.00    -0.550 OA
ENDBRANCH   6   7
ENDBRANCH   5   6
ENDBRANCH   4   5
ENDBRANCH   3   4
ENDBRANCH   2   3
ENDBRANCH   1   2
BRANCH   1  10
ATOM     10  C   UNL     1      -7.440  -4.157 -10.292  1.00  0.00     0.000 C 
BRANCH  10  11
ATOM     11  C   UNL     1      -6.686  -5.450  -9.938  1.00  0.00    -0.000 C 
BRANCH  11  12
ATOM     12  C   UNL     1      -7.497  -6.715 -10.270  1.00  0.00    -0.000 C 
BRANCH  12  13
ATOM     13  C   UNL     1      -8.993  -6.420 -10.470  1.00  0.00    -0.000 C 
BRANCH  13  14
ATOM     14  C   UNL     1      -9.895  -7.558  -9.970  1.00  0.00    -0.000 C 
BRANCH  14  15
ATOM     15  C   UNL     1     -10.956  -7.030  -8.998  1.00  0.00    -0.003 C 
ATOM     16  C   UNL     1     -11.122  -5.518  -9.130  1.00  0.00     0.004 C 
ENDBRANCH  14  15
ENDBRANCH  13  14
ENDBRANCH  12  13
ENDBRANCH  11  12
ENDBRANCH  10  11
ENDBRANCH   1  10
TORSDOF 12
ENDMDL
MODEL 6
REMARK VINA RESULT:    -3.835      2.660      5.088
REMARK INTER + INTRA:          -8.073
REMARK INTER:                  -6.791
REMARK INTRA:                  -1.282
REMARK UNBOUND:                -1.549
REMARK SMILES CCCCCCCCCCCCCC(=O)[O-]
REMARK SMILES IDX 8 1 9 2 10 3 11 4 12 5 13 6 14 7 15 8 16 9 7 10 6 11 5 12
REMARK SMILES IDX 4 13 3 14 2 15 1 16
REMARK H PARENT
REMARK Flexibility Score: inf
ROOT
ATOM      1  C   UNL     1      -6.627  -4.798 -14.028  1.00  0.00     0.000 C 
ENDROOT
BRANCH   1   2
ATOM      2  C   UNL     1      -6.367  -6.067 -13.209  1.00  0.00     0.000 C 
BRANCH   2   3
ATOM      3  C   UNL     1      -7.677  -6.650 -12.663  1.00  0.00     0.000 C 
BRANCH   3   4
ATOM      4  C   UNL     1      -7.402  -7.730 -11.611  1.00  0.00     0.000 C 
BRANCH   4   5
ATOM      5  C   UNL     1      -8.052  -7.370 -10.269  1.00  0.00     0.006 C 
BRANCH   5   6
ATOM      6  C   UNL     1      -8.979  -6.161 -10.416  1.00  0.00     0.053 C 
BRANCH   6   7
ATOM      7  C   UNL     1     -10.346  -6.484  -9.900  1.00  0.00     0.041 C 
ATOM      8  O   UNL     1     -10.810  -7.649 -10.019  1.00  0.00    -0.550 OA
ATOM      9  O   UNL     1     -11.090  -5.511  -9.244  1.00  0.00    -0.550 OA
ENDBRANCH   6   7
ENDBRANCH   5   6
ENDBRANCH   4   5
ENDBRANCH   3   4
ENDBRANCH   2   3
ENDBRANCH   1   2
BRANCH   1  10
ATOM     10  C   UNL     1      -6.958  -3.610 -13.113  1.00  0.00     0.000 C 
BRANCH  10  11
ATOM     11  C   UNL     1      -6.436  -3.801 -11.679  1.00  0.00    -0.000 C 
BRANCH  11  12
ATOM     12  C   UNL     1      -7.132  -2.870 -10.670  1.00  0.00    -0.000 C 
BRANCH  12  13
ATOM     13  C   UNL     1      -6.887  -3.293  -9.212  1.00  0.00    -0.000 C 
BRANCH  13  14
ATOM     14  C   UNL     1      -5.921  -4.481  -9.092  1.00  0.00    -0.000 C 
BRANCH  14  15
ATOM     15  C   UNL     1      -4.893  -4.242  -7.981  1.00  0.00    -0.003 C 
ATOM     16  C   UNL     1      -4.502  -5.551  -7.299  1.00  0.00     0.004 C 
ENDBRANCH  14  15
ENDBRANCH  13  14
ENDBRANCH  12  13
ENDBRANCH  11  12
ENDBRANCH  10  11
ENDBRANCH   1  10
TORSDOF 12
ENDMDL
MODEL 7
REMARK VINA RESULT:    -3.781     12.349     13.891
REMARK INTER + INTRA:          -7.982
REMARK INTER:                  -7.468
REMARK INTRA:                  -0.514
REMARK UNBOUND:                -1.549
REMARK SMILES CCCCCCCCCCCCCC(=O)[O-]
REMARK SMILES IDX 8 1 9 2 10 3 11 4 12 5 13 6 14 7 15 8 16 9 7 10 6 11 5 12
REMARK SMILES IDX 4 13 3 14 2 15 1 16
REMARK H PARENT
REMARK Flexibility Score: inf
ROOT
ATOM      1  C   UNL     1       4.244  -2.055 -15.104  1.00  0.00     0.000 C 
ENDROOT
BRANCH   1   2
ATOM      2  C   UNL     1       4.687  -0.728 -14.479  1.00  0.00     0.000 C 
BRANCH   2   3
ATOM      3  C   UNL     1       3.483   0.070 -13.964  1.00  0.00     0.000 C 
BRANCH   3   4
ATOM      4  C   UNL     1       2.619   0.577 -15.125  1.00  0.00     0.000 C 
BRANCH   4   5
ATOM      5  C   UNL     1       2.491   2.104 -15.089  1.00  0.00     0.006 C 
BRANCH   5   6
ATOM      6  C   UNL     1       1.056   2.527 -14.761  1.00  0.00     0.053 C 
BRANCH   6   7
ATOM      7  C   UNL     1       1.037   3.903 -14.175  1.00  0.00     0.041 C 
ATOM      8  O   UNL     1       1.989   4.297 -13.450  1.00  0.00    -0.550 OA
ATOM      9  O   UNL     1      -0.008   4.769 -14.468  1.00  0.00    -0.550 OA
ENDBRANCH   6   7
ENDBRANCH   5   6
ENDBRANCH   4   5
ENDBRANCH   3   4
ENDBRANCH   2   3
ENDBRANCH   1   2
BRANCH   1  10
ATOM     10  C   UNL     1       5.091  -3.222 -14.574  1.00  0.00     0.000 C 
BRANCH  10  11
ATOM     11  C   UNL     1       5.075  -3.320 -13.040  1.00  0.00    -0.000 C 
BRANCH  11  12
ATOM     12  C   UNL     1       6.247  -4.154 -12.491  1.00  0.00    -0.000 C 
BRANCH  12  13
ATOM     13  C   UNL     1       7.269  -3.299 -11.724  1.00  0.00    -0.000 C 
BRANCH  13  14
ATOM     14  C   UNL     1       8.575  -4.055 -11.432  1.00  0.00    -0.000 C 
BRANCH  14  15
ATOM     15  C   UNL     1       8.451  -4.890 -10.153  1.00  0.00    -0.003 C 
ATOM     16  C   UNL     1       8.537  -4.011  -8.908  1.00  0.00     0.004 C 
ENDBRANCH  14  15
ENDBRANCH  13  14
ENDBRANCH  12  13
ENDBRANCH  11  12
ENDBRANCH  10  11
ENDBRANCH   1  10
TORSDOF 12
ENDMDL
MODEL 8
REMARK VINA RESULT:    -3.624     13.157     15.299
REMARK INTER + INTRA:          -7.716
REMARK INTER:                  -6.842
REMARK INTRA:                  -0.874
REMARK UNBOUND:                -1.549
REMARK SMILES CCCCCCCCCCCCCC(=O)[O-]
REMARK SMILES IDX 8 1 9 2 10 3 11 4 12 5 13 6 14 7 15 8 16 9 7 10 6 11 5 12
REMARK SMILES IDX 4 13 3 14 2 15 1 16
REMARK H PARENT
REMARK Flexibility Score: inf
ROOT
ATOM      1  C   UNL     1       4.973  -3.425 -12.976  1.00  0.00     0.000 C 
ENDROOT
BRANCH   1   2
ATOM      2  C   UNL     1       4.987  -3.183 -14.489  1.00  0.00     0.000 C 
BRANCH   2   3
ATOM      3  C   UNL     1       4.433  -1.795 -14.832  1.00  0.00     0.000 C 
BRANCH   3   4
ATOM      4  C   UNL     1       4.753  -0.784 -13.724  1.00  0.00     0.000 C 
BRANCH   4   5
ATOM      5  C   UNL     1       5.794   0.238 -14.196  1.00  0.00     0.006 C 
BRANCH   5   6
ATOM      6  C   UNL     1       7.037   0.208 -13.301  1.00  0.00     0.053 C 
BRANCH   6   7
ATOM      7  C   UNL     1       7.865   1.436 -13.514  1.00  0.00     0.041 C 
ATOM      8  O   UNL     1       7.671   2.164 -14.524  1.00  0.00    -0.550 OA
ATOM      9  O   UNL     1       8.818   1.803 -12.573  1.00  0.00    -0.550 OA
ENDBRANCH   6   7
ENDBRANCH   5   6
ENDBRANCH   4   5
ENDBRANCH   3   4
ENDBRANCH   2   3
ENDBRANCH   1   2
BRANCH   1  10
ATOM     10  C   UNL     1       6.305  -4.026 -12.503  1.00  0.00     0.000 C 
BRANCH  10  11
ATOM     11  C   UNL     1       7.355  -2.954 -12.165  1.00  0.00    -0.000 C 
BRANCH  11  12
ATOM     12  C   UNL     1       8.391  -3.448 -11.140  1.00  0.00    -0.000 C 
BRANCH  12  13
ATOM     13  C   UNL     1       8.239  -4.944 -10.822  1.00  0.00    -0.000 C 
BRANCH  13  14
ATOM     14  C   UNL     1       8.460  -5.261  -9.334  1.00  0.00    -0.000 C 
BRANCH  14  15
ATOM     15  C   UNL     1       9.125  -6.630  -9.159  1.00  0.00    -0.003 C 
ATOM     16  C   UNL     1       8.680  -7.605 -10.246  1.00  0.00     0.004 C 
ENDBRANCH  14  15
ENDBRANCH  13  14
ENDBRANCH  12  13
ENDBRANCH  11  12
ENDBRANCH  10  11
ENDBRANCH   1  10
TORSDOF 12
ENDMDL
