MODEL 1
REMARK VINA RESULT:    -5.677      0.000      0.000
REMARK INTER + INTRA:          -8.727
REMARK INTER:                  -7.669
REMARK INTRA:                  -1.058
REMARK UNBOUND:                -1.058
REMARK SMILES CC(=O)CCC=C(C)CCC=C(C)C
REMARK SMILES IDX 7 1 6 2 8 3 9 4 10 5 11 6 13 7 12 8 14 9 5 10 4 11 2 12 3 13
REMARK SMILES IDX 1 14
REMARK H PARENT
REMARK Flexibility Score: inf
ROOT
ATOM      1  C   UNL     1      19.668 204.636  15.808  1.00  0.00    -0.077 C 
ATOM      2  C   UNL     1      19.276 205.544  14.886  1.00  0.00    -0.028 C 
ATOM      3  C   UNL     1      18.623 204.067  16.734  1.00  0.00     0.039 C 
ENDROOT
BRANCH   1   4
ATOM      4  C   UNL     1      21.107 204.176  15.960  1.00  0.00     0.034 C 
BRANCH   4   5
ATOM      5  C   UNL     1      21.439 203.010  15.018  1.00  0.00     0.032 C 
BRANCH   5   6
ATOM      6  C   UNL     1      20.939 201.699  15.577  1.00  0.00    -0.028 C 
ATOM      7  C   UNL     1      19.608 199.635  15.677  1.00  0.00     0.039 C 
ATOM      8  C   UNL     1      19.948 200.956  15.034  1.00  0.00    -0.080 C 
ATOM      9  C   UNL     1      19.180 201.408  13.815  1.00  0.00     0.039 C 
ENDBRANCH   5   6
ENDBRANCH   4   5
ENDBRANCH   1   4
BRANCH   2  10
ATOM     10  C   UNL     1      20.168 206.174  13.840  1.00  0.00     0.035 C 
BRANCH  10  11
ATOM     11  C   UNL     1      20.846 207.436  14.384  1.00  0.00     0.079 C 
BRANCH  11  12
ATOM     12  C   UNL     1      22.327 207.231  14.570  1.00  0.00     0.130 C 
ATOM     13  O   UNL     1      22.870 207.654  15.579  1.00  0.00    -0.300 OA
ATOM     14  C   UNL     1      23.148 206.512  13.542  1.00  0.00     0.087 C 
ENDBRANCH  11  12
ENDBRANCH  10  11
ENDBRANCH   2  10
TORSDOF 6
ENDMDL
MODEL 2
REMARK VINA RESULT:    -5.543      2.561      5.479
REMARK INTER + INTRA:          -8.546
REMARK INTER:                  -7.531
REMARK INTRA:                  -1.014
REMARK UNBOUND:                -1.058
REMARK SMILES CC(=O)CCC=C(C)CCC=C(C)C
REMARK SMILES IDX 7 1 6 2 8 3 9 4 10 5 11 6 13 7 12 8 14 9 5 10 4 11 2 12 3 13
REMARK SMILES IDX 1 14
REMARK H PARENT
REMARK Flexibility Score: inf
ROOT
ATOM      1  C   UNL     1      19.934 206.006  16.340  1.00  0.00    -0.077 C 
ATOM      2  C   UNL     1      18.968 205.060  16.379  1.00  0.00    -0.028 C 
ATOM      3  C   UNL     1      19.539 207.436  16.610  1.00  0.00     0.039 C 
ENDROOT
BRANCH   1   4
ATOM      4  C   UNL     1      21.387 205.696  16.026  1.00  0.00     0.034 C 
BRANCH   4   5
ATOM      5  C   UNL     1      21.633 205.572  14.516  1.00  0.00     0.032 C 
BRANCH   5   6
ATOM      6  C   UNL     1      21.963 206.914  13.905  1.00  0.00    -0.028 C 
ATOM      7  C   UNL     1      21.575 208.999  12.665  1.00  0.00     0.039 C 
ATOM      8  C   UNL     1      21.116 207.647  13.147  1.00  0.00    -0.080 C 
ATOM      9  C   UNL     1      19.739 207.153  12.775  1.00  0.00     0.039 C 
ENDBRANCH   5   6
ENDBRANCH   4   5
ENDBRANCH   1   4
BRANCH   2  10
ATOM     10  C   UNL     1      19.186 203.575  16.193  1.00  0.00     0.035 C 
BRANCH  10  11
ATOM     11  C   UNL     1      18.972 203.167  14.732  1.00  0.00     0.079 C 
BRANCH  11  12
ATOM     12  C   UNL     1      19.382 201.737  14.492  1.00  0.00     0.130 C 
ATOM     13  O   UNL     1      19.095 201.199  13.434  1.00  0.00    -0.300 OA
ATOM     14  C   UNL     1      20.140 200.961  15.528  1.00  0.00     0.087 C 
ENDBRANCH  11  12
ENDBRANCH  10  11
ENDBRANCH   2  10
TORSDOF 6
ENDMDL
MODEL 3
REMARK VINA RESULT:    -5.475      1.014      1.501
REMARK INTER + INTRA:          -8.454
REMARK INTER:                  -7.620
REMARK INTRA:                  -0.834
REMARK UNBOUND:                -1.058
REMARK SMILES CC(=O)CCC=C(C)CCC=C(C)C
REMARK SMILES IDX 7 1 6 2 8 3 9 4 10 5 11 6 13 7 12 8 14 9 5 10 4 11 2 12 3 13
REMARK SMILES IDX 1 14
REMARK H PARENT
REMARK Flexibility Score: inf
ROOT
ATOM      1  C   UNL     1      19.624 205.315  15.012  1.00  0.00    -0.077 C 
ATOM      2  C   UNL     1      20.047 206.587  15.193  1.00  0.00    -0.028 C 
ATOM      3  C   UNL     1      18.916 204.979  13.725  1.00  0.00     0.039 C 
ENDROOT
BRANCH   1   4
ATOM      4  C   UNL     1      19.816 204.220  16.047  1.00  0.00     0.034 C 
BRANCH   4   5
ATOM      5  C   UNL     1      20.863 203.189  15.603  1.00  0.00     0.032 C 
BRANCH   5   6
ATOM      6  C   UNL     1      20.479 201.797  16.047  1.00  0.00    -0.028 C 
ATOM      7  C   UNL     1      19.549 199.531  15.857  1.00  0.00     0.039 C 
ATOM      8  C   UNL     1      19.799 200.906  15.291  1.00  0.00    -0.080 C 
ATOM      9  C   UNL     1      19.289 201.245  13.911  1.00  0.00     0.039 C 
ENDBRANCH   5   6
ENDBRANCH   4   5
ENDBRANCH   1   4
BRANCH   2  10
ATOM     10  C   UNL     1      20.824 207.091  16.389  1.00  0.00     0.035 C 
BRANCH  10  11
ATOM     11  C   UNL     1      22.333 206.959  16.158  1.00  0.00     0.079 C 
BRANCH  11  12
ATOM     12  C   UNL     1      22.734 207.488  14.806  1.00  0.00     0.130 C 
ATOM     13  O   UNL     1      22.784 208.695  14.623  1.00  0.00    -0.300 OA
ATOM     14  C   UNL     1      23.077 206.560  13.678  1.00  0.00     0.087 C 
ENDBRANCH  11  12
ENDBRANCH  10  11
ENDBRANCH   2  10
TORSDOF 6
ENDMDL
MODEL 4
REMARK VINA RESULT:    -5.403      2.401      5.860
REMARK INTER + INTRA:          -8.356
REMARK INTER:                  -7.441
REMARK INTRA:                  -0.915
REMARK UNBOUND:                -1.058
REMARK SMILES CC(=O)CCC=C(C)CCC=C(C)C
REMARK SMILES IDX 7 1 6 2 8 3 9 4 10 5 11 6 13 7 12 8 14 9 5 10 4 11 2 12 3 13
REMARK SMILES IDX 1 14
REMARK H PARENT
REMARK Flexibility Score: inf
ROOT
ATOM      1  C   UNL     1      19.682 205.967  14.270  1.00  0.00    -0.077 C 
ATOM      2  C   UNL     1      19.233 204.708  14.062  1.00  0.00    -0.028 C 
ATOM      3  C   UNL     1      19.765 206.896  13.085  1.00  0.00     0.039 C 
ENDROOT
BRANCH   1   4
ATOM      4  C   UNL     1      20.115 206.480  15.632  1.00  0.00     0.034 C 
BRANCH   4   5
ATOM      5  C   UNL     1      21.601 206.206  15.901  1.00  0.00     0.032 C 
BRANCH   5   6
ATOM      6  C   UNL     1      22.438 207.437  15.643  1.00  0.00    -0.028 C 
ATOM      7  C   UNL     1      23.928 208.948  14.405  1.00  0.00     0.039 C 
ATOM      8  C   UNL     1      23.201 207.635  14.544  1.00  0.00    -0.080 C 
ATOM      9  C   UNL     1      23.342 206.590  13.465  1.00  0.00     0.039 C 
ENDBRANCH   5   6
ENDBRANCH   4   5
ENDBRANCH   1   4
BRANCH   2  10
ATOM     10  C   UNL     1      19.027 203.662  15.135  1.00  0.00     0.035 C 
BRANCH  10  11
ATOM     11  C   UNL     1      20.147 202.616  15.104  1.00  0.00     0.079 C 
BRANCH  11  12
ATOM     12  C   UNL     1      19.638 201.276  14.640  1.00  0.00     0.130 C 
ATOM     13  O   UNL     1      19.086 201.185  13.554  1.00  0.00    -0.300 OA
ATOM     14  C   UNL     1      19.800 200.047  15.485  1.00  0.00     0.087 C 
ENDBRANCH  11  12
ENDBRANCH  10  11
ENDBRANCH   2  10
TORSDOF 6
ENDMDL
MODEL 5
REMARK VINA RESULT:    -5.399      2.469      5.974
REMARK INTER + INTRA:          -8.351
REMARK INTER:                  -7.638
REMARK INTRA:                  -0.714
REMARK UNBOUND:                -1.058
REMARK SMILES CC(=O)CCC=C(C)CCC=C(C)C
REMARK SMILES IDX 7 1 6 2 8 3 9 4 10 5 11 6 13 7 12 8 14 9 5 10 4 11 2 12 3 13
REMARK SMILES IDX 1 14
REMARK H PARENT
REMARK Flexibility Score: inf
ROOT
ATOM      1  C   UNL     1      19.664 205.636  15.886  1.00  0.00    -0.077 C 
ATOM      2  C   UNL     1      19.061 204.478  16.242  1.00  0.00    -0.028 C 
ATOM      3  C   UNL     1      19.743 206.739  16.911  1.00  0.00     0.039 C 
ENDROOT
BRANCH   1   4
ATOM      4  C   UNL     1      20.248 205.878  14.506  1.00  0.00     0.034 C 
BRANCH   4   5
ATOM      5  C   UNL     1      21.763 205.632  14.473  1.00  0.00     0.032 C 
BRANCH   5   6
ATOM      6  C   UNL     1      22.464 206.663  13.620  1.00  0.00    -0.028 C 
ATOM      7  C   UNL     1      23.735 208.704  13.114  1.00  0.00     0.039 C 
ATOM      8  C   UNL     1      23.012 207.808  14.087  1.00  0.00    -0.080 C 
ATOM      9  C   UNL     1      22.922 208.208  15.539  1.00  0.00     0.039 C 
ENDBRANCH   5   6
ENDBRANCH   4   5
ENDBRANCH   1   4
BRANCH   2  10
ATOM     10  C   UNL     1      18.942 203.247  15.371  1.00  0.00     0.035 C 
BRANCH  10  11
ATOM     11  C   UNL     1      19.845 202.121  15.885  1.00  0.00     0.079 C 
BRANCH  11  12
ATOM     12  C   UNL     1      19.652 200.853  15.095  1.00  0.00     0.130 C 
ATOM     13  O   UNL     1      19.237 200.917  13.948  1.00  0.00    -0.300 OA
ATOM     14  C   UNL     1      19.962 199.511  15.688  1.00  0.00     0.087 C 
ENDBRANCH  11  12
ENDBRANCH  10  11
ENDBRANCH   2  10
TORSDOF 6
ENDMDL
MODEL 6
REMARK VINA RESULT:    -5.307      2.362      5.688
REMARK INTER + INTRA:          -8.227
REMARK INTER:                  -7.263
REMARK INTRA:                  -0.964
REMARK UNBOUND:                -1.058
REMARK SMILES CC(=O)CCC=C(C)CCC=C(C)C
REMARK SMILES IDX 7 1 6 2 8 3 9 4 10 5 11 6 13 7 12 8 14 9 5 10 4 11 2 12 3 13
REMARK SMILES IDX 1 14
REMARK H PARENT
REMARK Flexibility Score: inf
ROOT
ATOM      1  C   UNL     1      19.487 203.828  15.749  1.00  0.00    -0.077 C 
ATOM      2  C   UNL     1      18.892 202.992  14.868  1.00  0.00    -0.028 C 
ATOM      3  C   UNL     1      18.605 204.670  16.635  1.00  0.00     0.039 C 
ENDROOT
BRANCH   1   4
ATOM      4  C   UNL     1      20.994 203.965  15.877  1.00  0.00     0.034 C 
BRANCH   4   5
ATOM      5  C   UNL     1      21.454 205.419  15.700  1.00  0.00     0.032 C 
BRANCH   5   6
ATOM      6  C   UNL     1      21.071 205.950  14.339  1.00  0.00    -0.028 C 
ATOM      7  C   UNL     1      20.193 207.548  12.692  1.00  0.00     0.039 C 
ATOM      8  C   UNL     1      20.450 207.130  14.118  1.00  0.00    -0.080 C 
ATOM      9  C   UNL     1      20.011 208.031  15.246  1.00  0.00     0.039 C 
ENDBRANCH   5   6
ENDBRANCH   4   5
ENDBRANCH   1   4
BRANCH   2  10
ATOM     10  C   UNL     1      19.611 202.033  13.945  1.00  0.00     0.035 C 
BRANCH  10  11
ATOM     11  C   UNL     1      19.182 200.587  14.214  1.00  0.00     0.079 C 
BRANCH  11  12
ATOM     12  C   UNL     1      19.827 200.042  15.462  1.00  0.00     0.130 C 
ATOM     13  O   UNL     1      20.924 200.456  15.802  1.00  0.00    -0.300 OA
ATOM     14  C   UNL     1      19.144 199.002  16.300  1.00  0.00     0.087 C 
ENDBRANCH  11  12
ENDBRANCH  10  11
ENDBRANCH   2  10
TORSDOF 6
ENDMDL
MODEL 7
REMARK VINA RESULT:    -5.243      1.750      2.165
REMARK INTER + INTRA:          -8.140
REMARK INTER:                  -7.274
REMARK INTRA:                  -0.866
REMARK UNBOUND:                -1.058
REMARK SMILES CC(=O)CCC=C(C)CCC=C(C)C
REMARK SMILES IDX 7 1 6 2 8 3 9 4 10 5 11 6 13 7 12 8 14 9 5 10 4 11 2 12 3 13
REMARK SMILES IDX 1 14
REMARK H PARENT
REMARK Flexibility Score: inf
ROOT
ATOM      1  C   UNL     1      19.745 204.782  15.650  1.00  0.00    -0.077 C 
ATOM      2  C   UNL     1      19.433 205.691  14.697  1.00  0.00    -0.028 C 
ATOM      3  C   UNL     1      18.624 204.213  16.483  1.00  0.00     0.039 C 
ENDROOT
BRANCH   1   4
ATOM      4  C   UNL     1      21.165 204.322  15.925  1.00  0.00     0.034 C 
BRANCH   4   5
ATOM      5  C   UNL     1      21.574 203.152  15.020  1.00  0.00     0.032 C 
BRANCH   5   6
ATOM      6  C   UNL     1      21.065 201.838  15.566  1.00  0.00    -0.028 C 
ATOM      7  C   UNL     1      19.750 199.764  15.625  1.00  0.00     0.039 C 
ATOM      8  C   UNL     1      20.101 201.085  14.990  1.00  0.00    -0.080 C 
ATOM      9  C   UNL     1      19.375 201.525  13.742  1.00  0.00     0.039 C 
ENDBRANCH   5   6
ENDBRANCH   4   5
ENDBRANCH   1   4
BRANCH   2  10
ATOM     10  C   UNL     1      20.411 206.321  13.732  1.00  0.00     0.035 C 
BRANCH  10  11
ATOM     11  C   UNL     1      20.130 207.818  13.564  1.00  0.00     0.079 C 
BRANCH  11  12
ATOM     12  C   UNL     1      19.725 208.149  12.151  1.00  0.00     0.130 C 
ATOM     13  O   UNL     1      20.301 209.046  11.555  1.00  0.00    -0.300 OA
ATOM     14  C   UNL     1      18.628 207.395  11.459  1.00  0.00     0.087 C 
ENDBRANCH  11  12
ENDBRANCH  10  11
ENDBRANCH   2  10
TORSDOF 6
ENDMDL
MODEL 8
REMARK VINA RESULT:    -5.201      2.795      5.837
REMARK INTER + INTRA:          -8.084
REMARK INTER:                  -7.196
REMARK INTRA:                  -0.887
REMARK UNBOUND:                -1.058
REMARK SMILES CC(=O)CCC=C(C)CCC=C(C)C
REMARK SMILES IDX 7 1 6 2 8 3 9 4 10 5 11 6 13 7 12 8 14 9 5 10 4 11 2 12 3 13
REMARK SMILES IDX 1 14
REMARK H PARENT
REMARK Flexibility Score: inf
ROOT
ATOM      1  C   UNL     1      22.050 206.693  14.180  1.00  0.00    -0.077 C 
ATOM      2  C   UNL     1      21.618 205.523  14.705  1.00  0.00    -0.028 C 
ATOM      3  C   UNL     1      23.356 206.692  13.426  1.00  0.00     0.039 C 
ENDROOT
BRANCH   1   4
ATOM      4  C   UNL     1      21.292 207.999  14.325  1.00  0.00     0.034 C 
BRANCH   4   5
ATOM      5  C   UNL     1      20.724 208.485  12.984  1.00  0.00     0.032 C 
BRANCH   5   6
ATOM      6  C   UNL     1      19.568 207.622  12.537  1.00  0.00    -0.028 C 
ATOM      7  C   UNL     1      17.907 206.675  10.993  1.00  0.00     0.039 C 
ATOM      8  C   UNL     1      19.016 207.649  11.303  1.00  0.00    -0.080 C 
ATOM      9  C   UNL     1      19.475 208.615  10.238  1.00  0.00     0.039 C 
ENDBRANCH   5   6
ENDBRANCH   4   5
ENDBRANCH   1   4
BRANCH   2  10
ATOM     10  C   UNL     1      20.310 205.321  15.437  1.00  0.00     0.035 C 
BRANCH  10  11
ATOM     11  C   UNL     1      19.307 204.555  14.567  1.00  0.00     0.079 C 
BRANCH  11  12
ATOM     12  C   UNL     1      19.291 203.087  14.905  1.00  0.00     0.130 C 
ATOM     13  O   UNL     1      18.916 202.282  14.067  1.00  0.00    -0.300 OA
ATOM     14  C   UNL     1      19.731 202.594  16.251  1.00  0.00     0.087 C 
ENDBRANCH  11  12
ENDBRANCH  10  11
ENDBRANCH   2  10
TORSDOF 6
ENDMDL
MODEL 9
REMARK VINA RESULT:    -5.199      2.770      5.634
REMARK INTER + INTRA:          -8.081
REMARK INTER:                  -7.393
REMARK INTRA:                  -0.688
REMARK UNBOUND:                -1.058
REMARK SMILES CC(=O)CCC=C(C)CCC=C(C)C
REMARK SMILES IDX 7 1 6 2 8 3 9 4 10 5 11 6 13 7 12 8 14 9 5 10 4 11 2 12 3 13
REMARK SMILES IDX 1 14
REMARK H PARENT
REMARK Flexibility Score: inf
ROOT
ATOM      1  C   UNL     1      20.081 206.087  16.073  1.00  0.00    -0.077 C 
ATOM      2  C   UNL     1      19.140 205.141  16.296  1.00  0.00    -0.028 C 
ATOM      3  C   UNL     1      20.108 207.289  16.983  1.00  0.00     0.039 C 
ENDROOT
BRANCH   1   4
ATOM      4  C   UNL     1      21.095 206.001  14.947  1.00  0.00     0.034 C 
BRANCH   4   5
ATOM      5  C   UNL     1      20.902 207.121  13.914  1.00  0.00     0.032 C 
BRANCH   5   6
ATOM      6  C   UNL     1      19.724 206.834  13.013  1.00  0.00    -0.028 C 
ATOM      7  C   UNL     1      18.182 207.148  11.127  1.00  0.00     0.039 C 
ATOM      8  C   UNL     1      19.343 207.607  11.971  1.00  0.00    -0.080 C 
ATOM      9  C   UNL     1      20.042 208.901  11.633  1.00  0.00     0.039 C 
ENDBRANCH   5   6
ENDBRANCH   4   5
ENDBRANCH   1   4
BRANCH   2  10
ATOM     10  C   UNL     1      18.999 203.846  15.527  1.00  0.00     0.035 C 
BRANCH  10  11
ATOM     11  C   UNL     1      19.761 202.711  16.219  1.00  0.00     0.079 C 
BRANCH  11  12
ATOM     12  C   UNL     1      19.810 201.474  15.360  1.00  0.00     0.130 C 
ATOM     13  O   UNL     1      20.149 200.411  15.855  1.00  0.00    -0.300 OA
ATOM     14  C   UNL     1      19.446 201.523  13.905  1.00  0.00     0.087 C 
ENDBRANCH  11  12
ENDBRANCH  10  11
ENDBRANCH   2  10
TORSDOF 6
ENDMDL
