MODEL 1
REMARK VINA RESULT:    -4.908      0.000      0.000
REMARK INTER + INTRA:          -5.709
REMARK INTER:                  -5.626
REMARK INTRA:                  -0.084
REMARK UNBOUND:                -0.084
REMARK SMILES COc1cc(C(=O)[O-])ccc1O
REMARK SMILES IDX 5 1 9 2 4 3 10 4 3 5 11 6 6 7 7 8 8 9 2 10 1 11 12 12
REMARK H PARENT 12 13
REMARK Flexibility Score: inf
ROOT
ATOM      1  C   UNL     1       3.371  -7.625  -2.519  1.00  0.00     0.001 A 
ATOM      2  C   UNL     1       3.535  -8.595  -3.522  1.00  0.00     0.014 A 
ATOM      3  C   UNL     1       4.271  -6.547  -2.456  1.00  0.00     0.060 A 
ATOM      4  C   UNL     1       4.579  -8.490  -4.443  1.00  0.00     0.051 A 
ATOM      5  C   UNL     1       5.328  -6.436  -3.385  1.00  0.00     0.161 A 
ATOM      6  C   UNL     1       5.474  -7.418  -4.380  1.00  0.00     0.157 A 
ENDROOT
BRANCH   1   7
ATOM      7  C   UNL     1       2.265  -7.733  -1.541  1.00  0.00     0.072 C 
ATOM      8  O   UNL     1       2.402  -7.293  -0.368  1.00  0.00    -0.545 OA
ATOM      9  O   UNL     1       1.059  -8.323  -1.902  1.00  0.00    -0.545 OA
ENDBRANCH   1   7
BRANCH   5  10
ATOM     10  O   UNL     1       6.242  -5.371  -3.346  1.00  0.00    -0.493 OA
ATOM     11  C   UNL     1       7.472  -5.386  -2.628  1.00  0.00     0.278 C 
ENDBRANCH   5  10
BRANCH   6  12
ATOM     12  O   UNL     1       6.505  -7.347  -5.317  1.00  0.00    -0.504 OA
ATOM     13  H   UNL     1       7.372  -6.860  -5.130  1.00  0.00     0.293 HD
ENDBRANCH   6  12
TORSDOF 3
ENDMDL
MODEL 2
REMARK VINA RESULT:    -4.845     17.879     18.601
REMARK INTER + INTRA:          -5.637
REMARK INTER:                  -5.542
REMARK INTRA:                  -0.095
REMARK UNBOUND:                -0.084
REMARK SMILES COc1cc(C(=O)[O-])ccc1O
REMARK SMILES IDX 5 1 9 2 4 3 10 4 3 5 11 6 6 7 7 8 8 9 2 10 1 11 12 12
REMARK H PARENT 12 13
REMARK Flexibility Score: inf
ROOT
ATOM      1  C   UNL     1      -5.852   7.810   1.079  1.00  0.00     0.001 A 
ATOM      2  C   UNL     1      -4.827   8.711   0.744  1.00  0.00     0.014 A 
ATOM      3  C   UNL     1      -5.691   6.977   2.199  1.00  0.00     0.060 A 
ATOM      4  C   UNL     1      -3.665   8.777   1.516  1.00  0.00     0.051 A 
ATOM      5  C   UNL     1      -4.519   7.040   2.982  1.00  0.00     0.161 A 
ATOM      6  C   UNL     1      -3.506   7.949   2.629  1.00  0.00     0.157 A 
ENDROOT
BRANCH   1   7
ATOM      7  C   UNL     1      -7.085   7.737   0.263  1.00  0.00     0.072 C 
ATOM      8  O   UNL     1      -7.993   8.602   0.397  1.00  0.00    -0.545 OA
ATOM      9  O   UNL     1      -7.261   6.715  -0.662  1.00  0.00    -0.545 OA
ENDBRANCH   1   7
BRANCH   5  10
ATOM     10  O   UNL     1      -4.331   6.220   4.106  1.00  0.00    -0.493 OA
ATOM     11  C   UNL     1      -4.831   6.506   5.409  1.00  0.00     0.278 C 
ENDBRANCH   5  10
BRANCH   6  12
ATOM     12  O   UNL     1      -2.331   8.043   3.375  1.00  0.00    -0.504 OA
ATOM     13  H   UNL     1      -2.032   8.909   3.805  1.00  0.00     0.293 HD
ENDBRANCH   6  12
TORSDOF 3
ENDMDL
MODEL 3
REMARK VINA RESULT:    -4.744     17.914     19.083
REMARK INTER + INTRA:          -5.521
REMARK INTER:                  -5.439
REMARK INTRA:                  -0.083
REMARK UNBOUND:                -0.084
REMARK SMILES COc1cc(C(=O)[O-])ccc1O
REMARK SMILES IDX 5 1 9 2 4 3 10 4 3 5 11 6 6 7 7 8 8 9 2 10 1 11 12 12
REMARK H PARENT 12 13
REMARK Flexibility Score: inf
ROOT
ATOM      1  C   UNL     1      -3.854   7.355   5.282  1.00  0.00     0.001 A 
ATOM      2  C   UNL     1      -3.771   8.724   5.588  1.00  0.00     0.014 A 
ATOM      3  C   UNL     1      -3.102   6.439   6.037  1.00  0.00     0.060 A 
ATOM      4  C   UNL     1      -2.952   9.166   6.629  1.00  0.00     0.051 A 
ATOM      5  C   UNL     1      -2.273   6.881   7.089  1.00  0.00     0.161 A 
ATOM      6  C   UNL     1      -2.205   8.254   7.379  1.00  0.00     0.157 A 
ENDROOT
BRANCH   1   7
ATOM      7  C   UNL     1      -4.721   6.883   4.179  1.00  0.00     0.072 C 
ATOM      8  O   UNL     1      -5.973   6.840   4.322  1.00  0.00    -0.545 OA
ATOM      9  O   UNL     1      -4.168   6.477   2.970  1.00  0.00    -0.545 OA
ENDBRANCH   1   7
BRANCH   5  10
ATOM     10  O   UNL     1      -1.511   5.988   7.860  1.00  0.00    -0.493 OA
ATOM     11  C   UNL     1      -1.963   5.364   9.058  1.00  0.00     0.278 C 
ENDBRANCH   5  10
BRANCH   6  12
ATOM     12  O   UNL     1      -1.398   8.734   8.411  1.00  0.00    -0.504 OA
ATOM     13  H   UNL     1      -0.417   8.494   8.485  1.00  0.00     0.293 HD
ENDBRANCH   6  12
TORSDOF 3
ENDMDL
MODEL 4
REMARK VINA RESULT:    -4.730     17.710     18.892
REMARK INTER + INTRA:          -5.505
REMARK INTER:                  -5.408
REMARK INTRA:                  -0.097
REMARK UNBOUND:                -0.084
REMARK SMILES COc1cc(C(=O)[O-])ccc1O
REMARK SMILES IDX 5 1 9 2 4 3 10 4 3 5 11 6 6 7 7 8 8 9 2 10 1 11 12 12
REMARK H PARENT 12 13
REMARK Flexibility Score: inf
ROOT
ATOM      1  C   UNL     1      -5.355   7.510   4.773  1.00  0.00     0.001 A 
ATOM      2  C   UNL     1      -4.062   8.059   4.763  1.00  0.00     0.014 A 
ATOM      3  C   UNL     1      -5.886   6.989   3.581  1.00  0.00     0.060 A 
ATOM      4  C   UNL     1      -3.315   8.085   3.583  1.00  0.00     0.051 A 
ATOM      5  C   UNL     1      -5.136   7.012   2.386  1.00  0.00     0.161 A 
ATOM      6  C   UNL     1      -3.844   7.566   2.398  1.00  0.00     0.157 A 
ENDROOT
BRANCH   1   7
ATOM      7  C   UNL     1      -6.150   7.481   6.021  1.00  0.00     0.072 C 
ATOM      8  O   UNL     1      -7.394   7.680   5.993  1.00  0.00    -0.545 OA
ATOM      9  O   UNL     1      -5.536   7.234   7.244  1.00  0.00    -0.545 OA
ENDBRANCH   1   7
BRANCH   5  10
ATOM     10  O   UNL     1      -5.641   6.498   1.181  1.00  0.00    -0.493 OA
ATOM     11  C   UNL     1      -6.698   7.086   0.430  1.00  0.00     0.278 C 
ENDBRANCH   5  10
BRANCH   6  12
ATOM     12  O   UNL     1      -3.068   7.609   1.240  1.00  0.00    -0.504 OA
ATOM     13  H   UNL     1      -3.473   7.748   0.323  1.00  0.00     0.293 HD
ENDBRANCH   6  12
TORSDOF 3
ENDMDL
MODEL 5
REMARK VINA RESULT:    -4.670     17.995     18.741
REMARK INTER + INTRA:          -5.436
REMARK INTER:                  -5.344
REMARK INTRA:                  -0.092
REMARK UNBOUND:                -0.084
REMARK SMILES COc1cc(C(=O)[O-])ccc1O
REMARK SMILES IDX 5 1 9 2 4 3 10 4 3 5 11 6 6 7 7 8 8 9 2 10 1 11 12 12
REMARK H PARENT 12 13
REMARK Flexibility Score: inf
ROOT
ATOM      1  C   UNL     1      -4.158   7.512   4.579  1.00  0.00     0.001 A 
ATOM      2  C   UNL     1      -5.480   7.232   4.963  1.00  0.00     0.014 A 
ATOM      3  C   UNL     1      -3.840   7.569   3.211  1.00  0.00     0.060 A 
ATOM      4  C   UNL     1      -6.465   7.015   3.997  1.00  0.00     0.051 A 
ATOM      5  C   UNL     1      -4.832   7.351   2.231  1.00  0.00     0.161 A 
ATOM      6  C   UNL     1      -6.149   7.073   2.637  1.00  0.00     0.157 A 
ENDROOT
BRANCH   1   7
ATOM      7  C   UNL     1      -3.111   7.742   5.600  1.00  0.00     0.072 C 
ATOM      8  O   UNL     1      -2.982   8.873   6.140  1.00  0.00    -0.545 OA
ATOM      9  O   UNL     1      -2.254   6.714   5.977  1.00  0.00    -0.545 OA
ENDBRANCH   1   7
BRANCH   5  10
ATOM     10  O   UNL     1      -4.544   7.402   0.858  1.00  0.00    -0.493 OA
ATOM     11  C   UNL     1      -4.191   8.586   0.149  1.00  0.00     0.278 C 
ENDBRANCH   5  10
BRANCH   6  12
ATOM     12  O   UNL     1      -7.159   6.851   1.701  1.00  0.00    -0.504 OA
ATOM     13  H   UNL     1      -8.099   6.591   1.973  1.00  0.00     0.293 HD
ENDBRANCH   6  12
TORSDOF 3
ENDMDL
MODEL 6
REMARK VINA RESULT:    -4.651      0.990      2.648
REMARK INTER + INTRA:          -5.415
REMARK INTER:                  -5.322
REMARK INTRA:                  -0.093
REMARK UNBOUND:                -0.084
REMARK SMILES COc1cc(C(=O)[O-])ccc1O
REMARK SMILES IDX 5 1 9 2 4 3 10 4 3 5 11 6 6 7 7 8 8 9 2 10 1 11 12 12
REMARK H PARENT 12 13
REMARK Flexibility Score: inf
ROOT
ATOM      1  C   UNL     1       3.436  -7.523  -2.490  1.00  0.00     0.001 A 
ATOM      2  C   UNL     1       4.264  -6.421  -2.221  1.00  0.00     0.014 A 
ATOM      3  C   UNL     1       3.706  -8.324  -3.613  1.00  0.00     0.060 A 
ATOM      4  C   UNL     1       5.341  -6.126  -3.060  1.00  0.00     0.051 A 
ATOM      5  C   UNL     1       4.794  -8.031  -4.463  1.00  0.00     0.161 A 
ATOM      6  C   UNL     1       5.610  -6.923  -4.176  1.00  0.00     0.157 A 
ENDROOT
BRANCH   1   7
ATOM      7  C   UNL     1       2.293  -7.839  -1.604  1.00  0.00     0.072 C 
ATOM      8  O   UNL     1       2.161  -7.252  -0.496  1.00  0.00    -0.545 OA
ATOM      9  O   UNL     1       1.349  -8.788  -1.979  1.00  0.00    -0.545 OA
ENDBRANCH   1   7
BRANCH   5  10
ATOM     10  O   UNL     1       5.087  -8.814  -5.591  1.00  0.00    -0.493 OA
ATOM     11  C   UNL     1       4.178  -9.071  -6.656  1.00  0.00     0.278 C 
ENDBRANCH   5  10
BRANCH   6  12
ATOM     12  O   UNL     1       6.694  -6.597  -4.990  1.00  0.00    -0.504 OA
ATOM     13  H   UNL     1       6.587  -6.071  -5.848  1.00  0.00     0.293 HD
ENDBRANCH   6  12
TORSDOF 3
ENDMDL
MODEL 7
REMARK VINA RESULT:    -4.533     15.111     16.153
REMARK INTER + INTRA:          -5.280
REMARK INTER:                  -5.186
REMARK INTRA:                  -0.094
REMARK UNBOUND:                -0.084
REMARK SMILES COc1cc(C(=O)[O-])ccc1O
REMARK SMILES IDX 5 1 9 2 4 3 10 4 3 5 11 6 6 7 7 8 8 9 2 10 1 11 12 12
REMARK H PARENT 12 13
REMARK Flexibility Score: inf
ROOT
ATOM      1  C   UNL     1       6.191   8.672  -1.261  1.00  0.00     0.001 A 
ATOM      2  C   UNL     1       7.228   8.120  -2.031  1.00  0.00     0.014 A 
ATOM      3  C   UNL     1       4.899   8.750  -1.809  1.00  0.00     0.060 A 
ATOM      4  C   UNL     1       6.977   7.655  -3.324  1.00  0.00     0.051 A 
ATOM      5  C   UNL     1       4.640   8.282  -3.114  1.00  0.00     0.161 A 
ATOM      6  C   UNL     1       5.692   7.733  -3.868  1.00  0.00     0.157 A 
ENDROOT
BRANCH   1   7
ATOM      7  C   UNL     1       6.453   9.166   0.109  1.00  0.00     0.072 C 
ATOM      8  O   UNL     1       6.427  10.401   0.361  1.00  0.00    -0.545 OA
ATOM      9  O   UNL     1       6.733   8.275   1.140  1.00  0.00    -0.545 OA
ENDBRANCH   1   7
BRANCH   5  10
ATOM     10  O   UNL     1       3.360   8.347  -3.687  1.00  0.00    -0.493 OA
ATOM     11  C   UNL     1       2.721   9.549  -4.106  1.00  0.00     0.278 C 
ENDBRANCH   5  10
BRANCH   6  12
ATOM     12  O   UNL     1       5.480   7.258  -5.162  1.00  0.00    -0.504 OA
ATOM     13  H   UNL     1       6.037   6.514  -5.563  1.00  0.00     0.293 HD
ENDBRANCH   6  12
TORSDOF 3
ENDMDL
MODEL 8
REMARK VINA RESULT:    -4.517     14.605     15.692
REMARK INTER + INTRA:          -5.262
REMARK INTER:                  -5.164
REMARK INTRA:                  -0.098
REMARK UNBOUND:                -0.084
REMARK SMILES COc1cc(C(=O)[O-])ccc1O
REMARK SMILES IDX 5 1 9 2 4 3 10 4 3 5 11 6 6 7 7 8 8 9 2 10 1 11 12 12
REMARK H PARENT 12 13
REMARK Flexibility Score: inf
ROOT
ATOM      1  C   UNL     1       5.088   7.856  -3.398  1.00  0.00     0.001 A 
ATOM      2  C   UNL     1       3.972   7.041  -3.142  1.00  0.00     0.014 A 
ATOM      3  C   UNL     1       5.231   8.442  -4.667  1.00  0.00     0.060 A 
ATOM      4  C   UNL     1       3.018   6.817  -4.137  1.00  0.00     0.051 A 
ATOM      5  C   UNL     1       4.270   8.219  -5.676  1.00  0.00     0.161 A 
ATOM      6  C   UNL     1       3.161   7.400  -5.399  1.00  0.00     0.157 A 
ENDROOT
BRANCH   1   7
ATOM      7  C   UNL     1       6.101   8.095  -2.345  1.00  0.00     0.072 C 
ATOM      8  O   UNL     1       5.752   8.469  -1.193  1.00  0.00    -0.545 OA
ATOM      9  O   UNL     1       7.453   7.913  -2.612  1.00  0.00    -0.545 OA
ENDBRANCH   1   7
BRANCH   5  10
ATOM     10  O   UNL     1       4.386   8.791  -6.953  1.00  0.00    -0.493 OA
ATOM     11  C   UNL     1       3.958  10.106  -7.293  1.00  0.00     0.278 C 
ENDBRANCH   5  10
BRANCH   6  12
ATOM     12  O   UNL     1       2.188   7.154  -6.368  1.00  0.00    -0.504 OA
ATOM     13  H   UNL     1       2.005   7.798  -7.126  1.00  0.00     0.293 HD
ENDBRANCH   6  12
TORSDOF 3
ENDMDL
MODEL 9
REMARK VINA RESULT:    -4.475     17.979     19.067
REMARK INTER + INTRA:          -5.212
REMARK INTER:                  -5.121
REMARK INTRA:                  -0.091
REMARK UNBOUND:                -0.084
REMARK SMILES COc1cc(C(=O)[O-])ccc1O
REMARK SMILES IDX 5 1 9 2 4 3 10 4 3 5 11 6 6 7 7 8 8 9 2 10 1 11 12 12
REMARK H PARENT 12 13
REMARK Flexibility Score: inf
ROOT
ATOM      1  C   UNL     1      -5.718   7.183   3.181  1.00  0.00     0.001 A 
ATOM      2  C   UNL     1      -6.879   7.455   3.924  1.00  0.00     0.014 A 
ATOM      3  C   UNL     1      -4.540   6.826   3.859  1.00  0.00     0.060 A 
ATOM      4  C   UNL     1      -6.860   7.370   5.318  1.00  0.00     0.051 A 
ATOM      5  C   UNL     1      -4.516   6.738   5.266  1.00  0.00     0.161 A 
ATOM      6  C   UNL     1      -5.689   7.014   5.991  1.00  0.00     0.157 A 
ENDROOT
BRANCH   1   7
ATOM      7  C   UNL     1      -5.733   7.273   1.704  1.00  0.00     0.072 C 
ATOM      8  O   UNL     1      -5.435   8.352   1.124  1.00  0.00    -0.545 OA
ATOM      9  O   UNL     1      -6.077   6.168   0.933  1.00  0.00    -0.545 OA
ENDBRANCH   1   7
BRANCH   5  10
ATOM     10  O   UNL     1      -3.354   6.383   5.970  1.00  0.00    -0.493 OA
ATOM     11  C   UNL     1      -2.345   7.300   6.382  1.00  0.00     0.278 C 
ENDBRANCH   5  10
BRANCH   6  12
ATOM     12  O   UNL     1      -5.709   6.940   7.384  1.00  0.00    -0.504 OA
ATOM     13  H   UNL     1      -5.804   6.061   7.877  1.00  0.00     0.293 HD
ENDBRANCH   6  12
TORSDOF 3
ENDMDL
