MODEL 1
REMARK VINA RESULT:    -6.142      0.000      0.000
REMARK INTER + INTRA:          -7.763
REMARK INTER:                  -7.399
REMARK INTRA:                  -0.364
REMARK UNBOUND:                -0.364
REMARK SMILES Oc1cc(O)c2c(c1)O[C@@H](c1ccc(O)c(O)c1)[C@H](O)C2
REMARK SMILES IDX 21 1 19 2 10 3 9 4 7 5 8 6 2 7 3 8 4 9 6 10 20 11 11 13
REMARK SMILES IDX 18 14 12 15 16 16 13 17 14 18 17 19 15 21 5 23 1 25
REMARK H PARENT 20 12 17 20 15 22 5 24 1 26
REMARK Flexibility Score: inf
ROOT
ATOM      1  C   UNL     1      16.889  -1.168 -14.818  1.00  0.00     0.079 C 
ATOM      2  C   UNL     1      17.445  -0.536 -16.108  1.00  0.00     0.164 C 
ATOM      3  C   UNL     1      18.739  -1.251 -16.526  1.00  0.00     0.232 C 
ATOM      4  O   UNL     1      18.492  -2.647 -16.685  1.00  0.00    -0.482 OA
ATOM      5  C   UNL     1      17.646  -3.358 -15.827  1.00  0.00     0.131 A 
ATOM      6  C   UNL     1      17.596  -4.751 -15.923  1.00  0.00     0.093 A 
ATOM      7  C   UNL     1      16.771  -5.488 -15.069  1.00  0.00     0.122 A 
ATOM      8  C   UNL     1      16.001  -4.829 -14.108  1.00  0.00     0.092 A 
ATOM      9  C   UNL     1      16.038  -3.435 -13.996  1.00  0.00     0.126 A 
ATOM     10  C   UNL     1      16.838  -2.680 -14.888  1.00  0.00     0.039 A 
ENDROOT
BRANCH   2  11
ATOM     11  O   UNL     1      17.703   0.828 -15.895  1.00  0.00    -0.389 OA
ATOM     12  H   UNL     1      17.899   1.225 -16.784  1.00  0.00     0.211 HD
ENDBRANCH   2  11
BRANCH   3  13
ATOM     13  C   UNL     1      19.286  -0.683 -17.814  1.00  0.00    -0.001 A 
ATOM     14  C   UNL     1      20.504   0.021 -17.825  1.00  0.00     0.057 A 
ATOM     15  C   UNL     1      18.608  -0.895 -19.025  1.00  0.00     0.012 A 
ATOM     16  C   UNL     1      21.025   0.524 -19.022  1.00  0.00     0.157 A 
ATOM     17  C   UNL     1      19.126  -0.394 -20.222  1.00  0.00     0.050 A 
ATOM     18  C   UNL     1      20.333   0.318 -20.227  1.00  0.00     0.157 A 
BRANCH  16  19
ATOM     19  O   UNL     1      22.232   1.222 -18.994  1.00  0.00    -0.504 OA
ATOM     20  H   UNL     1      22.947   1.034 -18.303  1.00  0.00     0.293 HD
ENDBRANCH  16  19
BRANCH  18  21
ATOM     21  O   UNL     1      20.847   0.816 -21.423  1.00  0.00    -0.504 OA
ATOM     22  H   UNL     1      21.064   0.206 -22.204  1.00  0.00     0.293 HD
ENDBRANCH  18  21
ENDBRANCH   3  13
BRANCH   9  23
ATOM     23  O   UNL     1      15.282  -2.836 -12.986  1.00  0.00    -0.507 OA
ATOM     24  H   UNL     1      15.016  -3.312 -12.135  1.00  0.00     0.293 HD
ENDBRANCH   9  23
BRANCH   7  25
ATOM     25  O   UNL     1      16.715  -6.878 -15.159  1.00  0.00    -0.508 OA
ATOM     26  H   UNL     1      16.270  -7.438 -14.442  1.00  0.00     0.293 HD
ENDBRANCH   7  25
TORSDOF 6
ENDMDL
MODEL 2
REMARK VINA RESULT:    -5.889      7.784     11.675
REMARK INTER + INTRA:          -7.458
REMARK INTER:                  -7.186
REMARK INTRA:                  -0.272
REMARK UNBOUND:                -0.364
REMARK SMILES Oc1cc(O)c2c(c1)O[C@@H](c1ccc(O)c(O)c1)[C@H](O)C2
REMARK SMILES IDX 21 1 19 2 10 3 9 4 7 5 8 6 2 7 3 8 4 9 6 10 20 11 11 13
REMARK SMILES IDX 18 14 12 15 16 16 13 17 14 18 17 19 15 21 5 23 1 25
REMARK H PARENT 20 12 17 20 15 22 5 24 1 26
REMARK Flexibility Score: inf
ROOT
ATOM      1  C   UNL     1      10.227  -8.474  -9.105  1.00  0.00     0.079 C 
ATOM      2  C   UNL     1      11.443  -7.728  -9.687  1.00  0.00     0.164 C 
ATOM      3  C   UNL     1      11.052  -6.282 -10.033  1.00  0.00     0.232 C 
ATOM      4  O   UNL     1      10.535  -5.630  -8.873  1.00  0.00    -0.482 OA
ATOM      5  C   UNL     1       9.712  -6.286  -7.953  1.00  0.00     0.131 A 
ATOM      6  C   UNL     1       9.089  -5.541  -6.947  1.00  0.00     0.093 A 
ATOM      7  C   UNL     1       8.249  -6.168  -6.022  1.00  0.00     0.122 A 
ATOM      8  C   UNL     1       8.022  -7.543  -6.111  1.00  0.00     0.092 A 
ATOM      9  C   UNL     1       8.636  -8.305  -7.111  1.00  0.00     0.126 A 
ATOM     10  C   UNL     1       9.523  -7.684  -8.023  1.00  0.00     0.039 A 
ENDROOT
BRANCH   2  11
ATOM     11  O   UNL     1      11.897  -8.386 -10.841  1.00  0.00    -0.389 OA
ATOM     12  H   UNL     1      11.663  -9.345 -10.735  1.00  0.00     0.211 HD
ENDBRANCH   2  11
BRANCH   3  13
ATOM     13  C   UNL     1      12.236  -5.509 -10.564  1.00  0.00    -0.001 A 
ATOM     14  C   UNL     1      12.080  -4.606 -11.631  1.00  0.00     0.057 A 
ATOM     15  C   UNL     1      13.498  -5.646  -9.964  1.00  0.00     0.012 A 
ATOM     16  C   UNL     1      13.170  -3.869 -12.106  1.00  0.00     0.157 A 
ATOM     17  C   UNL     1      14.588  -4.911 -10.436  1.00  0.00     0.050 A 
ATOM     18  C   UNL     1      14.431  -4.022 -11.508  1.00  0.00     0.157 A 
BRANCH  16  19
ATOM     19  O   UNL     1      12.979  -2.988 -13.170  1.00  0.00    -0.504 OA
ATOM     20  H   UNL     1      13.586  -2.193 -13.327  1.00  0.00     0.293 HD
ENDBRANCH  16  19
BRANCH  18  21
ATOM     21  O   UNL     1      15.521  -3.290 -11.976  1.00  0.00    -0.504 OA
ATOM     22  H   UNL     1      15.761  -3.264 -12.961  1.00  0.00     0.293 HD
ENDBRANCH  18  21
ENDBRANCH   3  13
BRANCH   9  23
ATOM     23  O   UNL     1       8.335  -9.668  -7.177  1.00  0.00    -0.507 OA
ATOM     24  H   UNL     1       8.529 -10.241  -7.987  1.00  0.00     0.293 HD
ENDBRANCH   9  23
BRANCH   7  25
ATOM     25  O   UNL     1       7.625  -5.432  -5.016  1.00  0.00    -0.508 OA
ATOM     26  H   UNL     1       6.695  -5.664  -4.689  1.00  0.00     0.293 HD
ENDBRANCH   7  25
TORSDOF 6
ENDMDL
MODEL 3
REMARK VINA RESULT:    -5.827     11.759     13.902
REMARK INTER + INTRA:          -7.383
REMARK INTER:                  -7.023
REMARK INTRA:                  -0.360
REMARK UNBOUND:                -0.364
REMARK SMILES Oc1cc(O)c2c(c1)O[C@@H](c1ccc(O)c(O)c1)[C@H](O)C2
REMARK SMILES IDX 21 1 19 2 10 3 9 4 7 5 8 6 2 7 3 8 4 9 6 10 20 11 11 13
REMARK SMILES IDX 18 14 12 15 16 16 13 17 14 18 17 19 15 21 5 23 1 25
REMARK H PARENT 20 12 17 20 15 22 5 24 1 26
REMARK Flexibility Score: inf
ROOT
ATOM      1  C   UNL     1       9.675  -5.499  -8.223  1.00  0.00     0.079 C 
ATOM      2  C   UNL     1       9.466  -6.049  -9.647  1.00  0.00     0.164 C 
ATOM      3  C   UNL     1       9.733  -7.563  -9.667  1.00  0.00     0.232 C 
ATOM      4  O   UNL     1       8.889  -8.215  -8.718  1.00  0.00    -0.482 OA
ATOM      5  C   UNL     1       8.601  -7.658  -7.469  1.00  0.00     0.131 A 
ATOM      6  C   UNL     1       7.927  -8.432  -6.519  1.00  0.00     0.093 A 
ATOM      7  C   UNL     1       7.639  -7.906  -5.257  1.00  0.00     0.122 A 
ATOM      8  C   UNL     1       8.036  -6.605  -4.939  1.00  0.00     0.092 A 
ATOM      9  C   UNL     1       8.713  -5.816  -5.876  1.00  0.00     0.126 A 
ATOM     10  C   UNL     1       8.967  -6.327  -7.172  1.00  0.00     0.039 A 
ENDROOT
BRANCH   2  11
ATOM     11  O   UNL     1      10.338  -5.402 -10.538  1.00  0.00    -0.389 OA
ATOM     12  H   UNL     1      10.414  -4.461 -10.232  1.00  0.00     0.211 HD
ENDBRANCH   2  11
BRANCH   3  13
ATOM     13  C   UNL     1       9.492  -8.142 -11.042  1.00  0.00    -0.001 A 
ATOM     14  C   UNL     1       8.197  -8.171 -11.588  1.00  0.00     0.057 A 
ATOM     15  C   UNL     1      10.569  -8.613 -11.810  1.00  0.00     0.012 A 
ATOM     16  C   UNL     1       7.976  -8.682 -12.872  1.00  0.00     0.157 A 
ATOM     17  C   UNL     1      10.352  -9.125 -13.091  1.00  0.00     0.050 A 
ATOM     18  C   UNL     1       9.059  -9.163 -13.628  1.00  0.00     0.157 A 
BRANCH  16  19
ATOM     19  O   UNL     1       6.678  -8.701 -13.379  1.00  0.00    -0.504 OA
ATOM     20  H   UNL     1       6.158  -7.851 -13.560  1.00  0.00     0.293 HD
ENDBRANCH  16  19
BRANCH  18  21
ATOM     21  O   UNL     1       8.846  -9.674 -14.907  1.00  0.00    -0.504 OA
ATOM     22  H   UNL     1       8.930  -9.091 -15.733  1.00  0.00     0.293 HD
ENDBRANCH  18  21
ENDBRANCH   3  13
BRANCH   9  23
ATOM     23  O   UNL     1       9.125  -4.541  -5.485  1.00  0.00    -0.507 OA
ATOM     24  H   UNL     1       9.805  -4.375  -4.755  1.00  0.00     0.293 HD
ENDBRANCH   9  23
BRANCH   7  25
ATOM     25  O   UNL     1       6.966  -8.671  -4.305  1.00  0.00    -0.508 OA
ATOM     26  H   UNL     1       6.627  -8.264  -3.442  1.00  0.00     0.293 HD
ENDBRANCH   7  25
TORSDOF 6
ENDMDL
MODEL 4
REMARK VINA RESULT:    -5.826      7.243     12.171
REMARK INTER + INTRA:          -7.382
REMARK INTER:                  -7.046
REMARK INTRA:                  -0.336
REMARK UNBOUND:                -0.364
REMARK SMILES Oc1cc(O)c2c(c1)O[C@@H](c1ccc(O)c(O)c1)[C@H](O)C2
REMARK SMILES IDX 21 1 19 2 10 3 9 4 7 5 8 6 2 7 3 8 4 9 6 10 20 11 11 13
REMARK SMILES IDX 18 14 12 15 16 16 13 17 14 18 17 19 15 21 5 23 1 25
REMARK H PARENT 20 12 17 20 15 22 5 24 1 26
REMARK Flexibility Score: inf
ROOT
ATOM      1  C   UNL     1      12.147  -8.040 -11.820  1.00  0.00     0.079 C 
ATOM      2  C   UNL     1      10.793  -7.430 -11.407  1.00  0.00     0.164 C 
ATOM      3  C   UNL     1      10.975  -6.548 -10.162  1.00  0.00     0.232 C 
ATOM      4  O   UNL     1      11.953  -5.541 -10.421  1.00  0.00    -0.482 OA
ATOM      5  C   UNL     1      13.107  -5.795 -11.168  1.00  0.00     0.131 A 
ATOM      6  C   UNL     1      14.109  -4.822 -11.223  1.00  0.00     0.093 A 
ATOM      7  C   UNL     1      15.280  -5.055 -11.950  1.00  0.00     0.122 A 
ATOM      8  C   UNL     1      15.453  -6.271 -12.616  1.00  0.00     0.092 A 
ATOM      9  C   UNL     1      14.462  -7.258 -12.571  1.00  0.00     0.126 A 
ATOM     10  C   UNL     1      13.255  -7.010 -11.874  1.00  0.00     0.039 A 
ENDROOT
BRANCH   2  11
ATOM     11  O   UNL     1       9.875  -8.456 -11.132  1.00  0.00    -0.389 OA
ATOM     12  H   UNL     1      10.323  -9.312 -11.362  1.00  0.00     0.211 HD
ENDBRANCH   2  11
BRANCH   3  13
ATOM     13  C   UNL     1       9.673  -5.899  -9.757  1.00  0.00    -0.001 A 
ATOM     14  C   UNL     1       9.238  -5.941  -8.421  1.00  0.00     0.057 A 
ATOM     15  C   UNL     1       8.905  -5.202 -10.704  1.00  0.00     0.012 A 
ATOM     16  C   UNL     1       8.046  -5.316  -8.039  1.00  0.00     0.157 A 
ATOM     17  C   UNL     1       7.714  -4.578 -10.326  1.00  0.00     0.050 A 
ATOM     18  C   UNL     1       7.278  -4.632  -8.996  1.00  0.00     0.157 A 
BRANCH  16  19
ATOM     19  O   UNL     1       7.643  -5.384  -6.706  1.00  0.00    -0.504 OA
ATOM     20  H   UNL     1       7.326  -6.249  -6.282  1.00  0.00     0.293 HD
ENDBRANCH  16  19
BRANCH  18  21
ATOM     21  O   UNL     1       6.089  -4.007  -8.622  1.00  0.00    -0.504 OA
ATOM     22  H   UNL     1       5.929  -3.022  -8.795  1.00  0.00     0.293 HD
ENDBRANCH  18  21
ENDBRANCH   3  13
BRANCH   9  23
ATOM     23  O   UNL     1      14.712  -8.470 -13.218  1.00  0.00    -0.507 OA
ATOM     24  H   UNL     1      14.830  -8.553 -14.218  1.00  0.00     0.293 HD
ENDBRANCH   9  23
BRANCH   7  25
ATOM     25  O   UNL     1      16.282  -4.089 -12.011  1.00  0.00    -0.508 OA
ATOM     26  H   UNL     1      17.142  -4.249 -12.523  1.00  0.00     0.293 HD
ENDBRANCH   7  25
TORSDOF 6
ENDMDL
MODEL 5
REMARK VINA RESULT:    -5.702     10.176     12.270
REMARK INTER + INTRA:          -7.233
REMARK INTER:                  -7.116
REMARK INTRA:                  -0.117
REMARK UNBOUND:                -0.364
REMARK SMILES Oc1cc(O)c2c(c1)O[C@@H](c1ccc(O)c(O)c1)[C@H](O)C2
REMARK SMILES IDX 21 1 19 2 10 3 9 4 7 5 8 6 2 7 3 8 4 9 6 10 20 11 11 13
REMARK SMILES IDX 18 14 12 15 16 16 13 17 14 18 17 19 15 21 5 23 1 25
REMARK H PARENT 20 12 17 20 15 22 5 24 1 26
REMARK Flexibility Score: inf
ROOT
ATOM      1  C   UNL     1      11.569  -6.291  -9.125  1.00  0.00     0.079 C 
ATOM      2  C   UNL     1      11.705  -6.750 -10.589  1.00  0.00     0.164 C 
ATOM      3  C   UNL     1      11.483  -8.268 -10.683  1.00  0.00     0.232 C 
ATOM      4  O   UNL     1      10.208  -8.606 -10.138  1.00  0.00    -0.482 OA
ATOM      5  C   UNL     1       9.693  -7.979  -8.999  1.00  0.00     0.131 A 
ATOM      6  C   UNL     1       8.531  -8.486  -8.411  1.00  0.00     0.093 A 
ATOM      7  C   UNL     1       8.003  -7.889  -7.263  1.00  0.00     0.122 A 
ATOM      8  C   UNL     1       8.646  -6.787  -6.695  1.00  0.00     0.092 A 
ATOM      9  C   UNL     1       9.811  -6.266  -7.269  1.00  0.00     0.126 A 
ATOM     10  C   UNL     1      10.325  -6.838  -8.457  1.00  0.00     0.039 A 
ENDROOT
BRANCH   2  11
ATOM     11  O   UNL     1      12.983  -6.427 -11.072  1.00  0.00    -0.389 OA
ATOM     12  H   UNL     1      13.088  -6.895 -11.941  1.00  0.00     0.211 HD
ENDBRANCH   2  11
BRANCH   3  13
ATOM     13  C   UNL     1      11.564  -8.745 -12.114  1.00  0.00    -0.001 A 
ATOM     14  C   UNL     1      10.399  -8.885 -12.888  1.00  0.00     0.057 A 
ATOM     15  C   UNL     1      12.812  -9.006 -12.704  1.00  0.00     0.012 A 
ATOM     16  C   UNL     1      10.474  -9.300 -14.222  1.00  0.00     0.157 A 
ATOM     17  C   UNL     1      12.891  -9.421 -14.035  1.00  0.00     0.050 A 
ATOM     18  C   UNL     1      11.726  -9.571 -14.800  1.00  0.00     0.157 A 
BRANCH  16  19
ATOM     19  O   UNL     1       9.297  -9.434 -14.958  1.00  0.00    -0.504 OA
ATOM     20  H   UNL     1       8.497  -9.947 -14.605  1.00  0.00     0.293 HD
ENDBRANCH  16  19
BRANCH  18  21
ATOM     21  O   UNL     1      11.809  -9.985 -16.128  1.00  0.00    -0.504 OA
ATOM     22  H   UNL     1      11.105  -9.726 -16.810  1.00  0.00     0.293 HD
ENDBRANCH  18  21
ENDBRANCH   3  13
BRANCH   9  23
ATOM     23  O   UNL     1      10.434  -5.191  -6.630  1.00  0.00    -0.507 OA
ATOM     24  H   UNL     1       9.927  -4.456  -6.156  1.00  0.00     0.293 HD
ENDBRANCH   9  23
BRANCH   7  25
ATOM     25  O   UNL     1       6.844  -8.389  -6.671  1.00  0.00    -0.508 OA
ATOM     26  H   UNL     1       6.810  -8.624  -5.687  1.00  0.00     0.293 HD
ENDBRANCH   7  25
TORSDOF 6
ENDMDL
MODEL 6
REMARK VINA RESULT:    -5.697      7.081     10.763
REMARK INTER + INTRA:          -7.227
REMARK INTER:                  -6.875
REMARK INTRA:                  -0.352
REMARK UNBOUND:                -0.364
REMARK SMILES Oc1cc(O)c2c(c1)O[C@@H](c1ccc(O)c(O)c1)[C@H](O)C2
REMARK SMILES IDX 21 1 19 2 10 3 9 4 7 5 8 6 2 7 3 8 4 9 6 10 20 11 11 13
REMARK SMILES IDX 18 14 12 15 16 16 13 17 14 18 17 19 15 21 5 23 1 25
REMARK H PARENT 20 12 17 20 15 22 5 24 1 26
REMARK Flexibility Score: inf
ROOT
ATOM      1  C   UNL     1       9.853  -7.246  -9.042  1.00  0.00     0.079 C 
ATOM      2  C   UNL     1      10.894  -6.225  -9.538  1.00  0.00     0.164 C 
ATOM      3  C   UNL     1      11.581  -6.755 -10.807  1.00  0.00     0.232 C 
ATOM      4  O   UNL     1      10.601  -7.041 -11.805  1.00  0.00    -0.482 OA
ATOM      5  C   UNL     1       9.362  -7.609 -11.493  1.00  0.00     0.131 A 
ATOM      6  C   UNL     1       8.530  -8.035 -12.532  1.00  0.00     0.093 A 
ATOM      7  C   UNL     1       7.293  -8.621 -12.250  1.00  0.00     0.122 A 
ATOM      8  C   UNL     1       6.891  -8.791 -10.923  1.00  0.00     0.092 A 
ATOM      9  C   UNL     1       7.711  -8.371  -9.869  1.00  0.00     0.126 A 
ATOM     10  C   UNL     1       8.946  -7.736 -10.150  1.00  0.00     0.039 A 
ENDROOT
BRANCH   2  11
ATOM     11  O   UNL     1      11.854  -6.000  -8.538  1.00  0.00    -0.389 OA
ATOM     12  H   UNL     1      11.424  -6.228  -7.672  1.00  0.00     0.211 HD
ENDBRANCH   2  11
BRANCH   3  13
ATOM     13  C   UNL     1      12.578  -5.757 -11.347  1.00  0.00    -0.001 A 
ATOM     14  C   UNL     1      12.192  -4.430 -11.605  1.00  0.00     0.057 A 
ATOM     15  C   UNL     1      13.916  -6.131 -11.550  1.00  0.00     0.012 A 
ATOM     16  C   UNL     1      13.120  -3.496 -12.080  1.00  0.00     0.157 A 
ATOM     17  C   UNL     1      14.845  -5.202 -12.024  1.00  0.00     0.050 A 
ATOM     18  C   UNL     1      14.454  -3.883 -12.292  1.00  0.00     0.157 A 
BRANCH  16  19
ATOM     19  O   UNL     1      12.700  -2.191 -12.331  1.00  0.00    -0.504 OA
ATOM     20  H   UNL     1      11.719  -1.939 -12.372  1.00  0.00     0.293 HD
ENDBRANCH  16  19
BRANCH  18  21
ATOM     21  O   UNL     1      15.384  -2.959 -12.764  1.00  0.00    -0.504 OA
ATOM     22  H   UNL     1      16.366  -3.191 -12.854  1.00  0.00     0.293 HD
ENDBRANCH  18  21
ENDBRANCH   3  13
BRANCH   9  23
ATOM     23  O   UNL     1       7.277  -8.609  -8.564  1.00  0.00    -0.507 OA
ATOM     24  H   UNL     1       6.482  -8.143  -8.149  1.00  0.00     0.293 HD
ENDBRANCH   9  23
BRANCH   7  25
ATOM     25  O   UNL     1       6.457  -9.047 -13.281  1.00  0.00    -0.508 OA
ATOM     26  H   UNL     1       6.282 -10.031 -13.448  1.00  0.00     0.293 HD
ENDBRANCH   7  25
TORSDOF 6
ENDMDL
MODEL 7
REMARK VINA RESULT:    -5.696      7.997     11.786
REMARK INTER + INTRA:          -7.225
REMARK INTER:                  -6.947
REMARK INTRA:                  -0.278
REMARK UNBOUND:                -0.364
REMARK SMILES Oc1cc(O)c2c(c1)O[C@@H](c1ccc(O)c(O)c1)[C@H](O)C2
REMARK SMILES IDX 21 1 19 2 10 3 9 4 7 5 8 6 2 7 3 8 4 9 6 10 20 11 11 13
REMARK SMILES IDX 18 14 12 15 16 16 13 17 14 18 17 19 15 21 5 23 1 25
REMARK H PARENT 20 12 17 20 15 22 5 24 1 26
REMARK Flexibility Score: inf
ROOT
ATOM      1  C   UNL     1       9.426  -8.019  -8.585  1.00  0.00     0.079 C 
ATOM      2  C   UNL     1      10.849  -7.723  -9.097  1.00  0.00     0.164 C 
ATOM      3  C   UNL     1      10.776  -6.990 -10.446  1.00  0.00     0.232 C 
ATOM      4  O   UNL     1      10.003  -5.797 -10.308  1.00  0.00    -0.482 OA
ATOM      5  C   UNL     1       8.853  -5.741  -9.515  1.00  0.00     0.131 A 
ATOM      6  C   UNL     1       8.042  -4.604  -9.573  1.00  0.00     0.093 A 
ATOM      7  C   UNL     1       6.878  -4.526  -8.803  1.00  0.00     0.122 A 
ATOM      8  C   UNL     1       6.519  -5.595  -7.979  1.00  0.00     0.092 A 
ATOM      9  C   UNL     1       7.318  -6.742  -7.907  1.00  0.00     0.126 A 
ATOM     10  C   UNL     1       8.521  -6.808  -8.651  1.00  0.00     0.039 A 
ENDROOT
BRANCH   2  11
ATOM     11  O   UNL     1      11.559  -8.924  -9.249  1.00  0.00    -0.389 OA
ATOM     12  H   UNL     1      11.437  -9.213 -10.191  1.00  0.00     0.211 HD
ENDBRANCH   2  11
BRANCH   3  13
ATOM     13  C   UNL     1      12.155  -6.643 -10.955  1.00  0.00    -0.001 A 
ATOM     14  C   UNL     1      12.845  -5.528 -10.447  1.00  0.00     0.057 A 
ATOM     15  C   UNL     1      12.784  -7.460 -11.908  1.00  0.00     0.012 A 
ATOM     16  C   UNL     1      14.134  -5.221 -10.898  1.00  0.00     0.157 A 
ATOM     17  C   UNL     1      14.070  -7.157 -12.360  1.00  0.00     0.050 A 
ATOM     18  C   UNL     1      14.750  -6.038 -11.861  1.00  0.00     0.157 A 
BRANCH  16  19
ATOM     19  O   UNL     1      14.786  -4.104 -10.377  1.00  0.00    -0.504 OA
ATOM     20  H   UNL     1      15.695  -4.169  -9.934  1.00  0.00     0.293 HD
ENDBRANCH  16  19
BRANCH  18  21
ATOM     21  O   UNL     1      16.034  -5.738 -12.314  1.00  0.00    -0.504 OA
ATOM     22  H   UNL     1      16.557  -4.952 -11.947  1.00  0.00     0.293 HD
ENDBRANCH  18  21
ENDBRANCH   3  13
BRANCH   9  23
ATOM     23  O   UNL     1       6.883  -7.796  -7.101  1.00  0.00    -0.507 OA
ATOM     24  H   UNL     1       7.500  -8.330  -6.503  1.00  0.00     0.293 HD
ENDBRANCH   9  23
BRANCH   7  25
ATOM     25  O   UNL     1       6.066  -3.395  -8.856  1.00  0.00    -0.508 OA
ATOM     26  H   UNL     1       5.316  -3.250  -8.190  1.00  0.00     0.293 HD
ENDBRANCH   7  25
TORSDOF 6
ENDMDL
MODEL 8
REMARK VINA RESULT:    -5.547      6.828     10.407
REMARK INTER + INTRA:          -7.045
REMARK INTER:                  -6.673
REMARK INTRA:                  -0.372
REMARK UNBOUND:                -0.364
REMARK SMILES Oc1cc(O)c2c(c1)O[C@@H](c1ccc(O)c(O)c1)[C@H](O)C2
REMARK SMILES IDX 21 1 19 2 10 3 9 4 7 5 8 6 2 7 3 8 4 9 6 10 20 11 11 13
REMARK SMILES IDX 18 14 12 15 16 16 13 17 14 18 17 19 15 21 5 23 1 25
REMARK H PARENT 20 12 17 20 15 22 5 24 1 26
REMARK Flexibility Score: inf
ROOT
ATOM      1  C   UNL     1      11.228  -8.124 -11.003  1.00  0.00     0.079 C 
ATOM      2  C   UNL     1      12.485  -7.255 -11.203  1.00  0.00     0.164 C 
ATOM      3  C   UNL     1      12.135  -5.773 -10.996  1.00  0.00     0.232 C 
ATOM      4  O   UNL     1      11.563  -5.587  -9.702  1.00  0.00    -0.482 OA
ATOM      5  C   UNL     1      10.681  -6.513  -9.135  1.00  0.00     0.131 A 
ATOM      6  C   UNL     1      10.014  -6.180  -7.953  1.00  0.00     0.093 A 
ATOM      7  C   UNL     1       9.115  -7.079  -7.372  1.00  0.00     0.122 A 
ATOM      8  C   UNL     1       8.875  -8.312  -7.983  1.00  0.00     0.092 A 
ATOM      9  C   UNL     1       9.532  -8.663  -9.168  1.00  0.00     0.126 A 
ATOM     10  C   UNL     1      10.477  -7.774  -9.736  1.00  0.00     0.039 A 
ENDROOT
BRANCH   2  11
ATOM     11  O   UNL     1      12.993  -7.446 -12.499  1.00  0.00    -0.389 OA
ATOM     12  H   UNL     1      12.210  -7.523 -13.105  1.00  0.00     0.211 HD
ENDBRANCH   2  11
BRANCH   3  13
ATOM     13  C   UNL     1      13.356  -4.897 -11.141  1.00  0.00    -0.001 A 
ATOM     14  C   UNL     1      14.460  -5.063 -10.286  1.00  0.00     0.057 A 
ATOM     15  C   UNL     1      13.423  -3.939 -12.165  1.00  0.00     0.012 A 
ATOM     16  C   UNL     1      15.604  -4.270 -10.436  1.00  0.00     0.157 A 
ATOM     17  C   UNL     1      14.563  -3.146 -12.317  1.00  0.00     0.050 A 
ATOM     18  C   UNL     1      15.656  -3.305 -11.456  1.00  0.00     0.157 A 
BRANCH  16  19
ATOM     19  O   UNL     1      16.677  -4.458  -9.565  1.00  0.00    -0.504 OA
ATOM     20  H   UNL     1      17.467  -5.046  -9.803  1.00  0.00     0.293 HD
ENDBRANCH  16  19
BRANCH  18  21
ATOM     21  O   UNL     1      16.792  -2.513 -11.611  1.00  0.00    -0.504 OA
ATOM     22  H   UNL     1      17.442  -2.659 -12.375  1.00  0.00     0.293 HD
ENDBRANCH  18  21
ENDBRANCH   3  13
BRANCH   9  23
ATOM     23  O   UNL     1       9.216  -9.889  -9.756  1.00  0.00    -0.507 OA
ATOM     24  H   UNL     1       8.335 -10.075 -10.215  1.00  0.00     0.293 HD
ENDBRANCH   9  23
BRANCH   7  25
ATOM     25  O   UNL     1       8.447  -6.755  -6.193  1.00  0.00    -0.508 OA
ATOM     26  H   UNL     1       8.717  -5.954  -5.634  1.00  0.00     0.293 HD
ENDBRANCH   7  25
TORSDOF 6
ENDMDL
MODEL 9
REMARK VINA RESULT:    -5.515      9.994     14.375
REMARK INTER + INTRA:          -7.007
REMARK INTER:                  -6.648
REMARK INTRA:                  -0.359
REMARK UNBOUND:                -0.364
REMARK SMILES Oc1cc(O)c2c(c1)O[C@@H](c1ccc(O)c(O)c1)[C@H](O)C2
REMARK SMILES IDX 21 1 19 2 10 3 9 4 7 5 8 6 2 7 3 8 4 9 6 10 20 11 11 13
REMARK SMILES IDX 18 14 12 15 16 16 13 17 14 18 17 19 15 21 5 23 1 25
REMARK H PARENT 20 12 17 20 15 22 5 24 1 26
REMARK Flexibility Score: inf
ROOT
ATOM      1  C   UNL     1       8.589  -9.242 -11.587  1.00  0.00     0.079 C 
ATOM      2  C   UNL     1       8.106  -8.396 -10.393  1.00  0.00     0.164 C 
ATOM      3  C   UNL     1       9.136  -8.466  -9.254  1.00  0.00     0.232 C 
ATOM      4  O   UNL     1      10.412  -8.036  -9.727  1.00  0.00    -0.482 OA
ATOM      5  C   UNL     1      10.883  -8.361 -11.003  1.00  0.00     0.131 A 
ATOM      6  C   UNL     1      12.211  -8.070 -11.330  1.00  0.00     0.093 A 
ATOM      7  C   UNL     1      12.714  -8.398 -12.593  1.00  0.00     0.122 A 
ATOM      8  C   UNL     1      11.888  -9.028 -13.526  1.00  0.00     0.092 A 
ATOM      9  C   UNL     1      10.557  -9.328 -13.216  1.00  0.00     0.126 A 
ATOM     10  C   UNL     1      10.029  -8.958 -11.955  1.00  0.00     0.039 A 
ENDROOT
BRANCH   2  11
ATOM     11  O   UNL     1       6.866  -8.876  -9.942  1.00  0.00    -0.389 OA
ATOM     12  H   UNL     1       6.741  -8.524  -9.021  1.00  0.00     0.211 HD
ENDBRANCH   2  11
BRANCH   3  13
ATOM     13  C   UNL     1       8.714  -7.610  -8.083  1.00  0.00    -0.001 A 
ATOM     14  C   UNL     1       8.332  -8.201  -6.866  1.00  0.00     0.057 A 
ATOM     15  C   UNL     1       8.746  -6.209  -8.182  1.00  0.00     0.012 A 
ATOM     16  C   UNL     1       7.967  -7.408  -5.772  1.00  0.00     0.157 A 
ATOM     17  C   UNL     1       8.382  -5.415  -7.092  1.00  0.00     0.050 A 
ATOM     18  C   UNL     1       7.990  -6.008  -5.885  1.00  0.00     0.157 A 
BRANCH  16  19
ATOM     19  O   UNL     1       7.588  -8.029  -4.582  1.00  0.00    -0.504 OA
ATOM     20  H   UNL     1       8.057  -8.857  -4.234  1.00  0.00     0.293 HD
ENDBRANCH  16  19
BRANCH  18  21
ATOM     21  O   UNL     1       7.628  -5.213  -4.799  1.00  0.00    -0.504 OA
ATOM     22  H   UNL     1       7.833  -5.490  -3.845  1.00  0.00     0.293 HD
ENDBRANCH  18  21
ENDBRANCH   3  13
BRANCH   9  23
ATOM     23  O   UNL     1       9.795 -10.001 -14.174  1.00  0.00    -0.507 OA
ATOM     24  H   UNL     1      10.198 -10.507 -14.951  1.00  0.00     0.293 HD
ENDBRANCH   9  23
BRANCH   7  25
ATOM     25  O   UNL     1      14.036  -8.110 -12.927  1.00  0.00    -0.508 OA
ATOM     26  H   UNL     1      14.269  -7.361 -13.568  1.00  0.00     0.293 HD
ENDBRANCH   7  25
TORSDOF 6
ENDMDL
