MODEL 1
REMARK VINA RESULT:    -3.874      0.000      0.000
REMARK INTER + INTRA:          -6.306
REMARK INTER:                  -5.459
REMARK INTRA:                  -0.847
REMARK UNBOUND:                -0.847
REMARK SMILES CC(=O)OCC[C@@H](C)CCC=C(C)C
REMARK SMILES IDX 8 1 7 2 9 3 10 4 11 5 12 6 13 7 14 8 6 9 5 10 4 11 2 12 3 13
REMARK SMILES IDX 1 14
REMARK H PARENT
REMARK Flexibility Score: inf
ROOT
ATOM      1  C   UNL     1     -10.675  -9.143  94.141  1.00  0.00     0.008 C 
ATOM      2  C   UNL     1     -10.713 -10.449  93.331  1.00  0.00    -0.011 C 
ENDROOT
BRANCH   2   3
ATOM      3  C   UNL     1     -10.852 -11.685  94.257  1.00  0.00     0.007 C 
BRANCH   3   4
ATOM      4  C   UNL     1     -12.311 -12.035  94.623  1.00  0.00     0.027 C 
BRANCH   4   5
ATOM      5  C   UNL     1     -12.668 -11.605  96.027  1.00  0.00    -0.028 C 
ATOM      6  C   UNL     1     -13.524 -10.602  96.323  1.00  0.00    -0.080 C 
ATOM      7  C   UNL     1     -13.773 -10.275  97.773  1.00  0.00     0.039 C 
ATOM      8  C   UNL     1     -14.253  -9.826  95.250  1.00  0.00     0.039 C 
ENDBRANCH   4   5
ENDBRANCH   3   4
ENDBRANCH   2   3
BRANCH   2   9
ATOM      9  C   UNL     1     -11.874 -10.377  92.306  1.00  0.00     0.045 C 
BRANCH   9  10
ATOM     10  C   UNL     1     -11.419 -10.278  90.841  1.00  0.00     0.233 C 
BRANCH  10  11
ATOM     11  O   UNL     1     -10.087  -9.777  90.737  1.00  0.00    -0.466 OA
BRANCH  11  12
ATOM     12  C   UNL     1      -9.192 -10.170  89.735  1.00  0.00     0.302 C 
ATOM     13  O   UNL     1      -9.449 -11.150  88.985  1.00  0.00    -0.253 OA
ATOM     14  C   UNL     1      -7.893  -9.453  89.592  1.00  0.00     0.139 C 
ENDBRANCH  11  12
ENDBRANCH  10  11
ENDBRANCH   9  10
ENDBRANCH   2   9
TORSDOF 7
ENDMDL
MODEL 2
REMARK VINA RESULT:    -3.742      1.153      1.491
REMARK INTER + INTRA:          -6.120
REMARK INTER:                  -5.437
REMARK INTRA:                  -0.683
REMARK UNBOUND:                -0.847
REMARK SMILES CC(=O)OCC[C@@H](C)CCC=C(C)C
REMARK SMILES IDX 8 1 7 2 9 3 10 4 11 5 12 6 13 7 14 8 6 9 5 10 4 11 2 12 3 13
REMARK SMILES IDX 1 14
REMARK H PARENT
REMARK Flexibility Score: inf
ROOT
ATOM      1  C   UNL     1     -11.689  -8.663  93.556  1.00  0.00     0.008 C 
ATOM      2  C   UNL     1     -10.759  -9.843  93.884  1.00  0.00    -0.011 C 
ENDROOT
BRANCH   2   3
ATOM      3  C   UNL     1     -11.521 -11.193  93.839  1.00  0.00     0.007 C 
BRANCH   3   4
ATOM      4  C   UNL     1     -11.562 -11.937  95.192  1.00  0.00     0.027 C 
BRANCH   4   5
ATOM      5  C   UNL     1     -12.722 -11.495  96.054  1.00  0.00    -0.028 C 
ATOM      6  C   UNL     1     -12.603 -10.719  97.154  1.00  0.00    -0.080 C 
ATOM      7  C   UNL     1     -13.851 -10.371  97.924  1.00  0.00     0.039 C 
ATOM      8  C   UNL     1     -11.270 -10.173  97.610  1.00  0.00     0.039 C 
ENDBRANCH   4   5
ENDBRANCH   3   4
ENDBRANCH   2   3
BRANCH   2   9
ATOM      9  C   UNL     1      -9.563  -9.836  92.899  1.00  0.00     0.045 C 
BRANCH   9  10
ATOM     10  C   UNL     1      -9.841  -9.107  91.573  1.00  0.00     0.233 C 
BRANCH  10  11
ATOM     11  O   UNL     1      -9.984 -10.025  90.489  1.00  0.00    -0.466 OA
BRANCH  11  12
ATOM     12  C   UNL     1      -8.964 -10.298  89.571  1.00  0.00     0.302 C 
ATOM     13  O   UNL     1      -9.002 -11.330  88.849  1.00  0.00    -0.253 OA
ATOM     14  C   UNL     1      -7.790  -9.382  89.488  1.00  0.00     0.139 C 
ENDBRANCH  11  12
ENDBRANCH  10  11
ENDBRANCH   9  10
ENDBRANCH   2   9
TORSDOF 7
ENDMDL
MODEL 3
REMARK VINA RESULT:    -3.673      4.898      6.844
REMARK INTER + INTRA:          -6.023
REMARK INTER:                  -5.470
REMARK INTRA:                  -0.553
REMARK UNBOUND:                -0.847
REMARK SMILES CC(=O)OCC[C@@H](C)CCC=C(C)C
REMARK SMILES IDX 8 1 7 2 9 3 10 4 11 5 12 6 13 7 14 8 6 9 5 10 4 11 2 12 3 13
REMARK SMILES IDX 1 14
REMARK H PARENT
REMARK Flexibility Score: inf
ROOT
ATOM      1  C   UNL     1      -7.496  -9.252  89.521  1.00  0.00     0.008 C 
ATOM      2  C   UNL     1      -8.458  -8.676  90.572  1.00  0.00    -0.011 C 
ENDROOT
BRANCH   2   3
ATOM      3  C   UNL     1      -7.687  -8.080  91.779  1.00  0.00     0.007 C 
BRANCH   3   4
ATOM      4  C   UNL     1      -7.157  -6.649  91.539  1.00  0.00     0.027 C 
BRANCH   4   5
ATOM      5  C   UNL     1      -6.048  -6.281  92.498  1.00  0.00    -0.028 C 
ATOM      6  C   UNL     1      -5.310  -5.152  92.414  1.00  0.00    -0.080 C 
ATOM      7  C   UNL     1      -4.226  -4.926  93.436  1.00  0.00     0.039 C 
ATOM      8  C   UNL     1      -5.561  -4.108  91.351  1.00  0.00     0.039 C 
ENDBRANCH   4   5
ENDBRANCH   3   4
ENDBRANCH   2   3
BRANCH   2   9
ATOM      9  C   UNL     1      -9.367  -7.615  89.901  1.00  0.00     0.045 C 
BRANCH   9  10
ATOM     10  C   UNL     1     -10.865  -7.962  89.919  1.00  0.00     0.233 C 
BRANCH  10  11
ATOM     11  O   UNL     1     -11.082  -9.339  90.226  1.00  0.00    -0.466 OA
BRANCH  11  12
ATOM     12  C   UNL     1     -11.522 -10.278  89.286  1.00  0.00     0.302 C 
ATOM     13  O   UNL     1     -12.745 -10.566  89.184  1.00  0.00    -0.253 OA
ATOM     14  C   UNL     1     -10.524 -10.985  88.435  1.00  0.00     0.139 C 
ENDBRANCH  11  12
ENDBRANCH  10  11
ENDBRANCH   9  10
ENDBRANCH   2   9
TORSDOF 7
ENDMDL
MODEL 4
REMARK VINA RESULT:    -3.669      4.134      6.682
REMARK INTER + INTRA:          -6.017
REMARK INTER:                  -5.292
REMARK INTRA:                  -0.725
REMARK UNBOUND:                -0.847
REMARK SMILES CC(=O)OCC[C@@H](C)CCC=C(C)C
REMARK SMILES IDX 8 1 7 2 9 3 10 4 11 5 12 6 13 7 14 8 6 9 5 10 4 11 2 12 3 13
REMARK SMILES IDX 1 14
REMARK H PARENT
REMARK Flexibility Score: inf
ROOT
ATOM      1  C   UNL     1      -9.249  -8.857  92.581  1.00  0.00     0.008 C 
ATOM      2  C   UNL     1      -8.092  -7.846  92.616  1.00  0.00    -0.011 C 
ENDROOT
BRANCH   2   3
ATOM      3  C   UNL     1      -6.981  -8.293  93.601  1.00  0.00     0.007 C 
BRANCH   3   4
ATOM      4  C   UNL     1      -6.467  -7.165  94.522  1.00  0.00     0.027 C 
BRANCH   4   5
ATOM      5  C   UNL     1      -4.971  -6.974  94.415  1.00  0.00    -0.028 C 
ATOM      6  C   UNL     1      -4.372  -6.094  93.583  1.00  0.00    -0.080 C 
ATOM      7  C   UNL     1      -2.867  -6.024  93.575  1.00  0.00     0.039 C 
ATOM      8  C   UNL     1      -5.165  -5.166  92.691  1.00  0.00     0.039 C 
ENDBRANCH   4   5
ENDBRANCH   3   4
ENDBRANCH   2   3
BRANCH   2   9
ATOM      9  C   UNL     1      -7.536  -7.661  91.182  1.00  0.00     0.045 C 
BRANCH   9  10
ATOM     10  C   UNL     1      -8.416  -8.270  90.078  1.00  0.00     0.233 C 
BRANCH  10  11
ATOM     11  O   UNL     1      -7.679  -9.175  89.257  1.00  0.00    -0.466 OA
BRANCH  11  12
ATOM     12  C   UNL     1      -8.082 -10.491  89.005  1.00  0.00     0.302 C 
ATOM     13  O   UNL     1      -7.247 -11.370  88.661  1.00  0.00    -0.253 OA
ATOM     14  C   UNL     1      -9.529 -10.842  89.092  1.00  0.00     0.139 C 
ENDBRANCH  11  12
ENDBRANCH  10  11
ENDBRANCH   9  10
ENDBRANCH   2   9
TORSDOF 7
ENDMDL
MODEL 5
REMARK VINA RESULT:    -3.636      2.132      3.533
REMARK INTER + INTRA:          -5.971
REMARK INTER:                  -4.981
REMARK INTRA:                  -0.990
REMARK UNBOUND:                -0.847
REMARK SMILES CC(=O)OCC[C@@H](C)CCC=C(C)C
REMARK SMILES IDX 8 1 7 2 9 3 10 4 11 5 12 6 13 7 14 8 6 9 5 10 4 11 2 12 3 13
REMARK SMILES IDX 1 14
REMARK H PARENT
REMARK Flexibility Score: inf
ROOT
ATOM      1  C   UNL     1     -12.155  -8.767  96.058  1.00  0.00     0.008 C 
ATOM      2  C   UNL     1     -11.811 -10.217  96.437  1.00  0.00    -0.011 C 
ENDROOT
BRANCH   2   3
ATOM      3  C   UNL     1     -12.040 -10.474  97.950  1.00  0.00     0.007 C 
BRANCH   3   4
ATOM      4  C   UNL     1     -13.450 -11.003  98.290  1.00  0.00     0.027 C 
BRANCH   4   5
ATOM      5  C   UNL     1     -14.298  -9.964  98.987  1.00  0.00    -0.028 C 
ATOM      6  C   UNL     1     -15.268  -9.241  98.385  1.00  0.00    -0.080 C 
ATOM      7  C   UNL     1     -16.024  -8.228  99.206  1.00  0.00     0.039 C 
ATOM      8  C   UNL     1     -15.630  -9.440  96.931  1.00  0.00     0.039 C 
ENDBRANCH   4   5
ENDBRANCH   3   4
ENDBRANCH   2   3
BRANCH   2   9
ATOM      9  C   UNL     1     -12.653 -11.183  95.566  1.00  0.00     0.045 C 
BRANCH   9  10
ATOM     10  C   UNL     1     -11.824 -12.053  94.606  1.00  0.00     0.233 C 
BRANCH  10  11
ATOM     11  O   UNL     1     -10.661 -11.366  94.145  1.00  0.00    -0.466 OA
BRANCH  11  12
ATOM     12  C   UNL     1     -10.668 -10.485  93.057  1.00  0.00     0.302 C 
ATOM     13  O   UNL     1     -11.618 -10.486  92.229  1.00  0.00    -0.253 OA
ATOM     14  C   UNL     1      -9.507  -9.573  92.847  1.00  0.00     0.139 C 
ENDBRANCH  11  12
ENDBRANCH  10  11
ENDBRANCH   9  10
ENDBRANCH   2   9
TORSDOF 7
ENDMDL
MODEL 6
REMARK VINA RESULT:    -3.572      3.415      6.091
REMARK INTER + INTRA:          -5.880
REMARK INTER:                  -5.204
REMARK INTRA:                  -0.676
REMARK UNBOUND:                -0.847
REMARK SMILES CC(=O)OCC[C@@H](C)CCC=C(C)C
REMARK SMILES IDX 8 1 7 2 9 3 10 4 11 5 12 6 13 7 14 8 6 9 5 10 4 11 2 12 3 13
REMARK SMILES IDX 1 14
REMARK H PARENT
REMARK Flexibility Score: inf
ROOT
ATOM      1  C   UNL     1      -9.967  -7.984  94.495  1.00  0.00     0.008 C 
ATOM      2  C   UNL     1      -9.405  -8.465  93.147  1.00  0.00    -0.011 C 
ENDROOT
BRANCH   2   3
ATOM      3  C   UNL     1      -7.856  -8.394  93.123  1.00  0.00     0.007 C 
BRANCH   3   4
ATOM      4  C   UNL     1      -7.296  -7.171  92.365  1.00  0.00     0.027 C 
BRANCH   4   5
ATOM      5  C   UNL     1      -6.101  -6.562  93.063  1.00  0.00    -0.028 C 
ATOM      6  C   UNL     1      -5.452  -5.455  92.638  1.00  0.00    -0.080 C 
ATOM      7  C   UNL     1      -4.265  -4.971  93.430  1.00  0.00     0.039 C 
ATOM      8  C   UNL     1      -5.899  -4.681  91.419  1.00  0.00     0.039 C 
ENDBRANCH   4   5
ENDBRANCH   3   4
ENDBRANCH   2   3
BRANCH   2   9
ATOM      9  C   UNL     1      -9.908  -9.905  92.873  1.00  0.00     0.045 C 
BRANCH   9  10
ATOM     10  C   UNL     1     -10.672 -10.066  91.548  1.00  0.00     0.233 C 
BRANCH  10  11
ATOM     11  O   UNL     1     -10.008  -9.399  90.474  1.00  0.00    -0.466 OA
BRANCH  11  12
ATOM     12  C   UNL     1      -9.115 -10.037  89.606  1.00  0.00     0.302 C 
ATOM     13  O   UNL     1      -9.455 -11.074  88.976  1.00  0.00    -0.253 OA
ATOM     14  C   UNL     1      -7.726  -9.512  89.470  1.00  0.00     0.139 C 
ENDBRANCH  11  12
ENDBRANCH  10  11
ENDBRANCH   9  10
ENDBRANCH   2   9
TORSDOF 7
ENDMDL
MODEL 7
REMARK VINA RESULT:    -3.563      2.474      6.418
REMARK INTER + INTRA:          -5.867
REMARK INTER:                  -5.259
REMARK INTRA:                  -0.608
REMARK UNBOUND:                -0.847
REMARK SMILES CC(=O)OCC[C@@H](C)CCC=C(C)C
REMARK SMILES IDX 8 1 7 2 9 3 10 4 11 5 12 6 13 7 14 8 6 9 5 10 4 11 2 12 3 13
REMARK SMILES IDX 1 14
REMARK H PARENT
REMARK Flexibility Score: inf
ROOT
ATOM      1  C   UNL     1     -13.914  -9.498  90.171  1.00  0.00     0.008 C 
ATOM      2  C   UNL     1     -13.291 -10.341  91.296  1.00  0.00    -0.011 C 
ENDROOT
BRANCH   2   3
ATOM      3  C   UNL     1     -11.744 -10.236  91.290  1.00  0.00     0.007 C 
BRANCH   3   4
ATOM      4  C   UNL     1     -11.159  -9.644  89.989  1.00  0.00     0.027 C 
BRANCH   4   5
ATOM      5  C   UNL     1     -10.079 -10.519  89.395  1.00  0.00    -0.028 C 
ATOM      6  C   UNL     1      -8.761 -10.220  89.411  1.00  0.00    -0.080 C 
ATOM      7  C   UNL     1      -7.799 -11.184  88.766  1.00  0.00     0.039 C 
ATOM      8  C   UNL     1      -8.230  -8.973  90.078  1.00  0.00     0.039 C 
ENDBRANCH   4   5
ENDBRANCH   3   4
ENDBRANCH   2   3
BRANCH   2   9
ATOM      9  C   UNL     1     -13.883  -9.891  92.655  1.00  0.00     0.045 C 
BRANCH   9  10
ATOM     10  C   UNL     1     -14.598 -11.007  93.434  1.00  0.00     0.233 C 
BRANCH  10  11
ATOM     11  O   UNL     1     -13.688 -12.026  93.849  1.00  0.00    -0.466 OA
BRANCH  11  12
ATOM     12  C   UNL     1     -12.636 -11.801  94.744  1.00  0.00     0.302 C 
ATOM     13  O   UNL     1     -11.436 -11.929  94.378  1.00  0.00    -0.253 OA
ATOM     14  C   UNL     1     -12.943 -11.461  96.163  1.00  0.00     0.139 C 
ENDBRANCH  11  12
ENDBRANCH  10  11
ENDBRANCH   9  10
ENDBRANCH   2   9
TORSDOF 7
ENDMDL
MODEL 8
REMARK VINA RESULT:    -3.555      3.937      5.849
REMARK INTER + INTRA:          -5.857
REMARK INTER:                  -5.222
REMARK INTRA:                  -0.634
REMARK UNBOUND:                -0.847
REMARK SMILES CC(=O)OCC[C@@H](C)CCC=C(C)C
REMARK SMILES IDX 8 1 7 2 9 3 10 4 11 5 12 6 13 7 14 8 6 9 5 10 4 11 2 12 3 13
REMARK SMILES IDX 1 14
REMARK H PARENT
REMARK Flexibility Score: inf
ROOT
ATOM      1  C   UNL     1      -8.905 -11.476  88.183  1.00  0.00     0.008 C 
ATOM      2  C   UNL     1      -9.004 -10.590  89.435  1.00  0.00    -0.011 C 
ENDROOT
BRANCH   2   3
ATOM      3  C   UNL     1      -7.920  -9.481  89.431  1.00  0.00     0.007 C 
BRANCH   3   4
ATOM      4  C   UNL     1      -8.320  -8.208  90.209  1.00  0.00     0.027 C 
BRANCH   4   5
ATOM      5  C   UNL     1      -7.479  -8.006  91.448  1.00  0.00    -0.028 C 
ATOM      6  C   UNL     1      -7.793  -8.490  92.671  1.00  0.00    -0.080 C 
ATOM      7  C   UNL     1      -6.863  -8.195  93.820  1.00  0.00     0.039 C 
ATOM      8  C   UNL     1      -9.024  -9.334  92.907  1.00  0.00     0.039 C 
ENDBRANCH   4   5
ENDBRANCH   3   4
ENDBRANCH   2   3
BRANCH   2   9
ATOM      9  C   UNL     1     -10.429  -9.986  89.518  1.00  0.00     0.045 C 
BRANCH   9  10
ATOM     10  C   UNL     1     -11.444 -10.624  88.555  1.00  0.00     0.233 C 
BRANCH  10  11
ATOM     11  O   UNL     1     -12.778 -10.523  89.053  1.00  0.00    -0.466 OA
BRANCH  11  12
ATOM     12  C   UNL     1     -13.759  -9.716  88.466  1.00  0.00     0.302 C 
ATOM     13  O   UNL     1     -14.909  -9.623  88.974  1.00  0.00    -0.253 OA
ATOM     14  C   UNL     1     -13.456  -9.004  87.192  1.00  0.00     0.139 C 
ENDBRANCH  11  12
ENDBRANCH  10  11
ENDBRANCH   9  10
ENDBRANCH   2   9
TORSDOF 7
ENDMDL
MODEL 9
REMARK VINA RESULT:    -3.525      1.958      2.376
REMARK INTER + INTRA:          -5.815
REMARK INTER:                  -5.062
REMARK INTRA:                  -0.753
REMARK UNBOUND:                -0.847
REMARK SMILES CC(=O)OCC[C@@H](C)CCC=C(C)C
REMARK SMILES IDX 8 1 7 2 9 3 10 4 11 5 12 6 13 7 14 8 6 9 5 10 4 11 2 12 3 13
REMARK SMILES IDX 1 14
REMARK H PARENT
REMARK Flexibility Score: inf
ROOT
ATOM      1  C   UNL     1     -10.583  -8.948  94.245  1.00  0.00     0.008 C 
ATOM      2  C   UNL     1     -10.556 -10.275  93.468  1.00  0.00    -0.011 C 
ENDROOT
BRANCH   2   3
ATOM      3  C   UNL     1     -11.739 -11.192  93.874  1.00  0.00     0.007 C 
BRANCH   3   4
ATOM      4  C   UNL     1     -11.599 -11.812  95.282  1.00  0.00     0.027 C 
BRANCH   4   5
ATOM      5  C   UNL     1     -12.750 -11.441  96.189  1.00  0.00    -0.028 C 
ATOM      6  C   UNL     1     -12.627 -10.703  97.314  1.00  0.00    -0.080 C 
ATOM      7  C   UNL     1     -13.864 -10.425  98.128  1.00  0.00     0.039 C 
ATOM      8  C   UNL     1     -11.300 -10.131  97.757  1.00  0.00     0.039 C 
ENDBRANCH   4   5
ENDBRANCH   3   4
ENDBRANCH   2   3
BRANCH   2   9
ATOM      9  C   UNL     1     -10.570  -9.974  91.948  1.00  0.00     0.045 C 
BRANCH   9  10
ATOM     10  C   UNL     1     -10.124  -8.549  91.582  1.00  0.00     0.233 C 
BRANCH  10  11
ATOM     11  O   UNL     1      -8.776  -8.524  91.112  1.00  0.00    -0.466 OA
BRANCH  11  12
ATOM     12  C   UNL     1      -7.705  -8.043  91.873  1.00  0.00     0.302 C 
ATOM     13  O   UNL     1      -7.280  -8.686  92.871  1.00  0.00    -0.253 OA
ATOM     14  C   UNL     1      -7.096  -6.726  91.530  1.00  0.00     0.139 C 
ENDBRANCH  11  12
ENDBRANCH  10  11
ENDBRANCH   9  10
ENDBRANCH   2   9
TORSDOF 7
ENDMDL
