MODEL 1
REMARK VINA RESULT:    -5.374      0.000      0.000
REMARK INTER + INTRA:          -5.531
REMARK INTER:                  -5.531
REMARK INTRA:                   0.000
REMARK UNBOUND:                 0.000
REMARK SMILES C=C1[C@H](O)C[C@]23C[C@H]1C(C)(C)[C@@H]2CC[C@H]3C
REMARK SMILES IDX 16 1 15 2 14 3 13 4 12 5 6 6 7 7 8 8 9 9 10 10 11 11 2 12
REMARK SMILES IDX 1 13 3 14 5 15 4 16
REMARK H PARENT 4 17
REMARK Flexibility Score: inf
ROOT
ATOM      1  C   UNL     1       6.798  -2.623  22.096  1.00  0.00     0.008 C 
ATOM      2  C   UNL     1       6.646  -4.133  22.352  1.00  0.00    -0.008 C 
ATOM      3  C   UNL     1       6.782  -4.974  21.042  1.00  0.00     0.004 C 
ATOM      4  C   UNL     1       5.382  -5.542  20.697  1.00  0.00     0.005 C 
ATOM      5  C   UNL     1       4.481  -4.732  21.607  1.00  0.00     0.002 C 
ATOM      6  C   UNL     1       5.260  -4.553  22.902  1.00  0.00    -0.020 C 
ATOM      7  C   UNL     1       4.306  -3.610  23.626  1.00  0.00     0.016 C 
ATOM      8  C   UNL     1       2.981  -4.407  23.467  1.00  0.00     0.023 C 
ATOM      9  C   UNL     1       3.018  -5.012  22.005  1.00  0.00    -0.025 C 
ATOM     10  C   UNL     1       2.040  -4.220  21.102  1.00  0.00     0.012 C 
ATOM     11  C   UNL     1       2.653  -6.513  21.879  1.00  0.00     0.012 C 
ATOM     12  C   UNL     1       3.004  -5.495  24.518  1.00  0.00    -0.045 C 
ATOM     13  C   UNL     1       1.875  -5.871  25.138  1.00  0.00     0.011 C 
ATOM     14  C   UNL     1       4.318  -6.188  24.821  1.00  0.00     0.140 C 
ATOM     15  C   UNL     1       5.431  -5.875  23.770  1.00  0.00     0.044 C 
ENDROOT
BRANCH  14  16
ATOM     16  O   UNL     1       4.762  -5.792  26.096  1.00  0.00    -0.389 OA
ATOM     17  H   UNL     1       4.548  -6.531  26.723  1.00  0.00     0.211 HD
ENDBRANCH  14  16
TORSDOF 1
ENDMDL
MODEL 2
REMARK VINA RESULT:    -5.188      9.157     11.519
REMARK INTER + INTRA:          -5.340
REMARK INTER:                  -5.340
REMARK INTRA:                   0.000
REMARK UNBOUND:                 0.000
REMARK SMILES C=C1[C@H](O)C[C@]23C[C@H]1C(C)(C)[C@@H]2CC[C@H]3C
REMARK SMILES IDX 16 1 15 2 14 3 13 4 12 5 6 6 7 7 8 8 9 9 10 10 11 11 2 12
REMARK SMILES IDX 1 13 3 14 5 15 4 16
REMARK H PARENT 4 17
REMARK Flexibility Score: inf
ROOT
ATOM      1  C   UNL     1      11.768   2.813  24.884  1.00  0.00     0.008 C 
ATOM      2  C   UNL     1      12.148   1.373  24.496  1.00  0.00    -0.008 C 
ATOM      3  C   UNL     1      10.918   0.409  24.512  1.00  0.00     0.004 C 
ATOM      4  C   UNL     1      11.086  -0.553  25.716  1.00  0.00     0.005 C 
ATOM      5  C   UNL     1      12.192   0.120  26.503  1.00  0.00     0.002 C 
ATOM      6  C   UNL     1      13.147   0.691  25.465  1.00  0.00    -0.020 C 
ATOM      7  C   UNL     1      14.087   1.449  26.396  1.00  0.00     0.016 C 
ATOM      8  C   UNL     1      14.419   0.316  27.407  1.00  0.00     0.023 C 
ATOM      9  C   UNL     1      13.065  -0.471  27.629  1.00  0.00    -0.025 C 
ATOM     10  C   UNL     1      12.488  -0.111  29.020  1.00  0.00     0.012 C 
ATOM     11  C   UNL     1      13.154  -2.017  27.551  1.00  0.00     0.012 C 
ATOM     12  C   UNL     1      15.466  -0.555  26.750  1.00  0.00    -0.045 C 
ATOM     13  C   UNL     1      16.444  -1.117  27.478  1.00  0.00     0.011 C 
ATOM     14  C   UNL     1      15.362  -0.824  25.261  1.00  0.00     0.140 C 
ATOM     15  C   UNL     1      13.987  -0.392  24.658  1.00  0.00     0.044 C 
ENDROOT
BRANCH  14  16
ATOM     16  O   UNL     1      16.394  -0.137  24.598  1.00  0.00    -0.389 OA
ATOM     17  H   UNL     1      16.327  -0.367  23.635  1.00  0.00     0.211 HD
ENDBRANCH  14  16
TORSDOF 1
ENDMDL
MODEL 3
REMARK VINA RESULT:    -5.145     12.165     13.694
REMARK INTER + INTRA:          -5.295
REMARK INTER:                  -5.295
REMARK INTRA:                   0.000
REMARK UNBOUND:                 0.000
REMARK SMILES C=C1[C@H](O)C[C@]23C[C@H]1C(C)(C)[C@@H]2CC[C@H]3C
REMARK SMILES IDX 16 1 15 2 14 3 13 4 12 5 6 6 7 7 8 8 9 9 10 10 11 11 2 12
REMARK SMILES IDX 1 13 3 14 5 15 4 16
REMARK H PARENT 4 17
REMARK Flexibility Score: inf
ROOT
ATOM      1  C   UNL     1      17.280 -14.121  26.431  1.00  0.00     0.008 C 
ATOM      2  C   UNL     1      15.906 -14.812  26.472  1.00  0.00    -0.008 C 
ATOM      3  C   UNL     1      15.951 -16.261  25.889  1.00  0.00     0.004 C 
ATOM      4  C   UNL     1      15.192 -16.251  24.538  1.00  0.00     0.005 C 
ATOM      5  C   UNL     1      15.058 -14.767  24.263  1.00  0.00     0.002 C 
ATOM      6  C   UNL     1      14.815 -14.119  25.619  1.00  0.00    -0.020 C 
ATOM      7  C   UNL     1      14.862 -12.655  25.195  1.00  0.00     0.016 C 
ATOM      8  C   UNL     1      13.853 -12.694  24.013  1.00  0.00     0.023 C 
ATOM      9  C   UNL     1      14.128 -14.057  23.259  1.00  0.00    -0.025 C 
ATOM     10  C   UNL     1      14.870 -13.764  21.932  1.00  0.00     0.012 C 
ATOM     11  C   UNL     1      12.880 -14.909  22.913  1.00  0.00     0.012 C 
ATOM     12  C   UNL     1      12.470 -12.668  24.626  1.00  0.00    -0.045 C 
ATOM     13  C   UNL     1      11.468 -12.009  24.025  1.00  0.00     0.011 C 
ATOM     14  C   UNL     1      12.225 -13.442  25.906  1.00  0.00     0.140 C 
ATOM     15  C   UNL     1      13.391 -14.421  26.260  1.00  0.00     0.044 C 
ENDROOT
BRANCH  14  16
ATOM     16  O   UNL     1      12.047 -12.534  26.965  1.00  0.00    -0.389 OA
ATOM     17  H   UNL     1      11.155 -12.116  26.845  1.00  0.00     0.211 HD
ENDBRANCH  14  16
TORSDOF 1
ENDMDL
MODEL 4
REMARK VINA RESULT:    -5.095      8.226     10.903
REMARK INTER + INTRA:          -5.244
REMARK INTER:                  -5.244
REMARK INTRA:                   0.000
REMARK UNBOUND:                 0.000
REMARK SMILES C=C1[C@H](O)C[C@]23C[C@H]1C(C)(C)[C@@H]2CC[C@H]3C
REMARK SMILES IDX 16 1 15 2 14 3 13 4 12 5 6 6 7 7 8 8 9 9 10 10 11 11 2 12
REMARK SMILES IDX 1 13 3 14 5 15 4 16
REMARK H PARENT 4 17
REMARK Flexibility Score: inf
ROOT
ATOM      1  C   UNL     1      10.701  -3.470  25.249  1.00  0.00     0.008 C 
ATOM      2  C   UNL     1      12.220  -3.228  25.196  1.00  0.00    -0.008 C 
ATOM      3  C   UNL     1      12.999  -4.109  26.226  1.00  0.00     0.004 C 
ATOM      4  C   UNL     1      13.535  -3.174  27.339  1.00  0.00     0.005 C 
ATOM      5  C   UNL     1      12.761  -1.898  27.077  1.00  0.00     0.002 C 
ATOM      6  C   UNL     1      12.653  -1.787  25.563  1.00  0.00    -0.020 C 
ATOM      7  C   UNL     1      11.736  -0.571  25.478  1.00  0.00     0.016 C 
ATOM      8  C   UNL     1      12.512   0.405  26.407  1.00  0.00     0.023 C 
ATOM      9  C   UNL     1      13.045  -0.477  27.606  1.00  0.00    -0.025 C 
ATOM     10  C   UNL     1      12.201  -0.181  28.870  1.00  0.00     0.012 C 
ATOM     11  C   UNL     1      14.535  -0.281  27.988  1.00  0.00     0.012 C 
ATOM     12  C   UNL     1      13.649   0.969  25.584  1.00  0.00    -0.045 C 
ATOM     13  C   UNL     1      14.044   2.242  25.744  1.00  0.00     0.011 C 
ATOM     14  C   UNL     1      14.370   0.055  24.612  1.00  0.00     0.140 C 
ATOM     15  C   UNL     1      14.017  -1.453  24.816  1.00  0.00     0.044 C 
ENDROOT
BRANCH  14  16
ATOM     16  O   UNL     1      14.040   0.433  23.298  1.00  0.00    -0.389 OA
ATOM     17  H   UNL     1      14.806   0.179  22.720  1.00  0.00     0.211 HD
ENDBRANCH  14  16
TORSDOF 1
ENDMDL
MODEL 5
REMARK VINA RESULT:    -4.860     12.393     14.007
REMARK INTER + INTRA:          -5.002
REMARK INTER:                  -5.002
REMARK INTRA:                   0.000
REMARK UNBOUND:                 0.000
REMARK SMILES C=C1[C@H](O)C[C@]23C[C@H]1C(C)(C)[C@@H]2CC[C@H]3C
REMARK SMILES IDX 16 1 15 2 14 3 13 4 12 5 6 6 7 7 8 8 9 9 10 10 11 11 2 12
REMARK SMILES IDX 1 13 3 14 5 15 4 16
REMARK H PARENT 4 17
REMARK Flexibility Score: inf
ROOT
ATOM      1  C   UNL     1      15.974 -16.509  23.201  1.00  0.00     0.008 C 
ATOM      2  C   UNL     1      15.940 -15.856  24.594  1.00  0.00    -0.008 C 
ATOM      3  C   UNL     1      15.122 -16.698  25.626  1.00  0.00     0.004 C 
ATOM      4  C   UNL     1      13.814 -15.926  25.936  1.00  0.00     0.005 C 
ATOM      5  C   UNL     1      13.794 -14.886  24.835  1.00  0.00     0.002 C 
ATOM      6  C   UNL     1      15.246 -14.471  24.636  1.00  0.00    -0.020 C 
ATOM      7  C   UNL     1      15.071 -13.566  23.422  1.00  0.00     0.016 C 
ATOM      8  C   UNL     1      13.929 -12.649  23.944  1.00  0.00     0.023 C 
ATOM      9  C   UNL     1      12.950 -13.598  24.747  1.00  0.00    -0.025 C 
ATOM     10  C   UNL     1      11.670 -13.835  23.910  1.00  0.00     0.012 C 
ATOM     11  C   UNL     1      12.504 -13.093  26.143  1.00  0.00     0.012 C 
ATOM     12  C   UNL     1      14.578 -11.626  24.850  1.00  0.00    -0.045 C 
ATOM     13  C   UNL     1      14.125 -10.364  24.892  1.00  0.00     0.011 C 
ATOM     14  C   UNL     1      15.718 -12.066  25.747  1.00  0.00     0.140 C 
ATOM     15  C   UNL     1      15.870 -13.619  25.825  1.00  0.00     0.044 C 
ENDROOT
BRANCH  14  16
ATOM     16  O   UNL     1      16.918 -11.508  25.272  1.00  0.00    -0.389 OA
ATOM     17  H   UNL     1      16.741 -10.548  25.088  1.00  0.00     0.211 HD
ENDBRANCH  14  16
TORSDOF 1
ENDMDL
MODEL 6
REMARK VINA RESULT:    -4.834      9.741     12.016
REMARK INTER + INTRA:          -4.975
REMARK INTER:                  -4.975
REMARK INTRA:                   0.000
REMARK UNBOUND:                 0.000
REMARK SMILES C=C1[C@H](O)C[C@]23C[C@H]1C(C)(C)[C@@H]2CC[C@H]3C
REMARK SMILES IDX 16 1 15 2 14 3 13 4 12 5 6 6 7 7 8 8 9 9 10 10 11 11 2 12
REMARK SMILES IDX 1 13 3 14 5 15 4 16
REMARK H PARENT 4 17
REMARK Flexibility Score: inf
ROOT
ATOM      1  C   UNL     1      11.112   0.895  24.874  1.00  0.00     0.008 C 
ATOM      2  C   UNL     1      12.556   1.425  24.934  1.00  0.00    -0.008 C 
ATOM      3  C   UNL     1      13.307   1.258  23.573  1.00  0.00     0.004 C 
ATOM      4  C   UNL     1      14.383   0.157  23.760  1.00  0.00     0.005 C 
ATOM      5  C   UNL     1      13.967  -0.469  25.075  1.00  0.00     0.002 C 
ATOM      6  C   UNL     1      13.470   0.682  25.939  1.00  0.00    -0.020 C 
ATOM      7  C   UNL     1      12.956  -0.119  27.131  1.00  0.00     0.016 C 
ATOM      8  C   UNL     1      14.211  -0.992  27.417  1.00  0.00     0.023 C 
ATOM      9  C   UNL     1      14.786  -1.394  25.999  1.00  0.00    -0.025 C 
ATOM     10  C   UNL     1      14.458  -2.881  25.720  1.00  0.00     0.012 C 
ATOM     11  C   UNL     1      16.313  -1.212  25.806  1.00  0.00     0.012 C 
ATOM     12  C   UNL     1      15.179  -0.117  28.181  1.00  0.00    -0.045 C 
ATOM     13  C   UNL     1      15.951  -0.634  29.149  1.00  0.00     0.011 C 
ATOM     14  C   UNL     1      15.299   1.346  27.799  1.00  0.00     0.140 C 
ATOM     15  C   UNL     1      14.601   1.681  26.442  1.00  0.00     0.044 C 
ENDROOT
BRANCH  14  16
ATOM     16  O   UNL     1      14.733   2.133  28.817  1.00  0.00    -0.389 OA
ATOM     17  H   UNL     1      15.402   2.826  29.057  1.00  0.00     0.211 HD
ENDBRANCH  14  16
TORSDOF 1
ENDMDL
MODEL 7
REMARK VINA RESULT:    -4.803      8.928     11.744
REMARK INTER + INTRA:          -4.943
REMARK INTER:                  -4.943
REMARK INTRA:                   0.000
REMARK UNBOUND:                 0.000
REMARK SMILES C=C1[C@H](O)C[C@]23C[C@H]1C(C)(C)[C@@H]2CC[C@H]3C
REMARK SMILES IDX 16 1 15 2 14 3 13 4 12 5 6 6 7 7 8 8 9 9 10 10 11 11 2 12
REMARK SMILES IDX 1 13 3 14 5 15 4 16
REMARK H PARENT 4 17
REMARK Flexibility Score: inf
ROOT
ATOM      1  C   UNL     1      12.944  -2.758  25.247  1.00  0.00     0.008 C 
ATOM      2  C   UNL     1      12.470  -1.628  26.178  1.00  0.00    -0.008 C 
ATOM      3  C   UNL     1      11.024  -1.144  25.838  1.00  0.00     0.004 C 
ATOM      4  C   UNL     1      11.132   0.275  25.223  1.00  0.00     0.005 C 
ATOM      5  C   UNL     1      12.616   0.380  24.934  1.00  0.00     0.002 C 
ATOM      6  C   UNL     1      13.310  -0.330  26.088  1.00  0.00    -0.020 C 
ATOM      7  C   UNL     1      14.745  -0.274  25.574  1.00  0.00     0.016 C 
ATOM      8  C   UNL     1      14.845   1.244  25.249  1.00  0.00     0.023 C 
ATOM      9  C   UNL     1      13.447   1.642  24.627  1.00  0.00    -0.025 C 
ATOM     10  C   UNL     1      13.607   1.837  23.099  1.00  0.00     0.012 C 
ATOM     11  C   UNL     1      12.790   2.928  25.191  1.00  0.00     0.012 C 
ATOM     12  C   UNL     1      15.089   1.950  26.564  1.00  0.00    -0.045 C 
ATOM     13  C   UNL     1      15.884   3.029  26.625  1.00  0.00     0.011 C 
ATOM     14  C   UNL     1      14.376   1.448  27.805  1.00  0.00     0.140 C 
ATOM     15  C   UNL     1      13.236   0.429  27.484  1.00  0.00     0.044 C 
ENDROOT
BRANCH  14  16
ATOM     16  O   UNL     1      15.314   0.839  28.658  1.00  0.00    -0.389 OA
ATOM     17  H   UNL     1      15.809   1.567  29.116  1.00  0.00     0.211 HD
ENDBRANCH  14  16
TORSDOF 1
ENDMDL
MODEL 8
REMARK VINA RESULT:    -4.671     12.016     13.730
REMARK INTER + INTRA:          -4.808
REMARK INTER:                  -4.808
REMARK INTRA:                   0.000
REMARK UNBOUND:                 0.000
REMARK SMILES C=C1[C@H](O)C[C@]23C[C@H]1C(C)(C)[C@@H]2CC[C@H]3C
REMARK SMILES IDX 16 1 15 2 14 3 13 4 12 5 6 6 7 7 8 8 9 9 10 10 11 11 2 12
REMARK SMILES IDX 1 13 3 14 5 15 4 16
REMARK H PARENT 4 17
REMARK Flexibility Score: inf
ROOT
ATOM      1  C   UNL     1      15.447 -16.142  21.877  1.00  0.00     0.008 C 
ATOM      2  C   UNL     1      14.853 -14.722  21.911  1.00  0.00    -0.008 C 
ATOM      3  C   UNL     1      15.908 -13.628  21.548  1.00  0.00     0.004 C 
ATOM      4  C   UNL     1      16.229 -12.833  22.839  1.00  0.00     0.005 C 
ATOM      5  C   UNL     1      15.620 -13.715  23.910  1.00  0.00     0.002 C 
ATOM      6  C   UNL     1      14.342 -14.275  23.304  1.00  0.00    -0.020 C 
ATOM      7  C   UNL     1      13.949 -15.237  24.420  1.00  0.00     0.016 C 
ATOM      8  C   UNL     1      14.029 -14.271  25.635  1.00  0.00     0.023 C 
ATOM      9  C   UNL     1      15.296 -13.359  25.376  1.00  0.00    -0.025 C 
ATOM     10  C   UNL     1      16.443 -13.803  26.317  1.00  0.00     0.012 C 
ATOM     11  C   UNL     1      15.093 -11.836  25.578  1.00  0.00     0.012 C 
ATOM     12  C   UNL     1      12.752 -13.461  25.627  1.00  0.00    -0.045 C 
ATOM     13  C   UNL     1      12.161 -13.103  26.777  1.00  0.00     0.011 C 
ATOM     14  C   UNL     1      12.178 -13.018  24.295  1.00  0.00     0.140 C 
ATOM     15  C   UNL     1      13.172 -13.215  23.106  1.00  0.00     0.044 C 
ENDROOT
BRANCH  14  16
ATOM     16  O   UNL     1      11.001 -13.743  24.039  1.00  0.00    -0.389 OA
ATOM     17  H   UNL     1      10.238 -13.161  24.293  1.00  0.00     0.211 HD
ENDBRANCH  14  16
TORSDOF 1
ENDMDL
MODEL 9
REMARK VINA RESULT:    -4.656      9.260     11.689
REMARK INTER + INTRA:          -4.792
REMARK INTER:                  -4.792
REMARK INTRA:                   0.000
REMARK UNBOUND:                 0.000
REMARK SMILES C=C1[C@H](O)C[C@]23C[C@H]1C(C)(C)[C@@H]2CC[C@H]3C
REMARK SMILES IDX 16 1 15 2 14 3 13 4 12 5 6 6 7 7 8 8 9 9 10 10 11 11 2 12
REMARK SMILES IDX 1 13 3 14 5 15 4 16
REMARK H PARENT 4 17
REMARK Flexibility Score: inf
ROOT
ATOM      1  C   UNL     1      14.958   2.363  29.281  1.00  0.00     0.008 C 
ATOM      2  C   UNL     1      15.458   1.227  28.370  1.00  0.00    -0.008 C 
ATOM      3  C   UNL     1      16.489   1.727  27.308  1.00  0.00     0.004 C 
ATOM      4  C   UNL     1      15.802   1.674  25.919  1.00  0.00     0.005 C 
ATOM      5  C   UNL     1      14.347   1.484  26.296  1.00  0.00     0.002 C 
ATOM      6  C   UNL     1      14.353   0.564  27.510  1.00  0.00    -0.020 C 
ATOM      7  C   UNL     1      12.867   0.603  27.847  1.00  0.00     0.016 C 
ATOM      8  C   UNL     1      12.274   0.260  26.452  1.00  0.00     0.023 C 
ATOM      9  C   UNL     1      13.175   1.028  25.402  1.00  0.00    -0.025 C 
ATOM     10  C   UNL     1      12.393   2.247  24.856  1.00  0.00     0.012 C 
ATOM     11  C   UNL     1      13.657   0.202  24.182  1.00  0.00     0.012 C 
ATOM     12  C   UNL     1      12.391  -1.239  26.291  1.00  0.00    -0.045 C 
ATOM     13  C   UNL     1      11.439  -1.935  25.651  1.00  0.00     0.011 C 
ATOM     14  C   UNL     1      13.629  -1.936  26.823  1.00  0.00     0.140 C 
ATOM     15  C   UNL     1      14.771  -0.941  27.208  1.00  0.00     0.044 C 
ENDROOT
BRANCH  14  16
ATOM     16  O   UNL     1      13.278  -2.696  27.952  1.00  0.00    -0.389 OA
ATOM     17  H   UNL     1      12.389  -2.377  28.255  1.00  0.00     0.211 HD
ENDBRANCH  14  16
TORSDOF 1
ENDMDL
