MODEL 1
REMARK VINA RESULT:     1.367      0.000      0.000
REMARK INTER + INTRA:           2.197
REMARK INTER:                   1.687
REMARK INTRA:                   0.510
REMARK UNBOUND:                 0.510
REMARK SMILES O=c1c(O)c(-c2cc(O)c(O)c(O)c2)oc2cc(O)cc(O)c12
REMARK SMILES IDX 5 1 3 2 2 3 1 4 23 5 21 6 20 7 18 8 17 9 16 10 15 11 6 12
REMARK SMILES IDX 7 13 8 14 14 15 10 16 12 17 9 18 11 20 13 22 4 24 22 26
REMARK SMILES IDX 19 28
REMARK H PARENT 9 19 11 21 13 23 4 25 22 27 19 29
REMARK Flexibility Score: inf
ROOT
ATOM      1  C   UNL     1      11.596 -15.806   5.022  1.00  0.00     0.180 A 
ATOM      2  C   UNL     1      10.311 -16.363   4.907  1.00  0.00     0.208 A 
ATOM      3  C   UNL     1      10.173 -17.761   4.892  1.00  0.00     0.238 A 
ATOM      4  O   UNL     1       9.027 -18.253   4.734  1.00  0.00    -0.285 OA
ATOM      5  C   UNL     1      11.321 -18.583   5.009  1.00  0.00     0.111 A 
ATOM      6  C   UNL     1      11.294 -20.009   5.046  1.00  0.00     0.134 A 
ATOM      7  C   UNL     1      12.499 -20.723   5.032  1.00  0.00     0.093 A 
ATOM      8  C   UNL     1      13.729 -20.059   5.048  1.00  0.00     0.123 A 
ATOM      9  C   UNL     1      13.764 -18.668   5.072  1.00  0.00     0.094 A 
ATOM     10  C   UNL     1      12.578 -17.928   5.050  1.00  0.00     0.146 A 
ATOM     11  O   UNL     1      12.658 -16.602   5.063  1.00  0.00    -0.452 OA
ENDROOT
BRANCH   1  12
ATOM     12  C   UNL     1      11.819 -14.342   5.069  1.00  0.00     0.029 A 
ATOM     13  C   UNL     1      10.715 -13.475   5.050  1.00  0.00     0.062 A 
ATOM     14  C   UNL     1      10.896 -12.089   5.072  1.00  0.00     0.162 A 
ATOM     15  C   UNL     1      13.114 -13.799   5.074  1.00  0.00     0.062 A 
ATOM     16  C   UNL     1      12.194 -11.551   5.100  1.00  0.00     0.200 A 
ATOM     17  C   UNL     1      13.305 -12.412   5.095  1.00  0.00     0.162 A 
BRANCH  14  18
ATOM     18  O   UNL     1       9.773 -11.261   5.068  1.00  0.00    -0.504 OA
ATOM     19  H   UNL     1       8.931 -11.492   5.581  1.00  0.00     0.293 HD
ENDBRANCH  14  18
BRANCH  16  20
ATOM     20  O   UNL     1      12.366 -10.166   5.125  1.00  0.00    -0.502 OA
ATOM     21  H   UNL     1      13.139  -9.709   4.657  1.00  0.00     0.293 HD
ENDBRANCH  16  20
BRANCH  17  22
ATOM     22  O   UNL     1      14.596 -11.884   5.107  1.00  0.00    -0.504 OA
ATOM     23  H   UNL     1      15.409 -12.468   4.952  1.00  0.00     0.293 HD
ENDBRANCH  17  22
ENDBRANCH   1  12
BRANCH   2  24
ATOM     24  O   UNL     1       9.194 -15.533   4.771  1.00  0.00    -0.502 OA
ATOM     25  H   UNL     1       9.248 -14.528   4.875  1.00  0.00     0.293 HD
ENDBRANCH   2  24
BRANCH   6  26
ATOM     26  O   UNL     1      10.122 -20.766   5.125  1.00  0.00    -0.507 OA
ATOM     27  H   UNL     1       9.935 -21.594   4.581  1.00  0.00     0.293 HD
ENDBRANCH   6  26
BRANCH   8  28
ATOM     28  O   UNL     1      14.924 -20.777   5.050  1.00  0.00    -0.508 OA
ATOM     29  H   UNL     1      15.524 -20.810   4.235  1.00  0.00     0.293 HD
ENDBRANCH   8  28
TORSDOF 7
ENDMDL
MODEL 2
REMARK VINA RESULT:     1.630      1.315      3.351
REMARK INTER + INTRA:           2.522
REMARK INTER:                   2.001
REMARK INTRA:                   0.521
REMARK UNBOUND:                 0.510
REMARK SMILES O=c1c(O)c(-c2cc(O)c(O)c(O)c2)oc2cc(O)cc(O)c12
REMARK SMILES IDX 5 1 3 2 2 3 1 4 23 5 21 6 20 7 18 8 17 9 16 10 15 11 6 12
REMARK SMILES IDX 7 13 8 14 14 15 10 16 12 17 9 18 11 20 13 22 4 24 22 26
REMARK SMILES IDX 19 28
REMARK H PARENT 9 19 11 21 13 23 4 25 22 27 19 29
REMARK Flexibility Score: inf
ROOT
ATOM      1  C   UNL     1      11.611 -15.344   5.016  1.00  0.00     0.180 A 
ATOM      2  C   UNL     1      12.815 -16.067   5.046  1.00  0.00     0.208 A 
ATOM      3  C   UNL     1      12.768 -17.470   5.034  1.00  0.00     0.238 A 
ATOM      4  O   UNL     1      13.847 -18.112   5.115  1.00  0.00    -0.285 OA
ATOM      5  C   UNL     1      11.517 -18.132   4.976  1.00  0.00     0.111 A 
ATOM      6  C   UNL     1      11.353 -19.549   4.918  1.00  0.00     0.134 A 
ATOM      7  C   UNL     1      10.068 -20.099   4.996  1.00  0.00     0.093 A 
ATOM      8  C   UNL     1       8.937 -19.279   5.063  1.00  0.00     0.123 A 
ATOM      9  C   UNL     1       9.085 -17.895   5.060  1.00  0.00     0.094 A 
ATOM     10  C   UNL     1      10.357 -17.317   5.020  1.00  0.00     0.146 A 
ATOM     11  O   UNL     1      10.452 -15.993   5.029  1.00  0.00    -0.452 OA
ENDROOT
BRANCH   1  12
ATOM     12  C   UNL     1      11.581 -13.863   5.002  1.00  0.00     0.029 A 
ATOM     13  C   UNL     1      12.787 -13.148   5.066  1.00  0.00     0.062 A 
ATOM     14  C   UNL     1      12.788 -11.749   5.076  1.00  0.00     0.162 A 
ATOM     15  C   UNL     1      10.367 -13.156   4.985  1.00  0.00     0.062 A 
ATOM     16  C   UNL     1      11.572 -11.046   5.035  1.00  0.00     0.200 A 
ATOM     17  C   UNL     1      10.358 -11.755   4.995  1.00  0.00     0.162 A 
BRANCH  14  18
ATOM     18  O   UNL     1      14.008 -11.075   5.124  1.00  0.00    -0.504 OA
ATOM     19  H   UNL     1      14.369 -10.557   4.333  1.00  0.00     0.293 HD
ENDBRANCH  14  18
BRANCH  16  20
ATOM     20  O   UNL     1      11.581  -9.651   5.042  1.00  0.00    -0.502 OA
ATOM     21  H   UNL     1      12.236  -9.112   4.489  1.00  0.00     0.293 HD
ENDBRANCH  16  20
BRANCH  17  22
ATOM     22  O   UNL     1       9.148 -11.064   4.970  1.00  0.00    -0.504 OA
ATOM     23  H   UNL     1       9.115 -10.051   4.941  1.00  0.00     0.293 HD
ENDBRANCH  17  22
ENDBRANCH   1  12
BRANCH   2  24
ATOM     24  O   UNL     1      14.038 -15.393   5.125  1.00  0.00    -0.502 OA
ATOM     25  H   UNL     1      14.721 -15.417   4.378  1.00  0.00     0.293 HD
ENDBRANCH   2  24
BRANCH   6  26
ATOM     26  O   UNL     1      12.409 -20.451   4.758  1.00  0.00    -0.507 OA
ATOM     27  H   UNL     1      12.796 -20.730   3.870  1.00  0.00     0.293 HD
ENDBRANCH   6  26
BRANCH   8  28
ATOM     28  O   UNL     1       7.660 -19.835   5.124  1.00  0.00    -0.508 OA
ATOM     29  H   UNL     1       7.285 -20.386   4.361  1.00  0.00     0.293 HD
ENDBRANCH   8  28
TORSDOF 7
ENDMDL
MODEL 3
REMARK VINA RESULT:     1.853      1.489      3.016
REMARK INTER + INTRA:           2.796
REMARK INTER:                   2.355
REMARK INTRA:                   0.442
REMARK UNBOUND:                 0.510
REMARK SMILES O=c1c(O)c(-c2cc(O)c(O)c(O)c2)oc2cc(O)cc(O)c12
REMARK SMILES IDX 5 1 3 2 2 3 1 4 23 5 21 6 20 7 18 8 17 9 16 10 15 11 6 12
REMARK SMILES IDX 7 13 8 14 14 15 10 16 12 17 9 18 11 20 13 22 4 24 22 26
REMARK SMILES IDX 19 28
REMARK H PARENT 9 19 11 21 13 23 4 25 22 27 19 29
REMARK Flexibility Score: inf
ROOT
ATOM      1  C   UNL     1      11.433 -14.816   5.010  1.00  0.00     0.180 A 
ATOM      2  C   UNL     1      12.677 -15.470   5.045  1.00  0.00     0.208 A 
ATOM      3  C   UNL     1      12.709 -16.874   5.038  1.00  0.00     0.238 A 
ATOM      4  O   UNL     1      13.823 -17.453   5.124  1.00  0.00    -0.285 OA
ATOM      5  C   UNL     1      11.498 -17.606   4.979  1.00  0.00     0.111 A 
ATOM      6  C   UNL     1      11.415 -19.029   4.926  1.00  0.00     0.134 A 
ATOM      7  C   UNL     1      10.162 -19.651   5.003  1.00  0.00     0.093 A 
ATOM      8  C   UNL     1       8.987 -18.897   5.065  1.00  0.00     0.123 A 
ATOM      9  C   UNL     1       9.056 -17.507   5.057  1.00  0.00     0.094 A 
ATOM     10  C   UNL     1      10.293 -16.858   5.018  1.00  0.00     0.146 A 
ATOM     11  O   UNL     1      10.314 -15.530   5.023  1.00  0.00    -0.452 OA
ENDROOT
BRANCH   1  12
ATOM     12  C   UNL     1      11.320 -13.340   4.991  1.00  0.00     0.029 A 
ATOM     13  C   UNL     1      10.056 -12.746   4.846  1.00  0.00     0.062 A 
ATOM     14  C   UNL     1       9.921 -11.355   4.803  1.00  0.00     0.162 A 
ATOM     15  C   UNL     1      12.457 -12.518   5.056  1.00  0.00     0.062 A 
ATOM     16  C   UNL     1      11.060 -10.537   4.890  1.00  0.00     0.200 A 
ATOM     17  C   UNL     1      12.332 -11.123   5.012  1.00  0.00     0.162 A 
BRANCH  14  18
ATOM     18  O   UNL     1       8.647 -10.804   4.673  1.00  0.00    -0.504 OA
ATOM     19  H   UNL     1       8.487  -9.804   4.700  1.00  0.00     0.293 HD
ENDBRANCH  14  18
BRANCH  16  20
ATOM     20  O   UNL     1      10.917  -9.149   4.850  1.00  0.00    -0.502 OA
ATOM     21  H   UNL     1      10.391  -8.681   4.121  1.00  0.00     0.293 HD
ENDBRANCH  16  20
BRANCH  17  22
ATOM     22  O   UNL     1      13.467 -10.317   5.085  1.00  0.00    -0.504 OA
ATOM     23  H   UNL     1      13.473  -9.455   5.618  1.00  0.00     0.293 HD
ENDBRANCH  17  22
ENDBRANCH   1  12
BRANCH   2  24
ATOM     24  O   UNL     1      13.859 -14.728   5.125  1.00  0.00    -0.502 OA
ATOM     25  H   UNL     1      14.666 -15.046   5.647  1.00  0.00     0.293 HD
ENDBRANCH   2  24
BRANCH   6  26
ATOM     26  O   UNL     1      12.520 -19.871   4.772  1.00  0.00    -0.507 OA
ATOM     27  H   UNL     1      12.949 -20.398   5.516  1.00  0.00     0.293 HD
ENDBRANCH   6  26
BRANCH   8  28
ATOM     28  O   UNL     1       7.743 -19.523   5.124  1.00  0.00    -0.508 OA
ATOM     29  H   UNL     1       7.443 -20.028   5.950  1.00  0.00     0.293 HD
ENDBRANCH   8  28
TORSDOF 7
ENDMDL
MODEL 4
REMARK VINA RESULT:     2.187      1.393      7.716
REMARK INTER + INTRA:           3.209
REMARK INTER:                   2.698
REMARK INTRA:                   0.511
REMARK UNBOUND:                 0.510
REMARK SMILES O=c1c(O)c(-c2cc(O)c(O)c(O)c2)oc2cc(O)cc(O)c12
REMARK SMILES IDX 5 1 3 2 2 3 1 4 23 5 21 6 20 7 18 8 17 9 16 10 15 11 6 12
REMARK SMILES IDX 7 13 8 14 14 15 10 16 12 17 9 18 11 20 13 22 4 24 22 26
REMARK SMILES IDX 19 28
REMARK H PARENT 9 19 11 21 13 23 4 25 22 27 19 29
REMARK Flexibility Score: inf
ROOT
ATOM      1  C   UNL     1      12.036 -14.382   4.959  1.00  0.00     0.180 A 
ATOM      2  C   UNL     1      13.297 -13.767   5.037  1.00  0.00     0.208 A 
ATOM      3  C   UNL     1      13.377 -12.366   4.995  1.00  0.00     0.238 A 
ATOM      4  O   UNL     1      14.512 -11.825   5.011  1.00  0.00    -0.285 OA
ATOM      5  C   UNL     1      12.192 -11.597   4.892  1.00  0.00     0.111 A 
ATOM      6  C   UNL     1      12.152 -10.170   4.881  1.00  0.00     0.134 A 
ATOM      7  C   UNL     1      10.937  -9.515   4.643  1.00  0.00     0.093 A 
ATOM      8  C   UNL     1       9.751 -10.236   4.479  1.00  0.00     0.123 A 
ATOM      9  C   UNL     1       9.771 -11.626   4.548  1.00  0.00     0.094 A 
ATOM     10  C   UNL     1      10.974 -12.309   4.748  1.00  0.00     0.146 A 
ATOM     11  O   UNL     1      10.950 -13.636   4.796  1.00  0.00    -0.452 OA
ENDROOT
BRANCH   1  12
ATOM     12  C   UNL     1      11.871 -15.852   5.022  1.00  0.00     0.029 A 
ATOM     13  C   UNL     1      13.008 -16.674   5.047  1.00  0.00     0.062 A 
ATOM     14  C   UNL     1      12.882 -18.066   5.085  1.00  0.00     0.162 A 
ATOM     15  C   UNL     1      10.598 -16.447   4.998  1.00  0.00     0.062 A 
ATOM     16  C   UNL     1      11.607 -18.656   5.083  1.00  0.00     0.200 A 
ATOM     17  C   UNL     1      10.463 -17.841   5.035  1.00  0.00     0.162 A 
BRANCH  14  18
ATOM     18  O   UNL     1      14.037 -18.848   5.124  1.00  0.00    -0.504 OA
ATOM     19  H   UNL     1      14.014 -19.831   5.369  1.00  0.00     0.293 HD
ENDBRANCH  14  18
BRANCH  16  20
ATOM     20  O   UNL     1      11.489 -20.046   5.124  1.00  0.00    -0.502 OA
ATOM     21  H   UNL     1      11.186 -20.587   4.323  1.00  0.00     0.293 HD
ENDBRANCH  16  20
BRANCH  17  22
ATOM     22  O   UNL     1       9.194 -18.420   5.018  1.00  0.00    -0.504 OA
ATOM     23  H   UNL     1       8.855 -18.931   4.211  1.00  0.00     0.293 HD
ENDBRANCH  17  22
ENDBRANCH   1  12
BRANCH   2  24
ATOM     24  O   UNL     1      14.456 -14.547   5.117  1.00  0.00    -0.502 OA
ATOM     25  H   UNL     1      15.137 -14.434   5.857  1.00  0.00     0.293 HD
ENDBRANCH   2  24
BRANCH   6  26
ATOM     26  O   UNL     1      13.262  -9.356   5.125  1.00  0.00    -0.507 OA
ATOM     27  H   UNL     1      14.211  -9.686   5.198  1.00  0.00     0.293 HD
ENDBRANCH   6  26
BRANCH   8  28
ATOM     28  O   UNL     1       8.543  -9.576   4.259  1.00  0.00    -0.508 OA
ATOM     29  H   UNL     1       7.924  -9.843   3.503  1.00  0.00     0.293 HD
ENDBRANCH   8  28
TORSDOF 7
ENDMDL
MODEL 5
REMARK VINA RESULT:     2.503      1.384      7.513
REMARK INTER + INTRA:           3.599
REMARK INTER:                   3.166
REMARK INTRA:                   0.433
REMARK UNBOUND:                 0.510
REMARK SMILES O=c1c(O)c(-c2cc(O)c(O)c(O)c2)oc2cc(O)cc(O)c12
REMARK SMILES IDX 5 1 3 2 2 3 1 4 23 5 21 6 20 7 18 8 17 9 16 10 15 11 6 12
REMARK SMILES IDX 7 13 8 14 14 15 10 16 12 17 9 18 11 20 13 22 4 24 22 26
REMARK SMILES IDX 19 28
REMARK H PARENT 9 19 11 21 13 23 4 25 22 27 19 29
REMARK Flexibility Score: inf
ROOT
ATOM      1  C   UNL     1      11.859 -14.414   4.862  1.00  0.00     0.180 A 
ATOM      2  C   UNL     1      13.150 -13.876   4.997  1.00  0.00     0.208 A 
ATOM      3  C   UNL     1      13.314 -12.481   4.966  1.00  0.00     0.238 A 
ATOM      4  O   UNL     1      14.478 -12.009   5.032  1.00  0.00    -0.285 OA
ATOM      5  C   UNL     1      12.182 -11.643   4.818  1.00  0.00     0.111 A 
ATOM      6  C   UNL     1      12.227 -10.217   4.814  1.00  0.00     0.134 A 
ATOM      7  C   UNL     1      11.064  -9.490   4.530  1.00  0.00     0.093 A 
ATOM      8  C   UNL     1       9.845 -10.138   4.313  1.00  0.00     0.123 A 
ATOM      9  C   UNL     1       9.780 -11.527   4.373  1.00  0.00     0.094 A 
ATOM     10  C   UNL     1      10.931 -12.282   4.620  1.00  0.00     0.146 A 
ATOM     11  O   UNL     1      10.826 -13.605   4.658  1.00  0.00    -0.452 OA
ENDROOT
BRANCH   1  12
ATOM     12  C   UNL     1      11.605 -15.872   4.909  1.00  0.00     0.029 A 
ATOM     13  C   UNL     1      10.283 -16.341   4.973  1.00  0.00     0.062 A 
ATOM     14  C   UNL     1      10.014 -17.711   5.040  1.00  0.00     0.162 A 
ATOM     15  C   UNL     1      12.661 -16.798   4.950  1.00  0.00     0.062 A 
ATOM     16  C   UNL     1      11.073 -18.635   5.058  1.00  0.00     0.200 A 
ATOM     17  C   UNL     1      12.400 -18.173   5.018  1.00  0.00     0.162 A 
BRANCH  14  18
ATOM     18  O   UNL     1       8.687 -18.138   5.087  1.00  0.00    -0.504 OA
ATOM     19  H   UNL     1       7.935 -17.528   5.385  1.00  0.00     0.293 HD
ENDBRANCH  14  18
BRANCH  16  20
ATOM     20  O   UNL     1      10.796 -20.001   5.122  1.00  0.00    -0.502 OA
ATOM     21  H   UNL     1      11.310 -20.629   5.729  1.00  0.00     0.293 HD
ENDBRANCH  16  20
BRANCH  17  22
ATOM     22  O   UNL     1      13.456 -19.083   5.050  1.00  0.00    -0.504 OA
ATOM     23  H   UNL     1      13.769 -19.563   4.214  1.00  0.00     0.293 HD
ENDBRANCH  17  22
ENDBRANCH   1  12
BRANCH   2  24
ATOM     24  O   UNL     1      14.256 -14.723   5.120  1.00  0.00    -0.502 OA
ATOM     25  H   UNL     1      14.868 -14.934   4.342  1.00  0.00     0.293 HD
ENDBRANCH   2  24
BRANCH   6  26
ATOM     26  O   UNL     1      13.372  -9.471   5.109  1.00  0.00    -0.507 OA
ATOM     27  H   UNL     1      13.719  -9.294   6.039  1.00  0.00     0.293 HD
ENDBRANCH   6  26
BRANCH   8  28
ATOM     28  O   UNL     1       8.689  -9.407   4.046  1.00  0.00    -0.508 OA
ATOM     29  H   UNL     1       7.832  -9.563   4.563  1.00  0.00     0.293 HD
ENDBRANCH   8  28
TORSDOF 7
ENDMDL
