MODEL 1
REMARK VINA RESULT:    -5.781      0.000      0.000
REMARK INTER + INTRA:          -6.516
REMARK INTER:                  -6.119
REMARK INTRA:                  -0.397
REMARK UNBOUND:                -0.397
REMARK SMILES CC1=C[C@@H]2C(=C(C)CC[C@H]2C(C)C)CC1
REMARK SMILES IDX 1 1 2 2 3 3 4 4 10 5 9 6 8 7 6 8 5 9 14 10 15 11 7 12 11 13
REMARK SMILES IDX 12 14 13 15
REMARK H PARENT
REMARK Flexibility Score: inf
ROOT
ATOM      1  C   UNL     1     109.486 112.885 109.837  1.00  0.00     0.039 C 
ATOM      2  C   UNL     1     110.413 112.487 110.953  1.00  0.00    -0.076 C 
ATOM      3  C   UNL     1     109.913 112.124 112.146  1.00  0.00    -0.020 C 
ATOM      4  C   UNL     1     110.821 111.691 113.288  1.00  0.00     0.041 C 
ATOM      5  C   UNL     1     109.990 110.953 114.408  1.00  0.00     0.003 C 
ATOM      6  C   UNL     1     110.704 109.711 115.007  1.00  0.00     0.009 C 
ATOM      7  C   UNL     1     112.222 109.835 114.959  1.00  0.00     0.031 C 
ATOM      8  C   UNL     1     112.665 109.999 113.530  1.00  0.00    -0.073 C 
ATOM      9  C   UNL     1     112.007 110.882 112.735  1.00  0.00    -0.064 C 
ATOM     10  C   UNL     1     112.490 111.154 111.313  1.00  0.00     0.036 C 
ATOM     11  C   UNL     1     111.904 112.451 110.744  1.00  0.00     0.035 C 
ATOM     12  C   UNL     1     113.811 109.158 113.017  1.00  0.00     0.039 C 
ENDROOT
BRANCH   5  13
ATOM     13  C   UNL     1     109.447 111.902 115.532  1.00  0.00    -0.013 C 
ATOM     14  C   UNL     1     109.311 111.233 116.913  1.00  0.00     0.007 C 
ATOM     15  C   UNL     1     110.255 113.201 115.650  1.00  0.00     0.007 C 
ENDBRANCH   5  13
TORSDOF 1
ENDMDL
MODEL 2
REMARK VINA RESULT:    -5.751      3.095      4.857
REMARK INTER + INTRA:          -6.485
REMARK INTER:                  -6.077
REMARK INTRA:                  -0.407
REMARK UNBOUND:                -0.397
REMARK SMILES CC1=C[C@@H]2C(=C(C)CC[C@H]2C(C)C)CC1
REMARK SMILES IDX 1 1 2 2 3 3 4 4 10 5 9 6 8 7 6 8 5 9 14 10 15 11 7 12 11 13
REMARK SMILES IDX 12 14 13 15
REMARK H PARENT
REMARK Flexibility Score: inf
ROOT
ATOM      1  C   UNL     1     109.493 112.865 104.959  1.00  0.00     0.039 C 
ATOM      2  C   UNL     1     110.413 112.502 106.092  1.00  0.00    -0.076 C 
ATOM      3  C   UNL     1     109.905 112.102 107.270  1.00  0.00    -0.020 C 
ATOM      4  C   UNL     1     110.809 111.703 108.428  1.00  0.00     0.041 C 
ATOM      5  C   UNL     1     109.990 110.914 109.523  1.00  0.00     0.003 C 
ATOM      6  C   UNL     1     110.751 109.702 110.126  1.00  0.00     0.009 C 
ATOM      7  C   UNL     1     112.262 109.901 110.113  1.00  0.00     0.031 C 
ATOM      8  C   UNL     1     112.728 110.102 108.696  1.00  0.00    -0.073 C 
ATOM      9  C   UNL     1     112.045 110.959 107.895  1.00  0.00    -0.064 C 
ATOM     10  C   UNL     1     112.546 111.269 106.487  1.00  0.00     0.036 C 
ATOM     11  C   UNL     1     111.908 112.541 105.917  1.00  0.00     0.035 C 
ATOM     12  C   UNL     1     113.925 109.323 108.201  1.00  0.00     0.039 C 
ENDROOT
BRANCH   5  13
ATOM     13  C   UNL     1     109.376 111.823 110.643  1.00  0.00    -0.013 C 
ATOM     14  C   UNL     1     109.133 111.101 111.981  1.00  0.00     0.007 C 
ATOM     15  C   UNL     1     110.188 113.106 110.873  1.00  0.00     0.007 C 
ENDBRANCH   5  13
TORSDOF 1
ENDMDL
MODEL 3
REMARK VINA RESULT:    -5.741      1.598      3.611
REMARK INTER + INTRA:          -6.474
REMARK INTER:                  -6.067
REMARK INTRA:                  -0.407
REMARK UNBOUND:                -0.397
REMARK SMILES CC1=C[C@@H]2C(=C(C)CC[C@H]2C(C)C)CC1
REMARK SMILES IDX 1 1 2 2 3 3 4 4 10 5 9 6 8 7 6 8 5 9 14 10 15 11 7 12 11 13
REMARK SMILES IDX 12 14 13 15
REMARK H PARENT
REMARK Flexibility Score: inf
ROOT
ATOM      1  C   UNL     1     112.854 109.489 109.826  1.00  0.00     0.039 C 
ATOM      2  C   UNL     1     111.914 109.819 110.952  1.00  0.00    -0.076 C 
ATOM      3  C   UNL     1     112.401 110.185 112.150  1.00  0.00    -0.020 C 
ATOM      4  C   UNL     1     111.477 110.551 113.303  1.00  0.00     0.041 C 
ATOM      5  C   UNL     1     112.276 111.308 114.434  1.00  0.00     0.003 C 
ATOM      6  C   UNL     1     111.504 112.502 115.058  1.00  0.00     0.009 C 
ATOM      7  C   UNL     1     109.994 112.303 115.013  1.00  0.00     0.031 C 
ATOM      8  C   UNL     1     109.553 112.144 113.584  1.00  0.00    -0.073 C 
ATOM      9  C   UNL     1     110.250 111.310 112.770  1.00  0.00    -0.064 C 
ATOM     10  C   UNL     1     109.774 111.040 111.345  1.00  0.00     0.036 C 
ATOM     11  C   UNL     1     110.422 109.785 110.750  1.00  0.00     0.035 C 
ATOM     12  C   UNL     1     108.364 112.936 113.090  1.00  0.00     0.039 C 
ENDROOT
BRANCH   5  13
ATOM     13  C   UNL     1     112.871 110.367 115.538  1.00  0.00    -0.013 C 
ATOM     14  C   UNL     1     113.090 111.050 116.900  1.00  0.00     0.007 C 
ATOM     15  C   UNL     1     112.056 109.079 115.717  1.00  0.00     0.007 C 
ENDBRANCH   5  13
TORSDOF 1
ENDMDL
MODEL 4
REMARK VINA RESULT:    -5.737      3.311      6.077
REMARK INTER + INTRA:          -6.469
REMARK INTER:                  -6.063
REMARK INTRA:                  -0.406
REMARK UNBOUND:                -0.397
REMARK SMILES CC1=C[C@@H]2C(=C(C)CC[C@H]2C(C)C)CC1
REMARK SMILES IDX 1 1 2 2 3 3 4 4 10 5 9 6 8 7 6 8 5 9 14 10 15 11 7 12 11 13
REMARK SMILES IDX 12 14 13 15
REMARK H PARENT
REMARK Flexibility Score: inf
ROOT
ATOM      1  C   UNL     1     112.897 109.472 104.947  1.00  0.00     0.039 C 
ATOM      2  C   UNL     1     111.949 109.801 106.068  1.00  0.00    -0.076 C 
ATOM      3  C   UNL     1     112.427 110.206 107.256  1.00  0.00    -0.020 C 
ATOM      4  C   UNL     1     111.494 110.572 108.402  1.00  0.00     0.041 C 
ATOM      5  C   UNL     1     112.273 111.376 109.516  1.00  0.00     0.003 C 
ATOM      6  C   UNL     1     111.469 112.561 110.114  1.00  0.00     0.009 C 
ATOM      7  C   UNL     1     109.964 112.320 110.076  1.00  0.00     0.031 C 
ATOM      8  C   UNL     1     109.527 112.117 108.651  1.00  0.00    -0.073 C 
ATOM      9  C   UNL     1     110.247 111.285 107.854  1.00  0.00    -0.064 C 
ATOM     10  C   UNL     1     109.777 110.971 106.436  1.00  0.00     0.036 C 
ATOM     11  C   UNL     1     110.459 109.722 105.868  1.00  0.00     0.035 C 
ATOM     12  C   UNL     1     108.317 112.865 108.141  1.00  0.00     0.039 C 
ENDROOT
BRANCH   5  13
ATOM     13  C   UNL     1     112.894 110.476 110.639  1.00  0.00    -0.013 C 
ATOM     14  C   UNL     1     113.075 111.188 111.992  1.00  0.00     0.007 C 
ATOM     15  C   UNL     1     112.129 109.159 110.832  1.00  0.00     0.007 C 
ENDBRANCH   5  13
TORSDOF 1
ENDMDL
MODEL 5
REMARK VINA RESULT:    -5.663      1.332      5.299
REMARK INTER + INTRA:          -6.391
REMARK INTER:                  -6.050
REMARK INTRA:                  -0.341
REMARK UNBOUND:                -0.397
REMARK SMILES CC1=C[C@@H]2C(=C(C)CC[C@H]2C(C)C)CC1
REMARK SMILES IDX 1 1 2 2 3 3 4 4 10 5 9 6 8 7 6 8 5 9 14 10 15 11 7 12 11 13
REMARK SMILES IDX 12 14 13 15
REMARK H PARENT
REMARK Flexibility Score: inf
ROOT
ATOM      1  C   UNL     1     112.518 108.975 116.125  1.00  0.00     0.039 C 
ATOM      2  C   UNL     1     112.091 110.065 115.180  1.00  0.00    -0.076 C 
ATOM      3  C   UNL     1     112.138 109.861 113.853  1.00  0.00    -0.020 C 
ATOM      4  C   UNL     1     111.690 110.934 112.870  1.00  0.00     0.041 C 
ATOM      5  C   UNL     1     111.471 110.315 111.435  1.00  0.00     0.003 C 
ATOM      6  C   UNL     1     110.217 110.859 110.699  1.00  0.00     0.009 C 
ATOM      7  C   UNL     1     109.871 112.284 111.118  1.00  0.00     0.031 C 
ATOM      8  C   UNL     1     109.609 112.319 112.600  1.00  0.00    -0.073 C 
ATOM      9  C   UNL     1     110.472 111.685 113.435  1.00  0.00    -0.064 C 
ATOM     10  C   UNL     1     110.300 111.785 114.948  1.00  0.00     0.036 C 
ATOM     11  C   UNL     1     111.572 111.379 115.700  1.00  0.00     0.035 C 
ATOM     12  C   UNL     1     108.381 113.036 113.110  1.00  0.00     0.039 C 
ENDROOT
BRANCH   5  13
ATOM     13  C   UNL     1     112.742 110.359 110.518  1.00  0.00    -0.013 C 
ATOM     14  C   UNL     1     112.511 109.825 109.092  1.00  0.00     0.007 C 
ATOM     15  C   UNL     1     113.383 111.752 110.464  1.00  0.00     0.007 C 
ENDBRANCH   5  13
TORSDOF 1
ENDMDL
MODEL 6
REMARK VINA RESULT:    -5.662      1.163      4.303
REMARK INTER + INTRA:          -6.390
REMARK INTER:                  -6.062
REMARK INTRA:                  -0.329
REMARK UNBOUND:                -0.397
REMARK SMILES CC1=C[C@@H]2C(=C(C)CC[C@H]2C(C)C)CC1
REMARK SMILES IDX 1 1 2 2 3 3 4 4 10 5 9 6 8 7 6 8 5 9 14 10 15 11 7 12 11 13
REMARK SMILES IDX 12 14 13 15
REMARK H PARENT
REMARK Flexibility Score: inf
ROOT
ATOM      1  C   UNL     1     109.594 113.284 116.022  1.00  0.00     0.039 C 
ATOM      2  C   UNL     1     110.075 112.186 115.113  1.00  0.00    -0.076 C 
ATOM      3  C   UNL     1     110.017 112.342 113.780  1.00  0.00    -0.020 C 
ATOM      4  C   UNL     1     110.519 111.261 112.833  1.00  0.00     0.041 C 
ATOM      5  C   UNL     1     110.704 111.842 111.377  1.00  0.00     0.003 C 
ATOM      6  C   UNL     1     111.984 111.339 110.656  1.00  0.00     0.009 C 
ATOM      7  C   UNL     1     112.404 109.950 111.122  1.00  0.00     0.031 C 
ATOM      8  C   UNL     1     112.669 109.978 112.603  1.00  0.00    -0.073 C 
ATOM      9  C   UNL     1     111.775 110.595 113.419  1.00  0.00    -0.064 C 
ATOM     10  C   UNL     1     111.954 110.555 114.935  1.00  0.00     0.036 C 
ATOM     11  C   UNL     1     110.663 110.919 115.676  1.00  0.00     0.035 C 
ATOM     12  C   UNL     1     113.934 109.344 113.134  1.00  0.00     0.039 C 
ENDROOT
BRANCH   5  13
ATOM     13  C   UNL     1     109.436 111.701 110.466  1.00  0.00    -0.013 C 
ATOM     14  C   UNL     1     109.622 112.240 109.035  1.00  0.00     0.007 C 
ATOM     15  C   UNL     1     108.896 110.264 110.423  1.00  0.00     0.007 C 
ENDBRANCH   5  13
TORSDOF 1
ENDMDL
MODEL 7
REMARK VINA RESULT:    -5.659      3.504      6.877
REMARK INTER + INTRA:          -6.387
REMARK INTER:                  -6.026
REMARK INTRA:                  -0.361
REMARK UNBOUND:                -0.397
REMARK SMILES CC1=C[C@@H]2C(=C(C)CC[C@H]2C(C)C)CC1
REMARK SMILES IDX 1 1 2 2 3 3 4 4 10 5 9 6 8 7 6 8 5 9 14 10 15 11 7 12 11 13
REMARK SMILES IDX 12 14 13 15
REMARK H PARENT
REMARK Flexibility Score: inf
ROOT
ATOM      1  C   UNL     1     109.535 113.056 111.402  1.00  0.00     0.039 C 
ATOM      2  C   UNL     1     110.041 112.042 110.413  1.00  0.00    -0.076 C 
ATOM      3  C   UNL     1     110.001 112.308 109.096  1.00  0.00    -0.020 C 
ATOM      4  C   UNL     1     110.528 111.314 108.071  1.00  0.00     0.041 C 
ATOM      5  C   UNL     1     110.728 112.016 106.671  1.00  0.00     0.003 C 
ATOM      6  C   UNL     1     112.024 111.586 105.931  1.00  0.00     0.009 C 
ATOM      7  C   UNL     1     112.450 110.166 106.287  1.00  0.00     0.031 C 
ATOM      8  C   UNL     1     112.693 110.074 107.769  1.00  0.00    -0.073 C 
ATOM      9  C   UNL     1     111.782 110.612 108.619  1.00  0.00    -0.064 C 
ATOM     10  C   UNL     1     111.938 110.448 110.128  1.00  0.00     0.036 C 
ATOM     11  C   UNL     1     110.633 110.738 110.877  1.00  0.00     0.035 C 
ATOM     12  C   UNL     1     113.957 109.409 108.264  1.00  0.00     0.039 C 
ENDROOT
BRANCH   5  13
ATOM     13  C   UNL     1     109.476 111.940 105.732  1.00  0.00    -0.013 C 
ATOM     14  C   UNL     1     109.718 112.481 104.310  1.00  0.00     0.007 C 
ATOM     15  C   UNL     1     108.872 110.530 105.666  1.00  0.00     0.007 C 
ENDBRANCH   5  13
TORSDOF 1
ENDMDL
MODEL 8
REMARK VINA RESULT:    -5.644      2.323      5.374
REMARK INTER + INTRA:          -6.372
REMARK INTER:                  -5.966
REMARK INTRA:                  -0.406
REMARK UNBOUND:                -0.397
REMARK SMILES CC1=C[C@@H]2C(=C(C)CC[C@H]2C(C)C)CC1
REMARK SMILES IDX 1 1 2 2 3 3 4 4 10 5 9 6 8 7 6 8 5 9 14 10 15 11 7 12 11 13
REMARK SMILES IDX 12 14 13 15
REMARK H PARENT
REMARK Flexibility Score: inf
ROOT
ATOM      1  C   UNL     1     108.787 113.248 112.944  1.00  0.00     0.039 C 
ATOM      2  C   UNL     1     109.331 112.114 112.118  1.00  0.00    -0.076 C 
ATOM      3  C   UNL     1     109.857 112.356 110.907  1.00  0.00    -0.020 C 
ATOM      4  C   UNL     1     110.439 111.234 110.057  1.00  0.00     0.041 C 
ATOM      5  C   UNL     1     111.329 111.825 108.894  1.00  0.00     0.003 C 
ATOM      6  C   UNL     1     112.638 111.031 108.639  1.00  0.00     0.009 C 
ATOM      7  C   UNL     1     112.501 109.555 108.997  1.00  0.00     0.031 C 
ATOM      8  C   UNL     1     112.139 109.425 110.451  1.00  0.00    -0.073 C 
ATOM      9  C   UNL     1     111.159 110.216 110.958  1.00  0.00    -0.064 C 
ATOM     10  C   UNL     1     110.690 110.042 112.400  1.00  0.00     0.036 C 
ATOM     11  C   UNL     1     109.331 110.704 112.647  1.00  0.00     0.035 C 
ATOM     12  C   UNL     1     112.896 108.438 111.309  1.00  0.00     0.039 C 
ENDROOT
BRANCH   5  13
ATOM     13  C   UNL     1     110.547 112.090 107.562  1.00  0.00    -0.013 C 
ATOM     14  C   UNL     1     111.418 112.027 106.294  1.00  0.00     0.007 C 
ATOM     15  C   UNL     1     109.320 111.181 107.406  1.00  0.00     0.007 C 
ENDBRANCH   5  13
TORSDOF 1
ENDMDL
MODEL 9
REMARK VINA RESULT:    -5.629      3.715      7.627
REMARK INTER + INTRA:          -6.355
REMARK INTER:                  -6.055
REMARK INTRA:                  -0.300
REMARK UNBOUND:                -0.397
REMARK SMILES CC1=C[C@@H]2C(=C(C)CC[C@H]2C(C)C)CC1
REMARK SMILES IDX 1 1 2 2 3 3 4 4 10 5 9 6 8 7 6 8 5 9 14 10 15 11 7 12 11 13
REMARK SMILES IDX 12 14 13 15
REMARK H PARENT
REMARK Flexibility Score: inf
ROOT
ATOM      1  C   UNL     1     112.648 108.892 111.119  1.00  0.00     0.039 C 
ATOM      2  C   UNL     1     112.190 110.012 110.225  1.00  0.00    -0.076 C 
ATOM      3  C   UNL     1     112.252 109.876 108.890  1.00  0.00    -0.020 C 
ATOM      4  C   UNL     1     111.773 110.980 107.958  1.00  0.00     0.041 C 
ATOM      5  C   UNL     1     111.585 110.425 106.492  1.00  0.00     0.003 C 
ATOM      6  C   UNL     1     110.317 110.961 105.773  1.00  0.00     0.009 C 
ATOM      7  C   UNL     1     109.919 112.350 106.259  1.00  0.00     0.031 C 
ATOM      8  C   UNL     1     109.647 112.303 107.738  1.00  0.00    -0.073 C 
ATOM      9  C   UNL     1     110.525 111.658 108.549  1.00  0.00    -0.064 C 
ATOM     10  C   UNL     1     110.340 111.678 110.063  1.00  0.00     0.036 C 
ATOM     11  C   UNL     1     111.621 111.280 110.804  1.00  0.00     0.035 C 
ATOM     12  C   UNL     1     108.390 112.950 108.273  1.00  0.00     0.039 C 
ENDROOT
BRANCH   5  13
ATOM     13  C   UNL     1     112.859 110.558 105.589  1.00  0.00    -0.013 C 
ATOM     14  C   UNL     1     112.701 109.957 104.180  1.00  0.00     0.007 C 
ATOM     15  C   UNL     1     113.367 112.004 105.493  1.00  0.00     0.007 C 
ENDBRANCH   5  13
TORSDOF 1
ENDMDL
