MODEL 1
REMARK VINA RESULT:    -5.413      0.000      0.000
REMARK INTER + INTRA:         -11.086
REMARK INTER:                  -9.526
REMARK INTRA:                  -1.560
REMARK UNBOUND:                -1.560
REMARK SMILES CCCCCCC=CCCCCCCCC(=O)[O-]
REMARK SMILES IDX 10 1 11 2 12 3 13 4 14 5 15 6 16 7 17 8 18 9 9 10 8 11 7 12
REMARK SMILES IDX 6 13 5 14 4 15 3 16 2 17 1 18
REMARK H PARENT
REMARK Flexibility Score: inf
ROOT
ATOM      1  C   UNL     1      24.836  11.182  35.967  1.00  0.00     0.004 C 
ENDROOT
BRANCH   1   2
ATOM      2  C   UNL     1      25.992  11.981  35.336  1.00  0.00     0.000 C 
BRANCH   2   3
ATOM      3  C   UNL     1      27.077  11.078  34.723  1.00  0.00     0.000 C 
BRANCH   3   4
ATOM      4  C   UNL     1      28.144  11.873  33.957  1.00  0.00     0.000 C 
BRANCH   4   5
ATOM      5  C   UNL     1      27.574  13.133  33.288  1.00  0.00     0.006 C 
BRANCH   5   6
ATOM      6  C   UNL     1      27.011  12.812  31.900  1.00  0.00     0.053 C 
BRANCH   6   7
ATOM      7  C   UNL     1      28.065  12.189  31.040  1.00  0.00     0.041 C 
ATOM      8  O   UNL     1      29.065  12.862  30.676  1.00  0.00    -0.550 OA
ATOM      9  O   UNL     1      27.917  10.881  30.595  1.00  0.00    -0.550 OA
ENDBRANCH   6   7
ENDBRANCH   5   6
ENDBRANCH   4   5
ENDBRANCH   3   4
ENDBRANCH   2   3
ENDBRANCH   1   2
BRANCH   1  10
ATOM     10  C   UNL     1      23.464  11.869  35.864  1.00  0.00     0.027 C 
BRANCH  10  11
ATOM     11  C   UNL     1      22.427  10.979  35.225  1.00  0.00    -0.031 C 
ATOM     12  C   UNL     1      22.055  11.037  33.932  1.00  0.00    -0.031 C 
BRANCH  12  13
ATOM     13  C   UNL     1      22.539  12.070  32.944  1.00  0.00     0.027 C 
BRANCH  13  14
ATOM     14  C   UNL     1      21.375  12.794  32.245  1.00  0.00     0.004 C 
BRANCH  14  15
ATOM     15  C   UNL     1      20.198  13.159  33.173  1.00  0.00     0.000 C 
BRANCH  15  16
ATOM     16  C   UNL     1      20.504  14.243  34.221  1.00  0.00    -0.000 C 
BRANCH  16  17
ATOM     17  C   UNL     1      20.200  13.791  35.656  1.00  0.00    -0.003 C 
ATOM     18  C   UNL     1      19.124  12.708  35.675  1.00  0.00     0.004 C 
ENDBRANCH  16  17
ENDBRANCH  15  16
ENDBRANCH  14  15
ENDBRANCH  13  14
ENDBRANCH  12  13
ENDBRANCH  10  11
ENDBRANCH   1  10
TORSDOF 13
ENDMDL
MODEL 2
REMARK VINA RESULT:    -5.408      0.875      1.843
REMARK INTER + INTRA:         -11.077
REMARK INTER:                  -9.367
REMARK INTRA:                  -1.710
REMARK UNBOUND:                -1.560
REMARK SMILES CCCCCCC=CCCCCCCCC(=O)[O-]
REMARK SMILES IDX 10 1 11 2 12 3 13 4 14 5 15 6 16 7 17 8 18 9 9 10 8 11 7 12
REMARK SMILES IDX 6 13 5 14 4 15 3 16 2 17 1 18
REMARK H PARENT
REMARK Flexibility Score: inf
ROOT
ATOM      1  C   UNL     1      24.765  11.247  35.890  1.00  0.00     0.004 C 
ENDROOT
BRANCH   1   2
ATOM      2  C   UNL     1      26.090  11.041  35.134  1.00  0.00     0.000 C 
BRANCH   2   3
ATOM      3  C   UNL     1      27.064  12.220  35.306  1.00  0.00     0.000 C 
BRANCH   3   4
ATOM      4  C   UNL     1      27.954  12.436  34.073  1.00  0.00     0.000 C 
BRANCH   4   5
ATOM      5  C   UNL     1      27.326  13.399  33.054  1.00  0.00     0.006 C 
BRANCH   5   6
ATOM      6  C   UNL     1      26.776  12.637  31.844  1.00  0.00     0.053 C 
BRANCH   6   7
ATOM      7  C   UNL     1      27.896  12.055  31.039  1.00  0.00     0.041 C 
ATOM      8  O   UNL     1      27.869  10.843  30.701  1.00  0.00    -0.550 OA
ATOM      9  O   UNL     1      28.995  12.839  30.708  1.00  0.00    -0.550 OA
ENDBRANCH   6   7
ENDBRANCH   5   6
ENDBRANCH   4   5
ENDBRANCH   3   4
ENDBRANCH   2   3
ENDBRANCH   1   2
BRANCH   1  10
ATOM     10  C   UNL     1      23.855  12.329  35.286  1.00  0.00     0.027 C 
BRANCH  10  11
ATOM     11  C   UNL     1      23.315  11.932  33.934  1.00  0.00    -0.031 C 
ATOM     12  C   UNL     1      22.232  11.158  33.735  1.00  0.00    -0.031 C 
BRANCH  12  13
ATOM     13  C   UNL     1      21.447  10.479  34.831  1.00  0.00     0.027 C 
BRANCH  13  14
ATOM     14  C   UNL     1      20.012  11.021  34.938  1.00  0.00     0.004 C 
BRANCH  14  15
ATOM     15  C   UNL     1      19.833  12.167  35.955  1.00  0.00     0.000 C 
BRANCH  15  16
ATOM     16  C   UNL     1      19.404  13.516  35.351  1.00  0.00    -0.000 C 
BRANCH  16  17
ATOM     17  C   UNL     1      20.536  14.215  34.585  1.00  0.00    -0.003 C 
ATOM     18  C   UNL     1      20.249  14.245  33.086  1.00  0.00     0.004 C 
ENDBRANCH  16  17
ENDBRANCH  15  16
ENDBRANCH  14  15
ENDBRANCH  13  14
ENDBRANCH  12  13
ENDBRANCH  10  11
ENDBRANCH   1  10
TORSDOF 13
ENDMDL
MODEL 3
REMARK VINA RESULT:    -5.385      1.189      2.011
REMARK INTER + INTRA:         -11.038
REMARK INTER:                  -9.640
REMARK INTRA:                  -1.399
REMARK UNBOUND:                -1.560
REMARK SMILES CCCCCCC=CCCCCCCCC(=O)[O-]
REMARK SMILES IDX 10 1 11 2 12 3 13 4 14 5 15 6 16 7 17 8 18 9 9 10 8 11 7 12
REMARK SMILES IDX 6 13 5 14 4 15 3 16 2 17 1 18
REMARK H PARENT
REMARK Flexibility Score: inf
ROOT
ATOM      1  C   UNL     1      25.238  12.318  35.687  1.00  0.00     0.004 C 
ENDROOT
BRANCH   1   2
ATOM      2  C   UNL     1      25.866  11.562  34.502  1.00  0.00     0.000 C 
BRANCH   2   3
ATOM      3  C   UNL     1      27.309  11.107  34.782  1.00  0.00     0.000 C 
BRANCH   3   4
ATOM      4  C   UNL     1      28.339  11.842  33.911  1.00  0.00     0.000 C 
BRANCH   4   5
ATOM      5  C   UNL     1      27.690  12.864  32.965  1.00  0.00     0.006 C 
BRANCH   5   6
ATOM      6  C   UNL     1      28.198  12.685  31.531  1.00  0.00     0.053 C 
BRANCH   6   7
ATOM      7  C   UNL     1      27.323  11.731  30.781  1.00  0.00     0.041 C 
ATOM      8  O   UNL     1      26.230  12.122  30.295  1.00  0.00    -0.550 OA
ATOM      9  O   UNL     1      27.690  10.395  30.666  1.00  0.00    -0.550 OA
ENDBRANCH   6   7
ENDBRANCH   5   6
ENDBRANCH   4   5
ENDBRANCH   3   4
ENDBRANCH   2   3
ENDBRANCH   1   2
BRANCH   1  10
ATOM     10  C   UNL     1      23.702  12.260  35.731  1.00  0.00     0.027 C 
BRANCH  10  11
ATOM     11  C   UNL     1      23.121  11.585  34.512  1.00  0.00    -0.031 C 
ATOM     12  C   UNL     1      22.012  10.820  34.513  1.00  0.00    -0.031 C 
BRANCH  12  13
ATOM     13  C   UNL     1      21.236  10.431  35.747  1.00  0.00     0.027 C 
BRANCH  13  14
ATOM     14  C   UNL     1      19.815  11.021  35.749  1.00  0.00     0.004 C 
BRANCH  14  15
ATOM     15  C   UNL     1      19.753  12.542  36.004  1.00  0.00     0.000 C 
BRANCH  15  16
ATOM     16  C   UNL     1      19.317  13.389  34.795  1.00  0.00    -0.000 C 
BRANCH  16  17
ATOM     17  C   UNL     1      20.476  14.175  34.166  1.00  0.00    -0.003 C 
ATOM     18  C   UNL     1      20.235  14.414  32.678  1.00  0.00     0.004 C 
ENDBRANCH  16  17
ENDBRANCH  15  16
ENDBRANCH  14  15
ENDBRANCH  13  14
ENDBRANCH  12  13
ENDBRANCH  10  11
ENDBRANCH   1  10
TORSDOF 13
ENDMDL
MODEL 4
REMARK VINA RESULT:    -5.305      1.082      2.218
REMARK INTER + INTRA:         -10.897
REMARK INTER:                  -9.263
REMARK INTRA:                  -1.634
REMARK UNBOUND:                -1.560
REMARK SMILES CCCCCCC=CCCCCCCCC(=O)[O-]
REMARK SMILES IDX 10 1 11 2 12 3 13 4 14 5 15 6 16 7 17 8 18 9 9 10 8 11 7 12
REMARK SMILES IDX 6 13 5 14 4 15 3 16 2 17 1 18
REMARK H PARENT
REMARK Flexibility Score: inf
ROOT
ATOM      1  C   UNL     1      24.910  11.948  35.940  1.00  0.00     0.004 C 
ENDROOT
BRANCH   1   2
ATOM      2  C   UNL     1      25.769  11.226  34.885  1.00  0.00     0.000 C 
BRANCH   2   3
ATOM      3  C   UNL     1      27.274  11.496  35.056  1.00  0.00     0.000 C 
BRANCH   3   4
ATOM      4  C   UNL     1      27.655  12.948  34.729  1.00  0.00     0.000 C 
BRANCH   4   5
ATOM      5  C   UNL     1      27.365  13.318  33.266  1.00  0.00     0.006 C 
BRANCH   5   6
ATOM      6  C   UNL     1      28.220  12.482  32.308  1.00  0.00     0.053 C 
BRANCH   6   7
ATOM      7  C   UNL     1      27.350  11.755  31.331  1.00  0.00     0.041 C 
ATOM      8  O   UNL     1      27.823  10.816  30.639  1.00  0.00    -0.550 OA
ATOM      9  O   UNL     1      26.031  12.151  31.145  1.00  0.00    -0.550 OA
ENDBRANCH   6   7
ENDBRANCH   5   6
ENDBRANCH   4   5
ENDBRANCH   3   4
ENDBRANCH   2   3
ENDBRANCH   1   2
BRANCH   1  10
ATOM     10  C   UNL     1      23.515  12.361  35.442  1.00  0.00     0.027 C 
BRANCH  10  11
ATOM     11  C   UNL     1      22.556  11.196  35.396  1.00  0.00    -0.031 C 
ATOM     12  C   UNL     1      21.224  11.289  35.570  1.00  0.00    -0.031 C 
BRANCH  12  13
ATOM     13  C   UNL     1      20.492  12.555  35.943  1.00  0.00     0.027 C 
BRANCH  13  14
ATOM     14  C   UNL     1      19.750  13.170  34.744  1.00  0.00     0.004 C 
BRANCH  14  15
ATOM     15  C   UNL     1      20.566  14.213  33.951  1.00  0.00     0.000 C 
BRANCH  15  16
ATOM     16  C   UNL     1      20.468  14.091  32.420  1.00  0.00    -0.000 C 
BRANCH  16  17
ATOM     17  C   UNL     1      20.737  12.667  31.914  1.00  0.00    -0.003 C 
ATOM     18  C   UNL     1      22.232  12.357  31.912  1.00  0.00     0.004 C 
ENDBRANCH  16  17
ENDBRANCH  15  16
ENDBRANCH  14  15
ENDBRANCH  13  14
ENDBRANCH  12  13
ENDBRANCH  10  11
ENDBRANCH   1  10
TORSDOF 13
ENDMDL
MODEL 5
REMARK VINA RESULT:    -5.274      1.363      2.548
REMARK INTER + INTRA:         -10.841
REMARK INTER:                  -8.836
REMARK INTRA:                  -2.006
REMARK UNBOUND:                -1.560
REMARK SMILES CCCCCCC=CCCCCCCCC(=O)[O-]
REMARK SMILES IDX 10 1 11 2 12 3 13 4 14 5 15 6 16 7 17 8 18 9 9 10 8 11 7 12
REMARK SMILES IDX 6 13 5 14 4 15 3 16 2 17 1 18
REMARK H PARENT
REMARK Flexibility Score: inf
ROOT
ATOM      1  C   UNL     1      23.565  11.482  34.574  1.00  0.00     0.004 C 
ENDROOT
BRANCH   1   2
ATOM      2  C   UNL     1      23.669  12.373  35.826  1.00  0.00     0.000 C 
BRANCH   2   3
ATOM      3  C   UNL     1      25.112  12.820  36.121  1.00  0.00     0.000 C 
BRANCH   3   4
ATOM      4  C   UNL     1      26.159  11.909  35.463  1.00  0.00     0.000 C 
BRANCH   4   5
ATOM      5  C   UNL     1      27.483  12.637  35.183  1.00  0.00     0.006 C 
BRANCH   5   6
ATOM      6  C   UNL     1      27.330  13.630  34.027  1.00  0.00     0.053 C 
BRANCH   6   7
ATOM      7  C   UNL     1      27.229  12.903  32.723  1.00  0.00     0.041 C 
ATOM      8  O   UNL     1      26.313  13.188  31.909  1.00  0.00    -0.550 OA
ATOM      9  O   UNL     1      28.114  11.872  32.431  1.00  0.00    -0.550 OA
ENDBRANCH   6   7
ENDBRANCH   5   6
ENDBRANCH   4   5
ENDBRANCH   3   4
ENDBRANCH   2   3
ENDBRANCH   1   2
BRANCH   1  10
ATOM     10  C   UNL     1      23.201  12.241  33.288  1.00  0.00     0.027 C 
BRANCH  10  11
ATOM     11  C   UNL     1      21.945  11.707  32.644  1.00  0.00    -0.031 C 
ATOM     12  C   UNL     1      20.825  12.423  32.431  1.00  0.00    -0.031 C 
BRANCH  12  13
ATOM     13  C   UNL     1      20.611  13.843  32.896  1.00  0.00     0.027 C 
BRANCH  13  14
ATOM     14  C   UNL     1      19.652  13.921  34.096  1.00  0.00     0.004 C 
BRANCH  14  15
ATOM     15  C   UNL     1      20.229  13.368  35.416  1.00  0.00     0.000 C 
BRANCH  15  16
ATOM     16  C   UNL     1      19.342  12.334  36.133  1.00  0.00    -0.000 C 
BRANCH  16  17
ATOM     17  C   UNL     1      19.297  10.981  35.410  1.00  0.00    -0.003 C 
ATOM     18  C   UNL     1      20.494  10.113  35.792  1.00  0.00     0.004 C 
ENDBRANCH  16  17
ENDBRANCH  15  16
ENDBRANCH  14  15
ENDBRANCH  13  14
ENDBRANCH  12  13
ENDBRANCH  10  11
ENDBRANCH   1  10
TORSDOF 13
ENDMDL
MODEL 6
REMARK VINA RESULT:    -5.215      1.089      1.792
REMARK INTER + INTRA:         -10.739
REMARK INTER:                  -9.159
REMARK INTRA:                  -1.580
REMARK UNBOUND:                -1.560
REMARK SMILES CCCCCCC=CCCCCCCCC(=O)[O-]
REMARK SMILES IDX 10 1 11 2 12 3 13 4 14 5 15 6 16 7 17 8 18 9 9 10 8 11 7 12
REMARK SMILES IDX 6 13 5 14 4 15 3 16 2 17 1 18
REMARK H PARENT
REMARK Flexibility Score: inf
ROOT
ATOM      1  C   UNL     1      25.020  12.472  36.050  1.00  0.00     0.004 C 
ENDROOT
BRANCH   1   2
ATOM      2  C   UNL     1      26.037  11.591  35.301  1.00  0.00     0.000 C 
BRANCH   2   3
ATOM      3  C   UNL     1      27.468  12.156  35.353  1.00  0.00     0.000 C 
BRANCH   3   4
ATOM      4  C   UNL     1      28.071  12.366  33.956  1.00  0.00     0.000 C 
BRANCH   4   5
ATOM      5  C   UNL     1      27.299  13.406  33.130  1.00  0.00     0.006 C 
BRANCH   5   6
ATOM      6  C   UNL     1      26.798  12.802  31.814  1.00  0.00     0.053 C 
BRANCH   6   7
ATOM      7  C   UNL     1      27.930  12.175  31.063  1.00  0.00     0.041 C 
ATOM      8  O   UNL     1      28.911  12.874  30.697  1.00  0.00    -0.550 OA
ATOM      9  O   UNL     1      27.876  10.830  30.718  1.00  0.00    -0.550 OA
ENDBRANCH   6   7
ENDBRANCH   5   6
ENDBRANCH   4   5
ENDBRANCH   3   4
ENDBRANCH   2   3
ENDBRANCH   1   2
BRANCH   1  10
ATOM     10  C   UNL     1      23.551  12.171  35.707  1.00  0.00     0.027 C 
BRANCH  10  11
ATOM     11  C   UNL     1      23.352  11.902  34.236  1.00  0.00    -0.031 C 
ATOM     12  C   UNL     1      22.398  12.469  33.472  1.00  0.00    -0.031 C 
BRANCH  12  13
ATOM     13  C   UNL     1      21.314  13.383  33.989  1.00  0.00     0.027 C 
BRANCH  13  14
ATOM     14  C   UNL     1      19.907  12.870  33.638  1.00  0.00     0.004 C 
BRANCH  14  15
ATOM     15  C   UNL     1      18.996  12.612  34.856  1.00  0.00     0.000 C 
BRANCH  15  16
ATOM     16  C   UNL     1      19.633  11.780  35.983  1.00  0.00    -0.000 C 
BRANCH  16  17
ATOM     17  C   UNL     1      19.520  10.267  35.747  1.00  0.00    -0.003 C 
ATOM     18  C   UNL     1      20.898   9.614  35.693  1.00  0.00     0.004 C 
ENDBRANCH  16  17
ENDBRANCH  15  16
ENDBRANCH  14  15
ENDBRANCH  13  14
ENDBRANCH  12  13
ENDBRANCH  10  11
ENDBRANCH   1  10
TORSDOF 13
ENDMDL
MODEL 7
REMARK VINA RESULT:    -5.161      2.499      6.446
REMARK INTER + INTRA:         -10.643
REMARK INTER:                  -8.905
REMARK INTRA:                  -1.739
REMARK UNBOUND:                -1.560
REMARK SMILES CCCCCCC=CCCCCCCCC(=O)[O-]
REMARK SMILES IDX 10 1 11 2 12 3 13 4 14 5 15 6 16 7 17 8 18 9 9 10 8 11 7 12
REMARK SMILES IDX 6 13 5 14 4 15 3 16 2 17 1 18
REMARK H PARENT
REMARK Flexibility Score: inf
ROOT
ATOM      1  C   UNL     1      20.393  11.282  35.602  1.00  0.00     0.004 C 
ENDROOT
BRANCH   1   2
ATOM      2  C   UNL     1      20.039  12.742  35.941  1.00  0.00     0.000 C 
BRANCH   2   3
ATOM      3  C   UNL     1      18.688  13.181  35.348  1.00  0.00     0.000 C 
BRANCH   3   4
ATOM      4  C   UNL     1      18.817  13.704  33.910  1.00  0.00     0.000 C 
BRANCH   4   5
ATOM      5  C   UNL     1      20.240  14.181  33.580  1.00  0.00     0.006 C 
BRANCH   5   6
ATOM      6  C   UNL     1      20.623  13.815  32.143  1.00  0.00     0.053 C 
BRANCH   6   7
ATOM      7  C   UNL     1      21.271  12.467  32.101  1.00  0.00     0.041 C 
ATOM      8  O   UNL     1      20.565  11.425  32.115  1.00  0.00    -0.550 OA
ATOM      9  O   UNL     1      22.656  12.360  32.101  1.00  0.00    -0.550 OA
ENDBRANCH   6   7
ENDBRANCH   5   6
ENDBRANCH   4   5
ENDBRANCH   3   4
ENDBRANCH   2   3
ENDBRANCH   1   2
BRANCH   1  10
ATOM     10  C   UNL     1      21.903  10.991  35.566  1.00  0.00     0.027 C 
BRANCH  10  11
ATOM     11  C   UNL     1      22.728  12.254  35.534  1.00  0.00    -0.031 C 
ATOM     12  C   UNL     1      24.071  12.297  35.617  1.00  0.00    -0.031 C 
BRANCH  12  13
ATOM     13  C   UNL     1      24.957  11.100  35.862  1.00  0.00     0.027 C 
BRANCH  13  14
ATOM     14  C   UNL     1      26.133  11.038  34.872  1.00  0.00     0.004 C 
BRANCH  14  15
ATOM     15  C   UNL     1      25.943  11.884  33.596  1.00  0.00     0.000 C 
BRANCH  15  16
ATOM     16  C   UNL     1      27.067  12.896  33.312  1.00  0.00    -0.000 C 
BRANCH  16  17
ATOM     17  C   UNL     1      27.873  13.264  34.566  1.00  0.00    -0.003 C 
ATOM     18  C   UNL     1      27.334  14.538  35.211  1.00  0.00     0.004 C 
ENDBRANCH  16  17
ENDBRANCH  15  16
ENDBRANCH  14  15
ENDBRANCH  13  14
ENDBRANCH  12  13
ENDBRANCH  10  11
ENDBRANCH   1  10
TORSDOF 13
ENDMDL
MODEL 8
REMARK VINA RESULT:    -5.083      2.967      6.758
REMARK INTER + INTRA:         -10.506
REMARK INTER:                  -8.713
REMARK INTRA:                  -1.792
REMARK UNBOUND:                -1.560
REMARK SMILES CCCCCCC=CCCCCCCCC(=O)[O-]
REMARK SMILES IDX 10 1 11 2 12 3 13 4 14 5 15 6 16 7 17 8 18 9 9 10 8 11 7 12
REMARK SMILES IDX 6 13 5 14 4 15 3 16 2 17 1 18
REMARK H PARENT
REMARK Flexibility Score: inf
ROOT
ATOM      1  C   UNL     1      22.561  11.054  34.460  1.00  0.00     0.004 C 
ENDROOT
BRANCH   1   2
ATOM      2  C   UNL     1      21.765  11.128  35.776  1.00  0.00     0.000 C 
BRANCH   2   3
ATOM      3  C   UNL     1      20.275  11.441  35.555  1.00  0.00     0.000 C 
BRANCH   3   4
ATOM      4  C   UNL     1      19.916  12.890  35.919  1.00  0.00     0.000 C 
BRANCH   4   5
ATOM      5  C   UNL     1      19.363  13.679  34.723  1.00  0.00     0.006 C 
BRANCH   5   6
ATOM      6  C   UNL     1      20.498  14.170  33.817  1.00  0.00     0.053 C 
BRANCH   6   7
ATOM      7  C   UNL     1      20.328  13.636  32.430  1.00  0.00     0.041 C 
ATOM      8  O   UNL     1      20.062  12.420  32.248  1.00  0.00    -0.550 OA
ATOM      9  O   UNL     1      20.515  14.472  31.335  1.00  0.00    -0.550 OA
ENDBRANCH   6   7
ENDBRANCH   5   6
ENDBRANCH   4   5
ENDBRANCH   3   4
ENDBRANCH   2   3
ENDBRANCH   1   2
BRANCH   1  10
ATOM     10  C   UNL     1      23.540  12.220  34.247  1.00  0.00     0.027 C 
BRANCH  10  11
ATOM     11  C   UNL     1      24.248  12.612  35.521  1.00  0.00    -0.031 C 
ATOM     12  C   UNL     1      25.496  12.232  35.855  1.00  0.00    -0.031 C 
BRANCH  12  13
ATOM     13  C   UNL     1      26.345  11.271  35.059  1.00  0.00     0.027 C 
BRANCH  13  14
ATOM     14  C   UNL     1      27.718  11.866  34.705  1.00  0.00     0.004 C 
BRANCH  14  15
ATOM     15  C   UNL     1      27.674  13.008  33.669  1.00  0.00     0.000 C 
BRANCH  15  16
ATOM     16  C   UNL     1      28.123  12.619  32.249  1.00  0.00    -0.000 C 
BRANCH  16  17
ATOM     17  C   UNL     1      26.972  12.085  31.384  1.00  0.00    -0.003 C 
ATOM     18  C   UNL     1      25.773  13.029  31.420  1.00  0.00     0.004 C 
ENDBRANCH  16  17
ENDBRANCH  15  16
ENDBRANCH  14  15
ENDBRANCH  13  14
ENDBRANCH  12  13
ENDBRANCH  10  11
ENDBRANCH   1  10
TORSDOF 13
ENDMDL
MODEL 9
REMARK VINA RESULT:    -5.056      3.716      6.879
REMARK INTER + INTRA:         -10.458
REMARK INTER:                  -8.761
REMARK INTRA:                  -1.697
REMARK UNBOUND:                -1.560
REMARK SMILES CCCCCCC=CCCCCCCCC(=O)[O-]
REMARK SMILES IDX 10 1 11 2 12 3 13 4 14 5 15 6 16 7 17 8 18 9 9 10 8 11 7 12
REMARK SMILES IDX 6 13 5 14 4 15 3 16 2 17 1 18
REMARK H PARENT
REMARK Flexibility Score: inf
ROOT
ATOM      1  C   UNL     1      24.935  12.545  35.918  1.00  0.00     0.004 C 
ENDROOT
BRANCH   1   2
ATOM      2  C   UNL     1      24.427  11.093  35.847  1.00  0.00     0.000 C 
BRANCH   2   3
ATOM      3  C   UNL     1      22.902  11.002  35.662  1.00  0.00     0.000 C 
BRANCH   3   4
ATOM      4  C   UNL     1      22.453  11.418  34.253  1.00  0.00     0.000 C 
BRANCH   4   5
ATOM      5  C   UNL     1      21.614  12.705  34.257  1.00  0.00     0.006 C 
BRANCH   5   6
ATOM      6  C   UNL     1      20.957  12.928  35.623  1.00  0.00     0.053 C 
BRANCH   6   7
ATOM      7  C   UNL     1      19.472  12.772  35.520  1.00  0.00     0.041 C 
ATOM      8  O   UNL     1      18.957  12.281  34.481  1.00  0.00    -0.550 OA
ATOM      9  O   UNL     1      18.653  13.217  36.550  1.00  0.00    -0.550 OA
ENDBRANCH   6   7
ENDBRANCH   5   6
ENDBRANCH   4   5
ENDBRANCH   3   4
ENDBRANCH   2   3
ENDBRANCH   1   2
BRANCH   1  10
ATOM     10  C   UNL     1      26.353  12.747  35.360  1.00  0.00     0.027 C 
BRANCH  10  11
ATOM     11  C   UNL     1      26.902  11.491  34.728  1.00  0.00    -0.031 C 
ATOM     12  C   UNL     1      27.793  11.465  33.718  1.00  0.00    -0.031 C 
BRANCH  12  13
ATOM     13  C   UNL     1      28.302  12.685  32.989  1.00  0.00     0.027 C 
BRANCH  13  14
ATOM     14  C   UNL     1      28.316  12.484  31.464  1.00  0.00     0.004 C 
BRANCH  14  15
ATOM     15  C   UNL     1      27.545  11.241  30.973  1.00  0.00     0.000 C 
BRANCH  15  16
ATOM     16  C   UNL     1      26.328  11.538  30.079  1.00  0.00    -0.000 C 
BRANCH  16  17
ATOM     17  C   UNL     1      25.583  12.817  30.488  1.00  0.00    -0.003 C 
ATOM     18  C   UNL     1      24.750  12.589  31.747  1.00  0.00     0.004 C 
ENDBRANCH  16  17
ENDBRANCH  15  16
ENDBRANCH  14  15
ENDBRANCH  13  14
ENDBRANCH  12  13
ENDBRANCH  10  11
ENDBRANCH   1  10
TORSDOF 13
ENDMDL
