MODEL 1
REMARK VINA RESULT:    -3.583      0.000      0.000
REMARK INTER + INTRA:          -7.543
REMARK INTER:                  -6.515
REMARK INTRA:                  -1.027
REMARK UNBOUND:                -1.027
REMARK SMILES CCCCCCCCCCCCCCCC(=O)[O-]
REMARK SMILES IDX 9 1 10 2 11 3 12 4 13 5 14 6 15 7 16 8 17 9 18 10 8 11 7 12
REMARK SMILES IDX 6 13 5 14 4 15 3 16 2 17 1 18
REMARK H PARENT
REMARK Flexibility Score: inf
ROOT
ATOM      1  C   UNL     1     -20.001   1.325   7.618  1.00  0.00     0.000 C 
ENDROOT
BRANCH   1   2
ATOM      2  C   UNL     1     -21.104   2.392   7.582  1.00  0.00     0.000 C 
BRANCH   2   3
ATOM      3  C   UNL     1     -21.463   2.928   8.981  1.00  0.00     0.000 C 
BRANCH   3   4
ATOM      4  C   UNL     1     -21.879   1.851  10.002  1.00  0.00     0.000 C 
BRANCH   4   5
ATOM      5  C   UNL     1     -20.991   1.761  11.258  1.00  0.00     0.000 C 
BRANCH   5   6
ATOM      6  C   UNL     1     -21.728   1.360  12.552  1.00  0.00     0.006 C 
BRANCH   6   7
ATOM      7  C   UNL     1     -20.814   0.803  13.655  1.00  0.00     0.053 C 
BRANCH   7   8
ATOM      8  C   UNL     1     -21.132  -0.624  13.978  1.00  0.00     0.041 C 
ATOM      9  O   UNL     1     -21.767  -0.910  15.028  1.00  0.00    -0.550 OA
ATOM     10  O   UNL     1     -20.756  -1.636  13.104  1.00  0.00    -0.550 OA
ENDBRANCH   7   8
ENDBRANCH   6   7
ENDBRANCH   5   6
ENDBRANCH   4   5
ENDBRANCH   3   4
ENDBRANCH   2   3
ENDBRANCH   1   2
BRANCH   1  11
ATOM     11  C   UNL     1     -20.372   0.121   6.742  1.00  0.00     0.000 C 
BRANCH  11  12
ATOM     12  C   UNL     1     -20.372  -1.177   7.563  1.00  0.00    -0.000 C 
BRANCH  12  13
ATOM     13  C   UNL     1     -20.343  -0.923   9.079  1.00  0.00    -0.000 C 
BRANCH  13  14
ATOM     14  C   UNL     1     -19.607  -2.033   9.849  1.00  0.00    -0.000 C 
BRANCH  14  15
ATOM     15  C   UNL     1     -20.053  -3.441   9.423  1.00  0.00    -0.000 C 
BRANCH  15  16
ATOM     16  C   UNL     1     -18.924  -4.248   8.761  1.00  0.00    -0.000 C 
BRANCH  16  17
ATOM     17  C   UNL     1     -19.366  -5.691   8.495  1.00  0.00    -0.003 C 
ATOM     18  C   UNL     1     -20.725  -5.978   9.126  1.00  0.00     0.004 C 
ENDBRANCH  16  17
ENDBRANCH  15  16
ENDBRANCH  14  15
ENDBRANCH  13  14
ENDBRANCH  12  13
ENDBRANCH  11  12
ENDBRANCH   1  11
TORSDOF 14
ENDMDL
MODEL 2
REMARK VINA RESULT:    -3.166      1.755      5.788
REMARK INTER + INTRA:          -6.785
REMARK INTER:                  -5.723
REMARK INTRA:                  -1.062
REMARK UNBOUND:                -1.027
REMARK SMILES CCCCCCCCCCCCCCCC(=O)[O-]
REMARK SMILES IDX 9 1 10 2 11 3 12 4 13 5 14 6 15 7 16 8 17 9 18 10 8 11 7 12
REMARK SMILES IDX 6 13 5 14 4 15 3 16 2 17 1 18
REMARK H PARENT
REMARK Flexibility Score: inf
ROOT
ATOM      1  C   UNL     1     -19.738  -0.481   6.980  1.00  0.00     0.000 C 
ENDROOT
BRANCH   1   2
ATOM      2  C   UNL     1     -20.428  -1.720   7.568  1.00  0.00     0.000 C 
BRANCH   2   3
ATOM      3  C   UNL     1     -19.615  -2.378   8.698  1.00  0.00     0.000 C 
BRANCH   3   4
ATOM      4  C   UNL     1     -19.741  -1.693  10.074  1.00  0.00     0.000 C 
BRANCH   4   5
ATOM      5  C   UNL     1     -20.587  -2.458  11.110  1.00  0.00     0.000 C 
BRANCH   5   6
ATOM      6  C   UNL     1     -20.392  -2.007  12.573  1.00  0.00     0.006 C 
BRANCH   6   7
ATOM      7  C   UNL     1     -21.119  -0.703  12.936  1.00  0.00     0.053 C 
BRANCH   7   8
ATOM      8  C   UNL     1     -21.162  -0.479  14.415  1.00  0.00     0.041 C 
ATOM      9  O   UNL     1     -20.138  -0.071  15.026  1.00  0.00    -0.550 OA
ATOM     10  O   UNL     1     -22.343  -0.690  15.117  1.00  0.00    -0.550 OA
ENDBRANCH   7   8
ENDBRANCH   6   7
ENDBRANCH   5   6
ENDBRANCH   4   5
ENDBRANCH   3   4
ENDBRANCH   2   3
ENDBRANCH   1   2
BRANCH   1  11
ATOM     11  C   UNL     1     -20.760   0.617   6.660  1.00  0.00     0.000 C 
BRANCH  11  12
ATOM     12  C   UNL     1     -20.576   1.827   7.588  1.00  0.00    -0.000 C 
BRANCH  12  13
ATOM     13  C   UNL     1     -21.128   1.581   9.002  1.00  0.00    -0.000 C 
BRANCH  13  14
ATOM     14  C   UNL     1     -21.671   2.865   9.655  1.00  0.00    -0.000 C 
BRANCH  14  15
ATOM     15  C   UNL     1     -22.012   3.951   8.623  1.00  0.00    -0.000 C 
BRANCH  15  16
ATOM     16  C   UNL     1     -21.873   5.374   9.188  1.00  0.00    -0.000 C 
BRANCH  16  17
ATOM     17  C   UNL     1     -20.436   5.885   9.036  1.00  0.00    -0.003 C 
ATOM     18  C   UNL     1     -19.766   6.062  10.395  1.00  0.00     0.004 C 
ENDBRANCH  16  17
ENDBRANCH  15  16
ENDBRANCH  14  15
ENDBRANCH  13  14
ENDBRANCH  12  13
ENDBRANCH  11  12
ENDBRANCH   1  11
TORSDOF 14
ENDMDL
MODEL 3
REMARK VINA RESULT:    -2.922      2.560      4.741
REMARK INTER + INTRA:          -6.341
REMARK INTER:                  -5.284
REMARK INTRA:                  -1.057
REMARK UNBOUND:                -1.027
REMARK SMILES CCCCCCCCCCCCCCCC(=O)[O-]
REMARK SMILES IDX 9 1 10 2 11 3 12 4 13 5 14 6 15 7 16 8 17 9 18 10 8 11 7 12
REMARK SMILES IDX 6 13 5 14 4 15 3 16 2 17 1 18
REMARK H PARENT
REMARK Flexibility Score: inf
ROOT
ATOM      1  C   UNL     1     -21.299  -0.876  14.050  1.00  0.00     0.000 C 
ENDROOT
BRANCH   1   2
ATOM      2  C   UNL     1     -20.831   0.460  13.455  1.00  0.00     0.000 C 
BRANCH   2   3
ATOM      3  C   UNL     1     -21.814   1.029  12.415  1.00  0.00     0.000 C 
BRANCH   3   4
ATOM      4  C   UNL     1     -21.201   2.045  11.430  1.00  0.00     0.000 C 
BRANCH   4   5
ATOM      5  C   UNL     1     -21.604   1.851   9.955  1.00  0.00     0.000 C 
BRANCH   5   6
ATOM      6  C   UNL     1     -20.794   0.782   9.192  1.00  0.00     0.006 C 
BRANCH   6   7
ATOM      7  C   UNL     1     -20.418   1.178   7.756  1.00  0.00     0.053 C 
BRANCH   7   8
ATOM      8  C   UNL     1     -20.282  -0.016   6.864  1.00  0.00     0.041 C 
ATOM      9  O   UNL     1     -19.276  -0.139   6.115  1.00  0.00    -0.550 OA
ATOM     10  O   UNL     1     -21.251  -1.012   6.882  1.00  0.00    -0.550 OA
ENDBRANCH   7   8
ENDBRANCH   6   7
ENDBRANCH   5   6
ENDBRANCH   4   5
ENDBRANCH   3   4
ENDBRANCH   2   3
ENDBRANCH   1   2
BRANCH   1  11
ATOM     11  C   UNL     1     -20.777  -2.058  13.225  1.00  0.00     0.000 C 
BRANCH  11  12
ATOM     12  C   UNL     1     -20.103  -1.573  11.932  1.00  0.00    -0.000 C 
BRANCH  12  13
ATOM     13  C   UNL     1     -20.444  -2.451  10.717  1.00  0.00    -0.000 C 
BRANCH  13  14
ATOM     14  C   UNL     1     -19.344  -2.422   9.642  1.00  0.00    -0.000 C 
BRANCH  14  15
ATOM     15  C   UNL     1     -19.614  -3.410   8.496  1.00  0.00    -0.000 C 
BRANCH  15  16
ATOM     16  C   UNL     1     -18.901  -4.757   8.691  1.00  0.00    -0.000 C 
BRANCH  16  17
ATOM     17  C   UNL     1     -19.845  -5.926   8.389  1.00  0.00    -0.003 C 
ATOM     18  C   UNL     1     -21.003  -5.971   9.381  1.00  0.00     0.004 C 
ENDBRANCH  16  17
ENDBRANCH  15  16
ENDBRANCH  14  15
ENDBRANCH  13  14
ENDBRANCH  12  13
ENDBRANCH  11  12
ENDBRANCH   1  11
TORSDOF 14
ENDMDL
MODEL 4
REMARK VINA RESULT:    -2.876      2.917      7.099
REMARK INTER + INTRA:          -6.258
REMARK INTER:                  -5.178
REMARK INTRA:                  -1.080
REMARK UNBOUND:                -1.027
REMARK SMILES CCCCCCCCCCCCCCCC(=O)[O-]
REMARK SMILES IDX 9 1 10 2 11 3 12 4 13 5 14 6 15 7 16 8 17 9 18 10 8 11 7 12
REMARK SMILES IDX 6 13 5 14 4 15 3 16 2 17 1 18
REMARK H PARENT
REMARK Flexibility Score: inf
ROOT
ATOM      1  C   UNL     1     -21.505  -1.009  13.921  1.00  0.00     0.000 C 
ENDROOT
BRANCH   1   2
ATOM      2  C   UNL     1     -20.804  -2.212  13.274  1.00  0.00     0.000 C 
BRANCH   2   3
ATOM      3  C   UNL     1     -20.052  -1.843  11.982  1.00  0.00     0.000 C 
BRANCH   3   4
ATOM      4  C   UNL     1     -20.376  -2.733  10.765  1.00  0.00     0.000 C 
BRANCH   4   5
ATOM      5  C   UNL     1     -19.763  -2.265   9.430  1.00  0.00     0.000 C 
BRANCH   5   6
ATOM      6  C   UNL     1     -20.396  -0.993   8.831  1.00  0.00     0.006 C 
BRANCH   6   7
ATOM      7  C   UNL     1     -20.448  -0.974   7.295  1.00  0.00     0.053 C 
BRANCH   7   8
ATOM      8  C   UNL     1     -20.392   0.419   6.750  1.00  0.00     0.041 C 
ATOM      9  O   UNL     1     -21.169   0.770   5.823  1.00  0.00    -0.550 OA
ATOM     10  O   UNL     1     -19.502   1.341   7.288  1.00  0.00    -0.550 OA
ENDBRANCH   7   8
ENDBRANCH   6   7
ENDBRANCH   5   6
ENDBRANCH   4   5
ENDBRANCH   3   4
ENDBRANCH   2   3
ENDBRANCH   1   2
BRANCH   1  11
ATOM     11  C   UNL     1     -20.530   0.159  14.111  1.00  0.00     0.000 C 
BRANCH  11  12
ATOM     12  C   UNL     1     -21.074   1.441  13.464  1.00  0.00    -0.000 C 
BRANCH  12  13
ATOM     13  C   UNL     1     -21.845   1.170  12.162  1.00  0.00    -0.000 C 
BRANCH  13  14
ATOM     14  C   UNL     1     -21.089   1.661  10.915  1.00  0.00    -0.000 C 
BRANCH  14  15
ATOM     15  C   UNL     1     -22.033   2.184   9.821  1.00  0.00    -0.000 C 
BRANCH  15  16
ATOM     16  C   UNL     1     -21.362   3.212   8.896  1.00  0.00    -0.000 C 
BRANCH  16  17
ATOM     17  C   UNL     1     -22.163   4.518   8.856  1.00  0.00    -0.003 C 
ATOM     18  C   UNL     1     -21.269   5.723   9.134  1.00  0.00     0.004 C 
ENDBRANCH  16  17
ENDBRANCH  15  16
ENDBRANCH  14  15
ENDBRANCH  13  14
ENDBRANCH  12  13
ENDBRANCH  11  12
ENDBRANCH   1  11
TORSDOF 14
ENDMDL
MODEL 5
REMARK VINA RESULT:    -2.844      2.403      5.495
REMARK INTER + INTRA:          -6.199
REMARK INTER:                  -4.949
REMARK INTRA:                  -1.250
REMARK UNBOUND:                -1.027
REMARK SMILES CCCCCCCCCCCCCCCC(=O)[O-]
REMARK SMILES IDX 9 1 10 2 11 3 12 4 13 5 14 6 15 7 16 8 17 9 18 10 8 11 7 12
REMARK SMILES IDX 6 13 5 14 4 15 3 16 2 17 1 18
REMARK H PARENT
REMARK Flexibility Score: inf
ROOT
ATOM      1  C   UNL     1     -20.736   2.295   7.629  1.00  0.00     0.000 C 
ENDROOT
BRANCH   1   2
ATOM      2  C   UNL     1     -19.991   0.975   7.874  1.00  0.00     0.000 C 
BRANCH   2   3
ATOM      3  C   UNL     1     -20.402  -0.136   6.890  1.00  0.00     0.000 C 
BRANCH   3   4
ATOM      4  C   UNL     1     -20.343  -1.566   7.464  1.00  0.00     0.000 C 
BRANCH   4   5
ATOM      5  C   UNL     1     -20.053  -1.654   8.975  1.00  0.00     0.000 C 
BRANCH   5   6
ATOM      6  C   UNL     1     -19.475  -3.002   9.452  1.00  0.00     0.006 C 
BRANCH   6   7
ATOM      7  C   UNL     1     -19.262  -4.032   8.331  1.00  0.00     0.053 C 
BRANCH   7   8
ATOM      8  C   UNL     1     -19.610  -5.419   8.772  1.00  0.00     0.041 C 
ATOM      9  O   UNL     1     -18.701  -6.235   9.079  1.00  0.00    -0.550 OA
ATOM     10  O   UNL     1     -20.942  -5.803   8.875  1.00  0.00    -0.550 OA
ENDBRANCH   7   8
ENDBRANCH   6   7
ENDBRANCH   5   6
ENDBRANCH   4   5
ENDBRANCH   3   4
ENDBRANCH   2   3
ENDBRANCH   1   2
BRANCH   1  11
ATOM     11  C   UNL     1     -21.548   2.705   8.863  1.00  0.00     0.000 C 
BRANCH  11  12
ATOM     12  C   UNL     1     -21.564   1.580   9.910  1.00  0.00    -0.000 C 
BRANCH  12  13
ATOM     13  C   UNL     1     -21.090   2.050  11.295  1.00  0.00    -0.000 C 
BRANCH  13  14
ATOM     14  C   UNL     1     -21.789   1.302  12.443  1.00  0.00    -0.000 C 
BRANCH  14  15
ATOM     15  C   UNL     1     -20.978   1.334  13.748  1.00  0.00    -0.000 C 
BRANCH  15  16
ATOM     16  C   UNL     1     -20.502  -0.059  14.188  1.00  0.00    -0.000 C 
BRANCH  16  17
ATOM     17  C   UNL     1     -21.479  -1.145  13.722  1.00  0.00    -0.003 C 
ATOM     18  C   UNL     1     -20.759  -2.232  12.929  1.00  0.00     0.004 C 
ENDBRANCH  16  17
ENDBRANCH  15  16
ENDBRANCH  14  15
ENDBRANCH  13  14
ENDBRANCH  12  13
ENDBRANCH  11  12
ENDBRANCH   1  11
TORSDOF 14
ENDMDL
MODEL 6
REMARK VINA RESULT:    -2.829      2.429      6.080
REMARK INTER + INTRA:          -6.173
REMARK INTER:                  -4.824
REMARK INTRA:                  -1.349
REMARK UNBOUND:                -1.027
REMARK SMILES CCCCCCCCCCCCCCCC(=O)[O-]
REMARK SMILES IDX 9 1 10 2 11 3 12 4 13 5 14 6 15 7 16 8 17 9 18 10 8 11 7 12
REMARK SMILES IDX 6 13 5 14 4 15 3 16 2 17 1 18
REMARK H PARENT
REMARK Flexibility Score: inf
ROOT
ATOM      1  C   UNL     1     -20.389  -0.093  13.849  1.00  0.00     0.000 C 
ENDROOT
BRANCH   1   2
ATOM      2  C   UNL     1     -21.212  -1.388  13.779  1.00  0.00     0.000 C 
BRANCH   2   3
ATOM      3  C   UNL     1     -20.849  -2.263  12.565  1.00  0.00     0.000 C 
BRANCH   3   4
ATOM      4  C   UNL     1     -19.822  -1.639  11.599  1.00  0.00     0.000 C 
BRANCH   4   5
ATOM      5  C   UNL     1     -19.979  -2.050  10.122  1.00  0.00     0.000 C 
BRANCH   5   6
ATOM      6  C   UNL     1     -19.006  -3.147   9.642  1.00  0.00     0.006 C 
BRANCH   6   7
ATOM      7  C   UNL     1     -19.501  -3.944   8.425  1.00  0.00     0.053 C 
BRANCH   7   8
ATOM      8  C   UNL     1     -19.632  -5.404   8.728  1.00  0.00     0.041 C 
ATOM      9  O   UNL     1     -18.651  -6.177   8.564  1.00  0.00    -0.550 OA
ATOM     10  O   UNL     1     -20.829  -5.907   9.221  1.00  0.00    -0.550 OA
ENDBRANCH   7   8
ENDBRANCH   6   7
ENDBRANCH   5   6
ENDBRANCH   4   5
ENDBRANCH   3   4
ENDBRANCH   2   3
ENDBRANCH   1   2
BRANCH   1  11
ATOM     11  C   UNL     1     -21.290   1.139  13.702  1.00  0.00     0.000 C 
BRANCH  11  12
ATOM     12  C   UNL     1     -21.047   1.842  12.358  1.00  0.00    -0.000 C 
BRANCH  12  13
ATOM     13  C   UNL     1     -22.022   1.384  11.261  1.00  0.00    -0.000 C 
BRANCH  13  14
ATOM     14  C   UNL     1     -21.665   1.955   9.878  1.00  0.00    -0.000 C 
BRANCH  14  15
ATOM     15  C   UNL     1     -20.710   1.041   9.093  1.00  0.00    -0.000 C 
BRANCH  15  16
ATOM     16  C   UNL     1     -20.531   1.482   7.632  1.00  0.00    -0.000 C 
BRANCH  16  17
ATOM     17  C   UNL     1     -20.000   0.330   6.772  1.00  0.00    -0.003 C 
ATOM     18  C   UNL     1     -20.807  -0.945   6.999  1.00  0.00     0.004 C 
ENDBRANCH  16  17
ENDBRANCH  15  16
ENDBRANCH  14  15
ENDBRANCH  13  14
ENDBRANCH  12  13
ENDBRANCH  11  12
ENDBRANCH   1  11
TORSDOF 14
ENDMDL
MODEL 7
REMARK VINA RESULT:    -2.682      3.012      5.491
REMARK INTER + INTRA:          -5.905
REMARK INTER:                  -4.862
REMARK INTRA:                  -1.042
REMARK UNBOUND:                -1.027
REMARK SMILES CCCCCCCCCCCCCCCC(=O)[O-]
REMARK SMILES IDX 9 1 10 2 11 3 12 4 13 5 14 6 15 7 16 8 17 9 18 10 8 11 7 12
REMARK SMILES IDX 6 13 5 14 4 15 3 16 2 17 1 18
REMARK H PARENT
REMARK Flexibility Score: inf
ROOT
ATOM      1  C   UNL     1     -19.872  -2.071   7.437  1.00  0.00     0.000 C 
ENDROOT
BRANCH   1   2
ATOM      2  C   UNL     1     -20.793  -0.849   7.564  1.00  0.00     0.000 C 
BRANCH   2   3
ATOM      3  C   UNL     1     -20.217   0.408   6.887  1.00  0.00     0.000 C 
BRANCH   3   4
ATOM      4  C   UNL     1     -20.438   1.722   7.663  1.00  0.00     0.000 C 
BRANCH   4   5
ATOM      5  C   UNL     1     -21.144   1.568   9.024  1.00  0.00     0.000 C 
BRANCH   5   6
ATOM      6  C   UNL     1     -21.869   2.832   9.530  1.00  0.00     0.006 C 
BRANCH   6   7
ATOM      7  C   UNL     1     -21.865   4.005   8.537  1.00  0.00     0.053 C 
BRANCH   7   8
ATOM      8  C   UNL     1     -21.608   5.313   9.217  1.00  0.00     0.041 C 
ATOM      9  O   UNL     1     -22.411   6.273   9.073  1.00  0.00    -0.550 OA
ATOM     10  O   UNL     1     -20.496   5.463  10.037  1.00  0.00    -0.550 OA
ENDBRANCH   7   8
ENDBRANCH   6   7
ENDBRANCH   5   6
ENDBRANCH   4   5
ENDBRANCH   3   4
ENDBRANCH   2   3
ENDBRANCH   1   2
BRANCH   1  11
ATOM     11  C   UNL     1     -19.613  -2.710   8.807  1.00  0.00     0.000 C 
BRANCH  11  12
ATOM     12  C   UNL     1     -19.969  -1.739   9.943  1.00  0.00    -0.000 C 
BRANCH  12  13
ATOM     13  C   UNL     1     -20.503  -2.456  11.193  1.00  0.00    -0.000 C 
BRANCH  13  14
ATOM     14  C   UNL     1     -20.155  -1.712  12.494  1.00  0.00    -0.000 C 
BRANCH  14  15
ATOM     15  C   UNL     1     -21.229  -1.889  13.579  1.00  0.00    -0.000 C 
BRANCH  15  16
ATOM     16  C   UNL     1     -21.517  -0.591  14.350  1.00  0.00    -0.000 C 
BRANCH  16  17
ATOM     17  C   UNL     1     -20.699   0.575  13.784  1.00  0.00    -0.003 C 
ATOM     18  C   UNL     1     -21.474   1.319  12.701  1.00  0.00     0.004 C 
ENDBRANCH  16  17
ENDBRANCH  15  16
ENDBRANCH  14  15
ENDBRANCH  13  14
ENDBRANCH  12  13
ENDBRANCH  11  12
ENDBRANCH   1  11
TORSDOF 14
ENDMDL
MODEL 8
REMARK VINA RESULT:    -2.666      2.185      5.921
REMARK INTER + INTRA:          -5.875
REMARK INTER:                  -4.656
REMARK INTRA:                  -1.219
REMARK UNBOUND:                -1.027
REMARK SMILES CCCCCCCCCCCCCCCC(=O)[O-]
REMARK SMILES IDX 9 1 10 2 11 3 12 4 13 5 14 6 15 7 16 8 17 9 18 10 8 11 7 12
REMARK SMILES IDX 6 13 5 14 4 15 3 16 2 17 1 18
REMARK H PARENT
REMARK Flexibility Score: inf
ROOT
ATOM      1  C   UNL     1     -20.375   0.061   6.869  1.00  0.00     0.000 C 
ENDROOT
BRANCH   1   2
ATOM      2  C   UNL     1     -20.375  -1.360   7.449  1.00  0.00     0.000 C 
BRANCH   2   3
ATOM      3  C   UNL     1     -20.079  -1.390   8.960  1.00  0.00     0.000 C 
BRANCH   3   4
ATOM      4  C   UNL     1     -19.405  -2.682   9.465  1.00  0.00     0.000 C 
BRANCH   4   5
ATOM      5  C   UNL     1     -19.225  -3.783   8.402  1.00  0.00     0.000 C 
BRANCH   5   6
ATOM      6  C   UNL     1     -19.263  -5.227   8.946  1.00  0.00     0.006 C 
BRANCH   6   7
ATOM      7  C   UNL     1     -20.312  -6.128   8.277  1.00  0.00     0.053 C 
BRANCH   7   8
ATOM      8  C   UNL     1     -21.500  -6.354   9.159  1.00  0.00     0.041 C 
ATOM      9  O   UNL     1     -21.595  -5.754  10.263  1.00  0.00    -0.550 OA
ATOM     10  O   UNL     1     -22.521  -7.202   8.748  1.00  0.00    -0.550 OA
ENDBRANCH   7   8
ENDBRANCH   6   7
ENDBRANCH   5   6
ENDBRANCH   4   5
ENDBRANCH   3   4
ENDBRANCH   2   3
ENDBRANCH   1   2
BRANCH   1  11
ATOM     11  C   UNL     1     -20.087   1.101   7.959  1.00  0.00     0.000 C 
BRANCH  11  12
ATOM     12  C   UNL     1     -21.186   2.173   8.001  1.00  0.00    -0.000 C 
BRANCH  12  13
ATOM     13  C   UNL     1     -21.414   2.735   9.414  1.00  0.00    -0.000 C 
BRANCH  13  14
ATOM     14  C   UNL     1     -22.071   1.712  10.357  1.00  0.00    -0.000 C 
BRANCH  14  15
ATOM     15  C   UNL     1     -21.072   1.104  11.354  1.00  0.00    -0.000 C 
BRANCH  15  16
ATOM     16  C   UNL     1     -21.500   1.295  12.817  1.00  0.00    -0.000 C 
BRANCH  16  17
ATOM     17  C   UNL     1     -21.043   0.114  13.681  1.00  0.00    -0.003 C 
ATOM     18  C   UNL     1     -20.767  -1.120  12.827  1.00  0.00     0.004 C 
ENDBRANCH  16  17
ENDBRANCH  15  16
ENDBRANCH  14  15
ENDBRANCH  13  14
ENDBRANCH  12  13
ENDBRANCH  11  12
ENDBRANCH   1  11
TORSDOF 14
ENDMDL
MODEL 9
REMARK VINA RESULT:    -2.526      1.896      5.354
REMARK INTER + INTRA:          -5.621
REMARK INTER:                  -4.573
REMARK INTRA:                  -1.048
REMARK UNBOUND:                -1.027
REMARK SMILES CCCCCCCCCCCCCCCC(=O)[O-]
REMARK SMILES IDX 9 1 10 2 11 3 12 4 13 5 14 6 15 7 16 8 17 9 18 10 8 11 7 12
REMARK SMILES IDX 6 13 5 14 4 15 3 16 2 17 1 18
REMARK H PARENT
REMARK Flexibility Score: inf
ROOT
ATOM      1  C   UNL     1     -19.703  -2.344   8.664  1.00  0.00     0.000 C 
ENDROOT
BRANCH   1   2
ATOM      2  C   UNL     1     -20.084  -1.360   9.779  1.00  0.00     0.000 C 
BRANCH   2   3
ATOM      3  C   UNL     1     -19.697  -1.866  11.181  1.00  0.00     0.000 C 
BRANCH   3   4
ATOM      4  C   UNL     1     -20.769  -2.727  11.880  1.00  0.00     0.000 C 
BRANCH   4   5
ATOM      5  C   UNL     1     -21.115  -2.300  13.320  1.00  0.00     0.000 C 
BRANCH   5   6
ATOM      6  C   UNL     1     -20.326  -1.084  13.848  1.00  0.00     0.006 C 
BRANCH   6   7
ATOM      7  C   UNL     1     -21.204   0.101  14.280  1.00  0.00     0.053 C 
BRANCH   7   8
ATOM      8  C   UNL     1     -21.186   1.208  13.272  1.00  0.00     0.041 C 
ATOM      9  O   UNL     1     -21.573   0.999  12.092  1.00  0.00    -0.550 OA
ATOM     10  O   UNL     1     -20.771   2.481  13.645  1.00  0.00    -0.550 OA
ENDBRANCH   7   8
ENDBRANCH   6   7
ENDBRANCH   5   6
ENDBRANCH   4   5
ENDBRANCH   3   4
ENDBRANCH   2   3
ENDBRANCH   1   2
BRANCH   1  11
ATOM     11  C   UNL     1     -20.108  -1.800   7.289  1.00  0.00     0.000 C 
BRANCH  11  12
ATOM     12  C   UNL     1     -20.965  -0.533   7.429  1.00  0.00    -0.000 C 
BRANCH  12  13
ATOM     13  C   UNL     1     -20.306   0.705   6.799  1.00  0.00    -0.000 C 
BRANCH  13  14
ATOM     14  C   UNL     1     -20.554   1.985   7.616  1.00  0.00    -0.000 C 
BRANCH  14  15
ATOM     15  C   UNL     1     -21.338   1.716   8.910  1.00  0.00    -0.000 C 
BRANCH  15  16
ATOM     16  C   UNL     1     -21.822   3.005   9.593  1.00  0.00    -0.000 C 
BRANCH  16  17
ATOM     17  C   UNL     1     -21.993   4.135   8.571  1.00  0.00    -0.003 C 
ATOM     18  C   UNL     1     -21.501   5.466   9.133  1.00  0.00     0.004 C 
ENDBRANCH  16  17
ENDBRANCH  15  16
ENDBRANCH  14  15
ENDBRANCH  13  14
ENDBRANCH  12  13
ENDBRANCH  11  12
ENDBRANCH   1  11
TORSDOF 14
ENDMDL
