MODEL 1
REMARK VINA RESULT:    -2.536      0.000      0.000
REMARK INTER + INTRA:          -3.360
REMARK INTER:                  -3.055
REMARK INTRA:                  -0.305
REMARK UNBOUND:                -0.305
REMARK SMILES O=c1c(O)c(-c2ccc(O)c(O)c2)oc2cc(O)cc(O)c12
REMARK SMILES IDX 5 1 3 2 2 3 1 4 22 5 20 6 19 7 17 8 16 9 15 10 14 11 6 12
REMARK SMILES IDX 7 13 8 14 9 15 13 16 11 17 10 18 12 20 4 22 21 24 18 26
REMARK H PARENT 10 19 12 21 4 23 21 25 18 27
REMARK Flexibility Score: inf
ROOT
ATOM      1  C   UNL     1      13.565 -12.849  29.461  1.00  0.00     0.180 A 
ATOM      2  C   UNL     1      13.955 -13.256  28.173  1.00  0.00     0.208 A 
ATOM      3  C   UNL     1      14.696 -14.439  28.028  1.00  0.00     0.238 A 
ATOM      4  O   UNL     1      15.088 -14.770  26.879  1.00  0.00    -0.285 OA
ATOM      5  C   UNL     1      15.026 -15.208  29.170  1.00  0.00     0.111 A 
ATOM      6  C   UNL     1      15.738 -16.445  29.136  1.00  0.00     0.134 A 
ATOM      7  C   UNL     1      16.123 -17.053  30.337  1.00  0.00     0.093 A 
ATOM      8  C   UNL     1      15.763 -16.504  31.571  1.00  0.00     0.123 A 
ATOM      9  C   UNL     1      15.016 -15.330  31.613  1.00  0.00     0.094 A 
ATOM     10  C   UNL     1      14.648 -14.680  30.432  1.00  0.00     0.146 A 
ATOM     11  O   UNL     1      13.945 -13.557  30.517  1.00  0.00    -0.452 OA
ENDROOT
BRANCH   1  12
ATOM     12  C   UNL     1      12.760 -11.628  29.692  1.00  0.00     0.025 A 
ATOM     13  C   UNL     1      13.384 -10.473  30.188  1.00  0.00     0.016 A 
ATOM     14  C   UNL     1      12.640  -9.315  30.432  1.00  0.00     0.051 A 
ATOM     15  C   UNL     1      11.261  -9.299  30.201  1.00  0.00     0.157 A 
ATOM     16  C   UNL     1      11.370 -11.616  29.479  1.00  0.00     0.062 A 
ATOM     17  C   UNL     1      10.621 -10.455  29.725  1.00  0.00     0.158 A 
BRANCH  15  18
ATOM     18  O   UNL     1      10.546  -8.129  30.451  1.00  0.00    -0.504 OA
ATOM     19  H   UNL     1       9.917  -7.726  29.768  1.00  0.00     0.293 HD
ENDBRANCH  15  18
BRANCH  17  20
ATOM     20  O   UNL     1       9.244 -10.450  29.505  1.00  0.00    -0.504 OA
ATOM     21  H   UNL     1       8.823 -10.997  28.762  1.00  0.00     0.293 HD
ENDBRANCH  17  20
ENDBRANCH   1  12
BRANCH   2  22
ATOM     22  O   UNL     1      13.637 -12.471  27.062  1.00  0.00    -0.502 OA
ATOM     23  H   UNL     1      14.066 -12.612  26.155  1.00  0.00     0.293 HD
ENDBRANCH   2  22
BRANCH   6  24
ATOM     24  O   UNL     1      16.068 -17.124  27.960  1.00  0.00    -0.507 OA
ATOM     25  H   UNL     1      16.552 -16.714  27.176  1.00  0.00     0.293 HD
ENDBRANCH   6  24
BRANCH   8  26
ATOM     26  O   UNL     1      16.135 -17.125  32.761  1.00  0.00    -0.508 OA
ATOM     27  H   UNL     1      16.548 -16.602  33.524  1.00  0.00     0.293 HD
ENDBRANCH   8  26
TORSDOF 6
ENDMDL
MODEL 2
REMARK VINA RESULT:    -0.608      9.904     14.290
REMARK INTER + INTRA:          -1.037
REMARK INTER:                  -0.794
REMARK INTRA:                  -0.243
REMARK UNBOUND:                -0.305
REMARK SMILES O=c1c(O)c(-c2ccc(O)c(O)c2)oc2cc(O)cc(O)c12
REMARK SMILES IDX 5 1 3 2 2 3 1 4 22 5 20 6 19 7 17 8 16 9 15 10 14 11 6 12
REMARK SMILES IDX 7 13 8 14 9 15 13 16 11 17 10 18 12 20 4 22 21 24 18 26
REMARK H PARENT 10 19 12 21 4 23 21 25 18 27
REMARK Flexibility Score: inf
ROOT
ATOM      1  C   UNL     1      15.670  -1.756  26.844  1.00  0.00     0.180 A 
ATOM      2  C   UNL     1      15.798  -1.172  28.116  1.00  0.00     0.208 A 
ATOM      3  C   UNL     1      15.576   0.207  28.257  1.00  0.00     0.238 A 
ATOM      4  O   UNL     1      15.744   0.734  29.388  1.00  0.00    -0.285 OA
ATOM      5  C   UNL     1      15.213   0.981  27.128  1.00  0.00     0.111 A 
ATOM      6  C   UNL     1      14.924   2.379  27.164  1.00  0.00     0.134 A 
ATOM      7  C   UNL     1      14.704   3.069  25.965  1.00  0.00     0.093 A 
ATOM      8  C   UNL     1      14.697   2.399  24.739  1.00  0.00     0.123 A 
ATOM      9  C   UNL     1      14.919   1.024  24.701  1.00  0.00     0.094 A 
ATOM     10  C   UNL     1      15.177   0.314  25.877  1.00  0.00     0.146 A 
ATOM     11  O   UNL     1      15.394  -0.993  25.794  1.00  0.00    -0.452 OA
ENDROOT
BRANCH   1  12
ATOM     12  C   UNL     1      15.865  -3.207  26.620  1.00  0.00     0.025 A 
ATOM     13  C   UNL     1      17.163  -3.740  26.625  1.00  0.00     0.016 A 
ATOM     14  C   UNL     1      17.371  -5.102  26.396  1.00  0.00     0.051 A 
ATOM     15  C   UNL     1      16.288  -5.950  26.142  1.00  0.00     0.157 A 
ATOM     16  C   UNL     1      14.778  -4.057  26.345  1.00  0.00     0.062 A 
ATOM     17  C   UNL     1      14.985  -5.425  26.113  1.00  0.00     0.158 A 
BRANCH  15  18
ATOM     18  O   UNL     1      16.525  -7.305  25.920  1.00  0.00    -0.504 OA
ATOM     19  H   UNL     1      17.220  -7.628  25.258  1.00  0.00     0.293 HD
ENDBRANCH  15  18
BRANCH  17  20
ATOM     20  O   UNL     1      13.901  -6.263  25.847  1.00  0.00    -0.504 OA
ATOM     21  H   UNL     1      13.011  -5.894  25.531  1.00  0.00     0.293 HD
ENDBRANCH  17  20
ENDBRANCH   1  12
BRANCH   2  22
ATOM     22  O   UNL     1      16.177  -1.951  29.213  1.00  0.00    -0.502 OA
ATOM     23  H   UNL     1      17.105  -2.348  29.303  1.00  0.00     0.293 HD
ENDBRANCH   2  22
BRANCH   6  24
ATOM     24  O   UNL     1      14.817   3.125  28.341  1.00  0.00    -0.507 OA
ATOM     25  H   UNL     1      13.998   3.152  28.931  1.00  0.00     0.293 HD
ENDBRANCH   6  24
BRANCH   8  26
ATOM     26  O   UNL     1      14.461   3.089  23.553  1.00  0.00    -0.508 OA
ATOM     27  H   UNL     1      13.531   3.159  23.157  1.00  0.00     0.293 HD
ENDBRANCH   8  26
TORSDOF 6
ENDMDL
MODEL 3
REMARK VINA RESULT:     0.088      1.185      2.956
REMARK INTER + INTRA:          -0.199
REMARK INTER:                   0.102
REMARK INTRA:                  -0.301
REMARK UNBOUND:                -0.305
REMARK SMILES O=c1c(O)c(-c2ccc(O)c(O)c2)oc2cc(O)cc(O)c12
REMARK SMILES IDX 5 1 3 2 2 3 1 4 22 5 20 6 19 7 17 8 16 9 15 10 14 11 6 12
REMARK SMILES IDX 7 13 8 14 9 15 13 16 11 17 10 18 12 20 4 22 21 24 18 26
REMARK H PARENT 10 19 12 21 4 23 21 25 18 27
REMARK Flexibility Score: inf
ROOT
ATOM      1  C   UNL     1      13.613 -12.877  29.644  1.00  0.00     0.180 A 
ATOM      2  C   UNL     1      13.948 -13.709  30.726  1.00  0.00     0.208 A 
ATOM      3  C   UNL     1      14.721 -14.857  30.489  1.00  0.00     0.238 A 
ATOM      4  O   UNL     1      14.973 -15.626  31.453  1.00  0.00    -0.285 OA
ATOM      5  C   UNL     1      15.162 -15.150  29.175  1.00  0.00     0.111 A 
ATOM      6  C   UNL     1      15.983 -16.264  28.827  1.00  0.00     0.134 A 
ATOM      7  C   UNL     1      16.250 -16.530  27.478  1.00  0.00     0.093 A 
ATOM      8  C   UNL     1      15.779 -15.683  26.470  1.00  0.00     0.123 A 
ATOM      9  C   UNL     1      15.026 -14.561  26.806  1.00  0.00     0.094 A 
ATOM     10  C   UNL     1      14.714 -14.289  28.141  1.00  0.00     0.146 A 
ATOM     11  O   UNL     1      13.985 -13.214  28.416  1.00  0.00    -0.452 OA
ENDROOT
BRANCH   1  12
ATOM     12  C   UNL     1      12.823 -11.637  29.819  1.00  0.00     0.025 A 
ATOM     13  C   UNL     1      13.457 -10.471  30.274  1.00  0.00     0.016 A 
ATOM     14  C   UNL     1      12.726  -9.296  30.465  1.00  0.00     0.051 A 
ATOM     15  C   UNL     1      11.350  -9.272  30.221  1.00  0.00     0.157 A 
ATOM     16  C   UNL     1      11.434 -11.616  29.593  1.00  0.00     0.062 A 
ATOM     17  C   UNL     1      10.699 -10.437  29.786  1.00  0.00     0.158 A 
BRANCH  15  18
ATOM     18  O   UNL     1      10.647  -8.084  30.418  1.00  0.00    -0.504 OA
ATOM     19  H   UNL     1       9.983  -7.970  31.174  1.00  0.00     0.293 HD
ENDBRANCH  15  18
BRANCH  17  20
ATOM     20  O   UNL     1       9.323 -10.424  29.554  1.00  0.00    -0.504 OA
ATOM     21  H   UNL     1       8.944 -10.342  28.618  1.00  0.00     0.293 HD
ENDBRANCH  17  20
ENDBRANCH   1  12
BRANCH   2  22
ATOM     22  O   UNL     1      13.485 -13.412  32.011  1.00  0.00    -0.502 OA
ATOM     23  H   UNL     1      12.744 -13.939  32.458  1.00  0.00     0.293 HD
ENDBRANCH   2  22
BRANCH   6  24
ATOM     24  O   UNL     1      16.579 -17.118  29.759  1.00  0.00    -0.507 OA
ATOM     25  H   UNL     1      16.843 -16.851  30.696  1.00  0.00     0.293 HD
ENDBRANCH   6  24
BRANCH   8  26
ATOM     26  O   UNL     1      16.062 -15.945  25.132  1.00  0.00    -0.508 OA
ATOM     27  H   UNL     1      15.858 -16.845  24.714  1.00  0.00     0.293 HD
ENDBRANCH   8  26
TORSDOF 6
ENDMDL
MODEL 4
REMARK VINA RESULT:     0.452     15.916     17.992
REMARK INTER + INTRA:           0.240
REMARK INTER:                  -0.144
REMARK INTRA:                   0.384
REMARK UNBOUND:                -0.305
REMARK SMILES O=c1c(O)c(-c2ccc(O)c(O)c2)oc2cc(O)cc(O)c12
REMARK SMILES IDX 5 1 3 2 2 3 1 4 22 5 20 6 19 7 17 8 16 9 15 10 14 11 6 12
REMARK SMILES IDX 7 13 8 14 9 15 13 16 11 17 10 18 12 20 4 22 21 24 18 26
REMARK H PARENT 10 19 12 21 4 23 21 25 18 27
REMARK Flexibility Score: inf
ROOT
ATOM      1  C   UNL     1       5.520  -6.986  15.192  1.00  0.00     0.180 A 
ATOM      2  C   UNL     1       5.619  -7.285  16.562  1.00  0.00     0.208 A 
ATOM      3  C   UNL     1       5.764  -8.623  16.959  1.00  0.00     0.238 A 
ATOM      4  O   UNL     1       5.799  -8.889  18.188  1.00  0.00    -0.285 OA
ATOM      5  C   UNL     1       5.823  -9.645  15.980  1.00  0.00     0.111 A 
ATOM      6  C   UNL     1       6.009 -11.031  16.267  1.00  0.00     0.134 A 
ATOM      7  C   UNL     1       5.921 -11.969  15.231  1.00  0.00     0.093 A 
ATOM      8  C   UNL     1       5.720 -11.564  13.909  1.00  0.00     0.123 A 
ATOM      9  C   UNL     1       5.597 -10.209  13.612  1.00  0.00     0.094 A 
ATOM     10  C   UNL     1       5.645  -9.252  14.629  1.00  0.00     0.146 A 
ATOM     11  O   UNL     1       5.513  -7.972  14.303  1.00  0.00    -0.452 OA
ENDROOT
BRANCH   1  12
ATOM     12  C   UNL     1       5.391  -5.597  14.695  1.00  0.00     0.025 A 
ATOM     13  C   UNL     1       4.985  -5.372  13.371  1.00  0.00     0.016 A 
ATOM     14  C   UNL     1       4.876  -4.070  12.875  1.00  0.00     0.051 A 
ATOM     15  C   UNL     1       5.187  -2.976  13.689  1.00  0.00     0.157 A 
ATOM     16  C   UNL     1       5.722  -4.496  15.505  1.00  0.00     0.062 A 
ATOM     17  C   UNL     1       5.614  -3.188  15.009  1.00  0.00     0.158 A 
BRANCH  15  18
ATOM     18  O   UNL     1       5.066  -1.688  13.168  1.00  0.00    -0.504 OA
ATOM     19  H   UNL     1       4.971  -1.516  12.175  1.00  0.00     0.293 HD
ENDBRANCH  15  18
BRANCH  17  20
ATOM     20  O   UNL     1       5.939  -2.102  15.822  1.00  0.00    -0.504 OA
ATOM     21  H   UNL     1       6.016  -2.196  16.828  1.00  0.00     0.293 HD
ENDBRANCH  17  20
ENDBRANCH   1  12
BRANCH   2  22
ATOM     22  O   UNL     1       5.537  -6.262  17.511  1.00  0.00    -0.502 OA
ATOM     23  H   UNL     1       4.817  -5.551  17.484  1.00  0.00     0.293 HD
ENDBRANCH   2  22
BRANCH   6  24
ATOM     24  O   UNL     1       6.306 -11.533  17.538  1.00  0.00    -0.507 OA
ATOM     25  H   UNL     1       5.866 -12.340  17.954  1.00  0.00     0.293 HD
ENDBRANCH   6  24
BRANCH   8  26
ATOM     26  O   UNL     1       5.650 -12.501  12.881  1.00  0.00    -0.508 OA
ATOM     27  H   UNL     1       6.392 -13.174  12.726  1.00  0.00     0.293 HD
ENDBRANCH   8  26
TORSDOF 6
ENDMDL
