MODEL 1
REMARK VINA RESULT:    13.898      0.000      0.000
REMARK INTER + INTRA:          21.294
REMARK INTER:                  19.179
REMARK INTRA:                   2.115
REMARK UNBOUND:                 2.115
REMARK SMILES O=C([O-])[C@H]1O[C@@H](Oc2cc3oc(-c4ccccc4)cc(=O)c3c(O)c2O)[C@@H](O)[C@H](O)[C@@H]1O
REMARK SMILES IDX 7 1 6 2 4 3 31 4 5 5 29 6 27 7 2 8 1 9 3 10 32 11 30 13
REMARK SMILES IDX 28 15 8 17 25 18 9 19 23 20 10 21 22 22 11 23 20 24 12 25
REMARK SMILES IDX 19 26 21 27 26 28 24 30 13 32 14 33 18 34 15 35 17 36 16 37
REMARK H PARENT 32 12 30 14 28 16 26 29 24 31
REMARK Flexibility Score: inf
ROOT
ATOM      1  O   UNL     1      -3.684 -14.106 -12.732  1.00  0.00    -0.458 OA
ENDROOT
BRANCH   1   2
ATOM      2  C   UNL     1      -4.098 -15.068 -13.707  1.00  0.00     0.339 C 
ATOM      3  C   UNL     1      -3.159 -13.936 -15.589  1.00  0.00     0.199 C 
ATOM      4  C   UNL     1      -4.553 -13.525 -16.126  1.00  0.00     0.180 C 
ATOM      5  O   UNL     1      -3.190 -15.125 -14.804  1.00  0.00    -0.328 OA
ATOM      6  C   UNL     1      -5.585 -13.472 -14.984  1.00  0.00     0.181 C 
ATOM      7  C   UNL     1      -5.538 -14.782 -14.176  1.00  0.00     0.214 C 
BRANCH   3   8
ATOM      8  C   UNL     1      -2.388 -12.830 -14.907  1.00  0.00     0.073 C 
ATOM      9  O   UNL     1      -2.390 -12.703 -13.654  1.00  0.00    -0.547 OA
ATOM     10  O   UNL     1      -1.661 -11.933 -15.679  1.00  0.00    -0.547 OA
ENDBRANCH   3   8
BRANCH   4  11
ATOM     11  O   UNL     1      -4.952 -14.463 -17.097  1.00  0.00    -0.387 OA
ATOM     12  H   UNL     1      -5.945 -14.492 -17.088  1.00  0.00     0.211 HD
ENDBRANCH   4  11
BRANCH   6  13
ATOM     13  O   UNL     1      -6.879 -13.211 -15.474  1.00  0.00    -0.387 OA
ATOM     14  H   UNL     1      -7.276 -14.070 -15.771  1.00  0.00     0.211 HD
ENDBRANCH   6  13
BRANCH   7  15
ATOM     15  O   UNL     1      -6.428 -14.747 -13.088  1.00  0.00    -0.384 OA
ATOM     16  H   UNL     1      -5.934 -15.035 -12.277  1.00  0.00     0.211 HD
ENDBRANCH   7  15
ENDBRANCH   1   2
BRANCH   1  17
ATOM     17  C   UNL     1      -2.876 -14.322 -11.599  1.00  0.00     0.172 A 
ATOM     18  C   UNL     1      -1.468 -14.486 -11.634  1.00  0.00     0.201 A 
ATOM     19  C   UNL     1      -3.540 -14.356 -10.372  1.00  0.00     0.098 A 
ATOM     20  C   UNL     1      -0.755 -14.710 -10.425  1.00  0.00     0.176 A 
ATOM     21  C   UNL     1      -2.849 -14.543  -9.180  1.00  0.00     0.146 A 
ATOM     22  C   UNL     1      -1.449 -14.720  -9.191  1.00  0.00     0.111 A 
ATOM     23  O   UNL     1      -3.528 -14.556  -8.037  1.00  0.00    -0.456 OA
ATOM     24  C   UNL     1      -0.809 -14.903  -7.944  1.00  0.00     0.197 A 
ATOM     25  C   UNL     1      -2.957 -14.735  -6.848  1.00  0.00     0.138 A 
ATOM     26  C   UNL     1      -1.566 -14.909  -6.773  1.00  0.00     0.100 A 
ATOM     27  O   UNL     1       0.439 -15.057  -7.860  1.00  0.00    -0.289 OA
BRANCH  18  28
ATOM     28  O   UNL     1      -0.801 -14.411 -12.859  1.00  0.00    -0.502 OA
ATOM     29  H   UNL     1      -0.530 -15.205 -13.418  1.00  0.00     0.293 HD
ENDBRANCH  18  28
BRANCH  20  30
ATOM     30  O   UNL     1       0.627 -14.934 -10.423  1.00  0.00    -0.504 OA
ATOM     31  H   UNL     1       1.328 -14.210 -10.365  1.00  0.00     0.293 HD
ENDBRANCH  20  30
BRANCH  25  32
ATOM     32  C   UNL     1      -3.814 -14.729  -5.637  1.00  0.00     0.017 A 
ATOM     33  C   UNL     1      -5.204 -14.910  -5.771  1.00  0.00     0.012 A 
ATOM     34  C   UNL     1      -3.273 -14.578  -4.344  1.00  0.00     0.012 A 
ATOM     35  C   UNL     1      -6.033 -14.916  -4.645  1.00  0.00     0.001 A 
ATOM     36  C   UNL     1      -4.106 -14.587  -3.222  1.00  0.00     0.001 A 
ATOM     37  C   UNL     1      -5.485 -14.752  -3.372  1.00  0.00     0.000 A 
ENDBRANCH  25  32
ENDBRANCH   1  17
TORSDOF 9
ENDMDL
