MODEL 1
REMARK VINA RESULT:    -5.303      0.000      0.000
REMARK INTER + INTRA:         -11.999
REMARK INTER:                  -9.642
REMARK INTRA:                  -2.356
REMARK UNBOUND:                -2.356
REMARK SMILES CCCCCCCCCCCCCC[C@@H](C)C(=O)[O-]
REMARK SMILES IDX 9 1 10 2 11 3 12 4 13 5 14 6 15 7 16 8 17 9 18 10 19 11 8 12
REMARK SMILES IDX 7 13 6 14 5 15 4 16 3 17 2 18 1 19
REMARK H PARENT
REMARK Flexibility Score: inf
ROOT
ATOM      1  C   UNL     1     -18.145  56.401  -3.518  1.00  0.00     0.000 C 
ENDROOT
BRANCH   1   2
ATOM      2  C   UNL     1     -16.929  55.528  -3.170  1.00  0.00     0.000 C 
BRANCH   2   3
ATOM      3  C   UNL     1     -17.319  54.404  -2.203  1.00  0.00     0.000 C 
BRANCH   3   4
ATOM      4  C   UNL     1     -16.282  54.262  -1.077  1.00  0.00     0.000 C 
BRANCH   4   5
ATOM      5  C   UNL     1     -16.860  54.619   0.303  1.00  0.00     0.001 C 
BRANCH   5   6
ATOM      6  C   UNL     1     -18.308  55.141   0.213  1.00  0.00     0.009 C 
BRANCH   6   7
ATOM      7  C   UNL     1     -18.419  56.681   0.162  1.00  0.00     0.032 C 
ATOM      8  C   UNL     1     -19.649  57.207   0.917  1.00  0.00     0.014 C 
BRANCH   7   9
ATOM      9  C   UNL     1     -17.137  57.336   0.610  1.00  0.00     0.044 C 
ATOM     10  O   UNL     1     -16.908  57.540   1.843  1.00  0.00    -0.550 OA
ATOM     11  O   UNL     1     -16.172  57.675  -0.342  1.00  0.00    -0.550 OA
ENDBRANCH   7   9
ENDBRANCH   6   7
ENDBRANCH   5   6
ENDBRANCH   4   5
ENDBRANCH   3   4
ENDBRANCH   2   3
ENDBRANCH   1   2
BRANCH   1  12
ATOM     12  C   UNL     1     -19.480  55.689  -3.254  1.00  0.00     0.000 C 
BRANCH  12  13
ATOM     13  C   UNL     1     -20.677  56.654  -3.277  1.00  0.00    -0.000 C 
BRANCH  13  14
ATOM     14  C   UNL     1     -22.018  55.949  -3.011  1.00  0.00    -0.000 C 
BRANCH  14  15
ATOM     15  C   UNL     1     -22.285  55.680  -1.514  1.00  0.00    -0.000 C 
BRANCH  15  16
ATOM     16  C   UNL     1     -22.644  54.211  -1.242  1.00  0.00    -0.000 C 
BRANCH  16  17
ATOM     17  C   UNL     1     -21.493  53.487  -0.536  1.00  0.00    -0.000 C 
BRANCH  17  18
ATOM     18  C   UNL     1     -20.669  52.656  -1.527  1.00  0.00    -0.003 C 
ATOM     19  C   UNL     1     -19.758  51.667  -0.802  1.00  0.00     0.004 C 
ENDBRANCH  17  18
ENDBRANCH  16  17
ENDBRANCH  15  16
ENDBRANCH  14  15
ENDBRANCH  13  14
ENDBRANCH  12  13
ENDBRANCH   1  12
TORSDOF 14
ENDMDL
MODEL 2
REMARK VINA RESULT:    -5.149      3.238      5.396
REMARK INTER + INTRA:         -11.719
REMARK INTER:                  -9.014
REMARK INTRA:                  -2.705
REMARK UNBOUND:                -2.356
REMARK SMILES CCCCCCCCCCCCCC[C@@H](C)C(=O)[O-]
REMARK SMILES IDX 9 1 10 2 11 3 12 4 13 5 14 6 15 7 16 8 17 9 18 10 19 11 8 12
REMARK SMILES IDX 7 13 6 14 5 15 4 16 3 17 2 18 1 19
REMARK H PARENT
REMARK Flexibility Score: inf
ROOT
ATOM      1  C   UNL     1     -20.768  56.391  -3.566  1.00  0.00     0.000 C 
ENDROOT
BRANCH   1   2
ATOM      2  C   UNL     1     -21.655  56.271  -2.316  1.00  0.00     0.000 C 
BRANCH   2   3
ATOM      3  C   UNL     1     -22.748  55.215  -2.518  1.00  0.00     0.000 C 
BRANCH   3   4
ATOM      4  C   UNL     1     -22.470  53.965  -1.668  1.00  0.00     0.000 C 
BRANCH   4   5
ATOM      5  C   UNL     1     -21.972  54.313  -0.255  1.00  0.00     0.001 C 
BRANCH   5   6
ATOM      6  C   UNL     1     -23.101  54.251   0.794  1.00  0.00     0.009 C 
BRANCH   6   7
ATOM      7  C   UNL     1     -23.612  55.635   1.252  1.00  0.00     0.032 C 
ATOM      8  C   UNL     1     -22.495  56.689   1.293  1.00  0.00     0.014 C 
BRANCH   7   9
ATOM      9  C   UNL     1     -24.798  56.077   0.433  1.00  0.00     0.044 C 
ATOM     10  O   UNL     1     -24.921  57.287   0.066  1.00  0.00    -0.550 OA
ATOM     11  O   UNL     1     -25.745  55.130   0.033  1.00  0.00    -0.550 OA
ENDBRANCH   7   9
ENDBRANCH   6   7
ENDBRANCH   5   6
ENDBRANCH   4   5
ENDBRANCH   3   4
ENDBRANCH   2   3
ENDBRANCH   1   2
BRANCH   1  12
ATOM     12  C   UNL     1     -19.285  56.602  -3.221  1.00  0.00     0.000 C 
BRANCH  12  13
ATOM     13  C   UNL     1     -18.397  55.447  -3.711  1.00  0.00    -0.000 C 
BRANCH  13  14
ATOM     14  C   UNL     1     -18.870  54.073  -3.204  1.00  0.00    -0.000 C 
BRANCH  14  15
ATOM     15  C   UNL     1     -18.471  53.788  -1.739  1.00  0.00    -0.000 C 
BRANCH  15  16
ATOM     16  C   UNL     1     -17.069  54.320  -1.405  1.00  0.00    -0.000 C 
BRANCH  16  17
ATOM     17  C   UNL     1     -17.115  55.266  -0.200  1.00  0.00    -0.000 C 
BRANCH  17  18
ATOM     18  C   UNL     1     -18.556  55.483   0.279  1.00  0.00    -0.003 C 
ATOM     19  C   UNL     1     -18.835  56.961   0.548  1.00  0.00     0.004 C 
ENDBRANCH  17  18
ENDBRANCH  16  17
ENDBRANCH  15  16
ENDBRANCH  14  15
ENDBRANCH  13  14
ENDBRANCH  12  13
ENDBRANCH   1  12
TORSDOF 14
ENDMDL
MODEL 3
REMARK VINA RESULT:    -5.135      2.788      5.731
REMARK INTER + INTRA:         -11.694
REMARK INTER:                  -9.872
REMARK INTRA:                  -1.823
REMARK UNBOUND:                -2.356
REMARK SMILES CCCCCCCCCCCCCC[C@@H](C)C(=O)[O-]
REMARK SMILES IDX 9 1 10 2 11 3 12 4 13 5 14 6 15 7 16 8 17 9 18 10 19 11 8 12
REMARK SMILES IDX 7 13 6 14 5 15 4 16 3 17 2 18 1 19
REMARK H PARENT
REMARK Flexibility Score: inf
ROOT
ATOM      1  C   UNL     1     -19.068  56.627  -3.612  1.00  0.00     0.000 C 
ENDROOT
BRANCH   1   2
ATOM      2  C   UNL     1     -20.382  56.277  -2.897  1.00  0.00     0.000 C 
BRANCH   2   3
ATOM      3  C   UNL     1     -20.558  54.759  -2.783  1.00  0.00     0.000 C 
BRANCH   3   4
ATOM      4  C   UNL     1     -20.617  54.319  -1.311  1.00  0.00     0.000 C 
BRANCH   4   5
ATOM      5  C   UNL     1     -21.944  53.624  -0.958  1.00  0.00     0.001 C 
BRANCH   5   6
ATOM      6  C   UNL     1     -23.155  54.303  -1.628  1.00  0.00     0.009 C 
BRANCH   6   7
ATOM      7  C   UNL     1     -23.993  55.181  -0.673  1.00  0.00     0.032 C 
ATOM      8  C   UNL     1     -23.789  54.804   0.802  1.00  0.00     0.014 C 
BRANCH   7   9
ATOM      9  C   UNL     1     -23.761  56.648  -0.936  1.00  0.00     0.044 C 
ATOM     10  O   UNL     1     -24.571  57.318  -1.648  1.00  0.00    -0.550 OA
ATOM     11  O   UNL     1     -22.666  57.284  -0.344  1.00  0.00    -0.550 OA
ENDBRANCH   7   9
ENDBRANCH   6   7
ENDBRANCH   5   6
ENDBRANCH   4   5
ENDBRANCH   3   4
ENDBRANCH   2   3
ENDBRANCH   1   2
BRANCH   1  12
ATOM     12  C   UNL     1     -18.064  55.464  -3.608  1.00  0.00     0.000 C 
BRANCH  12  13
ATOM     13  C   UNL     1     -16.911  55.686  -2.616  1.00  0.00    -0.000 C 
BRANCH  13  14
ATOM     14  C   UNL     1     -16.939  54.699  -1.436  1.00  0.00    -0.000 C 
BRANCH  14  15
ATOM     15  C   UNL     1     -17.234  55.372  -0.078  1.00  0.00    -0.000 C 
BRANCH  15  16
ATOM     16  C   UNL     1     -17.339  56.900  -0.197  1.00  0.00    -0.000 C 
BRANCH  16  17
ATOM     17  C   UNL     1     -16.409  57.593   0.804  1.00  0.00    -0.000 C 
BRANCH  17  18
ATOM     18  C   UNL     1     -15.350  58.437   0.083  1.00  0.00    -0.003 C 
ATOM     19  C   UNL     1     -14.365  59.057   1.074  1.00  0.00     0.004 C 
ENDBRANCH  17  18
ENDBRANCH  16  17
ENDBRANCH  15  16
ENDBRANCH  14  15
ENDBRANCH  13  14
ENDBRANCH  12  13
ENDBRANCH   1  12
TORSDOF 14
ENDMDL
MODEL 4
REMARK VINA RESULT:    -5.132      3.304      4.976
REMARK INTER + INTRA:         -11.688
REMARK INTER:                  -9.416
REMARK INTRA:                  -2.272
REMARK UNBOUND:                -2.356
REMARK SMILES CCCCCCCCCCCCCC[C@@H](C)C(=O)[O-]
REMARK SMILES IDX 9 1 10 2 11 3 12 4 13 5 14 6 15 7 16 8 17 9 18 10 19 11 8 12
REMARK SMILES IDX 7 13 6 14 5 15 4 16 3 17 2 18 1 19
REMARK H PARENT
REMARK Flexibility Score: inf
ROOT
ATOM      1  C   UNL     1     -17.040  55.716  -0.539  1.00  0.00     0.000 C 
ENDROOT
BRANCH   1   2
ATOM      2  C   UNL     1     -18.308  55.369   0.258  1.00  0.00     0.000 C 
BRANCH   2   3
ATOM      3  C   UNL     1     -19.162  56.619   0.503  1.00  0.00     0.000 C 
BRANCH   3   4
ATOM      4  C   UNL     1     -20.655  56.315   0.302  1.00  0.00     0.000 C 
BRANCH   4   5
ATOM      5  C   UNL     1     -21.561  57.266   1.103  1.00  0.00     0.001 C 
BRANCH   5   6
ATOM      6  C   UNL     1     -22.801  56.548   1.674  1.00  0.00     0.009 C 
BRANCH   6   7
ATOM      7  C   UNL     1     -23.407  55.489   0.727  1.00  0.00     0.032 C 
ATOM      8  C   UNL     1     -23.604  54.130   1.417  1.00  0.00     0.014 C 
BRANCH   7   9
ATOM      9  C   UNL     1     -24.667  55.997   0.073  1.00  0.00     0.044 C 
ATOM     10  O   UNL     1     -24.693  57.133  -0.494  1.00  0.00    -0.550 OA
ATOM     11  O   UNL     1     -25.802  55.182   0.050  1.00  0.00    -0.550 OA
ENDBRANCH   7   9
ENDBRANCH   6   7
ENDBRANCH   5   6
ENDBRANCH   4   5
ENDBRANCH   3   4
ENDBRANCH   2   3
ENDBRANCH   1   2
BRANCH   1  12
ATOM     12  C   UNL     1     -17.308  56.724  -1.668  1.00  0.00     0.000 C 
BRANCH  12  13
ATOM     13  C   UNL     1     -16.945  56.165  -3.053  1.00  0.00    -0.000 C 
BRANCH  13  14
ATOM     14  C   UNL     1     -18.161  56.051  -3.988  1.00  0.00    -0.000 C 
BRANCH  14  15
ATOM     15  C   UNL     1     -19.513  56.245  -3.266  1.00  0.00    -0.000 C 
BRANCH  15  16
ATOM     16  C   UNL     1     -20.284  54.925  -3.110  1.00  0.00    -0.000 C 
BRANCH  16  17
ATOM     17  C   UNL     1     -19.322  53.739  -2.997  1.00  0.00    -0.000 C 
BRANCH  17  18
ATOM     18  C   UNL     1     -19.784  52.752  -1.917  1.00  0.00    -0.003 C 
ATOM     19  C   UNL     1     -21.175  53.109  -1.396  1.00  0.00     0.004 C 
ENDBRANCH  17  18
ENDBRANCH  16  17
ENDBRANCH  15  16
ENDBRANCH  14  15
ENDBRANCH  13  14
ENDBRANCH  12  13
ENDBRANCH   1  12
TORSDOF 14
ENDMDL
MODEL 5
REMARK VINA RESULT:    -5.097      1.197      2.158
REMARK INTER + INTRA:         -11.625
REMARK INTER:                  -9.089
REMARK INTRA:                  -2.536
REMARK UNBOUND:                -2.356
REMARK SMILES CCCCCCCCCCCCCC[C@@H](C)C(=O)[O-]
REMARK SMILES IDX 9 1 10 2 11 3 12 4 13 5 14 6 15 7 16 8 17 9 18 10 19 11 8 12
REMARK SMILES IDX 7 13 6 14 5 15 4 16 3 17 2 18 1 19
REMARK H PARENT
REMARK Flexibility Score: inf
ROOT
ATOM      1  C   UNL     1     -18.844  56.640  -3.310  1.00  0.00     0.000 C 
ENDROOT
BRANCH   1   2
ATOM      2  C   UNL     1     -18.123  55.426  -3.918  1.00  0.00     0.000 C 
BRANCH   2   3
ATOM      3  C   UNL     1     -17.274  54.707  -2.863  1.00  0.00     0.000 C 
BRANCH   3   4
ATOM      4  C   UNL     1     -18.158  54.112  -1.756  1.00  0.00     0.000 C 
BRANCH   4   5
ATOM      5  C   UNL     1     -17.409  53.966  -0.420  1.00  0.00     0.001 C 
BRANCH   5   6
ATOM      6  C   UNL     1     -17.964  54.907   0.668  1.00  0.00     0.009 C 
BRANCH   6   7
ATOM      7  C   UNL     1     -18.219  56.351   0.180  1.00  0.00     0.032 C 
ATOM      8  C   UNL     1     -19.486  56.963   0.797  1.00  0.00     0.014 C 
BRANCH   7   9
ATOM      9  C   UNL     1     -17.001  57.216   0.376  1.00  0.00     0.044 C 
ATOM     10  O   UNL     1     -16.241  57.501  -0.601  1.00  0.00    -0.550 OA
ATOM     11  O   UNL     1     -16.737  57.751   1.640  1.00  0.00    -0.550 OA
ENDBRANCH   7   9
ENDBRANCH   6   7
ENDBRANCH   5   6
ENDBRANCH   4   5
ENDBRANCH   3   4
ENDBRANCH   2   3
ENDBRANCH   1   2
BRANCH   1  12
ATOM     12  C   UNL     1     -20.353  56.639  -3.601  1.00  0.00     0.000 C 
BRANCH  12  13
ATOM     13  C   UNL     1     -21.188  56.242  -2.373  1.00  0.00    -0.000 C 
BRANCH  13  14
ATOM     14  C   UNL     1     -22.099  55.031  -2.636  1.00  0.00    -0.000 C 
BRANCH  14  15
ATOM     15  C   UNL     1     -21.789  53.819  -1.731  1.00  0.00    -0.000 C 
BRANCH  15  16
ATOM     16  C   UNL     1     -21.679  54.213  -0.250  1.00  0.00    -0.000 C 
BRANCH  16  17
ATOM     17  C   UNL     1     -22.871  53.677   0.549  1.00  0.00    -0.000 C 
BRANCH  17  18
ATOM     18  C   UNL     1     -23.519  54.785   1.389  1.00  0.00    -0.003 C 
ATOM     19  C   UNL     1     -23.208  56.168   0.818  1.00  0.00     0.004 C 
ENDBRANCH  17  18
ENDBRANCH  16  17
ENDBRANCH  15  16
ENDBRANCH  14  15
ENDBRANCH  13  14
ENDBRANCH  12  13
ENDBRANCH   1  12
TORSDOF 14
ENDMDL
MODEL 6
REMARK VINA RESULT:    -5.096      2.606      5.232
REMARK INTER + INTRA:         -11.622
REMARK INTER:                  -9.431
REMARK INTRA:                  -2.191
REMARK UNBOUND:                -2.356
REMARK SMILES CCCCCCCCCCCCCC[C@@H](C)C(=O)[O-]
REMARK SMILES IDX 9 1 10 2 11 3 12 4 13 5 14 6 15 7 16 8 17 9 18 10 19 11 8 12
REMARK SMILES IDX 7 13 6 14 5 15 4 16 3 17 2 18 1 19
REMARK H PARENT
REMARK Flexibility Score: inf
ROOT
ATOM      1  C   UNL     1     -19.840  53.160  -2.558  1.00  0.00     0.000 C 
ENDROOT
BRANCH   1   2
ATOM      2  C   UNL     1     -19.396  52.792  -1.133  1.00  0.00     0.000 C 
BRANCH   2   3
ATOM      3  C   UNL     1     -20.607  52.597  -0.214  1.00  0.00     0.000 C 
BRANCH   3   4
ATOM      4  C   UNL     1     -21.825  53.378  -0.734  1.00  0.00     0.000 C 
BRANCH   4   5
ATOM      5  C   UNL     1     -22.648  54.009   0.402  1.00  0.00     0.001 C 
BRANCH   5   6
ATOM      6  C   UNL     1     -23.615  55.095  -0.111  1.00  0.00     0.009 C 
BRANCH   6   7
ATOM      7  C   UNL     1     -23.410  55.471  -1.595  1.00  0.00     0.032 C 
ATOM      8  C   UNL     1     -24.572  55.003  -2.485  1.00  0.00     0.014 C 
BRANCH   7   9
ATOM      9  C   UNL     1     -23.114  56.941  -1.750  1.00  0.00     0.044 C 
ATOM     10  O   UNL     1     -22.283  57.349  -2.620  1.00  0.00    -0.550 OA
ATOM     11  O   UNL     1     -23.803  57.865  -0.959  1.00  0.00    -0.550 OA
ENDBRANCH   7   9
ENDBRANCH   6   7
ENDBRANCH   5   6
ENDBRANCH   4   5
ENDBRANCH   3   4
ENDBRANCH   2   3
ENDBRANCH   1   2
BRANCH   1  12
ATOM     12  C   UNL     1     -18.883  54.151  -3.239  1.00  0.00     0.000 C 
BRANCH  12  13
ATOM     13  C   UNL     1     -19.427  55.589  -3.239  1.00  0.00    -0.000 C 
BRANCH  13  14
ATOM     14  C   UNL     1     -18.357  56.633  -3.601  1.00  0.00    -0.000 C 
BRANCH  14  15
ATOM     15  C   UNL     1     -17.019  56.425  -2.859  1.00  0.00    -0.000 C 
BRANCH  15  16
ATOM     16  C   UNL     1     -17.101  56.846  -1.383  1.00  0.00    -0.000 C 
BRANCH  16  17
ATOM     17  C   UNL     1     -16.821  55.658  -0.458  1.00  0.00    -0.000 C 
BRANCH  17  18
ATOM     18  C   UNL     1     -17.964  55.456   0.546  1.00  0.00    -0.003 C 
ATOM     19  C   UNL     1     -19.135  56.392   0.250  1.00  0.00     0.004 C 
ENDBRANCH  17  18
ENDBRANCH  16  17
ENDBRANCH  15  16
ENDBRANCH  14  15
ENDBRANCH  13  14
ENDBRANCH  12  13
ENDBRANCH   1  12
TORSDOF 14
ENDMDL
MODEL 7
REMARK VINA RESULT:    -5.034      1.945      4.682
REMARK INTER + INTRA:         -11.510
REMARK INTER:                  -9.168
REMARK INTRA:                  -2.342
REMARK UNBOUND:                -2.356
REMARK SMILES CCCCCCCCCCCCCC[C@@H](C)C(=O)[O-]
REMARK SMILES IDX 9 1 10 2 11 3 12 4 13 5 14 6 15 7 16 8 17 9 18 10 19 11 8 12
REMARK SMILES IDX 7 13 6 14 5 15 4 16 3 17 2 18 1 19
REMARK H PARENT
REMARK Flexibility Score: inf
ROOT
ATOM      1  C   UNL     1     -23.837  54.724   0.796  1.00  0.00     0.000 C 
ENDROOT
BRANCH   1   2
ATOM      2  C   UNL     1     -23.444  55.867   1.746  1.00  0.00     0.000 C 
BRANCH   2   3
ATOM      3  C   UNL     1     -22.954  57.089   0.960  1.00  0.00     0.000 C 
BRANCH   3   4
ATOM      4  C   UNL     1     -21.501  57.432   1.324  1.00  0.00     0.000 C 
BRANCH   4   5
ATOM      5  C   UNL     1     -20.485  56.760   0.384  1.00  0.00     0.001 C 
BRANCH   5   6
ATOM      6  C   UNL     1     -19.028  56.999   0.832  1.00  0.00     0.009 C 
BRANCH   6   7
ATOM      7  C   UNL     1     -17.976  56.285  -0.045  1.00  0.00     0.032 C 
ATOM      8  C   UNL     1     -16.597  56.958   0.027  1.00  0.00     0.014 C 
BRANCH   7   9
ATOM      9  C   UNL     1     -17.919  54.810   0.262  1.00  0.00     0.044 C 
ATOM     10  O   UNL     1     -17.203  54.371   1.214  1.00  0.00    -0.550 OA
ATOM     11  O   UNL     1     -18.707  53.925  -0.480  1.00  0.00    -0.550 OA
ENDBRANCH   7   9
ENDBRANCH   6   7
ENDBRANCH   5   6
ENDBRANCH   4   5
ENDBRANCH   3   4
ENDBRANCH   2   3
ENDBRANCH   1   2
BRANCH   1  12
ATOM     12  C   UNL     1     -22.676  53.754   0.525  1.00  0.00     0.000 C 
BRANCH  12  13
ATOM     13  C   UNL     1     -22.236  53.761  -0.948  1.00  0.00    -0.000 C 
BRANCH  13  14
ATOM     14  C   UNL     1     -23.104  54.680  -1.826  1.00  0.00    -0.000 C 
BRANCH  14  15
ATOM     15  C   UNL     1     -22.283  55.694  -2.654  1.00  0.00    -0.000 C 
BRANCH  15  16
ATOM     16  C   UNL     1     -20.912  55.134  -3.065  1.00  0.00    -0.000 C 
BRANCH  16  17
ATOM     17  C   UNL     1     -19.889  56.262  -3.234  1.00  0.00    -0.000 C 
BRANCH  17  18
ATOM     18  C   UNL     1     -18.512  55.707  -3.623  1.00  0.00    -0.003 C 
ATOM     19  C   UNL     1     -17.465  56.818  -3.694  1.00  0.00     0.004 C 
ENDBRANCH  17  18
ENDBRANCH  16  17
ENDBRANCH  15  16
ENDBRANCH  14  15
ENDBRANCH  13  14
ENDBRANCH  12  13
ENDBRANCH   1  12
TORSDOF 14
ENDMDL
MODEL 8
REMARK VINA RESULT:    -4.952      3.315      5.798
REMARK INTER + INTRA:         -11.360
REMARK INTER:                  -9.176
REMARK INTRA:                  -2.185
REMARK UNBOUND:                -2.356
REMARK SMILES CCCCCCCCCCCCCC[C@@H](C)C(=O)[O-]
REMARK SMILES IDX 9 1 10 2 11 3 12 4 13 5 14 6 15 7 16 8 17 9 18 10 19 11 8 12
REMARK SMILES IDX 7 13 6 14 5 15 4 16 3 17 2 18 1 19
REMARK H PARENT
REMARK Flexibility Score: inf
ROOT
ATOM      1  C   UNL     1     -20.797  56.485  -3.294  1.00  0.00     0.000 C 
ENDROOT
BRANCH   1   2
ATOM      2  C   UNL     1     -21.986  55.596  -2.896  1.00  0.00     0.000 C 
BRANCH   2   3
ATOM      3  C   UNL     1     -21.514  54.368  -2.109  1.00  0.00     0.000 C 
BRANCH   3   4
ATOM      4  C   UNL     1     -22.629  53.839  -1.193  1.00  0.00     0.000 C 
BRANCH   4   5
ATOM      5  C   UNL     1     -22.580  54.461   0.214  1.00  0.00     0.001 C 
BRANCH   5   6
ATOM      6  C   UNL     1     -23.636  55.568   0.400  1.00  0.00     0.009 C 
BRANCH   6   7
ATOM      7  C   UNL     1     -24.881  55.408  -0.501  1.00  0.00     0.032 C 
ATOM      8  C   UNL     1     -26.129  54.991   0.291  1.00  0.00     0.014 C 
BRANCH   7   9
ATOM      9  C   UNL     1     -25.110  56.641  -1.339  1.00  0.00     0.044 C 
ATOM     10  O   UNL     1     -26.081  56.701  -2.155  1.00  0.00    -0.550 OA
ATOM     11  O   UNL     1     -24.270  57.746  -1.175  1.00  0.00    -0.550 OA
ENDBRANCH   7   9
ENDBRANCH   6   7
ENDBRANCH   5   6
ENDBRANCH   4   5
ENDBRANCH   3   4
ENDBRANCH   2   3
ENDBRANCH   1   2
BRANCH   1  12
ATOM     12  C   UNL     1     -19.466  55.717  -3.318  1.00  0.00     0.000 C 
BRANCH  12  13
ATOM     13  C   UNL     1     -18.272  56.621  -3.667  1.00  0.00    -0.000 C 
BRANCH  13  14
ATOM     14  C   UNL     1     -16.979  56.209  -2.941  1.00  0.00    -0.000 C 
BRANCH  14  15
ATOM     15  C   UNL     1     -16.947  54.718  -2.540  1.00  0.00    -0.000 C 
BRANCH  15  16
ATOM     16  C   UNL     1     -16.739  54.526  -1.030  1.00  0.00    -0.000 C 
BRANCH  16  17
ATOM     17  C   UNL     1     -17.325  55.704  -0.243  1.00  0.00    -0.000 C 
BRANCH  17  18
ATOM     18  C   UNL     1     -18.754  55.401   0.226  1.00  0.00    -0.003 C 
ATOM     19  C   UNL     1     -19.545  56.686   0.462  1.00  0.00     0.004 C 
ENDBRANCH  17  18
ENDBRANCH  16  17
ENDBRANCH  15  16
ENDBRANCH  14  15
ENDBRANCH  13  14
ENDBRANCH  12  13
ENDBRANCH   1  12
TORSDOF 14
ENDMDL
MODEL 9
REMARK VINA RESULT:    -4.949      1.594      3.796
REMARK INTER + INTRA:         -11.356
REMARK INTER:                  -9.082
REMARK INTRA:                  -2.274
REMARK UNBOUND:                -2.356
REMARK SMILES CCCCCCCCCCCCCC[C@@H](C)C(=O)[O-]
REMARK SMILES IDX 9 1 10 2 11 3 12 4 13 5 14 6 15 7 16 8 17 9 18 10 19 11 8 12
REMARK SMILES IDX 7 13 6 14 5 15 4 16 3 17 2 18 1 19
REMARK H PARENT
REMARK Flexibility Score: inf
ROOT
ATOM      1  C   UNL     1     -21.120  54.373  -2.191  1.00  0.00     0.000 C 
ENDROOT
BRANCH   1   2
ATOM      2  C   UNL     1     -21.683  55.642  -2.849  1.00  0.00     0.000 C 
BRANCH   2   3
ATOM      3  C   UNL     1     -20.558  56.617  -3.213  1.00  0.00     0.000 C 
BRANCH   3   4
ATOM      4  C   UNL     1     -19.239  55.868  -3.466  1.00  0.00     0.000 C 
BRANCH   4   5
ATOM      5  C   UNL     1     -18.005  56.754  -3.225  1.00  0.00     0.001 C 
BRANCH   5   6
ATOM      6  C   UNL     1     -17.140  56.245  -2.054  1.00  0.00     0.009 C 
BRANCH   6   7
ATOM      7  C   UNL     1     -17.824  56.353  -0.674  1.00  0.00     0.032 C 
ATOM      8  C   UNL     1     -18.097  54.978  -0.045  1.00  0.00     0.014 C 
BRANCH   7   9
ATOM      9  C   UNL     1     -17.058  57.271   0.245  1.00  0.00     0.044 C 
ATOM     10  O   UNL     1     -17.652  57.918   1.162  1.00  0.00    -0.550 OA
ATOM     11  O   UNL     1     -15.669  57.367   0.115  1.00  0.00    -0.550 OA
ENDBRANCH   7   9
ENDBRANCH   6   7
ENDBRANCH   5   6
ENDBRANCH   4   5
ENDBRANCH   3   4
ENDBRANCH   2   3
ENDBRANCH   1   2
BRANCH   1  12
ATOM     12  C   UNL     1     -22.185  53.591  -1.405  1.00  0.00     0.000 C 
BRANCH  12  13
ATOM     13  C   UNL     1     -22.008  53.723   0.116  1.00  0.00    -0.000 C 
BRANCH  13  14
ATOM     14  C   UNL     1     -23.322  54.059   0.842  1.00  0.00    -0.000 C 
BRANCH  14  15
ATOM     15  C   UNL     1     -24.203  55.075   0.082  1.00  0.00    -0.000 C 
BRANCH  15  16
ATOM     16  C   UNL     1     -23.739  56.524   0.300  1.00  0.00    -0.000 C 
BRANCH  16  17
ATOM     17  C   UNL     1     -23.374  56.767   1.768  1.00  0.00    -0.000 C 
BRANCH  17  18
ATOM     18  C   UNL     1     -22.111  57.629   1.890  1.00  0.00    -0.003 C 
ATOM     19  C   UNL     1     -21.025  57.164   0.920  1.00  0.00     0.004 C 
ENDBRANCH  17  18
ENDBRANCH  16  17
ENDBRANCH  15  16
ENDBRANCH  14  15
ENDBRANCH  13  14
ENDBRANCH  12  13
ENDBRANCH   1  12
TORSDOF 14
ENDMDL
