MODEL 1
REMARK VINA RESULT:    -2.785      0.000      0.000
REMARK INTER + INTRA:          -3.378
REMARK INTER:                  -3.274
REMARK INTRA:                  -0.104
REMARK UNBOUND:                -0.104
REMARK SMILES CCCCC(=O)[O-]
REMARK SMILES IDX 4 1 5 2 6 3 7 4 3 5 2 6 1 7
REMARK H PARENT
REMARK Flexibility Score: inf
ROOT
ATOM      1  C   UNL     1      40.892  10.296  11.508  1.00  0.00     0.053 C 
ENDROOT
BRANCH   1   2
ATOM      2  C   UNL     1      39.991   9.115  11.678  1.00  0.00     0.041 C 
ATOM      3  O   UNL     1      40.470   7.986  11.958  1.00  0.00    -0.550 OA
ATOM      4  O   UNL     1      38.622   9.251  11.479  1.00  0.00    -0.550 OA
ENDBRANCH   1   2
BRANCH   1   5
ATOM      5  C   UNL     1      40.780  11.236  12.713  1.00  0.00     0.006 C 
BRANCH   5   6
ATOM      6  C   UNL     1      39.856  12.419  12.402  1.00  0.00    -0.003 C 
ATOM      7  C   UNL     1      38.655  12.441  13.342  1.00  0.00     0.004 C 
ENDBRANCH   5   6
ENDBRANCH   1   5
TORSDOF 3
ENDMDL
MODEL 2
REMARK VINA RESULT:    -2.785      2.491      3.609
REMARK INTER + INTRA:          -3.378
REMARK INTER:                  -3.254
REMARK INTRA:                  -0.124
REMARK UNBOUND:                -0.104
REMARK SMILES CCCCC(=O)[O-]
REMARK SMILES IDX 4 1 5 2 6 3 7 4 3 5 2 6 1 7
REMARK H PARENT
REMARK Flexibility Score: inf
ROOT
ATOM      1  C   UNL     1      40.116  12.353  12.761  1.00  0.00     0.053 C 
ENDROOT
BRANCH   1   2
ATOM      2  C   UNL     1      40.476  11.732  14.073  1.00  0.00     0.041 C 
ATOM      3  O   UNL     1      39.623  11.065  14.715  1.00  0.00    -0.550 OA
ATOM      4  O   UNL     1      41.742  11.930  14.612  1.00  0.00    -0.550 OA
ENDBRANCH   1   2
BRANCH   1   5
ATOM      5  C   UNL     1      39.774  11.272  11.731  1.00  0.00     0.006 C 
BRANCH   5   6
ATOM      6  C   UNL     1      40.930  10.278  11.573  1.00  0.00    -0.003 C 
ATOM      7  C   UNL     1      40.431   8.838  11.640  1.00  0.00     0.004 C 
ENDBRANCH   5   6
ENDBRANCH   1   5
TORSDOF 3
ENDMDL
MODEL 3
REMARK VINA RESULT:    -2.777      2.586      3.726
REMARK INTER + INTRA:          -3.368
REMARK INTER:                  -3.304
REMARK INTRA:                  -0.064
REMARK UNBOUND:                -0.104
REMARK SMILES CCCCC(=O)[O-]
REMARK SMILES IDX 4 1 5 2 6 3 7 4 3 5 2 6 1 7
REMARK H PARENT
REMARK Flexibility Score: inf
ROOT
ATOM      1  C   UNL     1      39.981  11.010  12.238  1.00  0.00     0.053 C 
ENDROOT
BRANCH   1   2
ATOM      2  C   UNL     1      40.816  11.953  13.045  1.00  0.00     0.041 C 
ATOM      3  O   UNL     1      40.364  13.082  13.370  1.00  0.00    -0.550 OA
ATOM      4  O   UNL     1      42.114  11.605  13.398  1.00  0.00    -0.550 OA
ENDBRANCH   1   2
BRANCH   1   5
ATOM      5  C   UNL     1      40.856   9.920  11.612  1.00  0.00     0.006 C 
BRANCH   5   6
ATOM      6  C   UNL     1      40.138   8.566  11.622  1.00  0.00    -0.003 C 
ATOM      7  C   UNL     1      39.269   8.413  12.867  1.00  0.00     0.004 C 
ENDBRANCH   5   6
ENDBRANCH   1   5
TORSDOF 3
ENDMDL
MODEL 4
REMARK VINA RESULT:    -2.763      3.170      4.052
REMARK INTER + INTRA:          -3.352
REMARK INTER:                  -3.285
REMARK INTRA:                  -0.067
REMARK UNBOUND:                -0.104
REMARK SMILES CCCCC(=O)[O-]
REMARK SMILES IDX 4 1 5 2 6 3 7 4 3 5 2 6 1 7
REMARK H PARENT
REMARK Flexibility Score: inf
ROOT
ATOM      1  C   UNL     1      41.431  11.967  13.489  1.00  0.00     0.053 C 
ENDROOT
BRANCH   1   2
ATOM      2  C   UNL     1      41.220  12.016  14.968  1.00  0.00     0.041 C 
ATOM      3  O   UNL     1      40.055  11.985  15.445  1.00  0.00    -0.550 OA
ATOM      4  O   UNL     1      42.308  12.147  15.822  1.00  0.00    -0.550 OA
ENDBRANCH   1   2
BRANCH   1   5
ATOM      5  C   UNL     1      40.107  12.184  12.750  1.00  0.00     0.006 C 
BRANCH   5   6
ATOM      6  C   UNL     1      39.959  11.196  11.587  1.00  0.00    -0.003 C 
ATOM      7  C   UNL     1      41.171  10.276  11.489  1.00  0.00     0.004 C 
ENDBRANCH   5   6
ENDBRANCH   1   5
TORSDOF 3
ENDMDL
MODEL 5
REMARK VINA RESULT:    -2.725      0.835      1.245
REMARK INTER + INTRA:          -3.307
REMARK INTER:                  -3.248
REMARK INTRA:                  -0.059
REMARK UNBOUND:                -0.104
REMARK SMILES CCCCC(=O)[O-]
REMARK SMILES IDX 4 1 5 2 6 3 7 4 3 5 2 6 1 7
REMARK H PARENT
REMARK Flexibility Score: inf
ROOT
ATOM      1  C   UNL     1      40.737  10.572  11.812  1.00  0.00     0.053 C 
ENDROOT
BRANCH   1   2
ATOM      2  C   UNL     1      39.953   9.301  11.726  1.00  0.00     0.041 C 
ATOM      3  O   UNL     1      40.536   8.189  11.816  1.00  0.00    -0.550 OA
ATOM      4  O   UNL     1      38.583   9.343  11.497  1.00  0.00    -0.550 OA
ENDBRANCH   1   2
BRANCH   1   5
ATOM      5  C   UNL     1      39.800  11.769  12.005  1.00  0.00     0.006 C 
BRANCH   5   6
ATOM      6  C   UNL     1      40.284  12.666  13.150  1.00  0.00    -0.003 C 
ATOM      7  C   UNL     1      41.373  11.977  13.967  1.00  0.00     0.004 C 
ENDBRANCH   5   6
ENDBRANCH   1   5
TORSDOF 3
ENDMDL
MODEL 6
REMARK VINA RESULT:    -2.646      2.021      2.472
REMARK INTER + INTRA:          -3.215
REMARK INTER:                  -3.195
REMARK INTRA:                  -0.019
REMARK UNBOUND:                -0.104
REMARK SMILES CCCCC(=O)[O-]
REMARK SMILES IDX 4 1 5 2 6 3 7 4 3 5 2 6 1 7
REMARK H PARENT
REMARK Flexibility Score: inf
ROOT
ATOM      1  C   UNL     1      39.956  12.079  12.500  1.00  0.00     0.053 C 
ENDROOT
BRANCH   1   2
ATOM      2  C   UNL     1      39.862  10.944  11.531  1.00  0.00     0.041 C 
ATOM      3  O   UNL     1      40.903  10.470  11.005  1.00  0.00    -0.550 OA
ATOM      4  O   UNL     1      38.618  10.440  11.168  1.00  0.00    -0.550 OA
ENDBRANCH   1   2
BRANCH   1   5
ATOM      5  C   UNL     1      41.202  11.933  13.378  1.00  0.00     0.006 C 
BRANCH   5   6
ATOM      6  C   UNL     1      40.944  12.467  14.792  1.00  0.00    -0.003 C 
ATOM      7  C   UNL     1      42.075  12.084  15.740  1.00  0.00     0.004 C 
ENDBRANCH   5   6
ENDBRANCH   1   5
TORSDOF 3
ENDMDL
MODEL 7
REMARK VINA RESULT:    -2.606      1.260      1.850
REMARK INTER + INTRA:          -3.167
REMARK INTER:                  -3.084
REMARK INTRA:                  -0.083
REMARK UNBOUND:                -0.104
REMARK SMILES CCCCC(=O)[O-]
REMARK SMILES IDX 4 1 5 2 6 3 7 4 3 5 2 6 1 7
REMARK H PARENT
REMARK Flexibility Score: inf
ROOT
ATOM      1  C   UNL     1      41.177  11.269  12.715  1.00  0.00     0.053 C 
ENDROOT
BRANCH   1   2
ATOM      2  C   UNL     1      40.832  10.361  11.578  1.00  0.00     0.041 C 
ATOM      3  O   UNL     1      40.760  10.812  10.405  1.00  0.00    -0.550 OA
ATOM      4  O   UNL     1      40.540   9.024  11.819  1.00  0.00    -0.550 OA
ENDBRANCH   1   2
BRANCH   1   5
ATOM      5  C   UNL     1      40.165  12.415  12.815  1.00  0.00     0.006 C 
BRANCH   5   6
ATOM      6  C   UNL     1      38.768  11.885  13.159  1.00  0.00    -0.003 C 
ATOM      7  C   UNL     1      37.876  12.997  13.701  1.00  0.00     0.004 C 
ENDBRANCH   5   6
ENDBRANCH   1   5
TORSDOF 3
ENDMDL
MODEL 8
REMARK VINA RESULT:    -2.502      3.315      4.116
REMARK INTER + INTRA:          -3.045
REMARK INTER:                  -3.006
REMARK INTRA:                  -0.040
REMARK UNBOUND:                -0.104
REMARK SMILES CCCCC(=O)[O-]
REMARK SMILES IDX 4 1 5 2 6 3 7 4 3 5 2 6 1 7
REMARK H PARENT
REMARK Flexibility Score: inf
ROOT
ATOM      1  C   UNL     1      39.943  12.316  13.113  1.00  0.00     0.053 C 
ENDROOT
BRANCH   1   2
ATOM      2  C   UNL     1      39.932  13.243  14.287  1.00  0.00     0.041 C 
ATOM      3  O   UNL     1      40.991  13.464  14.931  1.00  0.00    -0.550 OA
ATOM      4  O   UNL     1      38.741  13.827  14.701  1.00  0.00    -0.550 OA
ENDBRANCH   1   2
BRANCH   1   5
ATOM      5  C   UNL     1      41.274  11.561  13.038  1.00  0.00     0.006 C 
BRANCH   5   6
ATOM      6  C   UNL     1      41.268  10.550  11.885  1.00  0.00    -0.003 C 
ATOM      7  C   UNL     1      40.098  10.802  10.939  1.00  0.00     0.004 C 
ENDBRANCH   5   6
ENDBRANCH   1   5
TORSDOF 3
ENDMDL
MODEL 9
REMARK VINA RESULT:    -2.348      4.524      5.199
REMARK INTER + INTRA:          -2.864
REMARK INTER:                  -2.834
REMARK INTRA:                  -0.030
REMARK UNBOUND:                -0.104
REMARK SMILES CCCCC(=O)[O-]
REMARK SMILES IDX 4 1 5 2 6 3 7 4 3 5 2 6 1 7
REMARK H PARENT
REMARK Flexibility Score: inf
ROOT
ATOM      1  C   UNL     1      41.934  12.629  15.848  1.00  0.00     0.053 C 
ENDROOT
BRANCH   1   2
ATOM      2  C   UNL     1      42.195  11.932  17.145  1.00  0.00     0.041 C 
ATOM      3  O   UNL     1      42.890  12.488  18.035  1.00  0.00    -0.550 OA
ATOM      4  O   UNL     1      41.713  10.646  17.352  1.00  0.00    -0.550 OA
ENDBRANCH   1   2
BRANCH   1   5
ATOM      5  C   UNL     1      40.942  11.829  14.998  1.00  0.00     0.006 C 
BRANCH   5   6
ATOM      6  C   UNL     1      41.328  11.873  13.515  1.00  0.00    -0.003 C 
ATOM      7  C   UNL     1      40.093  11.994  12.628  1.00  0.00     0.004 C 
ENDBRANCH   5   6
ENDBRANCH   1   5
TORSDOF 3
ENDMDL
