MODEL 1
REMARK VINA RESULT:    -3.381      0.000      0.000
REMARK INTER + INTRA:          -3.719
REMARK INTER:                  -3.578
REMARK INTRA:                  -0.141
REMARK UNBOUND:                -0.141
REMARK SMILES CC(C)[C@@H]1CC[C@@H](C)CC1=O
REMARK SMILES IDX 8 1 7 2 6 3 5 4 4 5 10 6 11 7 9 8 2 9 1 10 3 11
REMARK H PARENT
REMARK Flexibility Score: inf
ROOT
ATOM      1  C   UNL     1     133.482 140.603 140.174  1.00  0.00     0.008 C 
ATOM      2  C   UNL     1     134.520 140.682 141.298  1.00  0.00    -0.007 C 
ATOM      3  C   UNL     1     134.321 141.965 142.132  1.00  0.00     0.004 C 
ATOM      4  C   UNL     1     135.364 142.077 143.260  1.00  0.00     0.012 C 
ATOM      5  C   UNL     1     136.811 142.044 142.708  1.00  0.00     0.058 C 
ATOM      6  C   UNL     1     136.937 140.808 141.832  1.00  0.00     0.136 C 
ATOM      7  O   UNL     1     137.761 139.934 142.060  1.00  0.00    -0.299 OA
ATOM      8  C   UNL     1     135.945 140.626 140.720  1.00  0.00     0.079 C 
ENDROOT
BRANCH   5   9
ATOM      9  C   UNL     1     137.902 142.110 143.829  1.00  0.00    -0.007 C 
ATOM     10  C   UNL     1     139.152 142.861 143.335  1.00  0.00     0.008 C 
ATOM     11  C   UNL     1     137.397 142.793 145.112  1.00  0.00     0.008 C 
ENDBRANCH   5   9
TORSDOF 1
ENDMDL
MODEL 2
REMARK VINA RESULT:    -3.358      6.935      8.033
REMARK INTER + INTRA:          -3.695
REMARK INTER:                  -3.523
REMARK INTRA:                  -0.172
REMARK UNBOUND:                -0.141
REMARK SMILES CC(C)[C@@H]1CC[C@@H](C)CC1=O
REMARK SMILES IDX 8 1 7 2 6 3 5 4 4 5 10 6 11 7 9 8 2 9 1 10 3 11
REMARK H PARENT
REMARK Flexibility Score: inf
ROOT
ATOM      1  C   UNL     1     140.425 148.819 138.614  1.00  0.00     0.008 C 
ATOM      2  C   UNL     1     141.104 147.867 139.603  1.00  0.00    -0.007 C 
ATOM      3  C   UNL     1     140.097 146.826 140.133  1.00  0.00     0.004 C 
ATOM      4  C   UNL     1     140.751 145.864 141.143  1.00  0.00     0.012 C 
ATOM      5  C   UNL     1     141.376 146.627 142.338  1.00  0.00     0.058 C 
ATOM      6  C   UNL     1     142.299 147.691 141.767  1.00  0.00     0.136 C 
ATOM      7  O   UNL     1     143.491 147.727 142.038  1.00  0.00    -0.299 OA
ATOM      8  C   UNL     1     141.733 148.655 140.766  1.00  0.00     0.079 C 
ENDROOT
BRANCH   5   9
ATOM      9  C   UNL     1     142.092 145.687 143.365  1.00  0.00    -0.007 C 
ATOM     10  C   UNL     1     141.368 145.707 144.724  1.00  0.00     0.008 C 
ATOM     11  C   UNL     1     142.178 144.229 142.879  1.00  0.00     0.008 C 
ENDBRANCH   5   9
TORSDOF 1
ENDMDL
MODEL 3
REMARK VINA RESULT:    -3.342      7.174      8.276
REMARK INTER + INTRA:          -3.678
REMARK INTER:                  -3.504
REMARK INTRA:                  -0.173
REMARK UNBOUND:                -0.141
REMARK SMILES CC(C)[C@@H]1CC[C@@H](C)CC1=O
REMARK SMILES IDX 8 1 7 2 6 3 5 4 4 5 10 6 11 7 9 8 2 9 1 10 3 11
REMARK H PARENT
REMARK Flexibility Score: inf
ROOT
ATOM      1  C   UNL     1     141.183 132.622 138.710  1.00  0.00     0.008 C 
ATOM      2  C   UNL     1     140.523 133.642 139.643  1.00  0.00    -0.007 C 
ATOM      3  C   UNL     1     141.577 134.611 140.219  1.00  0.00     0.004 C 
ATOM      4  C   UNL     1     140.941 135.640 141.173  1.00  0.00     0.012 C 
ATOM      5  C   UNL     1     140.186 134.951 142.338  1.00  0.00     0.058 C 
ATOM      6  C   UNL     1     139.218 133.952 141.726  1.00  0.00     0.136 C 
ATOM      7  O   UNL     1     138.013 134.015 141.923  1.00  0.00    -0.299 OA
ATOM      8  C   UNL     1     139.765 132.928 140.775  1.00  0.00     0.079 C 
ENDROOT
BRANCH   5   9
ATOM      9  C   UNL     1     139.487 135.963 143.305  1.00  0.00    -0.007 C 
ATOM     10  C   UNL     1     140.190 135.987 144.676  1.00  0.00     0.008 C 
ATOM     11  C   UNL     1     139.457 137.397 142.748  1.00  0.00     0.008 C 
ENDBRANCH   5   9
TORSDOF 1
ENDMDL
MODEL 4
REMARK VINA RESULT:    -3.334      7.311      9.893
REMARK INTER + INTRA:          -3.670
REMARK INTER:                  -3.539
REMARK INTRA:                  -0.131
REMARK UNBOUND:                -0.141
REMARK SMILES CC(C)[C@@H]1CC[C@@H](C)CC1=O
REMARK SMILES IDX 8 1 7 2 6 3 5 4 4 5 10 6 11 7 9 8 2 9 1 10 3 11
REMARK H PARENT
REMARK Flexibility Score: inf
ROOT
ATOM      1  C   UNL     1     148.191 141.104 140.173  1.00  0.00     0.008 C 
ATOM      2  C   UNL     1     147.143 141.005 141.286  1.00  0.00    -0.007 C 
ATOM      3  C   UNL     1     147.357 139.727 142.121  1.00  0.00     0.004 C 
ATOM      4  C   UNL     1     146.304 139.595 143.239  1.00  0.00     0.012 C 
ATOM      5  C   UNL     1     144.863 139.602 142.673  1.00  0.00     0.058 C 
ATOM      6  C   UNL     1     144.723 140.835 141.796  1.00  0.00     0.136 C 
ATOM      7  O   UNL     1     143.882 141.694 142.016  1.00  0.00    -0.299 OA
ATOM      8  C   UNL     1     145.723 141.036 140.694  1.00  0.00     0.079 C 
ENDROOT
BRANCH   5   9
ATOM      9  C   UNL     1     143.762 139.516 143.783  1.00  0.00    -0.007 C 
ATOM     10  C   UNL     1     142.515 138.778 143.263  1.00  0.00     0.008 C 
ATOM     11  C   UNL     1     144.255 138.806 145.056  1.00  0.00     0.008 C 
ENDBRANCH   5   9
TORSDOF 1
ENDMDL
MODEL 5
REMARK VINA RESULT:    -3.320      5.891      6.954
REMARK INTER + INTRA:          -3.655
REMARK INTER:                  -3.513
REMARK INTRA:                  -0.141
REMARK UNBOUND:                -0.141
REMARK SMILES CC(C)[C@@H]1CC[C@@H](C)CC1=O
REMARK SMILES IDX 8 1 7 2 6 3 5 4 4 5 10 6 11 7 9 8 2 9 1 10 3 11
REMARK H PARENT
REMARK Flexibility Score: inf
ROOT
ATOM      1  C   UNL     1     140.612 148.031 140.069  1.00  0.00     0.008 C 
ATOM      2  C   UNL     1     140.699 147.036 141.230  1.00  0.00    -0.007 C 
ATOM      3  C   UNL     1     141.995 147.255 142.038  1.00  0.00     0.004 C 
ATOM      4  C   UNL     1     142.114 146.254 143.203  1.00  0.00     0.012 C 
ATOM      5  C   UNL     1     142.059 144.788 142.708  1.00  0.00     0.058 C 
ATOM      6  C   UNL     1     140.811 144.640 141.855  1.00  0.00     0.136 C 
ATOM      7  O   UNL     1     139.932 143.834 142.128  1.00  0.00    -0.299 OA
ATOM      8  C   UNL     1     140.621 145.590 140.709  1.00  0.00     0.079 C 
ENDROOT
BRANCH   5   9
ATOM      9  C   UNL     1     142.132 143.740 143.869  1.00  0.00    -0.007 C 
ATOM     10  C   UNL     1     142.872 142.468 143.416  1.00  0.00     0.008 C 
ATOM     11  C   UNL     1     142.831 144.290 145.125  1.00  0.00     0.008 C 
ENDBRANCH   5   9
TORSDOF 1
ENDMDL
MODEL 6
REMARK VINA RESULT:    -3.312      5.920      6.987
REMARK INTER + INTRA:          -3.646
REMARK INTER:                  -3.493
REMARK INTRA:                  -0.153
REMARK UNBOUND:                -0.141
REMARK SMILES CC(C)[C@@H]1CC[C@@H](C)CC1=O
REMARK SMILES IDX 8 1 7 2 6 3 5 4 4 5 10 6 11 7 9 8 2 9 1 10 3 11
REMARK H PARENT
REMARK Flexibility Score: inf
ROOT
ATOM      1  C   UNL     1     141.085 133.504 140.077  1.00  0.00     0.008 C 
ATOM      2  C   UNL     1     140.975 134.524 141.214  1.00  0.00    -0.007 C 
ATOM      3  C   UNL     1     139.645 134.348 141.976  1.00  0.00     0.004 C 
ATOM      4  C   UNL     1     139.503 135.374 143.116  1.00  0.00     0.012 C 
ATOM      5  C   UNL     1     139.606 136.829 142.595  1.00  0.00     0.058 C 
ATOM      6  C   UNL     1     140.889 136.934 141.787  1.00  0.00     0.136 C 
ATOM      7  O   UNL     1     141.773 137.727 142.077  1.00  0.00    -0.299 OA
ATOM      8  C   UNL     1     141.103 135.957 140.668  1.00  0.00     0.079 C 
ENDROOT
BRANCH   5   9
ATOM      9  C   UNL     1     139.512 137.901 143.731  1.00  0.00    -0.007 C 
ATOM     10  C   UNL     1     138.748 139.148 143.247  1.00  0.00     0.008 C 
ATOM     11  C   UNL     1     138.821 137.367 144.998  1.00  0.00     0.008 C 
ENDBRANCH   5   9
TORSDOF 1
ENDMDL
MODEL 7
REMARK VINA RESULT:    -3.284      1.988      3.022
REMARK INTER + INTRA:          -3.617
REMARK INTER:                  -3.447
REMARK INTRA:                  -0.170
REMARK UNBOUND:                -0.141
REMARK SMILES CC(C)[C@@H]1CC[C@@H](C)CC1=O
REMARK SMILES IDX 8 1 7 2 6 3 5 4 4 5 10 6 11 7 9 8 2 9 1 10 3 11
REMARK H PARENT
REMARK Flexibility Score: inf
ROOT
ATOM      1  C   UNL     1     132.667 140.489 138.565  1.00  0.00     0.008 C 
ATOM      2  C   UNL     1     133.651 141.158 139.530  1.00  0.00    -0.007 C 
ATOM      3  C   UNL     1     134.723 140.152 139.996  1.00  0.00     0.004 C 
ATOM      4  C   UNL     1     135.718 140.797 140.980  1.00  0.00     0.012 C 
ATOM      5  C   UNL     1     134.998 141.389 142.218  1.00  0.00     0.058 C 
ATOM      6  C   UNL     1     133.902 142.311 141.710  1.00  0.00     0.136 C 
ATOM      7  O   UNL     1     133.865 143.496 142.006  1.00  0.00    -0.299 OA
ATOM      8  C   UNL     1     132.904 141.754 140.736  1.00  0.00     0.079 C 
ENDROOT
BRANCH   5   9
ATOM      9  C   UNL     1     135.971 142.094 143.220  1.00  0.00    -0.007 C 
ATOM     10  C   UNL     1     135.942 141.398 144.594  1.00  0.00     0.008 C 
ATOM     11  C   UNL     1     137.426 142.122 142.719  1.00  0.00     0.008 C 
ENDBRANCH   5   9
TORSDOF 1
ENDMDL
MODEL 8
REMARK VINA RESULT:    -3.278      9.612     12.137
REMARK INTER + INTRA:          -3.610
REMARK INTER:                  -3.438
REMARK INTRA:                  -0.172
REMARK UNBOUND:                -0.141
REMARK SMILES CC(C)[C@@H]1CC[C@@H](C)CC1=O
REMARK SMILES IDX 8 1 7 2 6 3 5 4 4 5 10 6 11 7 9 8 2 9 1 10 3 11
REMARK H PARENT
REMARK Flexibility Score: inf
ROOT
ATOM      1  C   UNL     1     151.111 139.883 139.895  1.00  0.00     0.008 C 
ATOM      2  C   UNL     1     149.606 139.872 140.180  1.00  0.00    -0.007 C 
ATOM      3  C   UNL     1     149.217 141.060 141.084  1.00  0.00     0.004 C 
ATOM      4  C   UNL     1     147.708 141.064 141.398  1.00  0.00     0.012 C 
ATOM      5  C   UNL     1     147.259 139.741 142.068  1.00  0.00     0.058 C 
ATOM      6  C   UNL     1     147.732 138.599 141.185  1.00  0.00     0.136 C 
ATOM      7  O   UNL     1     146.953 137.790 140.700  1.00  0.00    -0.299 OA
ATOM      8  C   UNL     1     149.188 138.539 140.825  1.00  0.00     0.079 C 
ENDROOT
BRANCH   5   9
ATOM      9  C   UNL     1     145.723 139.688 142.363  1.00  0.00    -0.007 C 
ATOM     10  C   UNL     1     145.454 139.702 143.879  1.00  0.00     0.008 C 
ATOM     11  C   UNL     1     144.953 140.855 141.720  1.00  0.00     0.008 C 
ENDBRANCH   5   9
TORSDOF 1
ENDMDL
MODEL 9
REMARK VINA RESULT:    -3.244      1.382      4.261
REMARK INTER + INTRA:          -3.574
REMARK INTER:                  -3.401
REMARK INTRA:                  -0.173
REMARK UNBOUND:                -0.141
REMARK SMILES CC(C)[C@@H]1CC[C@@H](C)CC1=O
REMARK SMILES IDX 8 1 7 2 6 3 5 4 4 5 10 6 11 7 9 8 2 9 1 10 3 11
REMARK H PARENT
REMARK Flexibility Score: inf
ROOT
ATOM      1  C   UNL     1     139.172 142.338 144.907  1.00  0.00     0.008 C 
ATOM      2  C   UNL     1     137.979 142.508 143.961  1.00  0.00    -0.007 C 
ATOM      3  C   UNL     1     136.690 141.960 144.609  1.00  0.00     0.004 C 
ATOM      4  C   UNL     1     135.477 142.105 143.671  1.00  0.00     0.012 C 
ATOM      5  C   UNL     1     135.711 141.393 142.315  1.00  0.00     0.058 C 
ATOM      6  C   UNL     1     137.027 141.905 141.754  1.00  0.00     0.136 C 
ATOM      7  O   UNL     1     137.094 142.460 140.666  1.00  0.00    -0.299 OA
ATOM      8  C   UNL     1     138.251 141.809 142.618  1.00  0.00     0.079 C 
ENDROOT
BRANCH   5   9
ATOM      9  C   UNL     1     134.518 141.557 141.317  1.00  0.00    -0.007 C 
ATOM     10  C   UNL     1     133.588 140.329 141.366  1.00  0.00     0.008 C 
ATOM     11  C   UNL     1     133.677 142.816 141.593  1.00  0.00     0.008 C 
ENDBRANCH   5   9
TORSDOF 1
ENDMDL
