MODEL 1
REMARK VINA RESULT:    -4.469      0.000      0.000
REMARK INTER + INTRA:          -7.588
REMARK INTER:                  -6.820
REMARK INTRA:                  -0.768
REMARK UNBOUND:                -0.768
REMARK SMILES CCCCCCCCCCC(=O)[O-]
REMARK SMILES IDX 7 1 8 2 9 3 10 4 11 5 12 6 13 7 6 8 5 9 4 10 3 11 2 12 1 13
REMARK H PARENT
REMARK Flexibility Score: inf
ROOT
ATOM      1  C   UNL     1     -10.296 -13.815  15.125  1.00  0.00     0.000 C 
ENDROOT
BRANCH   1   2
ATOM      2  C   UNL     1      -9.902 -12.422  15.637  1.00  0.00     0.000 C 
BRANCH   2   3
ATOM      3  C   UNL     1      -9.249 -11.592  14.522  1.00  0.00     0.006 C 
BRANCH   3   4
ATOM      4  C   UNL     1      -7.979 -12.255  13.973  1.00  0.00     0.053 C 
BRANCH   4   5
ATOM      5  C   UNL     1      -6.740 -11.556  14.445  1.00  0.00     0.041 C 
ATOM      6  O   UNL     1      -6.738 -10.944  15.545  1.00  0.00    -0.550 OA
ATOM      7  O   UNL     1      -5.599 -11.556  13.654  1.00  0.00    -0.550 OA
ENDBRANCH   4   5
ENDBRANCH   3   4
ENDBRANCH   2   3
ENDBRANCH   1   2
BRANCH   1   8
ATOM      8  C   UNL     1     -11.820 -14.019  15.058  1.00  0.00     0.000 C 
BRANCH   8   9
ATOM      9  C   UNL     1     -12.650 -13.044  15.917  1.00  0.00    -0.000 C 
BRANCH   9  10
ATOM     10  C   UNL     1     -13.614 -12.141  15.126  1.00  0.00    -0.000 C 
BRANCH  10  11
ATOM     11  C   UNL     1     -13.424 -12.256  13.604  1.00  0.00    -0.000 C 
BRANCH  11  12
ATOM     12  C   UNL     1     -14.725 -12.620  12.874  1.00  0.00    -0.003 C 
ATOM     13  C   UNL     1     -15.141 -14.074  13.101  1.00  0.00     0.004 C 
ENDBRANCH  11  12
ENDBRANCH  10  11
ENDBRANCH   9  10
ENDBRANCH   8   9
ENDBRANCH   1   8
TORSDOF 9
ENDMDL
MODEL 2
REMARK VINA RESULT:    -4.425      1.745      2.900
REMARK INTER + INTRA:          -7.521
REMARK INTER:                  -6.590
REMARK INTRA:                  -0.931
REMARK UNBOUND:                -0.768
REMARK SMILES CCCCCCCCCCC(=O)[O-]
REMARK SMILES IDX 7 1 8 2 9 3 10 4 11 5 12 6 13 7 6 8 5 9 4 10 3 11 2 12 1 13
REMARK H PARENT
REMARK Flexibility Score: inf
ROOT
ATOM      1  C   UNL     1     -12.674 -13.431  14.128  1.00  0.00     0.000 C 
ENDROOT
BRANCH   1   2
ATOM      2  C   UNL     1     -12.395 -13.495  15.636  1.00  0.00     0.000 C 
BRANCH   2   3
ATOM      3  C   UNL     1     -11.087 -12.769  15.983  1.00  0.00     0.006 C 
BRANCH   3   4
ATOM      4  C   UNL     1      -9.875 -13.384  15.272  1.00  0.00     0.053 C 
BRANCH   4   5
ATOM      5  C   UNL     1      -9.008 -12.335  14.646  1.00  0.00     0.041 C 
ATOM      6  O   UNL     1      -9.523 -11.298  14.151  1.00  0.00    -0.550 OA
ATOM      7  O   UNL     1      -7.632 -12.519  14.581  1.00  0.00    -0.550 OA
ENDBRANCH   4   5
ENDBRANCH   3   4
ENDBRANCH   2   3
ENDBRANCH   1   2
BRANCH   1   8
ATOM      8  C   UNL     1     -12.994 -12.007  13.638  1.00  0.00     0.000 C 
BRANCH   8   9
ATOM      9  C   UNL     1     -14.265 -11.881  12.774  1.00  0.00    -0.000 C 
BRANCH   9  10
ATOM     10  C   UNL     1     -15.295 -13.009  12.965  1.00  0.00    -0.000 C 
BRANCH  10  11
ATOM     11  C   UNL     1     -16.343 -12.682  14.043  1.00  0.00    -0.000 C 
BRANCH  11  12
ATOM     12  C   UNL     1     -16.537 -13.833  15.042  1.00  0.00    -0.003 C 
ATOM     13  C   UNL     1     -16.018 -13.494  16.440  1.00  0.00     0.004 C 
ENDBRANCH  11  12
ENDBRANCH  10  11
ENDBRANCH   9  10
ENDBRANCH   8   9
ENDBRANCH   1   8
TORSDOF 9
ENDMDL
MODEL 3
REMARK VINA RESULT:    -4.423      4.366      6.928
REMARK INTER + INTRA:          -7.518
REMARK INTER:                  -6.818
REMARK INTRA:                  -0.700
REMARK UNBOUND:                -0.768
REMARK SMILES CCCCCCCCCCC(=O)[O-]
REMARK SMILES IDX 7 1 8 2 9 3 10 4 11 5 12 6 13 7 6 8 5 9 4 10 3 11 2 12 1 13
REMARK H PARENT
REMARK Flexibility Score: inf
ROOT
ATOM      1  C   UNL     1     -13.483 -12.058  14.901  1.00  0.00     0.000 C 
ENDROOT
BRANCH   1   2
ATOM      2  C   UNL     1     -13.590 -12.516  13.439  1.00  0.00     0.000 C 
BRANCH   2   3
ATOM      3  C   UNL     1     -14.914 -13.256  13.191  1.00  0.00     0.006 C 
BRANCH   3   4
ATOM      4  C   UNL     1     -16.067 -12.675  14.020  1.00  0.00     0.053 C 
BRANCH   4   5
ATOM      5  C   UNL     1     -16.726 -13.724  14.863  1.00  0.00     0.041 C 
ATOM      6  O   UNL     1     -16.530 -13.753  16.107  1.00  0.00    -0.550 OA
ATOM      7  O   UNL     1     -17.531 -14.687  14.270  1.00  0.00    -0.550 OA
ENDBRANCH   4   5
ENDBRANCH   3   4
ENDBRANCH   2   3
ENDBRANCH   1   2
BRANCH   1   8
ATOM      8  C   UNL     1     -12.720 -13.059  15.787  1.00  0.00     0.000 C 
BRANCH   8   9
ATOM      9  C   UNL     1     -11.909 -14.126  15.023  1.00  0.00    -0.000 C 
BRANCH   9  10
ATOM     10  C   UNL     1     -10.386 -13.903  15.016  1.00  0.00    -0.000 C 
BRANCH  10  11
ATOM     11  C   UNL     1      -9.961 -12.672  15.835  1.00  0.00    -0.000 C 
BRANCH  11  12
ATOM     12  C   UNL     1      -8.671 -12.028  15.304  1.00  0.00    -0.003 C 
ATOM     13  C   UNL     1      -8.943 -10.852  14.366  1.00  0.00     0.004 C 
ENDBRANCH  11  12
ENDBRANCH  10  11
ENDBRANCH   9  10
ENDBRANCH   8   9
ENDBRANCH   1   8
TORSDOF 9
ENDMDL
MODEL 4
REMARK VINA RESULT:    -4.386      3.639      6.302
REMARK INTER + INTRA:          -7.462
REMARK INTER:                  -6.747
REMARK INTRA:                  -0.715
REMARK UNBOUND:                -0.768
REMARK SMILES CCCCCCCCCCC(=O)[O-]
REMARK SMILES IDX 7 1 8 2 9 3 10 4 11 5 12 6 13 7 6 8 5 9 4 10 3 11 2 12 1 13
REMARK H PARENT
REMARK Flexibility Score: inf
ROOT
ATOM      1  C   UNL     1     -11.750 -13.028  15.984  1.00  0.00     0.000 C 
ENDROOT
BRANCH   1   2
ATOM      2  C   UNL     1     -11.931 -14.172  14.976  1.00  0.00     0.000 C 
BRANCH   2   3
ATOM      3  C   UNL     1     -13.120 -13.899  14.043  1.00  0.00     0.006 C 
BRANCH   3   4
ATOM      4  C   UNL     1     -13.251 -12.412  13.690  1.00  0.00     0.053 C 
BRANCH   4   5
ATOM      5  C   UNL     1     -14.555 -12.116  13.014  1.00  0.00     0.041 C 
ATOM      6  O   UNL     1     -15.642 -12.399  13.582  1.00  0.00    -0.550 OA
ATOM      7  O   UNL     1     -14.567 -11.556  11.743  1.00  0.00    -0.550 OA
ENDBRANCH   4   5
ENDBRANCH   3   4
ENDBRANCH   2   3
ENDBRANCH   1   2
BRANCH   1   8
ATOM      8  C   UNL     1     -10.298 -12.521  16.059  1.00  0.00     0.000 C 
BRANCH   8   9
ATOM      9  C   UNL     1      -9.338 -13.123  15.013  1.00  0.00    -0.000 C 
BRANCH   9  10
ATOM     10  C   UNL     1      -8.927 -12.165  13.881  1.00  0.00    -0.000 C 
BRANCH  10  11
ATOM     11  C   UNL     1      -8.497 -10.782  14.399  1.00  0.00    -0.000 C 
BRANCH  11  12
ATOM     12  C   UNL     1      -7.041 -10.764  14.890  1.00  0.00    -0.003 C 
ATOM     13  C   UNL     1      -6.084 -11.460  13.921  1.00  0.00     0.004 C 
ENDBRANCH  11  12
ENDBRANCH  10  11
ENDBRANCH   9  10
ENDBRANCH   8   9
ENDBRANCH   1   8
TORSDOF 9
ENDMDL
MODEL 5
REMARK VINA RESULT:    -4.331      1.428      2.010
REMARK INTER + INTRA:          -7.378
REMARK INTER:                  -6.833
REMARK INTRA:                  -0.545
REMARK UNBOUND:                -0.768
REMARK SMILES CCCCCCCCCCC(=O)[O-]
REMARK SMILES IDX 7 1 8 2 9 3 10 4 11 5 12 6 13 7 6 8 5 9 4 10 3 11 2 12 1 13
REMARK H PARENT
REMARK Flexibility Score: inf
ROOT
ATOM      1  C   UNL     1     -11.285 -13.854  15.009  1.00  0.00     0.000 C 
ENDROOT
BRANCH   1   2
ATOM      2  C   UNL     1     -10.827 -12.776  16.003  1.00  0.00     0.000 C 
BRANCH   2   3
ATOM      3  C   UNL     1      -9.335 -12.460  15.821  1.00  0.00     0.006 C 
BRANCH   3   4
ATOM      4  C   UNL     1      -9.057 -11.702  14.517  1.00  0.00     0.053 C 
BRANCH   4   5
ATOM      5  C   UNL     1      -8.113 -12.455  13.629  1.00  0.00     0.041 C 
ATOM      6  O   UNL     1      -8.559 -13.218  12.733  1.00  0.00    -0.550 OA
ATOM      7  O   UNL     1      -6.742 -12.336  13.813  1.00  0.00    -0.550 OA
ENDBRANCH   4   5
ENDBRANCH   3   4
ENDBRANCH   2   3
ENDBRANCH   1   2
BRANCH   1   8
ATOM      8  C   UNL     1     -12.703 -13.604  14.466  1.00  0.00     0.000 C 
BRANCH   8   9
ATOM      9  C   UNL     1     -12.906 -12.246  13.763  1.00  0.00    -0.000 C 
BRANCH   9  10
ATOM     10  C   UNL     1     -14.257 -12.083  13.043  1.00  0.00    -0.000 C 
BRANCH  10  11
ATOM     11  C   UNL     1     -15.031 -13.407  12.922  1.00  0.00    -0.000 C 
BRANCH  11  12
ATOM     12  C   UNL     1     -16.522 -13.249  13.257  1.00  0.00    -0.003 C 
ATOM     13  C   UNL     1     -17.312 -14.542  13.051  1.00  0.00     0.004 C 
ENDBRANCH  11  12
ENDBRANCH  10  11
ENDBRANCH   9  10
ENDBRANCH   8   9
ENDBRANCH   1   8
TORSDOF 9
ENDMDL
MODEL 6
REMARK VINA RESULT:    -4.284      1.464      2.041
REMARK INTER + INTRA:          -7.306
REMARK INTER:                  -6.519
REMARK INTRA:                  -0.787
REMARK UNBOUND:                -0.768
REMARK SMILES CCCCCCCCCCC(=O)[O-]
REMARK SMILES IDX 7 1 8 2 9 3 10 4 11 5 12 6 13 7 6 8 5 9 4 10 3 11 2 12 1 13
REMARK H PARENT
REMARK Flexibility Score: inf
ROOT
ATOM      1  C   UNL     1     -11.458 -13.071  15.975  1.00  0.00     0.000 C 
ENDROOT
BRANCH   1   2
ATOM      2  C   UNL     1     -10.097 -12.380  15.814  1.00  0.00     0.000 C 
BRANCH   2   3
ATOM      3  C   UNL     1      -9.774 -12.142  14.331  1.00  0.00     0.006 C 
BRANCH   3   4
ATOM      4  C   UNL     1      -9.000 -10.837  14.107  1.00  0.00     0.053 C 
BRANCH   4   5
ATOM      5  C   UNL     1      -7.557 -11.096  13.793  1.00  0.00     0.041 C 
ATOM      6  O   UNL     1      -6.697 -10.194  13.974  1.00  0.00    -0.550 OA
ATOM      7  O   UNL     1      -7.170 -12.322  13.269  1.00  0.00    -0.550 OA
ENDBRANCH   4   5
ENDBRANCH   3   4
ENDBRANCH   2   3
ENDBRANCH   1   2
BRANCH   1   8
ATOM      8  C   UNL     1     -11.749 -14.089  14.857  1.00  0.00     0.000 C 
BRANCH   8   9
ATOM      9  C   UNL     1     -13.184 -14.050  14.293  1.00  0.00    -0.000 C 
BRANCH   9  10
ATOM     10  C   UNL     1     -13.762 -12.639  14.082  1.00  0.00    -0.000 C 
BRANCH  10  11
ATOM     11  C   UNL     1     -14.965 -12.347  14.996  1.00  0.00    -0.000 C 
BRANCH  11  12
ATOM     12  C   UNL     1     -15.233 -13.481  15.997  1.00  0.00    -0.003 C 
ATOM     13  C   UNL     1     -14.899 -13.087  17.436  1.00  0.00     0.004 C 
ENDBRANCH  11  12
ENDBRANCH  10  11
ENDBRANCH   9  10
ENDBRANCH   8   9
ENDBRANCH   1   8
TORSDOF 9
ENDMDL
MODEL 7
REMARK VINA RESULT:    -4.197      4.620      7.175
REMARK INTER + INTRA:          -7.173
REMARK INTER:                  -6.661
REMARK INTRA:                  -0.512
REMARK UNBOUND:                -0.768
REMARK SMILES CCCCCCCCCCC(=O)[O-]
REMARK SMILES IDX 7 1 8 2 9 3 10 4 11 5 12 6 13 7 6 8 5 9 4 10 3 11 2 12 1 13
REMARK H PARENT
REMARK Flexibility Score: inf
ROOT
ATOM      1  C   UNL     1     -13.397 -12.330  14.634  1.00  0.00     0.000 C 
ENDROOT
BRANCH   1   2
ATOM      2  C   UNL     1     -13.889 -13.015  15.917  1.00  0.00     0.000 C 
BRANCH   2   3
ATOM      3  C   UNL     1     -15.349 -12.642  16.213  1.00  0.00     0.006 C 
BRANCH   3   4
ATOM      4  C   UNL     1     -16.304 -13.824  16.003  1.00  0.00     0.053 C 
BRANCH   4   5
ATOM      5  C   UNL     1     -16.995 -13.750  14.675  1.00  0.00     0.041 C 
ATOM      6  O   UNL     1     -16.978 -12.680  14.011  1.00  0.00    -0.550 OA
ATOM      7  O   UNL     1     -17.683 -14.853  14.188  1.00  0.00    -0.550 OA
ENDBRANCH   4   5
ENDBRANCH   3   4
ENDBRANCH   2   3
ENDBRANCH   1   2
BRANCH   1   8
ATOM      8  C   UNL     1     -12.041 -12.872  14.149  1.00  0.00     0.000 C 
BRANCH   8   9
ATOM      9  C   UNL     1     -11.221 -13.634  15.210  1.00  0.00    -0.000 C 
BRANCH   9  10
ATOM     10  C   UNL     1      -9.940 -12.921  15.679  1.00  0.00    -0.000 C 
BRANCH  10  11
ATOM     11  C   UNL     1      -8.999 -12.564  14.515  1.00  0.00    -0.000 C 
BRANCH  11  12
ATOM     12  C   UNL     1      -8.206 -11.274  14.774  1.00  0.00    -0.003 C 
ATOM     13  C   UNL     1      -8.638 -10.124  13.865  1.00  0.00     0.004 C 
ENDBRANCH  11  12
ENDBRANCH  10  11
ENDBRANCH   9  10
ENDBRANCH   8   9
ENDBRANCH   1   8
TORSDOF 9
ENDMDL
MODEL 8
REMARK VINA RESULT:    -4.086      3.789      6.430
REMARK INTER + INTRA:          -7.004
REMARK INTER:                  -6.219
REMARK INTRA:                  -0.784
REMARK UNBOUND:                -0.768
REMARK SMILES CCCCCCCCCCC(=O)[O-]
REMARK SMILES IDX 7 1 8 2 9 3 10 4 11 5 12 6 13 7 6 8 5 9 4 10 3 11 2 12 1 13
REMARK H PARENT
REMARK Flexibility Score: inf
ROOT
ATOM      1  C   UNL     1     -11.933 -12.282  13.903  1.00  0.00     0.000 C 
ENDROOT
BRANCH   1   2
ATOM      2  C   UNL     1     -13.438 -12.057  14.107  1.00  0.00     0.000 C 
BRANCH   2   3
ATOM      3  C   UNL     1     -14.116 -13.328  14.638  1.00  0.00     0.006 C 
BRANCH   3   4
ATOM      4  C   UNL     1     -15.413 -13.021  15.397  1.00  0.00     0.053 C 
BRANCH   4   5
ATOM      5  C   UNL     1     -15.240 -13.179  16.877  1.00  0.00     0.041 C 
ATOM      6  O   UNL     1     -14.094 -13.106  17.393  1.00  0.00    -0.550 OA
ATOM      7  O   UNL     1     -16.343 -13.440  17.681  1.00  0.00    -0.550 OA
ENDBRANCH   4   5
ENDBRANCH   3   4
ENDBRANCH   2   3
ENDBRANCH   1   2
BRANCH   1   8
ATOM      8  C   UNL     1     -11.336 -13.285  14.907  1.00  0.00     0.000 C 
BRANCH   8   9
ATOM      9  C   UNL     1     -10.391 -12.673  15.961  1.00  0.00    -0.000 C 
BRANCH   9  10
ATOM     10  C   UNL     1      -8.893 -12.751  15.614  1.00  0.00    -0.000 C 
BRANCH  10  11
ATOM     11  C   UNL     1      -8.321 -11.404  15.141  1.00  0.00    -0.000 C 
BRANCH  11  12
ATOM     12  C   UNL     1      -8.232 -11.307  13.610  1.00  0.00    -0.003 C 
ATOM     13  C   UNL     1      -8.165 -12.678  12.936  1.00  0.00     0.004 C 
ENDBRANCH  11  12
ENDBRANCH  10  11
ENDBRANCH   9  10
ENDBRANCH   8   9
ENDBRANCH   1   8
TORSDOF 9
ENDMDL
MODEL 9
REMARK VINA RESULT:    -4.067      4.834      5.906
REMARK INTER + INTRA:          -6.975
REMARK INTER:                  -6.171
REMARK INTRA:                  -0.803
REMARK UNBOUND:                -0.768
REMARK SMILES CCCCCCCCCCC(=O)[O-]
REMARK SMILES IDX 7 1 8 2 9 3 10 4 11 5 12 6 13 7 6 8 5 9 4 10 3 11 2 12 1 13
REMARK H PARENT
REMARK Flexibility Score: inf
ROOT
ATOM      1  C   UNL     1     -12.302 -12.913  13.933  1.00  0.00     0.000 C 
ENDROOT
BRANCH   1   2
ATOM      2  C   UNL     1     -12.328 -13.482  15.359  1.00  0.00     0.000 C 
BRANCH   2   3
ATOM      3  C   UNL     1     -13.769 -13.602  15.877  1.00  0.00     0.006 C 
BRANCH   3   4
ATOM      4  C   UNL     1     -13.965 -12.885  17.218  1.00  0.00     0.053 C 
BRANCH   4   5
ATOM      5  C   UNL     1     -15.373 -13.013  17.714  1.00  0.00     0.041 C 
ATOM      6  O   UNL     1     -15.807 -12.232  18.601  1.00  0.00    -0.550 OA
ATOM      7  O   UNL     1     -16.195 -14.017  17.219  1.00  0.00    -0.550 OA
ENDBRANCH   4   5
ENDBRANCH   3   4
ENDBRANCH   2   3
ENDBRANCH   1   2
BRANCH   1   8
ATOM      8  C   UNL     1     -13.190 -11.665  13.771  1.00  0.00     0.000 C 
BRANCH   8   9
ATOM      9  C   UNL     1     -14.138 -11.689  12.555  1.00  0.00    -0.000 C 
BRANCH   9  10
ATOM     10  C   UNL     1     -15.291 -12.704  12.649  1.00  0.00    -0.000 C 
BRANCH  10  11
ATOM     11  C   UNL     1     -16.247 -12.412  13.819  1.00  0.00    -0.000 C 
BRANCH  11  12
ATOM     12  C   UNL     1     -17.271 -13.537  14.037  1.00  0.00    -0.003 C 
ATOM     13  C   UNL     1     -17.319 -14.524  12.870  1.00  0.00     0.004 C 
ENDBRANCH  11  12
ENDBRANCH  10  11
ENDBRANCH   9  10
ENDBRANCH   8   9
ENDBRANCH   1   8
TORSDOF 9
ENDMDL
