MODEL 1
REMARK VINA RESULT:    -4.287      0.000      0.000
REMARK INTER + INTRA:         -11.038
REMARK INTER:                  -8.296
REMARK INTRA:                  -2.742
REMARK UNBOUND:                -2.742
REMARK SMILES CCCCCCCCCCCCCCCCCC(=O)[O-]
REMARK SMILES IDX 10 1 11 2 12 3 13 4 14 5 15 6 16 7 17 8 18 9 19 10 20 11
REMARK SMILES IDX 9 12 8 13 7 14 6 15 5 16 4 17 3 18 2 19 1 20
REMARK H PARENT
REMARK Flexibility Score: inf
ROOT
ATOM      1  C   UNL     1     -35.791  16.544 -29.970  1.00  0.00     0.000 C 
ENDROOT
BRANCH   1   2
ATOM      2  C   UNL     1     -37.272  16.691 -29.588  1.00  0.00     0.000 C 
BRANCH   2   3
ATOM      3  C   UNL     1     -38.133  17.230 -30.753  1.00  0.00     0.000 C 
BRANCH   3   4
ATOM      4  C   UNL     1     -38.792  18.590 -30.457  1.00  0.00     0.000 C 
BRANCH   4   5
ATOM      5  C   UNL     1     -38.411  19.211 -29.100  1.00  0.00     0.000 C 
BRANCH   5   6
ATOM      6  C   UNL     1     -39.352  20.330 -28.604  1.00  0.00     0.000 C 
BRANCH   6   7
ATOM      7  C   UNL     1     -39.898  21.259 -29.702  1.00  0.00     0.006 C 
BRANCH   7   8
ATOM      8  C   UNL     1     -40.238  22.661 -29.182  1.00  0.00     0.053 C 
BRANCH   8   9
ATOM      9  C   UNL     1     -41.519  23.145 -29.787  1.00  0.00     0.041 C 
ATOM     10  O   UNL     1     -41.761  22.942 -31.006  1.00  0.00    -0.550 OA
ATOM     11  O   UNL     1     -42.425  23.866 -29.017  1.00  0.00    -0.550 OA
ENDBRANCH   8   9
ENDBRANCH   7   8
ENDBRANCH   6   7
ENDBRANCH   5   6
ENDBRANCH   4   5
ENDBRANCH   3   4
ENDBRANCH   2   3
ENDBRANCH   1   2
BRANCH   1  12
ATOM     12  C   UNL     1     -35.116  17.891 -30.283  1.00  0.00     0.000 C 
BRANCH  12  13
ATOM     13  C   UNL     1     -34.275  18.478 -29.134  1.00  0.00    -0.000 C 
BRANCH  13  14
ATOM     14  C   UNL     1     -35.081  18.656 -27.836  1.00  0.00    -0.000 C 
BRANCH  14  15
ATOM     15  C   UNL     1     -35.002  20.090 -27.287  1.00  0.00    -0.000 C 
BRANCH  15  16
ATOM     16  C   UNL     1     -34.814  21.135 -28.397  1.00  0.00    -0.000 C 
BRANCH  16  17
ATOM     17  C   UNL     1     -35.910  22.205 -28.334  1.00  0.00    -0.000 C 
BRANCH  17  18
ATOM     18  C   UNL     1     -36.505  22.464 -29.726  1.00  0.00    -0.000 C 
BRANCH  18  19
ATOM     19  C   UNL     1     -35.761  21.706 -30.835  1.00  0.00    -0.003 C 
ATOM     20  C   UNL     1     -36.708  21.113 -31.879  1.00  0.00     0.004 C 
ENDBRANCH  18  19
ENDBRANCH  17  18
ENDBRANCH  16  17
ENDBRANCH  15  16
ENDBRANCH  14  15
ENDBRANCH  13  14
ENDBRANCH  12  13
ENDBRANCH   1  12
TORSDOF 16
ENDMDL
MODEL 2
REMARK VINA RESULT:    -4.277      2.886      5.841
REMARK INTER + INTRA:         -11.019
REMARK INTER:                  -8.451
REMARK INTRA:                  -2.567
REMARK UNBOUND:                -2.742
REMARK SMILES CCCCCCCCCCCCCCCCCC(=O)[O-]
REMARK SMILES IDX 10 1 11 2 12 3 13 4 14 5 15 6 16 7 17 8 18 9 19 10 20 11
REMARK SMILES IDX 9 12 8 13 7 14 6 15 5 16 4 17 3 18 2 19 1 20
REMARK H PARENT
REMARK Flexibility Score: inf
ROOT
ATOM      1  C   UNL     1     -35.892  23.386 -27.683  1.00  0.00     0.000 C 
ENDROOT
BRANCH   1   2
ATOM      2  C   UNL     1     -34.449  22.934 -27.412  1.00  0.00     0.000 C 
BRANCH   2   3
ATOM      3  C   UNL     1     -34.380  21.543 -26.744  1.00  0.00     0.000 C 
BRANCH   3   4
ATOM      4  C   UNL     1     -33.894  20.426 -27.687  1.00  0.00     0.000 C 
BRANCH   4   5
ATOM      5  C   UNL     1     -34.591  19.067 -27.492  1.00  0.00     0.000 C 
BRANCH   5   6
ATOM      6  C   UNL     1     -36.087  19.145 -27.119  1.00  0.00     0.000 C 
BRANCH   6   7
ATOM      7  C   UNL     1     -36.978  18.067 -27.761  1.00  0.00     0.006 C 
BRANCH   7   8
ATOM      8  C   UNL     1     -36.318  17.387 -28.966  1.00  0.00     0.053 C 
BRANCH   8   9
ATOM      9  C   UNL     1     -37.266  16.420 -29.603  1.00  0.00     0.041 C 
ATOM     10  O   UNL     1     -38.170  16.834 -30.377  1.00  0.00    -0.550 OA
ATOM     11  O   UNL     1     -37.185  15.064 -29.303  1.00  0.00    -0.550 OA
ENDBRANCH   8   9
ENDBRANCH   7   8
ENDBRANCH   6   7
ENDBRANCH   5   6
ENDBRANCH   4   5
ENDBRANCH   3   4
ENDBRANCH   2   3
ENDBRANCH   1   2
BRANCH   1  12
ATOM     12  C   UNL     1     -36.493  22.746 -28.948  1.00  0.00     0.000 C 
BRANCH  12  13
ATOM     13  C   UNL     1     -35.598  22.817 -30.198  1.00  0.00    -0.000 C 
BRANCH  13  14
ATOM     14  C   UNL     1     -35.151  21.429 -30.692  1.00  0.00    -0.000 C 
BRANCH  14  15
ATOM     15  C   UNL     1     -36.325  20.445 -30.819  1.00  0.00    -0.000 C 
BRANCH  15  16
ATOM     16  C   UNL     1     -37.376  20.910 -31.837  1.00  0.00    -0.000 C 
BRANCH  16  17
ATOM     17  C   UNL     1     -38.780  20.898 -31.221  1.00  0.00    -0.000 C 
BRANCH  17  18
ATOM     18  C   UNL     1     -38.791  20.122 -29.895  1.00  0.00    -0.000 C 
BRANCH  18  19
ATOM     19  C   UNL     1     -39.788  20.703 -28.881  1.00  0.00    -0.003 C 
ATOM     20  C   UNL     1     -40.468  19.624 -28.040  1.00  0.00     0.004 C 
ENDBRANCH  18  19
ENDBRANCH  17  18
ENDBRANCH  16  17
ENDBRANCH  15  16
ENDBRANCH  14  15
ENDBRANCH  13  14
ENDBRANCH  12  13
ENDBRANCH   1  12
TORSDOF 16
ENDMDL
MODEL 3
REMARK VINA RESULT:    -4.201      0.961      3.226
REMARK INTER + INTRA:         -10.873
REMARK INTER:                  -8.214
REMARK INTRA:                  -2.659
REMARK UNBOUND:                -2.742
REMARK SMILES CCCCCCCCCCCCCCCCCC(=O)[O-]
REMARK SMILES IDX 10 1 11 2 12 3 13 4 14 5 15 6 16 7 17 8 18 9 19 10 20 11
REMARK SMILES IDX 9 12 8 13 7 14 6 15 5 16 4 17 3 18 2 19 1 20
REMARK H PARENT
REMARK Flexibility Score: inf
ROOT
ATOM      1  C   UNL     1     -36.822  21.225 -32.062  1.00  0.00     0.000 C 
ENDROOT
BRANCH   1   2
ATOM      2  C   UNL     1     -38.160  20.668 -31.551  1.00  0.00     0.000 C 
BRANCH   2   3
ATOM      3  C   UNL     1     -38.042  19.212 -31.049  1.00  0.00     0.000 C 
BRANCH   3   4
ATOM      4  C   UNL     1     -39.073  18.846 -29.965  1.00  0.00     0.000 C 
BRANCH   4   5
ATOM      5  C   UNL     1     -39.086  19.784 -28.744  1.00  0.00     0.000 C 
BRANCH   5   6
ATOM      6  C   UNL     1     -40.287  20.750 -28.672  1.00  0.00     0.000 C 
BRANCH   6   7
ATOM      7  C   UNL     1     -39.979  22.207 -29.061  1.00  0.00     0.006 C 
BRANCH   7   8
ATOM      8  C   UNL     1     -40.929  22.752 -30.134  1.00  0.00     0.053 C 
BRANCH   8   9
ATOM      9  C   UNL     1     -42.199  23.237 -29.508  1.00  0.00     0.041 C 
ATOM     10  O   UNL     1     -43.259  22.565 -29.618  1.00  0.00    -0.550 OA
ATOM     11  O   UNL     1     -42.226  24.459 -28.842  1.00  0.00    -0.550 OA
ENDBRANCH   8   9
ENDBRANCH   7   8
ENDBRANCH   6   7
ENDBRANCH   5   6
ENDBRANCH   4   5
ENDBRANCH   3   4
ENDBRANCH   2   3
ENDBRANCH   1   2
BRANCH   1  12
ATOM     12  C   UNL     1     -35.744  21.299 -30.965  1.00  0.00     0.000 C 
BRANCH  12  13
ATOM     13  C   UNL     1     -36.138  22.120 -29.724  1.00  0.00    -0.000 C 
BRANCH  13  14
ATOM     14  C   UNL     1     -35.273  21.795 -28.493  1.00  0.00    -0.000 C 
BRANCH  14  15
ATOM     15  C   UNL     1     -35.798  20.579 -27.712  1.00  0.00    -0.000 C 
BRANCH  15  16
ATOM     16  C   UNL     1     -34.894  19.347 -27.864  1.00  0.00    -0.000 C 
BRANCH  16  17
ATOM     17  C   UNL     1     -35.661  18.178 -28.493  1.00  0.00    -0.000 C 
BRANCH  17  18
ATOM     18  C   UNL     1     -34.938  17.656 -29.744  1.00  0.00    -0.000 C 
BRANCH  18  19
ATOM     19  C   UNL     1     -35.632  16.430 -30.356  1.00  0.00    -0.003 C 
ATOM     20  C   UNL     1     -36.868  15.998 -29.566  1.00  0.00     0.004 C 
ENDBRANCH  18  19
ENDBRANCH  17  18
ENDBRANCH  16  17
ENDBRANCH  15  16
ENDBRANCH  14  15
ENDBRANCH  13  14
ENDBRANCH  12  13
ENDBRANCH   1  12
TORSDOF 16
ENDMDL
MODEL 4
REMARK VINA RESULT:    -4.149     14.250     16.288
REMARK INTER + INTRA:         -10.771
REMARK INTER:                  -8.013
REMARK INTRA:                  -2.759
REMARK UNBOUND:                -2.742
REMARK SMILES CCCCCCCCCCCCCCCCCC(=O)[O-]
REMARK SMILES IDX 10 1 11 2 12 3 13 4 14 5 15 6 16 7 17 8 18 9 19 10 20 11
REMARK SMILES IDX 9 12 8 13 7 14 6 15 5 16 4 17 3 18 2 19 1 20
REMARK H PARENT
REMARK Flexibility Score: inf
ROOT
ATOM      1  C   UNL     1     -48.702   8.683 -33.158  1.00  0.00     0.000 C 
ENDROOT
BRANCH   1   2
ATOM      2  C   UNL     1     -49.777   9.666 -32.670  1.00  0.00     0.000 C 
BRANCH   2   3
ATOM      3  C   UNL     1     -51.084   8.956 -32.254  1.00  0.00     0.000 C 
BRANCH   3   4
ATOM      4  C   UNL     1     -51.541   9.289 -30.822  1.00  0.00     0.000 C 
BRANCH   4   5
ATOM      5  C   UNL     1     -52.689  10.312 -30.732  1.00  0.00     0.000 C 
BRANCH   5   6
ATOM      6  C   UNL     1     -52.275  11.723 -30.264  1.00  0.00     0.000 C 
BRANCH   6   7
ATOM      7  C   UNL     1     -51.760  12.655 -31.374  1.00  0.00     0.006 C 
BRANCH   7   8
ATOM      8  C   UNL     1     -50.741  13.683 -30.865  1.00  0.00     0.053 C 
BRANCH   8   9
ATOM      9  C   UNL     1     -51.181  15.070 -31.213  1.00  0.00     0.041 C 
ATOM     10  O   UNL     1     -52.107  15.623 -30.563  1.00  0.00    -0.550 OA
ATOM     11  O   UNL     1     -50.603  15.736 -32.288  1.00  0.00    -0.550 OA
ENDBRANCH   8   9
ENDBRANCH   7   8
ENDBRANCH   6   7
ENDBRANCH   5   6
ENDBRANCH   4   5
ENDBRANCH   3   4
ENDBRANCH   2   3
ENDBRANCH   1   2
BRANCH   1  12
ATOM     12  C   UNL     1     -49.191   7.223 -33.183  1.00  0.00     0.000 C 
BRANCH  12  13
ATOM     13  C   UNL     1     -48.085   6.165 -33.016  1.00  0.00    -0.000 C 
BRANCH  13  14
ATOM     14  C   UNL     1     -47.665   5.968 -31.548  1.00  0.00    -0.000 C 
BRANCH  14  15
ATOM     15  C   UNL     1     -48.838   6.151 -30.572  1.00  0.00    -0.000 C 
BRANCH  15  16
ATOM     16  C   UNL     1     -48.603   7.298 -29.578  1.00  0.00    -0.000 C 
BRANCH  16  17
ATOM     17  C   UNL     1     -47.235   7.952 -29.809  1.00  0.00    -0.000 C 
BRANCH  17  18
ATOM     18  C   UNL     1     -47.352   9.484 -29.818  1.00  0.00    -0.000 C 
BRANCH  18  19
ATOM     19  C   UNL     1     -48.608   9.982 -29.086  1.00  0.00    -0.003 C 
ATOM     20  C   UNL     1     -48.624  11.501 -28.913  1.00  0.00     0.004 C 
ENDBRANCH  18  19
ENDBRANCH  17  18
ENDBRANCH  16  17
ENDBRANCH  15  16
ENDBRANCH  14  15
ENDBRANCH  13  14
ENDBRANCH  12  13
ENDBRANCH   1  12
TORSDOF 16
ENDMDL
MODEL 5
REMARK VINA RESULT:    -4.078      1.949      4.463
REMARK INTER + INTRA:         -10.635
REMARK INTER:                  -8.160
REMARK INTRA:                  -2.475
REMARK UNBOUND:                -2.742
REMARK SMILES CCCCCCCCCCCCCCCCCC(=O)[O-]
REMARK SMILES IDX 10 1 11 2 12 3 13 4 14 5 15 6 16 7 17 8 18 9 19 10 20 11
REMARK SMILES IDX 9 12 8 13 7 14 6 15 5 16 4 17 3 18 2 19 1 20
REMARK H PARENT
REMARK Flexibility Score: inf
ROOT
ATOM      1  C   UNL     1     -35.369  23.220 -28.365  1.00  0.00     0.000 C 
ENDROOT
BRANCH   1   2
ATOM      2  C   UNL     1     -34.354  23.048 -29.506  1.00  0.00     0.000 C 
BRANCH   2   3
ATOM      3  C   UNL     1     -35.029  22.712 -30.854  1.00  0.00     0.000 C 
BRANCH   3   4
ATOM      4  C   UNL     1     -35.690  21.321 -30.885  1.00  0.00     0.000 C 
BRANCH   4   5
ATOM      5  C   UNL     1     -36.929  21.216 -31.794  1.00  0.00     0.000 C 
BRANCH   5   6
ATOM      6  C   UNL     1     -38.260  20.948 -31.059  1.00  0.00     0.000 C 
BRANCH   6   7
ATOM      7  C   UNL     1     -38.219  21.156 -29.535  1.00  0.00     0.006 C 
BRANCH   7   8
ATOM      8  C   UNL     1     -39.614  21.181 -28.898  1.00  0.00     0.053 C 
BRANCH   8   9
ATOM      9  C   UNL     1     -39.901  19.878 -28.221  1.00  0.00     0.041 C 
ATOM     10  O   UNL     1     -41.088  19.476 -28.095  1.00  0.00    -0.550 OA
ATOM     11  O   UNL     1     -38.860  19.128 -27.682  1.00  0.00    -0.550 OA
ENDBRANCH   8   9
ENDBRANCH   7   8
ENDBRANCH   6   7
ENDBRANCH   5   6
ENDBRANCH   4   5
ENDBRANCH   3   4
ENDBRANCH   2   3
ENDBRANCH   1   2
BRANCH   1  12
ATOM     12  C   UNL     1     -35.108  22.270 -27.182  1.00  0.00     0.000 C 
BRANCH  12  13
ATOM     13  C   UNL     1     -34.323  20.994 -27.536  1.00  0.00    -0.000 C 
BRANCH  13  14
ATOM     14  C   UNL     1     -34.815  19.757 -26.763  1.00  0.00    -0.000 C 
BRANCH  14  15
ATOM     15  C   UNL     1     -35.457  18.707 -27.684  1.00  0.00    -0.000 C 
BRANCH  15  16
ATOM     16  C   UNL     1     -34.697  18.542 -29.008  1.00  0.00    -0.000 C 
BRANCH  16  17
ATOM     17  C   UNL     1     -35.246  17.357 -29.812  1.00  0.00    -0.000 C 
BRANCH  17  18
ATOM     18  C   UNL     1     -36.757  17.193 -29.586  1.00  0.00    -0.000 C 
BRANCH  18  19
ATOM     19  C   UNL     1     -37.589  17.728 -30.761  1.00  0.00    -0.003 C 
ATOM     20  C   UNL     1     -38.990  17.119 -30.816  1.00  0.00     0.004 C 
ENDBRANCH  18  19
ENDBRANCH  17  18
ENDBRANCH  16  17
ENDBRANCH  15  16
ENDBRANCH  14  15
ENDBRANCH  13  14
ENDBRANCH  12  13
ENDBRANCH   1  12
TORSDOF 16
ENDMDL
MODEL 6
REMARK VINA RESULT:    -4.063     14.973     17.134
REMARK INTER + INTRA:         -10.605
REMARK INTER:                  -7.760
REMARK INTRA:                  -2.845
REMARK UNBOUND:                -2.742
REMARK SMILES CCCCCCCCCCCCCCCCCC(=O)[O-]
REMARK SMILES IDX 10 1 11 2 12 3 13 4 14 5 15 6 16 7 17 8 18 9 19 10 20 11
REMARK SMILES IDX 9 12 8 13 7 14 6 15 5 16 4 17 3 18 2 19 1 20
REMARK H PARENT
REMARK Flexibility Score: inf
ROOT
ATOM      1  C   UNL     1     -48.373   8.109 -33.123  1.00  0.00     0.000 C 
ENDROOT
BRANCH   1   2
ATOM      2  C   UNL     1     -49.810   8.632 -32.968  1.00  0.00     0.000 C 
BRANCH   2   3
ATOM      3  C   UNL     1     -50.870   7.545 -33.252  1.00  0.00     0.000 C 
BRANCH   3   4
ATOM      4  C   UNL     1     -52.060   7.572 -32.275  1.00  0.00     0.000 C 
BRANCH   4   5
ATOM      5  C   UNL     1     -51.738   8.141 -30.881  1.00  0.00     0.000 C 
BRANCH   5   6
ATOM      6  C   UNL     1     -52.967   8.432 -29.993  1.00  0.00     0.000 C 
BRANCH   6   7
ATOM      7  C   UNL     1     -53.503   9.872 -30.070  1.00  0.00     0.006 C 
BRANCH   7   8
ATOM      8  C   UNL     1     -52.407  10.902 -30.371  1.00  0.00     0.053 C 
BRANCH   8   9
ATOM      9  C   UNL     1     -52.703  11.620 -31.650  1.00  0.00     0.041 C 
ATOM     10  O   UNL     1     -52.249  11.185 -32.741  1.00  0.00    -0.550 OA
ATOM     11  O   UNL     1     -53.441  12.799 -31.633  1.00  0.00    -0.550 OA
ENDBRANCH   8   9
ENDBRANCH   7   8
ENDBRANCH   6   7
ENDBRANCH   5   6
ENDBRANCH   4   5
ENDBRANCH   3   4
ENDBRANCH   2   3
ENDBRANCH   1   2
BRANCH   1  12
ATOM     12  C   UNL     1     -48.279   6.576 -33.019  1.00  0.00     0.000 C 
BRANCH  12  13
ATOM     13  C   UNL     1     -47.690   6.050 -31.697  1.00  0.00    -0.000 C 
BRANCH  13  14
ATOM     14  C   UNL     1     -48.730   5.983 -30.565  1.00  0.00    -0.000 C 
BRANCH  14  15
ATOM     15  C   UNL     1     -48.545   7.104 -29.530  1.00  0.00    -0.000 C 
BRANCH  15  16
ATOM     16  C   UNL     1     -47.146   7.736 -29.590  1.00  0.00    -0.000 C 
BRANCH  16  17
ATOM     17  C   UNL     1     -47.237   9.262 -29.699  1.00  0.00    -0.000 C 
BRANCH  17  18
ATOM     18  C   UNL     1     -48.691   9.737 -29.561  1.00  0.00    -0.000 C 
BRANCH  18  19
ATOM     19  C   UNL     1     -48.840  10.897 -28.566  1.00  0.00    -0.003 C 
ATOM     20  C   UNL     1     -49.191  12.218 -29.251  1.00  0.00     0.004 C 
ENDBRANCH  18  19
ENDBRANCH  17  18
ENDBRANCH  16  17
ENDBRANCH  15  16
ENDBRANCH  14  15
ENDBRANCH  13  14
ENDBRANCH  12  13
ENDBRANCH   1  12
TORSDOF 16
ENDMDL
MODEL 7
REMARK VINA RESULT:    -4.055     14.058     15.876
REMARK INTER + INTRA:         -10.589
REMARK INTER:                  -7.974
REMARK INTRA:                  -2.615
REMARK UNBOUND:                -2.742
REMARK SMILES CCCCCCCCCCCCCCCCCC(=O)[O-]
REMARK SMILES IDX 10 1 11 2 12 3 13 4 14 5 15 6 16 7 17 8 18 9 19 10 20 11
REMARK SMILES IDX 9 12 8 13 7 14 6 15 5 16 4 17 3 18 2 19 1 20
REMARK H PARENT
REMARK Flexibility Score: inf
ROOT
ATOM      1  C   UNL     1     -47.833  10.738 -29.310  1.00  0.00     0.000 C 
ENDROOT
BRANCH   1   2
ATOM      2  C   UNL     1     -49.269  10.410 -28.872  1.00  0.00     0.000 C 
BRANCH   2   3
ATOM      3  C   UNL     1     -50.253  11.567 -29.156  1.00  0.00     0.000 C 
BRANCH   3   4
ATOM      4  C   UNL     1     -49.565  12.867 -29.614  1.00  0.00     0.000 C 
BRANCH   4   5
ATOM      5  C   UNL     1     -50.300  13.627 -30.733  1.00  0.00     0.000 C 
BRANCH   5   6
ATOM      6  C   UNL     1     -51.772  13.213 -30.949  1.00  0.00     0.000 C 
BRANCH   6   7
ATOM      7  C   UNL     1     -52.814  14.143 -30.304  1.00  0.00     0.006 C 
BRANCH   7   8
ATOM      8  C   UNL     1     -52.179  15.299 -29.521  1.00  0.00     0.053 C 
BRANCH   8   9
ATOM      9  C   UNL     1     -52.389  16.593 -30.242  1.00  0.00     0.041 C 
ATOM     10  O   UNL     1     -51.610  17.563 -30.045  1.00  0.00    -0.550 OA
ATOM     11  O   UNL     1     -53.476  16.747 -31.097  1.00  0.00    -0.550 OA
ENDBRANCH   8   9
ENDBRANCH   7   8
ENDBRANCH   6   7
ENDBRANCH   5   6
ENDBRANCH   4   5
ENDBRANCH   3   4
ENDBRANCH   2   3
ENDBRANCH   1   2
BRANCH   1  12
ATOM     12  C   UNL     1     -47.099   9.526 -29.913  1.00  0.00     0.000 C 
BRANCH  12  13
ATOM     13  C   UNL     1     -47.865   8.194 -29.822  1.00  0.00    -0.000 C 
BRANCH  13  14
ATOM     14  C   UNL     1     -48.289   7.654 -31.200  1.00  0.00    -0.000 C 
BRANCH  14  15
ATOM     15  C   UNL     1     -47.759   8.517 -32.357  1.00  0.00    -0.000 C 
BRANCH  15  16
ATOM     16  C   UNL     1     -48.880   9.012 -33.283  1.00  0.00    -0.000 C 
BRANCH  16  17
ATOM     17  C   UNL     1     -49.870   9.899 -32.519  1.00  0.00    -0.000 C 
BRANCH  17  18
ATOM     18  C   UNL     1     -51.308   9.380 -32.678  1.00  0.00    -0.000 C 
BRANCH  18  19
ATOM     19  C   UNL     1     -52.109   9.454 -31.370  1.00  0.00    -0.003 C 
ATOM     20  C   UNL     1     -51.883   8.238 -30.472  1.00  0.00     0.004 C 
ENDBRANCH  18  19
ENDBRANCH  17  18
ENDBRANCH  16  17
ENDBRANCH  15  16
ENDBRANCH  14  15
ENDBRANCH  13  14
ENDBRANCH  12  13
ENDBRANCH   1  12
TORSDOF 16
ENDMDL
MODEL 8
REMARK VINA RESULT:    -4.043      2.818      5.968
REMARK INTER + INTRA:         -10.566
REMARK INTER:                  -8.357
REMARK INTRA:                  -2.209
REMARK UNBOUND:                -2.742
REMARK SMILES CCCCCCCCCCCCCCCCCC(=O)[O-]
REMARK SMILES IDX 10 1 11 2 12 3 13 4 14 5 15 6 16 7 17 8 18 9 19 10 20 11
REMARK SMILES IDX 9 12 8 13 7 14 6 15 5 16 4 17 3 18 2 19 1 20
REMARK H PARENT
REMARK Flexibility Score: inf
ROOT
ATOM      1  C   UNL     1     -36.105  22.758 -29.344  1.00  0.00     0.000 C 
ENDROOT
BRANCH   1   2
ATOM      2  C   UNL     1     -35.721  22.653 -27.859  1.00  0.00     0.000 C 
BRANCH   2   3
ATOM      3  C   UNL     1     -34.270  22.163 -27.656  1.00  0.00     0.000 C 
BRANCH   3   4
ATOM      4  C   UNL     1     -34.143  21.002 -26.652  1.00  0.00     0.000 C 
BRANCH   4   5
ATOM      5  C   UNL     1     -34.453  19.610 -27.232  1.00  0.00     0.000 C 
BRANCH   5   6
ATOM      6  C   UNL     1     -35.784  18.985 -26.763  1.00  0.00     0.000 C 
BRANCH   6   7
ATOM      7  C   UNL     1     -36.591  18.267 -27.859  1.00  0.00     0.006 C 
BRANCH   7   8
ATOM      8  C   UNL     1     -35.757  17.956 -29.108  1.00  0.00     0.053 C 
BRANCH   8   9
ATOM      9  C   UNL     1     -36.418  16.891 -29.924  1.00  0.00     0.041 C 
ATOM     10  O   UNL     1     -35.726  16.004 -30.492  1.00  0.00    -0.550 OA
ATOM     11  O   UNL     1     -37.798  16.903 -30.102  1.00  0.00    -0.550 OA
ENDBRANCH   8   9
ENDBRANCH   7   8
ENDBRANCH   6   7
ENDBRANCH   5   6
ENDBRANCH   4   5
ENDBRANCH   3   4
ENDBRANCH   2   3
ENDBRANCH   1   2
BRANCH   1  12
ATOM     12  C   UNL     1     -35.530  21.611 -30.195  1.00  0.00     0.000 C 
BRANCH  12  13
ATOM     13  C   UNL     1     -36.249  21.375 -31.535  1.00  0.00    -0.000 C 
BRANCH  13  14
ATOM     14  C   UNL     1     -37.310  20.263 -31.455  1.00  0.00    -0.000 C 
BRANCH  14  15
ATOM     15  C   UNL     1     -38.676  20.788 -30.984  1.00  0.00    -0.000 C 
BRANCH  15  16
ATOM     16  C   UNL     1     -38.978  20.416 -29.524  1.00  0.00    -0.000 C 
BRANCH  16  17
ATOM     17  C   UNL     1     -40.224  21.151 -29.017  1.00  0.00    -0.000 C 
BRANCH  17  18
ATOM     18  C   UNL     1     -40.315  22.560 -29.622  1.00  0.00    -0.000 C 
BRANCH  18  19
ATOM     19  C   UNL     1     -41.681  22.837 -30.268  1.00  0.00    -0.003 C 
ATOM     20  C   UNL     1     -42.516  23.839 -29.472  1.00  0.00     0.004 C 
ENDBRANCH  18  19
ENDBRANCH  17  18
ENDBRANCH  16  17
ENDBRANCH  15  16
ENDBRANCH  14  15
ENDBRANCH  13  14
ENDBRANCH  12  13
ENDBRANCH   1  12
TORSDOF 16
ENDMDL
