MODEL 1
REMARK VINA RESULT:    -5.125      0.000      0.000
REMARK INTER + INTRA:         -16.058
REMARK INTER:                 -11.717
REMARK INTRA:                  -4.341
REMARK UNBOUND:                -4.341
REMARK SMILES CCCCCCCCCCCCCCCCCCCCCCCC(=O)[O-]
REMARK SMILES IDX 13 1 14 2 15 3 16 4 17 5 18 6 19 7 20 8 21 9 22 10 23 11
REMARK SMILES IDX 24 12 25 13 26 14 12 15 11 16 10 17 9 18 8 19 7 20 6 21 5 22
REMARK SMILES IDX 4 23 3 24 2 25 1 26
REMARK H PARENT
REMARK Flexibility Score: inf
ROOT
ATOM      1  C   UNL     1      18.469  -0.608  18.617  1.00  0.00     0.000 C 
ENDROOT
BRANCH   1   2
ATOM      2  C   UNL     1      17.241   0.308  18.727  1.00  0.00     0.000 C 
BRANCH   2   3
ATOM      3  C   UNL     1      15.966  -0.328  18.146  1.00  0.00     0.000 C 
BRANCH   3   4
ATOM      4  C   UNL     1      15.020  -0.967  19.185  1.00  0.00     0.000 C 
BRANCH   4   5
ATOM      5  C   UNL     1      15.422  -0.744  20.654  1.00  0.00     0.000 C 
BRANCH   5   6
ATOM      6  C   UNL     1      16.384  -1.801  21.234  1.00  0.00     0.000 C 
BRANCH   6   7
ATOM      7  C   UNL     1      16.210  -3.205  20.615  1.00  0.00     0.000 C 
BRANCH   7   8
ATOM      8  C   UNL     1      17.544  -3.810  20.143  1.00  0.00     0.000 C 
BRANCH   8   9
ATOM      9  C   UNL     1      17.389  -4.688  18.889  1.00  0.00     0.000 C 
BRANCH   9  10
ATOM     10  C   UNL     1      17.220  -3.862  17.605  1.00  0.00     0.006 C 
BRANCH  10  11
ATOM     11  C   UNL     1      15.759  -3.861  17.142  1.00  0.00     0.053 C 
BRANCH  11  12
ATOM     12  C   UNL     1      15.238  -5.259  17.024  1.00  0.00     0.041 C 
ATOM     13  O   UNL     1      14.297  -5.650  17.765  1.00  0.00    -0.550 OA
ATOM     14  O   UNL     1      15.799  -6.136  16.105  1.00  0.00    -0.550 OA
ENDBRANCH  11  12
ENDBRANCH  10  11
ENDBRANCH   9  10
ENDBRANCH   8   9
ENDBRANCH   7   8
ENDBRANCH   6   7
ENDBRANCH   5   6
ENDBRANCH   4   5
ENDBRANCH   3   4
ENDBRANCH   2   3
ENDBRANCH   1   2
BRANCH   1  15
ATOM     15  C   UNL     1      19.429  -0.391  19.797  1.00  0.00     0.000 C 
BRANCH  15  16
ATOM     16  C   UNL     1      18.952   0.716  20.752  1.00  0.00     0.000 C 
BRANCH  16  17
ATOM     17  C   UNL     1      19.474   0.528  22.186  1.00  0.00     0.000 C 
BRANCH  17  18
ATOM     18  C   UNL     1      21.006   0.407  22.244  1.00  0.00    -0.000 C 
BRANCH  18  19
ATOM     19  C   UNL     1      21.479  -0.741  23.148  1.00  0.00    -0.000 C 
BRANCH  19  20
ATOM     20  C   UNL     1      20.368  -1.785  23.332  1.00  0.00    -0.000 C 
BRANCH  20  21
ATOM     21  C   UNL     1      20.614  -3.057  22.495  1.00  0.00    -0.000 C 
BRANCH  21  22
ATOM     22  C   UNL     1      22.024  -3.126  21.875  1.00  0.00    -0.000 C 
BRANCH  22  23
ATOM     23  C   UNL     1      22.059  -3.037  20.340  1.00  0.00    -0.000 C 
BRANCH  23  24
ATOM     24  C   UNL     1      21.051  -3.981  19.669  1.00  0.00    -0.000 C 
BRANCH  24  25
ATOM     25  C   UNL     1      20.961  -3.702  18.163  1.00  0.00    -0.003 C 
ATOM     26  C   UNL     1      21.613  -4.822  17.356  1.00  0.00     0.004 C 
ENDBRANCH  24  25
ENDBRANCH  23  24
ENDBRANCH  22  23
ENDBRANCH  21  22
ENDBRANCH  20  21
ENDBRANCH  19  20
ENDBRANCH  18  19
ENDBRANCH  17  18
ENDBRANCH  16  17
ENDBRANCH  15  16
ENDBRANCH   1  15
TORSDOF 22
ENDMDL
MODEL 2
REMARK VINA RESULT:    -5.092      1.993      5.528
REMARK INTER + INTRA:         -15.982
REMARK INTER:                 -11.604
REMARK INTRA:                  -4.378
REMARK UNBOUND:                -4.341
REMARK SMILES CCCCCCCCCCCCCCCCCCCCCCCC(=O)[O-]
REMARK SMILES IDX 13 1 14 2 15 3 16 4 17 5 18 6 19 7 20 8 21 9 22 10 23 11
REMARK SMILES IDX 24 12 25 13 26 14 12 15 11 16 10 17 9 18 8 19 7 20 6 21 5 22
REMARK SMILES IDX 4 23 3 24 2 25 1 26
REMARK H PARENT
REMARK Flexibility Score: inf
ROOT
ATOM      1  C   UNL     1      20.029  -0.224  20.141  1.00  0.00     0.000 C 
ENDROOT
BRANCH   1   2
ATOM      2  C   UNL     1      21.532  -0.010  20.373  1.00  0.00     0.000 C 
BRANCH   2   3
ATOM      3  C   UNL     1      21.826   0.937  21.550  1.00  0.00     0.000 C 
BRANCH   3   4
ATOM      4  C   UNL     1      22.505   0.277  22.769  1.00  0.00     0.000 C 
BRANCH   4   5
ATOM      5  C   UNL     1      22.604  -1.258  22.708  1.00  0.00     0.000 C 
BRANCH   5   6
ATOM      6  C   UNL     1      21.403  -2.012  23.312  1.00  0.00     0.000 C 
BRANCH   6   7
ATOM      7  C   UNL     1      21.161  -3.402  22.683  1.00  0.00     0.000 C 
BRANCH   7   8
ATOM      8  C   UNL     1      19.839  -3.471  21.899  1.00  0.00     0.000 C 
BRANCH   8   9
ATOM      9  C   UNL     1      20.010  -4.085  20.499  1.00  0.00     0.000 C 
BRANCH   9  10
ATOM     10  C   UNL     1      21.393  -3.805  19.893  1.00  0.00     0.006 C 
BRANCH  10  11
ATOM     11  C   UNL     1      21.282  -3.477  18.400  1.00  0.00     0.053 C 
BRANCH  11  12
ATOM     12  C   UNL     1      21.585  -4.683  17.567  1.00  0.00     0.041 C 
ATOM     13  O   UNL     1      22.615  -4.713  16.843  1.00  0.00    -0.550 OA
ATOM     14  O   UNL     1      20.722  -5.771  17.580  1.00  0.00    -0.550 OA
ENDBRANCH  11  12
ENDBRANCH  10  11
ENDBRANCH   9  10
ENDBRANCH   8   9
ENDBRANCH   7   8
ENDBRANCH   6   7
ENDBRANCH   5   6
ENDBRANCH   4   5
ENDBRANCH   3   4
ENDBRANCH   2   3
ENDBRANCH   1   2
BRANCH   1  15
ATOM     15  C   UNL     1      19.192   0.675  21.065  1.00  0.00     0.000 C 
BRANCH  15  16
ATOM     16  C   UNL     1      18.397  -0.128  22.108  1.00  0.00     0.000 C 
BRANCH  16  17
ATOM     17  C   UNL     1      17.308  -1.009  21.473  1.00  0.00     0.000 C 
BRANCH  17  18
ATOM     18  C   UNL     1      16.266  -0.190  20.694  1.00  0.00    -0.000 C 
BRANCH  18  19
ATOM     19  C   UNL     1      15.356  -1.062  19.818  1.00  0.00    -0.000 C 
BRANCH  19  20
ATOM     20  C   UNL     1      15.454  -0.644  18.343  1.00  0.00    -0.000 C 
BRANCH  20  21
ATOM     21  C   UNL     1      16.790   0.057  18.020  1.00  0.00    -0.000 C 
BRANCH  21  22
ATOM     22  C   UNL     1      17.800  -0.847  17.286  1.00  0.00    -0.000 C 
BRANCH  22  23
ATOM     23  C   UNL     1      18.088  -2.189  17.981  1.00  0.00    -0.000 C 
BRANCH  23  24
ATOM     24  C   UNL     1      17.553  -3.392  17.191  1.00  0.00    -0.000 C 
BRANCH  24  25
ATOM     25  C   UNL     1      16.594  -4.226  18.050  1.00  0.00    -0.003 C 
ATOM     26  C   UNL     1      15.413  -4.729  17.224  1.00  0.00     0.004 C 
ENDBRANCH  24  25
ENDBRANCH  23  24
ENDBRANCH  22  23
ENDBRANCH  21  22
ENDBRANCH  20  21
ENDBRANCH  19  20
ENDBRANCH  18  19
ENDBRANCH  17  18
ENDBRANCH  16  17
ENDBRANCH  15  16
ENDBRANCH   1  15
TORSDOF 22
ENDMDL
MODEL 3
REMARK VINA RESULT:    -4.969      1.381      3.971
REMARK INTER + INTRA:         -15.701
REMARK INTER:                 -11.498
REMARK INTRA:                  -4.203
REMARK UNBOUND:                -4.341
REMARK SMILES CCCCCCCCCCCCCCCCCCCCCCCC(=O)[O-]
REMARK SMILES IDX 13 1 14 2 15 3 16 4 17 5 18 6 19 7 20 8 21 9 22 10 23 11
REMARK SMILES IDX 24 12 25 13 26 14 12 15 11 16 10 17 9 18 8 19 7 20 6 21 5 22
REMARK SMILES IDX 4 23 3 24 2 25 1 26
REMARK H PARENT
REMARK Flexibility Score: inf
ROOT
ATOM      1  C   UNL     1      18.360  -3.683  21.047  1.00  0.00     0.000 C 
ENDROOT
BRANCH   1   2
ATOM      2  C   UNL     1      18.619  -4.792  20.017  1.00  0.00     0.000 C 
BRANCH   2   3
ATOM      3  C   UNL     1      20.023  -4.709  19.390  1.00  0.00     0.000 C 
BRANCH   3   4
ATOM      4  C   UNL     1      20.593  -3.282  19.245  1.00  0.00     0.000 C 
BRANCH   4   5
ATOM      5  C   UNL     1      20.218  -2.561  17.937  1.00  0.00     0.000 C 
BRANCH   5   6
ATOM      6  C   UNL     1      19.579  -1.170  18.120  1.00  0.00     0.000 C 
BRANCH   6   7
ATOM      7  C   UNL     1      18.421  -0.884  17.138  1.00  0.00     0.000 C 
BRANCH   7   8
ATOM      8  C   UNL     1      17.070  -1.413  17.650  1.00  0.00     0.000 C 
BRANCH   8   9
ATOM      9  C   UNL     1      16.885  -2.919  17.398  1.00  0.00     0.000 C 
BRANCH   9  10
ATOM     10  C   UNL     1      15.486  -3.418  17.788  1.00  0.00     0.006 C 
BRANCH  10  11
ATOM     11  C   UNL     1      15.519  -4.904  18.163  1.00  0.00     0.053 C 
BRANCH  11  12
ATOM     12  C   UNL     1      14.945  -5.742  17.064  1.00  0.00     0.041 C 
ATOM     13  O   UNL     1      15.676  -6.136  16.116  1.00  0.00    -0.550 OA
ATOM     14  O   UNL     1      13.597  -6.078  17.077  1.00  0.00    -0.550 OA
ENDBRANCH  11  12
ENDBRANCH  10  11
ENDBRANCH   9  10
ENDBRANCH   8   9
ENDBRANCH   7   8
ENDBRANCH   6   7
ENDBRANCH   5   6
ENDBRANCH   4   5
ENDBRANCH   3   4
ENDBRANCH   2   3
ENDBRANCH   1   2
BRANCH   1  15
ATOM     15  C   UNL     1      16.895  -3.219  21.004  1.00  0.00     0.000 C 
BRANCH  15  16
ATOM     16  C   UNL     1      16.758  -1.688  21.067  1.00  0.00     0.000 C 
BRANCH  16  17
ATOM     17  C   UNL     1      18.109  -0.980  21.265  1.00  0.00     0.000 C 
BRANCH  17  18
ATOM     18  C   UNL     1      18.021   0.190  22.258  1.00  0.00    -0.000 C 
BRANCH  18  19
ATOM     19  C   UNL     1      19.279   1.071  22.255  1.00  0.00    -0.000 C 
BRANCH  19  20
ATOM     20  C   UNL     1      20.186   0.723  21.065  1.00  0.00    -0.000 C 
BRANCH  20  21
ATOM     21  C   UNL     1      21.676   0.985  21.367  1.00  0.00    -0.000 C 
BRANCH  21  22
ATOM     22  C   UNL     1      22.591  -0.216  21.055  1.00  0.00    -0.000 C 
BRANCH  22  23
ATOM     23  C   UNL     1      22.911  -1.114  22.262  1.00  0.00    -0.000 C 
BRANCH  23  24
ATOM     24  C   UNL     1      22.540  -2.584  22.021  1.00  0.00    -0.000 C 
BRANCH  24  25
ATOM     25  C   UNL     1      21.338  -2.992  22.881  1.00  0.00    -0.003 C 
ATOM     26  C   UNL     1      20.936  -1.869  23.833  1.00  0.00     0.004 C 
ENDBRANCH  24  25
ENDBRANCH  23  24
ENDBRANCH  22  23
ENDBRANCH  21  22
ENDBRANCH  20  21
ENDBRANCH  19  20
ENDBRANCH  18  19
ENDBRANCH  17  18
ENDBRANCH  16  17
ENDBRANCH  15  16
ENDBRANCH   1  15
TORSDOF 22
ENDMDL
MODEL 4
REMARK VINA RESULT:    -4.894      3.891      6.900
REMARK INTER + INTRA:         -15.529
REMARK INTER:                 -11.709
REMARK INTRA:                  -3.820
REMARK UNBOUND:                -4.341
REMARK SMILES CCCCCCCCCCCCCCCCCCCCCCCC(=O)[O-]
REMARK SMILES IDX 13 1 14 2 15 3 16 4 17 5 18 6 19 7 20 8 21 9 22 10 23 11
REMARK SMILES IDX 24 12 25 13 26 14 12 15 11 16 10 17 9 18 8 19 7 20 6 21 5 22
REMARK SMILES IDX 4 23 3 24 2 25 1 26
REMARK H PARENT
REMARK Flexibility Score: inf
ROOT
ATOM      1  C   UNL     1      20.326  -0.992  19.415  1.00  0.00     0.000 C 
ENDROOT
BRANCH   1   2
ATOM      2  C   UNL     1      20.501  -2.372  20.066  1.00  0.00     0.000 C 
BRANCH   2   3
ATOM      3  C   UNL     1      21.935  -2.619  20.567  1.00  0.00     0.000 C 
BRANCH   3   4
ATOM      4  C   UNL     1      22.038  -3.243  21.975  1.00  0.00     0.000 C 
BRANCH   4   5
ATOM      5  C   UNL     1      20.895  -2.874  22.937  1.00  0.00     0.000 C 
BRANCH   5   6
ATOM      6  C   UNL     1      21.114  -1.576  23.741  1.00  0.00     0.000 C 
BRANCH   6   7
ATOM      7  C   UNL     1      20.012  -0.516  23.522  1.00  0.00     0.000 C 
BRANCH   7   8
ATOM      8  C   UNL     1      20.461   0.614  22.579  1.00  0.00     0.000 C 
BRANCH   8   9
ATOM      9  C   UNL     1      21.950   0.965  22.737  1.00  0.00     0.000 C 
BRANCH   9  10
ATOM     10  C   UNL     1      22.727   0.862  21.415  1.00  0.00     0.006 C 
BRANCH  10  11
ATOM     11  C   UNL     1      24.223   1.104  21.639  1.00  0.00     0.053 C 
BRANCH  11  12
ATOM     12  C   UNL     1      24.798   0.069  22.554  1.00  0.00     0.041 C 
ATOM     13  O   UNL     1      24.616  -1.156  22.323  1.00  0.00    -0.550 OA
ATOM     14  O   UNL     1      25.526   0.456  23.672  1.00  0.00    -0.550 OA
ENDBRANCH  11  12
ENDBRANCH  10  11
ENDBRANCH   9  10
ENDBRANCH   8   9
ENDBRANCH   7   8
ENDBRANCH   6   7
ENDBRANCH   5   6
ENDBRANCH   4   5
ENDBRANCH   3   4
ENDBRANCH   2   3
ENDBRANCH   1   2
BRANCH   1  15
ATOM     15  C   UNL     1      20.041  -1.122  17.909  1.00  0.00     0.000 C 
BRANCH  15  16
ATOM     16  C   UNL     1      18.601  -1.575  17.618  1.00  0.00     0.000 C 
BRANCH  16  17
ATOM     17  C   UNL     1      17.602  -0.405  17.609  1.00  0.00     0.000 C 
BRANCH  17  18
ATOM     18  C   UNL     1      16.373  -0.673  18.494  1.00  0.00    -0.000 C 
BRANCH  18  19
ATOM     19  C   UNL     1      16.152  -2.167  18.771  1.00  0.00    -0.000 C 
BRANCH  19  20
ATOM     20  C   UNL     1      16.197  -2.455  20.279  1.00  0.00    -0.000 C 
BRANCH  20  21
ATOM     21  C   UNL     1      17.281  -3.489  20.646  1.00  0.00    -0.000 C 
BRANCH  21  22
ATOM     22  C   UNL     1      17.451  -4.606  19.597  1.00  0.00    -0.000 C 
BRANCH  22  23
ATOM     23  C   UNL     1      18.902  -5.062  19.368  1.00  0.00    -0.000 C 
BRANCH  23  24
ATOM     24  C   UNL     1      19.323  -4.979  17.895  1.00  0.00    -0.000 C 
BRANCH  24  25
ATOM     25  C   UNL     1      20.653  -5.708  17.666  1.00  0.00    -0.003 C 
ATOM     26  C   UNL     1      21.783  -4.718  17.393  1.00  0.00     0.004 C 
ENDBRANCH  24  25
ENDBRANCH  23  24
ENDBRANCH  22  23
ENDBRANCH  21  22
ENDBRANCH  20  21
ENDBRANCH  19  20
ENDBRANCH  18  19
ENDBRANCH  17  18
ENDBRANCH  16  17
ENDBRANCH  15  16
ENDBRANCH   1  15
TORSDOF 22
ENDMDL
MODEL 5
REMARK VINA RESULT:    -4.888      3.664      6.790
REMARK INTER + INTRA:         -15.516
REMARK INTER:                 -11.841
REMARK INTRA:                  -3.676
REMARK UNBOUND:                -4.341
REMARK SMILES CCCCCCCCCCCCCCCCCCCCCCCC(=O)[O-]
REMARK SMILES IDX 13 1 14 2 15 3 16 4 17 5 18 6 19 7 20 8 21 9 22 10 23 11
REMARK SMILES IDX 24 12 25 13 26 14 12 15 11 16 10 17 9 18 8 19 7 20 6 21 5 22
REMARK SMILES IDX 4 23 3 24 2 25 1 26
REMARK H PARENT
REMARK Flexibility Score: inf
ROOT
ATOM      1  C   UNL     1      19.593  -1.222  18.219  1.00  0.00     0.000 C 
ENDROOT
BRANCH   1   2
ATOM      2  C   UNL     1      19.730  -2.751  18.179  1.00  0.00     0.000 C 
BRANCH   2   3
ATOM      3  C   UNL     1      21.015  -3.255  18.861  1.00  0.00     0.000 C 
BRANCH   3   4
ATOM      4  C   UNL     1      20.794  -4.101  20.134  1.00  0.00     0.000 C 
BRANCH   4   5
ATOM      5  C   UNL     1      20.153  -3.348  21.313  1.00  0.00     0.000 C 
BRANCH   5   6
ATOM      6  C   UNL     1      20.998  -3.315  22.602  1.00  0.00     0.000 C 
BRANCH   6   7
ATOM      7  C   UNL     1      20.907  -1.979  23.372  1.00  0.00     0.000 C 
BRANCH   7   8
ATOM      8  C   UNL     1      19.876  -1.015  22.760  1.00  0.00     0.000 C 
BRANCH   8   9
ATOM      9  C   UNL     1      20.512   0.283  22.236  1.00  0.00     0.000 C 
BRANCH   9  10
ATOM     10  C   UNL     1      21.566   0.030  21.148  1.00  0.00     0.006 C 
BRANCH  10  11
ATOM     11  C   UNL     1      22.638   1.125  21.157  1.00  0.00     0.053 C 
BRANCH  11  12
ATOM     12  C   UNL     1      23.889   0.639  21.819  1.00  0.00     0.041 C 
ATOM     13  O   UNL     1      25.014   1.055  21.433  1.00  0.00    -0.550 OA
ATOM     14  O   UNL     1      23.816  -0.283  22.855  1.00  0.00    -0.550 OA
ENDBRANCH  11  12
ENDBRANCH  10  11
ENDBRANCH   9  10
ENDBRANCH   8   9
ENDBRANCH   7   8
ENDBRANCH   6   7
ENDBRANCH   5   6
ENDBRANCH   4   5
ENDBRANCH   3   4
ENDBRANCH   2   3
ENDBRANCH   1   2
BRANCH   1  15
ATOM     15  C   UNL     1      18.335  -0.760  17.467  1.00  0.00     0.000 C 
BRANCH  15  16
ATOM     16  C   UNL     1      17.328  -0.047  18.384  1.00  0.00     0.000 C 
BRANCH  16  17
ATOM     17  C   UNL     1      17.786  -0.009  19.852  1.00  0.00     0.000 C 
BRANCH  17  18
ATOM     18  C   UNL     1      16.634  -0.272  20.836  1.00  0.00    -0.000 C 
BRANCH  18  19
ATOM     19  C   UNL     1      15.853  -1.553  20.511  1.00  0.00    -0.000 C 
BRANCH  19  20
ATOM     20  C   UNL     1      16.746  -2.793  20.672  1.00  0.00    -0.000 C 
BRANCH  20  21
ATOM     21  C   UNL     1      16.527  -3.824  19.545  1.00  0.00    -0.000 C 
BRANCH  21  22
ATOM     22  C   UNL     1      15.848  -3.236  18.293  1.00  0.00    -0.000 C 
BRANCH  22  23
ATOM     23  C   UNL     1      15.723  -4.210  17.109  1.00  0.00    -0.000 C 
BRANCH  23  24
ATOM     24  C   UNL     1      14.851  -5.430  17.435  1.00  0.00    -0.000 C 
BRANCH  24  25
ATOM     25  C   UNL     1      14.803  -6.400  16.248  1.00  0.00    -0.003 C 
ATOM     26  C   UNL     1      16.122  -6.395  15.480  1.00  0.00     0.004 C 
ENDBRANCH  24  25
ENDBRANCH  23  24
ENDBRANCH  22  23
ENDBRANCH  21  22
ENDBRANCH  20  21
ENDBRANCH  19  20
ENDBRANCH  18  19
ENDBRANCH  17  18
ENDBRANCH  16  17
ENDBRANCH  15  16
ENDBRANCH   1  15
TORSDOF 22
ENDMDL
MODEL 6
REMARK VINA RESULT:    -4.874      1.280      3.671
REMARK INTER + INTRA:         -15.484
REMARK INTER:                 -11.454
REMARK INTRA:                  -4.030
REMARK UNBOUND:                -4.341
REMARK SMILES CCCCCCCCCCCCCCCCCCCCCCCC(=O)[O-]
REMARK SMILES IDX 13 1 14 2 15 3 16 4 17 5 18 6 19 7 20 8 21 9 22 10 23 11
REMARK SMILES IDX 24 12 25 13 26 14 12 15 11 16 10 17 9 18 8 19 7 20 6 21 5 22
REMARK SMILES IDX 4 23 3 24 2 25 1 26
REMARK H PARENT
REMARK Flexibility Score: inf
ROOT
ATOM      1  C   UNL     1      22.526  -2.329  21.477  1.00  0.00     0.000 C 
ENDROOT
BRANCH   1   2
ATOM      2  C   UNL     1      21.618  -3.452  21.998  1.00  0.00     0.000 C 
BRANCH   2   3
ATOM      3  C   UNL     1      20.130  -3.059  22.014  1.00  0.00     0.000 C 
BRANCH   3   4
ATOM      4  C   UNL     1      19.173  -4.089  21.375  1.00  0.00     0.000 C 
BRANCH   4   5
ATOM      5  C   UNL     1      17.859  -3.505  20.827  1.00  0.00     0.000 C 
BRANCH   5   6
ATOM      6  C   UNL     1      17.620  -2.018  21.158  1.00  0.00     0.000 C 
BRANCH   6   7
ATOM      7  C   UNL     1      16.223  -1.506  20.743  1.00  0.00     0.000 C 
BRANCH   7   8
ATOM      8  C   UNL     1      16.291  -0.442  19.634  1.00  0.00     0.000 C 
BRANCH   8   9
ATOM      9  C   UNL     1      15.477  -0.828  18.387  1.00  0.00     0.000 C 
BRANCH   9  10
ATOM     10  C   UNL     1      15.203  -2.338  18.303  1.00  0.00     0.006 C 
BRANCH  10  11
ATOM     11  C   UNL     1      16.219  -3.029  17.387  1.00  0.00     0.053 C 
BRANCH  11  12
ATOM     12  C   UNL     1      16.041  -4.514  17.422  1.00  0.00     0.041 C 
ATOM     13  O   UNL     1      15.500  -5.067  18.417  1.00  0.00    -0.550 OA
ATOM     14  O   UNL     1      16.486  -5.293  16.362  1.00  0.00    -0.550 OA
ENDBRANCH  11  12
ENDBRANCH  10  11
ENDBRANCH   9  10
ENDBRANCH   8   9
ENDBRANCH   7   8
ENDBRANCH   6   7
ENDBRANCH   5   6
ENDBRANCH   4   5
ENDBRANCH   3   4
ENDBRANCH   2   3
ENDBRANCH   1   2
BRANCH   1  15
ATOM     15  C   UNL     1      23.030  -1.445  22.630  1.00  0.00     0.000 C 
BRANCH  15  16
ATOM     16  C   UNL     1      22.784   0.052  22.377  1.00  0.00     0.000 C 
BRANCH  16  17
ATOM     17  C   UNL     1      22.201   0.330  20.981  1.00  0.00     0.000 C 
BRANCH  17  18
ATOM     18  C   UNL     1      20.762   0.867  21.040  1.00  0.00    -0.000 C 
BRANCH  18  19
ATOM     19  C   UNL     1      19.776   0.023  20.220  1.00  0.00    -0.000 C 
BRANCH  19  20
ATOM     20  C   UNL     1      20.511  -0.765  19.125  1.00  0.00    -0.000 C 
BRANCH  20  21
ATOM     21  C   UNL     1      19.544  -1.354  18.077  1.00  0.00    -0.000 C 
BRANCH  21  22
ATOM     22  C   UNL     1      19.827  -2.830  17.735  1.00  0.00    -0.000 C 
BRANCH  22  23
ATOM     23  C   UNL     1      21.136  -3.388  18.319  1.00  0.00    -0.000 C 
BRANCH  23  24
ATOM     24  C   UNL     1      21.183  -4.922  18.309  1.00  0.00    -0.000 C 
BRANCH  24  25
ATOM     25  C   UNL     1      21.700  -5.444  16.963  1.00  0.00    -0.003 C 
ATOM     26  C   UNL     1      21.008  -6.749  16.576  1.00  0.00     0.004 C 
ENDBRANCH  24  25
ENDBRANCH  23  24
ENDBRANCH  22  23
ENDBRANCH  21  22
ENDBRANCH  20  21
ENDBRANCH  19  20
ENDBRANCH  18  19
ENDBRANCH  17  18
ENDBRANCH  16  17
ENDBRANCH  15  16
ENDBRANCH   1  15
TORSDOF 22
ENDMDL
MODEL 7
REMARK VINA RESULT:    -4.829      1.512      3.826
REMARK INTER + INTRA:         -15.382
REMARK INTER:                 -11.497
REMARK INTRA:                  -3.885
REMARK UNBOUND:                -4.341
REMARK SMILES CCCCCCCCCCCCCCCCCCCCCCCC(=O)[O-]
REMARK SMILES IDX 13 1 14 2 15 3 16 4 17 5 18 6 19 7 20 8 21 9 22 10 23 11
REMARK SMILES IDX 24 12 25 13 26 14 12 15 11 16 10 17 9 18 8 19 7 20 6 21 5 22
REMARK SMILES IDX 4 23 3 24 2 25 1 26
REMARK H PARENT
REMARK Flexibility Score: inf
ROOT
ATOM      1  C   UNL     1      15.005  -1.119  18.748  1.00  0.00     0.000 C 
ENDROOT
BRANCH   1   2
ATOM      2  C   UNL     1      15.450  -0.005  17.790  1.00  0.00     0.000 C 
BRANCH   2   3
ATOM      3  C   UNL     1      16.977   0.182  17.759  1.00  0.00     0.000 C 
BRANCH   3   4
ATOM      4  C   UNL     1      17.797  -1.031  18.248  1.00  0.00     0.000 C 
BRANCH   4   5
ATOM      5  C   UNL     1      19.313  -0.790  18.361  1.00  0.00     0.000 C 
BRANCH   5   6
ATOM      6  C   UNL     1      20.181  -2.063  18.297  1.00  0.00     0.000 C 
BRANCH   6   7
ATOM      7  C   UNL     1      20.908  -2.387  19.621  1.00  0.00     0.000 C 
BRANCH   7   8
ATOM      8  C   UNL     1      20.655  -3.828  20.095  1.00  0.00     0.000 C 
BRANCH   8   9
ATOM      9  C   UNL     1      19.276  -4.006  20.752  1.00  0.00     0.000 C 
BRANCH   9  10
ATOM     10  C   UNL     1      18.332  -4.886  19.920  1.00  0.00     0.006 C 
BRANCH  10  11
ATOM     11  C   UNL     1      17.030  -4.144  19.601  1.00  0.00     0.053 C 
BRANCH  11  12
ATOM     12  C   UNL     1      16.509  -4.539  18.255  1.00  0.00     0.041 C 
ATOM     13  O   UNL     1      15.379  -5.085  18.145  1.00  0.00    -0.550 OA
ATOM     14  O   UNL     1      17.277  -4.318  17.119  1.00  0.00    -0.550 OA
ENDBRANCH  11  12
ENDBRANCH  10  11
ENDBRANCH   9  10
ENDBRANCH   8   9
ENDBRANCH   7   8
ENDBRANCH   6   7
ENDBRANCH   5   6
ENDBRANCH   4   5
ENDBRANCH   3   4
ENDBRANCH   2   3
ENDBRANCH   1   2
BRANCH   1  15
ATOM     15  C   UNL     1      14.631  -0.549  20.126  1.00  0.00     0.000 C 
BRANCH  15  16
ATOM     16  C   UNL     1      15.471  -1.154  21.263  1.00  0.00     0.000 C 
BRANCH  16  17
ATOM     17  C   UNL     1      16.187  -0.083  22.106  1.00  0.00     0.000 C 
BRANCH  17  18
ATOM     18  C   UNL     1      17.180   0.749  21.279  1.00  0.00    -0.000 C 
BRANCH  18  19
ATOM     19  C   UNL     1      18.625   0.625  21.783  1.00  0.00    -0.000 C 
BRANCH  19  20
ATOM     20  C   UNL     1      18.903  -0.794  22.301  1.00  0.00    -0.000 C 
BRANCH  20  21
ATOM     21  C   UNL     1      19.913  -0.805  23.467  1.00  0.00    -0.000 C 
BRANCH  21  22
ATOM     22  C   UNL     1      21.015  -1.873  23.320  1.00  0.00    -0.000 C 
BRANCH  22  23
ATOM     23  C   UNL     1      22.420  -1.316  23.035  1.00  0.00    -0.000 C 
BRANCH  23  24
ATOM     24  C   UNL     1      22.385   0.079  22.396  1.00  0.00    -0.000 C 
BRANCH  24  25
ATOM     25  C   UNL     1      23.692   0.835  22.664  1.00  0.00    -0.003 C 
ATOM     26  C   UNL     1      24.808  -0.124  23.072  1.00  0.00     0.004 C 
ENDBRANCH  24  25
ENDBRANCH  23  24
ENDBRANCH  22  23
ENDBRANCH  21  22
ENDBRANCH  20  21
ENDBRANCH  19  20
ENDBRANCH  18  19
ENDBRANCH  17  18
ENDBRANCH  16  17
ENDBRANCH  15  16
ENDBRANCH   1  15
TORSDOF 22
ENDMDL
MODEL 8
REMARK VINA RESULT:    -4.803      3.319      6.550
REMARK INTER + INTRA:         -15.322
REMARK INTER:                 -11.633
REMARK INTRA:                  -3.688
REMARK UNBOUND:                -4.341
REMARK SMILES CCCCCCCCCCCCCCCCCCCCCCCC(=O)[O-]
REMARK SMILES IDX 13 1 14 2 15 3 16 4 17 5 18 6 19 7 20 8 21 9 22 10 23 11
REMARK SMILES IDX 24 12 25 13 26 14 12 15 11 16 10 17 9 18 8 19 7 20 6 21 5 22
REMARK SMILES IDX 4 23 3 24 2 25 1 26
REMARK H PARENT
REMARK Flexibility Score: inf
ROOT
ATOM      1  C   UNL     1      19.917  -0.753  18.523  1.00  0.00     0.000 C 
ENDROOT
BRANCH   1   2
ATOM      2  C   UNL     1      19.049  -1.768  17.766  1.00  0.00     0.000 C 
BRANCH   2   3
ATOM      3  C   UNL     1      19.793  -3.081  17.461  1.00  0.00     0.000 C 
BRANCH   3   4
ATOM      4  C   UNL     1      19.437  -4.266  18.385  1.00  0.00     0.000 C 
BRANCH   4   5
ATOM      5  C   UNL     1      19.970  -4.151  19.825  1.00  0.00     0.000 C 
BRANCH   5   6
ATOM      6  C   UNL     1      21.496  -3.962  19.941  1.00  0.00     0.000 C 
BRANCH   6   7
ATOM      7  C   UNL     1      21.928  -3.140  21.176  1.00  0.00     0.000 C 
BRANCH   7   8
ATOM      8  C   UNL     1      20.954  -3.294  22.356  1.00  0.00     0.000 C 
BRANCH   8   9
ATOM      9  C   UNL     1      20.685  -1.965  23.083  1.00  0.00     0.000 C 
BRANCH   9  10
ATOM     10  C   UNL     1      21.965  -1.150  23.322  1.00  0.00     0.006 C 
BRANCH  10  11
ATOM     11  C   UNL     1      21.854   0.242  22.691  1.00  0.00     0.053 C 
BRANCH  11  12
ATOM     12  C   UNL     1      22.894   0.430  21.632  1.00  0.00     0.041 C 
ATOM     13  O   UNL     1      22.589   0.954  20.527  1.00  0.00    -0.550 OA
ATOM     14  O   UNL     1      24.200   0.016  21.858  1.00  0.00    -0.550 OA
ENDBRANCH  11  12
ENDBRANCH  10  11
ENDBRANCH   9  10
ENDBRANCH   8   9
ENDBRANCH   7   8
ENDBRANCH   6   7
ENDBRANCH   5   6
ENDBRANCH   4   5
ENDBRANCH   3   4
ENDBRANCH   2   3
ENDBRANCH   1   2
BRANCH   1  15
ATOM     15  C   UNL     1      19.568  -0.732  20.020  1.00  0.00     0.000 C 
BRANCH  15  16
ATOM     16  C   UNL     1      18.794   0.532  20.428  1.00  0.00     0.000 C 
BRANCH  16  17
ATOM     17  C   UNL     1      17.763   0.264  21.538  1.00  0.00     0.000 C 
BRANCH  17  18
ATOM     18  C   UNL     1      16.909  -0.983  21.260  1.00  0.00    -0.000 C 
BRANCH  18  19
ATOM     19  C   UNL     1      15.405  -0.727  21.432  1.00  0.00    -0.000 C 
BRANCH  19  20
ATOM     20  C   UNL     1      14.687  -0.759  20.074  1.00  0.00    -0.000 C 
BRANCH  20  21
ATOM     21  C   UNL     1      15.671  -0.893  18.893  1.00  0.00    -0.000 C 
BRANCH  21  22
ATOM     22  C   UNL     1      15.266  -1.974  17.872  1.00  0.00    -0.000 C 
BRANCH  22  23
ATOM     23  C   UNL     1      15.721  -3.400  18.226  1.00  0.00    -0.000 C 
BRANCH  23  24
ATOM     24  C   UNL     1      16.160  -4.206  16.996  1.00  0.00    -0.000 C 
BRANCH  24  25
ATOM     25  C   UNL     1      15.481  -5.581  16.973  1.00  0.00    -0.003 C 
ATOM     26  C   UNL     1      14.211  -5.582  17.820  1.00  0.00     0.004 C 
ENDBRANCH  24  25
ENDBRANCH  23  24
ENDBRANCH  22  23
ENDBRANCH  21  22
ENDBRANCH  20  21
ENDBRANCH  19  20
ENDBRANCH  18  19
ENDBRANCH  17  18
ENDBRANCH  16  17
ENDBRANCH  15  16
ENDBRANCH   1  15
TORSDOF 22
ENDMDL
MODEL 9
REMARK VINA RESULT:    -4.801      1.620      3.658
REMARK INTER + INTRA:         -15.316
REMARK INTER:                 -11.740
REMARK INTRA:                  -3.577
REMARK UNBOUND:                -4.341
REMARK SMILES CCCCCCCCCCCCCCCCCCCCCCCC(=O)[O-]
REMARK SMILES IDX 13 1 14 2 15 3 16 4 17 5 18 6 19 7 20 8 21 9 22 10 23 11
REMARK SMILES IDX 24 12 25 13 26 14 12 15 11 16 10 17 9 18 8 19 7 20 6 21 5 22
REMARK SMILES IDX 4 23 3 24 2 25 1 26
REMARK H PARENT
REMARK Flexibility Score: inf
ROOT
ATOM      1  C   UNL     1      21.468  -1.986  22.398  1.00  0.00     0.000 C 
ENDROOT
BRANCH   1   2
ATOM      2  C   UNL     1      20.884  -3.365  22.060  1.00  0.00     0.000 C 
BRANCH   2   3
ATOM      3  C   UNL     1      19.433  -3.292  21.551  1.00  0.00     0.000 C 
BRANCH   3   4
ATOM      4  C   UNL     1      18.829  -4.638  21.096  1.00  0.00     0.000 C 
BRANCH   4   5
ATOM      5  C   UNL     1      17.626  -4.523  20.143  1.00  0.00     0.000 C 
BRANCH   5   6
ATOM      6  C   UNL     1      16.965  -3.131  20.094  1.00  0.00     0.000 C 
BRANCH   6   7
ATOM      7  C   UNL     1      16.052  -2.919  18.867  1.00  0.00     0.000 C 
BRANCH   7   8
ATOM      8  C   UNL     1      16.113  -4.095  17.876  1.00  0.00     0.000 C 
BRANCH   8   9
ATOM      9  C   UNL     1      14.808  -4.906  17.833  1.00  0.00     0.000 C 
BRANCH   9  10
ATOM     10  C   UNL     1      14.832  -6.011  16.765  1.00  0.00     0.006 C 
BRANCH  10  11
ATOM     11  C   UNL     1      16.130  -5.961  15.954  1.00  0.00     0.053 C 
BRANCH  11  12
ATOM     12  C   UNL     1      16.195  -7.098  14.983  1.00  0.00     0.041 C 
ATOM     13  O   UNL     1      15.137  -7.577  14.493  1.00  0.00    -0.550 OA
ATOM     14  O   UNL     1      17.423  -7.642  14.628  1.00  0.00    -0.550 OA
ENDBRANCH  11  12
ENDBRANCH  10  11
ENDBRANCH   9  10
ENDBRANCH   8   9
ENDBRANCH   7   8
ENDBRANCH   6   7
ENDBRANCH   5   6
ENDBRANCH   4   5
ENDBRANCH   3   4
ENDBRANCH   2   3
ENDBRANCH   1   2
BRANCH   1  15
ATOM     15  C   UNL     1      21.049  -1.538  23.808  1.00  0.00     0.000 C 
BRANCH  15  16
ATOM     16  C   UNL     1      19.902  -0.515  23.786  1.00  0.00     0.000 C 
BRANCH  16  17
ATOM     17  C   UNL     1      19.783   0.214  22.436  1.00  0.00     0.000 C 
BRANCH  17  18
ATOM     18  C   UNL     1      18.323   0.382  21.983  1.00  0.00    -0.000 C 
BRANCH  18  19
ATOM     19  C   UNL     1      18.142   0.187  20.471  1.00  0.00    -0.000 C 
BRANCH  19  20
ATOM     20  C   UNL     1      19.458  -0.260  19.817  1.00  0.00    -0.000 C 
BRANCH  20  21
ATOM     21  C   UNL     1      19.228  -0.988  18.475  1.00  0.00    -0.000 C 
BRANCH  21  22
ATOM     22  C   UNL     1      20.438  -1.821  18.009  1.00  0.00    -0.000 C 
BRANCH  22  23
ATOM     23  C   UNL     1      20.152  -3.320  17.813  1.00  0.00    -0.000 C 
BRANCH  23  24
ATOM     24  C   UNL     1      21.193  -4.216  18.498  1.00  0.00    -0.000 C 
BRANCH  24  25
ATOM     25  C   UNL     1      21.409  -5.509  17.701  1.00  0.00    -0.003 C 
ATOM     26  C   UNL     1      22.431  -5.302  16.586  1.00  0.00     0.004 C 
ENDBRANCH  24  25
ENDBRANCH  23  24
ENDBRANCH  22  23
ENDBRANCH  21  22
ENDBRANCH  20  21
ENDBRANCH  19  20
ENDBRANCH  18  19
ENDBRANCH  17  18
ENDBRANCH  16  17
ENDBRANCH  15  16
ENDBRANCH   1  15
TORSDOF 22
ENDMDL
