MODEL 1
REMARK VINA RESULT:    -5.743      0.000      0.000
REMARK INTER + INTRA:          -6.128
REMARK INTER:                  -6.247
REMARK INTRA:                   0.119
REMARK UNBOUND:                 0.119
REMARK SMILES C=C(C)[C@@H]1CC[C@H](C)C[C@H]1O
REMARK SMILES IDX 8 1 7 2 6 3 5 4 4 5 10 6 9 7 11 8 2 10 1 11 3 12
REMARK H PARENT 11 9
REMARK Flexibility Score: inf
ROOT
ATOM      1  C   UNL     1     137.621 122.995 137.374  1.00  0.00     0.008 C 
ATOM      2  C   UNL     1     136.928 123.497 138.646  1.00  0.00    -0.012 C 
ATOM      3  C   UNL     1     135.522 122.888 138.780  1.00  0.00     0.004 C 
ATOM      4  C   UNL     1     134.757 123.487 139.977  1.00  0.00     0.011 C 
ATOM      5  C   UNL     1     135.679 123.909 141.151  1.00  0.00     0.043 C 
ATOM      6  C   UNL     1     136.966 123.050 141.203  1.00  0.00     0.121 C 
ATOM      7  C   UNL     1     137.789 123.198 139.901  1.00  0.00     0.035 C 
ENDROOT
BRANCH   6   8
ATOM      8  O   UNL     1     137.769 123.435 142.291  1.00  0.00    -0.392 OA
ATOM      9  H   UNL     1     138.201 124.295 142.047  1.00  0.00     0.210 HD
ENDBRANCH   6   8
BRANCH   5  10
ATOM     10  C   UNL     1     134.919 123.882 142.472  1.00  0.00    -0.075 C 
ATOM     11  C   UNL     1     133.822 123.120 142.606  1.00  0.00     0.008 C 
ATOM     12  C   UNL     1     135.382 124.695 143.656  1.00  0.00     0.039 C 
ENDBRANCH   5  10
TORSDOF 2
ENDMDL
MODEL 2
REMARK VINA RESULT:    -5.372      1.713      4.424
REMARK INTER + INTRA:          -5.725
REMARK INTER:                  -5.536
REMARK INTRA:                  -0.189
REMARK UNBOUND:                 0.119
REMARK SMILES C=C(C)[C@@H]1CC[C@H](C)C[C@H]1O
REMARK SMILES IDX 8 1 7 2 6 3 5 4 4 5 10 6 9 7 11 8 2 10 1 11 3 12
REMARK H PARENT 11 9
REMARK Flexibility Score: inf
ROOT
ATOM      1  C   UNL     1     133.010 123.387 142.626  1.00  0.00     0.008 C 
ATOM      2  C   UNL     1     134.332 123.287 141.855  1.00  0.00    -0.012 C 
ATOM      3  C   UNL     1     134.343 122.046 140.946  1.00  0.00     0.004 C 
ATOM      4  C   UNL     1     135.714 121.852 140.268  1.00  0.00     0.011 C 
ATOM      5  C   UNL     1     136.463 123.184 139.997  1.00  0.00     0.043 C 
ATOM      6  C   UNL     1     135.478 124.360 139.788  1.00  0.00     0.121 C 
ATOM      7  C   UNL     1     134.597 124.580 141.041  1.00  0.00     0.035 C 
ENDROOT
BRANCH   6   8
ATOM      8  O   UNL     1     136.182 125.547 139.516  1.00  0.00    -0.392 OA
ATOM      9  H   UNL     1     136.790 125.358 138.754  1.00  0.00     0.210 HD
ENDBRANCH   6   8
BRANCH   5  10
ATOM     10  C   UNL     1     137.430 123.031 138.829  1.00  0.00    -0.075 C 
ATOM     11  C   UNL     1     138.756 123.093 139.034  1.00  0.00     0.008 C 
ATOM     12  C   UNL     1     136.927 122.797 137.425  1.00  0.00     0.039 C 
ENDBRANCH   5  10
TORSDOF 2
ENDMDL
MODEL 3
REMARK VINA RESULT:    -5.360      1.703      2.948
REMARK INTER + INTRA:          -5.711
REMARK INTER:                  -5.754
REMARK INTRA:                   0.044
REMARK UNBOUND:                 0.119
REMARK SMILES C=C(C)[C@@H]1CC[C@H](C)C[C@H]1O
REMARK SMILES IDX 8 1 7 2 6 3 5 4 4 5 10 6 9 7 11 8 2 10 1 11 3 12
REMARK H PARENT 11 9
REMARK Flexibility Score: inf
ROOT
ATOM      1  C   UNL     1     135.413 122.113 140.026  1.00  0.00     0.008 C 
ATOM      2  C   UNL     1     135.486 123.219 141.085  1.00  0.00    -0.012 C 
ATOM      3  C   UNL     1     134.393 123.029 142.151  1.00  0.00     0.004 C 
ATOM      4  C   UNL     1     134.361 124.206 143.146  1.00  0.00     0.011 C 
ATOM      5  C   UNL     1     135.750 124.860 143.375  1.00  0.00     0.043 C 
ATOM      6  C   UNL     1     136.900 123.844 143.170  1.00  0.00     0.121 C 
ATOM      7  C   UNL     1     136.895 123.277 141.730  1.00  0.00     0.035 C 
ENDROOT
BRANCH   6   8
ATOM      8  O   UNL     1     138.143 124.455 143.411  1.00  0.00    -0.392 OA
ATOM      9  H   UNL     1     138.359 124.310 144.370  1.00  0.00     0.210 HD
ENDBRANCH   6   8
BRANCH   5  10
ATOM     10  C   UNL     1     135.813 125.530 144.743  1.00  0.00    -0.075 C 
ATOM     11  C   UNL     1     136.213 124.834 145.819  1.00  0.00     0.008 C 
ATOM     12  C   UNL     1     135.442 126.982 144.919  1.00  0.00     0.039 C 
ENDBRANCH   5  10
TORSDOF 2
ENDMDL
MODEL 4
REMARK VINA RESULT:    -5.042      1.595      3.943
REMARK INTER + INTRA:          -5.366
REMARK INTER:                  -5.224
REMARK INTRA:                  -0.142
REMARK UNBOUND:                 0.119
REMARK SMILES C=C(C)[C@@H]1CC[C@H](C)C[C@H]1O
REMARK SMILES IDX 8 1 7 2 6 3 5 4 4 5 10 6 9 7 11 8 2 10 1 11 3 12
REMARK H PARENT 11 9
REMARK Flexibility Score: inf
ROOT
ATOM      1  C   UNL     1     136.873 124.121 144.011  1.00  0.00     0.008 C 
ATOM      2  C   UNL     1     136.422 123.567 142.654  1.00  0.00    -0.012 C 
ATOM      3  C   UNL     1     135.243 124.381 142.096  1.00  0.00     0.004 C 
ATOM      4  C   UNL     1     134.686 123.755 140.801  1.00  0.00     0.011 C 
ATOM      5  C   UNL     1     135.759 123.016 139.960  1.00  0.00     0.043 C 
ATOM      6  C   UNL     1     137.167 123.625 140.169  1.00  0.00     0.121 C 
ATOM      7  C   UNL     1     137.603 123.529 141.650  1.00  0.00     0.035 C 
ENDROOT
BRANCH   6   8
ATOM      8  O   UNL     1     138.114 122.956 139.374  1.00  0.00    -0.392 OA
ATOM      9  H   UNL     1     137.716 122.852 138.470  1.00  0.00     0.210 HD
ENDBRANCH   6   8
BRANCH   5  10
ATOM     10  C   UNL     1     135.362 122.981 138.488  1.00  0.00    -0.075 C 
ATOM     11  C   UNL     1     135.347 121.817 137.818  1.00  0.00     0.008 C 
ATOM     12  C   UNL     1     134.968 124.240 137.756  1.00  0.00     0.039 C 
ENDBRANCH   5  10
TORSDOF 2
ENDMDL
MODEL 5
REMARK VINA RESULT:    -5.026      1.729      4.438
REMARK INTER + INTRA:          -5.348
REMARK INTER:                  -5.355
REMARK INTRA:                   0.007
REMARK UNBOUND:                 0.119
REMARK SMILES C=C(C)[C@@H]1CC[C@H](C)C[C@H]1O
REMARK SMILES IDX 8 1 7 2 6 3 5 4 4 5 10 6 9 7 11 8 2 10 1 11 3 12
REMARK H PARENT 11 9
REMARK Flexibility Score: inf
ROOT
ATOM      1  C   UNL     1     132.708 123.374 142.628  1.00  0.00     0.008 C 
ATOM      2  C   UNL     1     133.932 123.591 141.730  1.00  0.00    -0.012 C 
ATOM      3  C   UNL     1     135.221 123.649 142.566  1.00  0.00     0.004 C 
ATOM      4  C   UNL     1     136.444 124.005 141.697  1.00  0.00     0.011 C 
ATOM      5  C   UNL     1     136.332 123.500 140.234  1.00  0.00     0.043 C 
ATOM      6  C   UNL     1     135.459 122.225 140.137  1.00  0.00     0.121 C 
ATOM      7  C   UNL     1     134.020 122.493 140.638  1.00  0.00     0.035 C 
ENDROOT
BRANCH   6   8
ATOM      8  O   UNL     1     135.398 121.773 138.806  1.00  0.00    -0.392 OA
ATOM      9  H   UNL     1     136.228 121.255 138.635  1.00  0.00     0.210 HD
ENDBRANCH   6   8
BRANCH   5  10
ATOM     10  C   UNL     1     137.715 123.296 139.625  1.00  0.00    -0.075 C 
ATOM     11  C   UNL     1     138.751 122.942 140.402  1.00  0.00     0.008 C 
ATOM     12  C   UNL     1     137.949 123.475 138.145  1.00  0.00     0.039 C 
ENDBRANCH   5  10
TORSDOF 2
ENDMDL
MODEL 6
REMARK VINA RESULT:    -5.013      1.618      4.239
REMARK INTER + INTRA:          -5.333
REMARK INTER:                  -5.216
REMARK INTRA:                  -0.118
REMARK UNBOUND:                 0.119
REMARK SMILES C=C(C)[C@@H]1CC[C@H](C)C[C@H]1O
REMARK SMILES IDX 8 1 7 2 6 3 5 4 4 5 10 6 9 7 11 8 2 10 1 11 3 12
REMARK H PARENT 11 9
REMARK Flexibility Score: inf
ROOT
ATOM      1  C   UNL     1     136.126 125.819 145.441  1.00  0.00     0.008 C 
ATOM      2  C   UNL     1     135.739 124.857 144.312  1.00  0.00    -0.012 C 
ATOM      3  C   UNL     1     135.003 125.602 143.186  1.00  0.00     0.004 C 
ATOM      4  C   UNL     1     134.483 124.629 142.108  1.00  0.00     0.011 C 
ATOM      5  C   UNL     1     135.369 123.367 141.935  1.00  0.00     0.043 C 
ATOM      6  C   UNL     1     136.847 123.655 142.296  1.00  0.00     0.121 C 
ATOM      7  C   UNL     1     136.984 124.109 143.769  1.00  0.00     0.035 C 
ENDROOT
BRANCH   6   8
ATOM      8  O   UNL     1     137.632 122.504 142.103  1.00  0.00    -0.392 OA
ATOM      9  H   UNL     1     138.525 122.808 141.792  1.00  0.00     0.210 HD
ENDBRANCH   6   8
BRANCH   5  10
ATOM     10  C   UNL     1     135.224 122.794 140.530  1.00  0.00    -0.075 C 
ATOM     11  C   UNL     1     134.998 121.482 140.354  1.00  0.00     0.008 C 
ATOM     12  C   UNL     1     135.317 123.680 139.312  1.00  0.00     0.039 C 
ENDBRANCH   5  10
TORSDOF 2
ENDMDL
MODEL 7
REMARK VINA RESULT:    -4.933      1.847      4.309
REMARK INTER + INTRA:          -5.247
REMARK INTER:                  -5.067
REMARK INTRA:                  -0.179
REMARK UNBOUND:                 0.119
REMARK SMILES C=C(C)[C@@H]1CC[C@H](C)C[C@H]1O
REMARK SMILES IDX 8 1 7 2 6 3 5 4 4 5 10 6 9 7 11 8 2 10 1 11 3 12
REMARK H PARENT 11 9
REMARK Flexibility Score: inf
ROOT
ATOM      1  C   UNL     1     136.885 124.138 144.483  1.00  0.00     0.008 C 
ATOM      2  C   UNL     1     136.573 124.176 142.982  1.00  0.00    -0.012 C 
ATOM      3  C   UNL     1     137.382 123.107 142.228  1.00  0.00     0.004 C 
ATOM      4  C   UNL     1     137.187 123.221 140.703  1.00  0.00     0.011 C 
ATOM      5  C   UNL     1     135.789 123.758 140.296  1.00  0.00     0.043 C 
ATOM      6  C   UNL     1     134.712 123.399 141.349  1.00  0.00     0.121 C 
ATOM      7  C   UNL     1     135.052 124.012 142.728  1.00  0.00     0.035 C 
ENDROOT
BRANCH   6   8
ATOM      8  O   UNL     1     133.452 123.872 140.942  1.00  0.00    -0.392 OA
ATOM      9  H   UNL     1     133.074 123.198 140.317  1.00  0.00     0.210 HD
ENDBRANCH   6   8
BRANCH   5  10
ATOM     10  C   UNL     1     135.410 123.276 138.900  1.00  0.00    -0.075 C 
ATOM     11  C   UNL     1     135.486 121.972 138.591  1.00  0.00     0.008 C 
ATOM     12  C   UNL     1     134.933 124.242 137.844  1.00  0.00     0.039 C 
ENDBRANCH   5  10
TORSDOF 2
ENDMDL
MODEL 8
REMARK VINA RESULT:    -4.827      0.979      4.012
REMARK INTER + INTRA:          -5.132
REMARK INTER:                  -5.315
REMARK INTRA:                   0.183
REMARK UNBOUND:                 0.119
REMARK SMILES C=C(C)[C@@H]1CC[C@H](C)C[C@H]1O
REMARK SMILES IDX 8 1 7 2 6 3 5 4 4 5 10 6 9 7 11 8 2 10 1 11 3 12
REMARK H PARENT 11 9
REMARK Flexibility Score: inf
ROOT
ATOM      1  C   UNL     1     132.654 123.324 142.611  1.00  0.00     0.008 C 
ATOM      2  C   UNL     1     134.039 123.001 142.040  1.00  0.00    -0.012 C 
ATOM      3  C   UNL     1     134.104 123.335 140.540  1.00  0.00     0.004 C 
ATOM      4  C   UNL     1     135.442 122.888 139.917  1.00  0.00     0.011 C 
ATOM      5  C   UNL     1     136.633 122.935 140.911  1.00  0.00     0.043 C 
ATOM      6  C   UNL     1     136.427 124.018 141.998  1.00  0.00     0.121 C 
ATOM      7  C   UNL     1     135.151 123.741 142.828  1.00  0.00     0.035 C 
ENDROOT
BRANCH   6   8
ATOM      8  O   UNL     1     137.532 124.058 142.867  1.00  0.00    -0.392 OA
ATOM      9  H   UNL     1     137.788 123.118 143.057  1.00  0.00     0.210 HD
ENDBRANCH   6   8
BRANCH   5  10
ATOM     10  C   UNL     1     137.951 123.113 140.167  1.00  0.00    -0.075 C 
ATOM     11  C   UNL     1     139.105 122.720 140.729  1.00  0.00     0.008 C 
ATOM     12  C   UNL     1     137.991 123.721 138.786  1.00  0.00     0.039 C 
ENDBRANCH   5  10
TORSDOF 2
ENDMDL
MODEL 9
REMARK VINA RESULT:    -4.738      1.569      2.098
REMARK INTER + INTRA:          -5.035
REMARK INTER:                  -4.923
REMARK INTRA:                  -0.112
REMARK UNBOUND:                 0.119
REMARK SMILES C=C(C)[C@@H]1CC[C@H](C)C[C@H]1O
REMARK SMILES IDX 8 1 7 2 6 3 5 4 4 5 10 6 9 7 11 8 2 10 1 11 3 12
REMARK H PARENT 11 9
REMARK Flexibility Score: inf
ROOT
ATOM      1  C   UNL     1     137.166 122.910 136.987  1.00  0.00     0.008 C 
ATOM      2  C   UNL     1     136.752 123.204 138.433  1.00  0.00    -0.012 C 
ATOM      3  C   UNL     1     136.155 124.617 138.555  1.00  0.00     0.004 C 
ATOM      4  C   UNL     1     135.862 124.983 140.024  1.00  0.00     0.011 C 
ATOM      5  C   UNL     1     135.490 123.761 140.904  1.00  0.00     0.043 C 
ATOM      6  C   UNL     1     134.818 122.642 140.070  1.00  0.00     0.121 C 
ATOM      7  C   UNL     1     135.763 122.131 138.956  1.00  0.00     0.035 C 
ENDROOT
BRANCH   6   8
ATOM      8  O   UNL     1     134.466 121.559 140.896  1.00  0.00    -0.392 OA
ATOM      9  H   UNL     1     133.524 121.700 141.176  1.00  0.00     0.210 HD
ENDBRANCH   6   8
BRANCH   5  10
ATOM     10  C   UNL     1     134.630 124.189 142.087  1.00  0.00    -0.075 C 
ATOM     11  C   UNL     1     135.185 124.376 143.295  1.00  0.00     0.008 C 
ATOM     12  C   UNL     1     133.147 124.422 141.930  1.00  0.00     0.039 C 
ENDBRANCH   5  10
TORSDOF 2
ENDMDL
