MODEL 1
REMARK VINA RESULT:    -3.718      0.000      0.000
REMARK INTER + INTRA:          -5.794
REMARK INTER:                  -5.240
REMARK INTRA:                  -0.555
REMARK UNBOUND:                -0.555
REMARK SMILES C=CCCCCCCC(=O)[O-]
REMARK SMILES IDX 6 1 7 2 8 3 9 4 10 5 11 6 5 7 4 8 3 9 2 10 1 11
REMARK H PARENT
REMARK Flexibility Score: inf
ROOT
ATOM      1  C   UNL     1       5.735  10.599   7.390  1.00  0.00     0.000 C 
ENDROOT
BRANCH   1   2
ATOM      2  C   UNL     1       4.962  10.532   8.719  1.00  0.00     0.006 C 
BRANCH   2   3
ATOM      3  C   UNL     1       3.879   9.445   8.703  1.00  0.00     0.053 C 
BRANCH   3   4
ATOM      4  C   UNL     1       4.450   8.089   8.984  1.00  0.00     0.041 C 
ATOM      5  O   UNL     1       5.448   7.967   9.742  1.00  0.00    -0.550 OA
ATOM      6  O   UNL     1       3.901   6.964   8.381  1.00  0.00    -0.550 OA
ENDBRANCH   3   4
ENDBRANCH   2   3
ENDBRANCH   1   2
BRANCH   1   7
ATOM      7  C   UNL     1       4.903  11.213   6.252  1.00  0.00     0.000 C 
BRANCH   7   8
ATOM      8  C   UNL     1       4.030  12.385   6.724  1.00  0.00     0.004 C 
BRANCH   8   9
ATOM      9  C   UNL     1       4.705  13.728   6.420  1.00  0.00     0.027 C 
BRANCH   9  10
ATOM     10  C   UNL     1       5.337  14.311   7.655  1.00  0.00    -0.035 C 
ATOM     11  C   UNL     1       6.662  14.323   7.828  1.00  0.00     0.004 C 
ENDBRANCH   9  10
ENDBRANCH   8   9
ENDBRANCH   7   8
ENDBRANCH   1   7
TORSDOF 7
ENDMDL
MODEL 2
REMARK VINA RESULT:    -3.676      1.780      3.238
REMARK INTER + INTRA:          -5.735
REMARK INTER:                  -4.929
REMARK INTRA:                  -0.805
REMARK UNBOUND:                -0.555
REMARK SMILES C=CCCCCCCC(=O)[O-]
REMARK SMILES IDX 6 1 7 2 8 3 9 4 10 5 11 6 5 7 4 8 3 9 2 10 1 11
REMARK H PARENT
REMARK Flexibility Score: inf
ROOT
ATOM      1  C   UNL     1       4.617  13.804   6.276  1.00  0.00     0.000 C 
ENDROOT
BRANCH   1   2
ATOM      2  C   UNL     1       4.646  12.275   6.106  1.00  0.00     0.006 C 
BRANCH   2   3
ATOM      3  C   UNL     1       3.736  11.564   7.118  1.00  0.00     0.053 C 
BRANCH   3   4
ATOM      4  C   UNL     1       4.504  10.612   7.981  1.00  0.00     0.041 C 
ATOM      5  O   UNL     1       4.880  10.962   9.132  1.00  0.00    -0.550 OA
ATOM      6  O   UNL     1       4.836   9.350   7.503  1.00  0.00    -0.550 OA
ENDBRANCH   3   4
ENDBRANCH   2   3
ENDBRANCH   1   2
BRANCH   1   7
ATOM      7  C   UNL     1       5.288  14.268   7.580  1.00  0.00     0.000 C 
BRANCH   7   8
ATOM      8  C   UNL     1       6.820  14.323   7.468  1.00  0.00     0.004 C 
BRANCH   8   9
ATOM      9  C   UNL     1       7.465  13.144   8.207  1.00  0.00     0.027 C 
BRANCH   9  10
ATOM     10  C   UNL     1       8.125  12.194   7.246  1.00  0.00    -0.035 C 
ATOM     11  C   UNL     1       8.175  10.879   7.480  1.00  0.00     0.004 C 
ENDBRANCH   9  10
ENDBRANCH   8   9
ENDBRANCH   7   8
ENDBRANCH   1   7
TORSDOF 7
ENDMDL
MODEL 3
REMARK VINA RESULT:    -3.663      2.492      4.794
REMARK INTER + INTRA:          -5.717
REMARK INTER:                  -5.073
REMARK INTRA:                  -0.644
REMARK UNBOUND:                -0.555
REMARK SMILES C=CCCCCCCC(=O)[O-]
REMARK SMILES IDX 6 1 7 2 8 3 9 4 10 5 11 6 5 7 4 8 3 9 2 10 1 11
REMARK H PARENT
REMARK Flexibility Score: inf
ROOT
ATOM      1  C   UNL     1       4.537  13.657   6.371  1.00  0.00     0.000 C 
ENDROOT
BRANCH   1   2
ATOM      2  C   UNL     1       5.265  14.384   7.516  1.00  0.00     0.006 C 
BRANCH   2   3
ATOM      3  C   UNL     1       6.743  13.979   7.611  1.00  0.00     0.053 C 
BRANCH   3   4
ATOM      4  C   UNL     1       7.043  13.275   8.898  1.00  0.00     0.041 C 
ATOM      5  O   UNL     1       6.104  12.867   9.631  1.00  0.00    -0.550 OA
ATOM      6  O   UNL     1       8.360  13.100   9.305  1.00  0.00    -0.550 OA
ENDBRANCH   3   4
ENDBRANCH   2   3
ENDBRANCH   1   2
BRANCH   1   7
ATOM      7  C   UNL     1       4.007  12.276   6.790  1.00  0.00     0.000 C 
BRANCH   7   8
ATOM      8  C   UNL     1       4.872  11.124   6.255  1.00  0.00     0.004 C 
BRANCH   8   9
ATOM      9  C   UNL     1       5.345  10.219   7.399  1.00  0.00     0.027 C 
BRANCH   9  10
ATOM     10  C   UNL     1       4.234   9.950   8.377  1.00  0.00    -0.035 C 
ATOM     11  C   UNL     1       4.067   8.750   8.940  1.00  0.00     0.004 C 
ENDBRANCH   9  10
ENDBRANCH   8   9
ENDBRANCH   7   8
ENDBRANCH   1   7
TORSDOF 7
ENDMDL
MODEL 4
REMARK VINA RESULT:    -3.571      3.328      4.880
REMARK INTER + INTRA:          -5.587
REMARK INTER:                  -4.861
REMARK INTRA:                  -0.726
REMARK UNBOUND:                -0.555
REMARK SMILES C=CCCCCCCC(=O)[O-]
REMARK SMILES IDX 6 1 7 2 8 3 9 4 10 5 11 6 5 7 4 8 3 9 2 10 1 11
REMARK H PARENT
REMARK Flexibility Score: inf
ROOT
ATOM      1  C   UNL     1       3.790  11.620   7.052  1.00  0.00     0.000 C 
ENDROOT
BRANCH   1   2
ATOM      2  C   UNL     1       4.743  12.402   6.131  1.00  0.00     0.006 C 
BRANCH   2   3
ATOM      3  C   UNL     1       4.673  13.915   6.376  1.00  0.00     0.053 C 
BRANCH   3   4
ATOM      4  C   UNL     1       5.626  14.348   7.447  1.00  0.00     0.041 C 
ATOM      5  O   UNL     1       6.865  14.367   7.222  1.00  0.00    -0.550 OA
ATOM      6  O   UNL     1       5.150  14.697   8.705  1.00  0.00    -0.550 OA
ENDBRANCH   3   4
ENDBRANCH   2   3
ENDBRANCH   1   2
BRANCH   1   7
ATOM      7  C   UNL     1       4.527  10.908   8.198  1.00  0.00     0.000 C 
BRANCH   7   8
ATOM      8  C   UNL     1       5.585   9.914   7.694  1.00  0.00     0.004 C 
BRANCH   8   9
ATOM      9  C   UNL     1       6.853   9.983   8.553  1.00  0.00     0.027 C 
BRANCH   9  10
ATOM     10  C   UNL     1       7.804  11.028   8.038  1.00  0.00    -0.035 C 
ATOM     11  C   UNL     1       8.084  11.145   6.736  1.00  0.00     0.004 C 
ENDBRANCH   9  10
ENDBRANCH   8   9
ENDBRANCH   7   8
ENDBRANCH   1   7
TORSDOF 7
ENDMDL
MODEL 5
REMARK VINA RESULT:    -3.481      2.624      4.224
REMARK INTER + INTRA:          -5.461
REMARK INTER:                  -4.647
REMARK INTRA:                  -0.814
REMARK UNBOUND:                -0.555
REMARK SMILES C=CCCCCCCC(=O)[O-]
REMARK SMILES IDX 6 1 7 2 8 3 9 4 10 5 11 6 5 7 4 8 3 9 2 10 1 11
REMARK H PARENT
REMARK Flexibility Score: inf
ROOT
ATOM      1  C   UNL     1       6.356  13.861   8.593  1.00  0.00     0.000 C 
ENDROOT
BRANCH   1   2
ATOM      2  C   UNL     1       7.475  12.805   8.609  1.00  0.00     0.006 C 
BRANCH   2   3
ATOM      3  C   UNL     1       8.186  12.696   7.253  1.00  0.00     0.053 C 
BRANCH   3   4
ATOM      4  C   UNL     1       8.355  11.270   6.827  1.00  0.00     0.041 C 
ATOM      5  O   UNL     1       7.869  10.340   7.524  1.00  0.00    -0.550 OA
ATOM      6  O   UNL     1       9.078  10.966   5.681  1.00  0.00    -0.550 OA
ENDBRANCH   3   4
ENDBRANCH   2   3
ENDBRANCH   1   2
BRANCH   1   7
ATOM      7  C   UNL     1       6.006  14.332   7.172  1.00  0.00     0.000 C 
BRANCH   7   8
ATOM      8  C   UNL     1       4.599  13.898   6.735  1.00  0.00     0.004 C 
BRANCH   8   9
ATOM      9  C   UNL     1       4.612  12.463   6.193  1.00  0.00     0.027 C 
BRANCH   9  10
ATOM     10  C   UNL     1       3.801  11.544   7.064  1.00  0.00    -0.035 C 
ATOM     11  C   UNL     1       4.375  10.734   7.960  1.00  0.00     0.004 C 
ENDBRANCH   9  10
ENDBRANCH   8   9
ENDBRANCH   7   8
ENDBRANCH   1   7
TORSDOF 7
ENDMDL
MODEL 6
REMARK VINA RESULT:    -3.440      3.131      5.731
REMARK INTER + INTRA:          -5.402
REMARK INTER:                  -5.048
REMARK INTRA:                  -0.355
REMARK UNBOUND:                -0.555
REMARK SMILES C=CCCCCCCC(=O)[O-]
REMARK SMILES IDX 6 1 7 2 8 3 9 4 10 5 11 6 5 7 4 8 3 9 2 10 1 11
REMARK H PARENT
REMARK Flexibility Score: inf
ROOT
ATOM      1  C   UNL     1       5.244  10.244   7.140  1.00  0.00     0.000 C 
ENDROOT
BRANCH   1   2
ATOM      2  C   UNL     1       4.960  11.404   6.170  1.00  0.00     0.006 C 
BRANCH   2   3
ATOM      3  C   UNL     1       4.050  12.471   6.796  1.00  0.00     0.053 C 
BRANCH   3   4
ATOM      4  C   UNL     1       4.749  13.789   6.928  1.00  0.00     0.041 C 
ATOM      5  O   UNL     1       5.068  14.442   5.900  1.00  0.00    -0.550 OA
ATOM      6  O   UNL     1       5.078  14.279   8.185  1.00  0.00    -0.550 OA
ENDBRANCH   3   4
ENDBRANCH   2   3
ENDBRANCH   1   2
BRANCH   1   7
ATOM      7  C   UNL     1       5.134  10.665   8.615  1.00  0.00     0.000 C 
BRANCH   7   8
ATOM      8  C   UNL     1       4.477   9.586   9.489  1.00  0.00     0.004 C 
BRANCH   8   9
ATOM      9  C   UNL     1       4.038   8.386   8.640  1.00  0.00     0.027 C 
BRANCH   9  10
ATOM     10  C   UNL     1       4.114   7.106   9.427  1.00  0.00    -0.035 C 
ATOM     11  C   UNL     1       3.733   5.936   8.904  1.00  0.00     0.004 C 
ENDBRANCH   9  10
ENDBRANCH   8   9
ENDBRANCH   7   8
ENDBRANCH   1   7
TORSDOF 7
ENDMDL
MODEL 7
REMARK VINA RESULT:    -3.378      2.757      3.133
REMARK INTER + INTRA:          -5.315
REMARK INTER:                  -4.471
REMARK INTRA:                  -0.844
REMARK UNBOUND:                -0.555
REMARK SMILES C=CCCCCCCC(=O)[O-]
REMARK SMILES IDX 6 1 7 2 8 3 9 4 10 5 11 6 5 7 4 8 3 9 2 10 1 11
REMARK H PARENT
REMARK Flexibility Score: inf
ROOT
ATOM      1  C   UNL     1       4.461  10.528   7.777  1.00  0.00     0.000 C 
ENDROOT
BRANCH   1   2
ATOM      2  C   UNL     1       5.573  10.986   8.737  1.00  0.00     0.006 C 
BRANCH   2   3
ATOM      3  C   UNL     1       6.917  10.313   8.429  1.00  0.00     0.053 C 
BRANCH   3   4
ATOM      4  C   UNL     1       7.883  11.266   7.796  1.00  0.00     0.041 C 
ATOM      5  O   UNL     1       8.608  12.003   8.515  1.00  0.00    -0.550 OA
ATOM      6  O   UNL     1       7.959  11.365   6.412  1.00  0.00    -0.550 OA
ENDBRANCH   3   4
ENDBRANCH   2   3
ENDBRANCH   1   2
BRANCH   1   7
ATOM      7  C   UNL     1       3.752  11.706   7.088  1.00  0.00     0.000 C 
BRANCH   7   8
ATOM      8  C   UNL     1       4.671  12.464   6.118  1.00  0.00     0.004 C 
BRANCH   8   9
ATOM      9  C   UNL     1       4.674  13.966   6.429  1.00  0.00     0.027 C 
BRANCH   9  10
ATOM     10  C   UNL     1       5.927  14.370   7.157  1.00  0.00    -0.035 C 
ATOM     11  C   UNL     1       5.912  14.700   8.452  1.00  0.00     0.004 C 
ENDBRANCH   9  10
ENDBRANCH   8   9
ENDBRANCH   7   8
ENDBRANCH   1   7
TORSDOF 7
ENDMDL
MODEL 8
REMARK VINA RESULT:    -3.356      1.316      2.221
REMARK INTER + INTRA:          -5.283
REMARK INTER:                  -4.921
REMARK INTRA:                  -0.362
REMARK UNBOUND:                -0.555
REMARK SMILES C=CCCCCCCC(=O)[O-]
REMARK SMILES IDX 6 1 7 2 8 3 9 4 10 5 11 6 5 7 4 8 3 9 2 10 1 11
REMARK H PARENT
REMARK Flexibility Score: inf
ROOT
ATOM      1  C   UNL     1       4.627   9.920   9.107  1.00  0.00     0.000 C 
ENDROOT
BRANCH   1   2
ATOM      2  C   UNL     1       3.844   8.614   8.886  1.00  0.00     0.006 C 
BRANCH   2   3
ATOM      3  C   UNL     1       4.634   7.381   9.348  1.00  0.00     0.053 C 
BRANCH   3   4
ATOM      4  C   UNL     1       3.886   6.112   9.083  1.00  0.00     0.041 C 
ATOM      5  O   UNL     1       3.468   5.853   7.923  1.00  0.00    -0.550 OA
ATOM      6  O   UNL     1       3.619   5.230  10.123  1.00  0.00    -0.550 OA
ENDBRANCH   3   4
ENDBRANCH   2   3
ENDBRANCH   1   2
BRANCH   1   7
ATOM      7  C   UNL     1       5.572  10.248   7.938  1.00  0.00     0.000 C 
BRANCH   7   8
ATOM      8  C   UNL     1       4.817  10.693   6.676  1.00  0.00     0.004 C 
BRANCH   8   9
ATOM      9  C   UNL     1       3.963  11.936   6.958  1.00  0.00     0.027 C 
BRANCH   9  10
ATOM     10  C   UNL     1       4.689  13.195   6.572  1.00  0.00    -0.035 C 
ATOM     11  C   UNL     1       5.044  14.110   7.480  1.00  0.00     0.004 C 
ENDBRANCH   9  10
ENDBRANCH   8   9
ENDBRANCH   7   8
ENDBRANCH   1   7
TORSDOF 7
ENDMDL
MODEL 9
REMARK VINA RESULT:    -3.283     17.086     17.975
REMARK INTER + INTRA:          -5.181
REMARK INTER:                  -4.855
REMARK INTRA:                  -0.326
REMARK UNBOUND:                -0.555
REMARK SMILES C=CCCCCCCC(=O)[O-]
REMARK SMILES IDX 6 1 7 2 8 3 9 4 10 5 11 6 5 7 4 8 3 9 2 10 1 11
REMARK H PARENT
REMARK Flexibility Score: inf
ROOT
ATOM      1  C   UNL     1       4.556   3.012  -8.278  1.00  0.00     0.000 C 
ENDROOT
BRANCH   1   2
ATOM      2  C   UNL     1       5.680   1.973  -8.121  1.00  0.00     0.006 C 
BRANCH   2   3
ATOM      3  C   UNL     1       5.139   0.593  -7.720  1.00  0.00     0.053 C 
BRANCH   3   4
ATOM      4  C   UNL     1       4.627   0.585  -6.313  1.00  0.00     0.041 C 
ATOM      5  O   UNL     1       3.509   0.067  -6.050  1.00  0.00    -0.550 OA
ATOM      6  O   UNL     1       5.367   1.178  -5.298  1.00  0.00    -0.550 OA
ENDBRANCH   3   4
ENDBRANCH   2   3
ENDBRANCH   1   2
BRANCH   1   7
ATOM      7  C   UNL     1       4.102   3.176  -9.738  1.00  0.00     0.000 C 
BRANCH   7   8
ATOM      8  C   UNL     1       3.631   4.604 -10.053  1.00  0.00     0.004 C 
BRANCH   8   9
ATOM      9  C   UNL     1       2.250   4.872  -9.442  1.00  0.00     0.027 C 
BRANCH   9  10
ATOM     10  C   UNL     1       1.971   6.347  -9.352  1.00  0.00    -0.035 C 
ATOM     11  C   UNL     1       2.940   7.233  -9.101  1.00  0.00     0.004 C 
ENDBRANCH   9  10
ENDBRANCH   8   9
ENDBRANCH   7   8
ENDBRANCH   1   7
TORSDOF 7
ENDMDL
