MODEL 1
REMARK VINA RESULT:    -2.793      0.000      0.000
REMARK INTER + INTRA:          -3.430
REMARK INTER:                  -3.283
REMARK INTRA:                  -0.147
REMARK UNBOUND:                -0.147
REMARK SMILES O=C([O-])CCC(=O)[O-]
REMARK SMILES IDX 4 1 2 2 1 3 3 4 5 5 6 6 7 7 8 8
REMARK H PARENT
REMARK Flexibility Score: inf
ROOT
ATOM      1  C   UNL     1      21.268   1.081  24.632  1.00  0.00     0.059 C 
ENDROOT
BRANCH   1   2
ATOM      2  C   UNL     1      20.403   1.467  25.793  1.00  0.00     0.042 C 
ATOM      3  O   UNL     1      19.194   1.768  25.612  1.00  0.00    -0.550 OA
ATOM      4  O   UNL     1      20.943   1.534  27.071  1.00  0.00    -0.550 OA
ENDBRANCH   1   2
BRANCH   1   5
ATOM      5  C   UNL     1      21.453   2.246  23.655  1.00  0.00     0.059 C 
BRANCH   5   6
ATOM      6  C   UNL     1      21.940   3.480  24.353  1.00  0.00     0.042 C 
ATOM      7  O   UNL     1      21.277   4.548  24.286  1.00  0.00    -0.550 OA
ATOM      8  O   UNL     1      23.104   3.437  25.108  1.00  0.00    -0.550 OA
ENDBRANCH   5   6
ENDBRANCH   1   5
TORSDOF 3
ENDMDL
MODEL 2
REMARK VINA RESULT:    -2.788      0.115      3.206
REMARK INTER + INTRA:          -3.424
REMARK INTER:                  -3.281
REMARK INTRA:                  -0.144
REMARK UNBOUND:                -0.147
REMARK SMILES O=C([O-])CCC(=O)[O-]
REMARK SMILES IDX 4 1 2 2 1 3 3 4 5 5 6 6 7 7 8 8
REMARK H PARENT
REMARK Flexibility Score: inf
ROOT
ATOM      1  C   UNL     1      21.514   2.262  23.698  1.00  0.00     0.059 C 
ENDROOT
BRANCH   1   2
ATOM      2  C   UNL     1      22.025   3.446  24.460  1.00  0.00     0.042 C 
ATOM      3  O   UNL     1      23.125   3.382  25.069  1.00  0.00    -0.550 OA
ATOM      4  O   UNL     1      21.266   4.607  24.532  1.00  0.00    -0.550 OA
ENDBRANCH   1   2
BRANCH   1   5
ATOM      5  C   UNL     1      21.221   1.078  24.625  1.00  0.00     0.059 C 
BRANCH   5   6
ATOM      6  C   UNL     1      20.366   1.485  25.786  1.00  0.00     0.042 C 
ATOM      7  O   UNL     1      19.159   1.796  25.606  1.00  0.00    -0.550 OA
ATOM      8  O   UNL     1      20.892   1.482  27.071  1.00  0.00    -0.550 OA
ENDBRANCH   5   6
ENDBRANCH   1   5
TORSDOF 3
ENDMDL
MODEL 3
REMARK VINA RESULT:    -2.785      1.222      1.722
REMARK INTER + INTRA:          -3.420
REMARK INTER:                  -3.271
REMARK INTRA:                  -0.149
REMARK UNBOUND:                -0.147
REMARK SMILES O=C([O-])CCC(=O)[O-]
REMARK SMILES IDX 4 1 2 2 1 3 3 4 5 5 6 6 7 7 8 8
REMARK H PARENT
REMARK Flexibility Score: inf
ROOT
ATOM      1  C   UNL     1      21.268   1.870  23.987  1.00  0.00     0.059 C 
ENDROOT
BRANCH   1   2
ATOM      2  C   UNL     1      21.007   1.541  25.425  1.00  0.00     0.042 C 
ATOM      3  O   UNL     1      21.968   1.374  26.222  1.00  0.00    -0.550 OA
ATOM      4  O   UNL     1      19.704   1.377  25.876  1.00  0.00    -0.550 OA
ENDBRANCH   1   2
BRANCH   1   5
ATOM      5  C   UNL     1      21.792   3.301  23.822  1.00  0.00     0.059 C 
BRANCH   5   6
ATOM      6  C   UNL     1      20.913   4.294  24.519  1.00  0.00     0.042 C 
ATOM      7  O   UNL     1      19.749   4.517  24.094  1.00  0.00    -0.550 OA
ATOM      8  O   UNL     1      21.366   4.943  25.660  1.00  0.00    -0.550 OA
ENDBRANCH   5   6
ENDBRANCH   1   5
TORSDOF 3
ENDMDL
MODEL 4
REMARK VINA RESULT:    -2.781      1.380      2.396
REMARK INTER + INTRA:          -3.416
REMARK INTER:                  -3.279
REMARK INTRA:                  -0.136
REMARK UNBOUND:                -0.147
REMARK SMILES O=C([O-])CCC(=O)[O-]
REMARK SMILES IDX 4 1 2 2 1 3 3 4 5 5 6 6 7 7 8 8
REMARK H PARENT
REMARK Flexibility Score: inf
ROOT
ATOM      1  C   UNL     1      21.589   2.054  24.419  1.00  0.00     0.059 C 
ENDROOT
BRANCH   1   2
ATOM      2  C   UNL     1      22.327   2.313  25.696  1.00  0.00     0.042 C 
ATOM      3  O   UNL     1      21.929   1.799  26.775  1.00  0.00    -0.550 OA
ATOM      4  O   UNL     1      23.432   3.154  25.703  1.00  0.00    -0.550 OA
ENDBRANCH   1   2
BRANCH   1   5
ATOM      5  C   UNL     1      21.369   3.345  23.622  1.00  0.00     0.059 C 
BRANCH   5   6
ATOM      6  C   UNL     1      20.339   4.221  24.267  1.00  0.00     0.042 C 
ATOM      7  O   UNL     1      20.441   5.475  24.198  1.00  0.00    -0.550 OA
ATOM      8  O   UNL     1      19.247   3.654  24.909  1.00  0.00    -0.550 OA
ENDBRANCH   5   6
ENDBRANCH   1   5
TORSDOF 3
ENDMDL
MODEL 5
REMARK VINA RESULT:    -2.780      1.250      3.104
REMARK INTER + INTRA:          -3.415
REMARK INTER:                  -3.241
REMARK INTRA:                  -0.174
REMARK UNBOUND:                -0.147
REMARK SMILES O=C([O-])CCC(=O)[O-]
REMARK SMILES IDX 4 1 2 2 1 3 3 4 5 5 6 6 7 7 8 8
REMARK H PARENT
REMARK Flexibility Score: inf
ROOT
ATOM      1  C   UNL     1      21.784   3.342  23.857  1.00  0.00     0.059 C 
ENDROOT
BRANCH   1   2
ATOM      2  C   UNL     1      20.887   4.329  24.540  1.00  0.00     0.042 C 
ATOM      3  O   UNL     1      19.731   4.551  24.091  1.00  0.00    -0.550 OA
ATOM      4  O   UNL     1      21.341   5.034  25.646  1.00  0.00    -0.550 OA
ENDBRANCH   1   2
BRANCH   1   5
ATOM      5  C   UNL     1      21.253   1.910  23.990  1.00  0.00     0.059 C 
BRANCH   5   6
ATOM      6  C   UNL     1      21.037   1.534  25.424  1.00  0.00     0.042 C 
ATOM      7  O   UNL     1      22.021   1.392  26.197  1.00  0.00    -0.550 OA
ATOM      8  O   UNL     1      19.747   1.379  25.915  1.00  0.00    -0.550 OA
ENDBRANCH   5   6
ENDBRANCH   1   5
TORSDOF 3
ENDMDL
MODEL 6
REMARK VINA RESULT:    -2.732      1.098      3.331
REMARK INTER + INTRA:          -3.358
REMARK INTER:                  -3.170
REMARK INTRA:                  -0.188
REMARK UNBOUND:                -0.147
REMARK SMILES O=C([O-])CCC(=O)[O-]
REMARK SMILES IDX 4 1 2 2 1 3 3 4 5 5 6 6 7 7 8 8
REMARK H PARENT
REMARK Flexibility Score: inf
ROOT
ATOM      1  C   UNL     1      21.312   1.390  24.331  1.00  0.00     0.059 C 
ENDROOT
BRANCH   1   2
ATOM      2  C   UNL     1      21.957   2.719  24.084  1.00  0.00     0.042 C 
ATOM      3  O   UNL     1      23.179   2.888  24.339  1.00  0.00    -0.550 OA
ATOM      4  O   UNL     1      21.201   3.783  23.610  1.00  0.00    -0.550 OA
ENDBRANCH   1   2
BRANCH   1   5
ATOM      5  C   UNL     1      20.179   1.496  25.358  1.00  0.00     0.059 C 
BRANCH   5   6
ATOM      6  C   UNL     1      20.667   2.045  26.664  1.00  0.00     0.042 C 
ATOM      7  O   UNL     1      21.535   1.419  27.329  1.00  0.00    -0.550 OA
ATOM      8  O   UNL     1      20.194   3.266  27.125  1.00  0.00    -0.550 OA
ENDBRANCH   5   6
ENDBRANCH   1   5
TORSDOF 3
ENDMDL
MODEL 7
REMARK VINA RESULT:    -2.678      2.155      3.925
REMARK INTER + INTRA:          -3.294
REMARK INTER:                  -3.266
REMARK INTRA:                  -0.029
REMARK UNBOUND:                -0.147
REMARK SMILES O=C([O-])CCC(=O)[O-]
REMARK SMILES IDX 4 1 2 2 1 3 3 4 5 5 6 6 7 7 8 8
REMARK H PARENT
REMARK Flexibility Score: inf
ROOT
ATOM      1  C   UNL     1      23.127   3.055  25.474  1.00  0.00     0.059 C 
ENDROOT
BRANCH   1   2
ATOM      2  C   UNL     1      24.068   3.797  26.373  1.00  0.00     0.042 C 
ATOM      3  O   UNL     1      23.644   4.730  27.105  1.00  0.00    -0.550 OA
ATOM      4  O   UNL     1      25.422   3.486  26.373  1.00  0.00    -0.550 OA
ENDBRANCH   1   2
BRANCH   1   5
ATOM      5  C   UNL     1      22.226   2.101  26.264  1.00  0.00     0.059 C 
BRANCH   5   6
ATOM      6  C   UNL     1      21.156   1.509  25.398  1.00  0.00     0.042 C 
ATOM      7  O   UNL     1      21.459   0.952  24.309  1.00  0.00    -0.550 OA
ATOM      8  O   UNL     1      19.831   1.537  25.812  1.00  0.00    -0.550 OA
ENDBRANCH   5   6
ENDBRANCH   1   5
TORSDOF 3
ENDMDL
MODEL 8
REMARK VINA RESULT:    -2.651      2.332      2.924
REMARK INTER + INTRA:          -3.263
REMARK INTER:                  -3.234
REMARK INTRA:                  -0.028
REMARK UNBOUND:                -0.147
REMARK SMILES O=C([O-])CCC(=O)[O-]
REMARK SMILES IDX 4 1 2 2 1 3 3 4 5 5 6 6 7 7 8 8
REMARK H PARENT
REMARK Flexibility Score: inf
ROOT
ATOM      1  C   UNL     1      22.516   2.775  25.287  1.00  0.00     0.059 C 
ENDROOT
BRANCH   1   2
ATOM      2  C   UNL     1      21.505   1.672  25.253  1.00  0.00     0.042 C 
ATOM      3  O   UNL     1      21.424   0.916  24.249  1.00  0.00    -0.550 OA
ATOM      4  O   UNL     1      20.622   1.503  26.312  1.00  0.00    -0.550 OA
ENDBRANCH   1   2
BRANCH   1   5
ATOM      5  C   UNL     1      23.104   2.959  26.691  1.00  0.00     0.059 C 
BRANCH   5   6
ATOM      6  C   UNL     1      24.263   3.908  26.684  1.00  0.00     0.042 C 
ATOM      7  O   UNL     1      25.413   3.501  26.370  1.00  0.00    -0.550 OA
ATOM      8  O   UNL     1      24.066   5.248  26.986  1.00  0.00    -0.550 OA
ENDBRANCH   5   6
ENDBRANCH   1   5
TORSDOF 3
ENDMDL
MODEL 9
REMARK VINA RESULT:    -2.650      2.221      3.836
REMARK INTER + INTRA:          -3.261
REMARK INTER:                  -3.235
REMARK INTRA:                  -0.026
REMARK UNBOUND:                -0.147
REMARK SMILES O=C([O-])CCC(=O)[O-]
REMARK SMILES IDX 4 1 2 2 1 3 3 4 5 5 6 6 7 7 8 8
REMARK H PARENT
REMARK Flexibility Score: inf
ROOT
ATOM      1  C   UNL     1      23.036   3.092  26.136  1.00  0.00     0.059 C 
ENDROOT
BRANCH   1   2
ATOM      2  C   UNL     1      24.226   3.909  26.538  1.00  0.00     0.042 C 
ATOM      3  O   UNL     1      25.382   3.412  26.489  1.00  0.00    -0.550 OA
ATOM      4  O   UNL     1      24.054   5.206  27.005  1.00  0.00    -0.550 OA
ENDBRANCH   1   2
BRANCH   1   5
ATOM      5  C   UNL     1      22.924   2.969  24.613  1.00  0.00     0.059 C 
BRANCH   5   6
ATOM      6  C   UNL     1      21.535   2.599  24.190  1.00  0.00     0.042 C 
ATOM      7  O   UNL     1      21.227   1.390  24.014  1.00  0.00    -0.550 OA
ATOM      8  O   UNL     1      20.572   3.586  24.029  1.00  0.00    -0.550 OA
ENDBRANCH   5   6
ENDBRANCH   1   5
TORSDOF 3
ENDMDL
