MODEL 1
REMARK VINA RESULT:    -3.958      0.000      0.000
REMARK INTER + INTRA:         -14.951
REMARK INTER:                  -9.975
REMARK INTRA:                  -4.976
REMARK UNBOUND:                -4.976
REMARK SMILES CCCCCCCCCCCCCCCCCCCCCCCCCCCC(=O)[O-]
REMARK SMILES IDX 15 1 16 2 17 3 18 4 19 5 20 6 21 7 22 8 23 9 24 10 25 11
REMARK SMILES IDX 26 12 27 13 28 14 29 15 30 16 14 17 13 18 12 19 11 20 10 21
REMARK SMILES IDX 9 22 8 23 7 24 6 25 5 26 4 27 3 28 2 29 1 30
REMARK H PARENT
REMARK Flexibility Score: inf
ROOT
ATOM      1  C   UNL     1     -34.856   1.081  -5.735  1.00  0.00     0.000 C 
ENDROOT
BRANCH   1   2
ATOM      2  C   UNL     1     -35.612   0.652  -4.460  1.00  0.00     0.000 C 
BRANCH   2   3
ATOM      3  C   UNL     1     -35.698   1.725  -3.356  1.00  0.00     0.000 C 
BRANCH   3   4
ATOM      4  C   UNL     1     -34.347   2.321  -2.920  1.00  0.00     0.000 C 
BRANCH   4   5
ATOM      5  C   UNL     1     -34.162   2.320  -1.392  1.00  0.00     0.000 C 
BRANCH   5   6
ATOM      6  C   UNL     1     -32.801   2.893  -0.964  1.00  0.00     0.000 C 
BRANCH   6   7
ATOM      7  C   UNL     1     -32.780   3.328   0.513  1.00  0.00     0.000 C 
BRANCH   7   8
ATOM      8  C   UNL     1     -34.140   3.145   1.210  1.00  0.00     0.000 C 
BRANCH   8   9
ATOM      9  C   UNL     1     -34.120   2.239   2.453  1.00  0.00     0.000 C 
BRANCH   9  10
ATOM     10  C   UNL     1     -32.871   1.341   2.521  1.00  0.00     0.000 C 
BRANCH  10  11
ATOM     11  C   UNL     1     -33.212  -0.146   2.287  1.00  0.00     0.000 C 
BRANCH  11  12
ATOM     12  C   UNL     1     -33.316  -0.525   0.799  1.00  0.00     0.006 C 
BRANCH  12  13
ATOM     13  C   UNL     1     -34.723  -0.989   0.401  1.00  0.00     0.053 C 
BRANCH  13  14
ATOM     14  C   UNL     1     -34.681  -2.387  -0.131  1.00  0.00     0.041 C 
ATOM     15  O   UNL     1     -34.467  -2.594  -1.354  1.00  0.00    -0.550 OA
ATOM     16  O   UNL     1     -34.917  -3.460   0.720  1.00  0.00    -0.550 OA
ENDBRANCH  13  14
ENDBRANCH  12  13
ENDBRANCH  11  12
ENDBRANCH  10  11
ENDBRANCH   9  10
ENDBRANCH   8   9
ENDBRANCH   7   8
ENDBRANCH   6   7
ENDBRANCH   5   6
ENDBRANCH   4   5
ENDBRANCH   3   4
ENDBRANCH   2   3
ENDBRANCH   1   2
BRANCH   1  17
ATOM     17  C   UNL     1     -35.430   2.318  -6.449  1.00  0.00     0.000 C 
BRANCH  17  18
ATOM     18  C   UNL     1     -34.428   3.481  -6.520  1.00  0.00     0.000 C 
BRANCH  18  19
ATOM     19  C   UNL     1     -34.868   4.706  -5.697  1.00  0.00     0.000 C 
BRANCH  19  20
ATOM     20  C   UNL     1     -36.378   4.796  -5.400  1.00  0.00     0.000 C 
BRANCH  20  21
ATOM     21  C   UNL     1     -36.767   5.793  -4.295  1.00  0.00     0.000 C 
BRANCH  21  22
ATOM     22  C   UNL     1     -36.838   5.143  -2.903  1.00  0.00    -0.000 C 
BRANCH  22  23
ATOM     23  C   UNL     1     -36.470   6.116  -1.768  1.00  0.00    -0.000 C 
BRANCH  23  24
ATOM     24  C   UNL     1     -35.133   5.818  -1.062  1.00  0.00    -0.000 C 
BRANCH  24  25
ATOM     25  C   UNL     1     -34.033   6.876  -1.271  1.00  0.00    -0.000 C 
BRANCH  25  26
ATOM     26  C   UNL     1     -33.201   6.704  -2.556  1.00  0.00    -0.000 C 
BRANCH  26  27
ATOM     27  C   UNL     1     -33.558   7.676  -3.698  1.00  0.00    -0.000 C 
BRANCH  27  28
ATOM     28  C   UNL     1     -34.109   9.040  -3.244  1.00  0.00    -0.000 C 
BRANCH  28  29
ATOM     29  C   UNL     1     -35.577   9.252  -3.641  1.00  0.00    -0.003 C 
ATOM     30  C   UNL     1     -35.739   9.273  -5.158  1.00  0.00     0.004 C 
ENDBRANCH  28  29
ENDBRANCH  27  28
ENDBRANCH  26  27
ENDBRANCH  25  26
ENDBRANCH  24  25
ENDBRANCH  23  24
ENDBRANCH  22  23
ENDBRANCH  21  22
ENDBRANCH  20  21
ENDBRANCH  19  20
ENDBRANCH  18  19
ENDBRANCH  17  18
ENDBRANCH   1  17
TORSDOF 26
ENDMDL
MODEL 2
REMARK VINA RESULT:    -3.956      4.675      6.905
REMARK INTER + INTRA:         -14.946
REMARK INTER:                  -9.768
REMARK INTRA:                  -5.178
REMARK UNBOUND:                -4.976
REMARK SMILES CCCCCCCCCCCCCCCCCCCCCCCCCCCC(=O)[O-]
REMARK SMILES IDX 15 1 16 2 17 3 18 4 19 5 20 6 21 7 22 8 23 9 24 10 25 11
REMARK SMILES IDX 26 12 27 13 28 14 29 15 30 16 14 17 13 18 12 19 11 20 10 21
REMARK SMILES IDX 9 22 8 23 7 24 6 25 5 26 4 27 3 28 2 29 1 30
REMARK H PARENT
REMARK Flexibility Score: inf
ROOT
ATOM      1  C   UNL     1     -34.997   1.761  -3.891  1.00  0.00     0.000 C 
ENDROOT
BRANCH   1   2
ATOM      2  C   UNL     1     -36.155   2.738  -3.601  1.00  0.00     0.000 C 
BRANCH   2   3
ATOM      3  C   UNL     1     -35.764   4.003  -2.810  1.00  0.00     0.000 C 
BRANCH   3   4
ATOM      4  C   UNL     1     -36.859   5.081  -2.723  1.00  0.00     0.000 C 
BRANCH   4   5
ATOM      5  C   UNL     1     -36.470   6.252  -1.803  1.00  0.00     0.000 C 
BRANCH   5   6
ATOM      6  C   UNL     1     -35.799   7.405  -2.569  1.00  0.00     0.000 C 
BRANCH   6   7
ATOM      7  C   UNL     1     -34.287   7.496  -2.296  1.00  0.00     0.000 C 
BRANCH   7   8
ATOM      8  C   UNL     1     -33.882   6.863  -0.952  1.00  0.00     0.000 C 
BRANCH   8   9
ATOM      9  C   UNL     1     -33.093   5.547  -1.063  1.00  0.00     0.000 C 
BRANCH   9  10
ATOM     10  C   UNL     1     -31.661   5.657  -0.507  1.00  0.00     0.000 C 
BRANCH  10  11
ATOM     11  C   UNL     1     -31.277   7.115  -0.179  1.00  0.00     0.000 C 
BRANCH  11  12
ATOM     12  C   UNL     1     -30.144   7.667  -1.062  1.00  0.00     0.006 C 
BRANCH  12  13
ATOM     13  C   UNL     1     -30.660   8.325  -2.348  1.00  0.00     0.053 C 
BRANCH  13  14
ATOM     14  C   UNL     1     -29.777   9.468  -2.740  1.00  0.00     0.041 C 
ATOM     15  O   UNL     1     -30.274  10.508  -3.246  1.00  0.00    -0.550 OA
ATOM     16  O   UNL     1     -28.401   9.369  -2.579  1.00  0.00    -0.550 OA
ENDBRANCH  13  14
ENDBRANCH  12  13
ENDBRANCH  11  12
ENDBRANCH  10  11
ENDBRANCH   9  10
ENDBRANCH   8   9
ENDBRANCH   7   8
ENDBRANCH   6   7
ENDBRANCH   5   6
ENDBRANCH   4   5
ENDBRANCH   3   4
ENDBRANCH   2   3
ENDBRANCH   1   2
BRANCH   1  17
ATOM     17  C   UNL     1     -34.858   1.331  -5.362  1.00  0.00     0.000 C 
BRANCH  17  18
ATOM     18  C   UNL     1     -36.141   1.571  -6.175  1.00  0.00     0.000 C 
BRANCH  18  19
ATOM     19  C   UNL     1     -35.935   2.537  -7.355  1.00  0.00     0.000 C 
BRANCH  19  20
ATOM     20  C   UNL     1     -34.914   3.667  -7.115  1.00  0.00     0.000 C 
BRANCH  20  21
ATOM     21  C   UNL     1     -35.500   4.962  -6.526  1.00  0.00     0.000 C 
BRANCH  21  22
ATOM     22  C   UNL     1     -34.475   5.760  -5.702  1.00  0.00    -0.000 C 
BRANCH  22  23
ATOM     23  C   UNL     1     -33.253   4.918  -5.289  1.00  0.00    -0.000 C 
BRANCH  23  24
ATOM     24  C   UNL     1     -32.087   5.721  -4.680  1.00  0.00    -0.000 C 
BRANCH  24  25
ATOM     25  C   UNL     1     -30.997   4.872  -3.998  1.00  0.00    -0.000 C 
BRANCH  25  26
ATOM     26  C   UNL     1     -29.564   5.420  -4.139  1.00  0.00    -0.000 C 
BRANCH  26  27
ATOM     27  C   UNL     1     -28.454   4.479  -3.628  1.00  0.00    -0.000 C 
BRANCH  27  28
ATOM     28  C   UNL     1     -28.919   3.411  -2.621  1.00  0.00    -0.000 C 
BRANCH  28  29
ATOM     29  C   UNL     1     -28.515   3.739  -1.176  1.00  0.00    -0.003 C 
ATOM     30  C   UNL     1     -27.594   4.954  -1.124  1.00  0.00     0.004 C 
ENDBRANCH  28  29
ENDBRANCH  27  28
ENDBRANCH  26  27
ENDBRANCH  25  26
ENDBRANCH  24  25
ENDBRANCH  23  24
ENDBRANCH  22  23
ENDBRANCH  21  22
ENDBRANCH  20  21
ENDBRANCH  19  20
ENDBRANCH  18  19
ENDBRANCH  17  18
ENDBRANCH   1  17
TORSDOF 26
ENDMDL
MODEL 3
REMARK VINA RESULT:    -3.953      3.556      9.281
REMARK INTER + INTRA:         -14.939
REMARK INTER:                 -10.212
REMARK INTRA:                  -4.727
REMARK UNBOUND:                -4.976
REMARK SMILES CCCCCCCCCCCCCCCCCCCCCCCCCCCC(=O)[O-]
REMARK SMILES IDX 15 1 16 2 17 3 18 4 19 5 20 6 21 7 22 8 23 9 24 10 25 11
REMARK SMILES IDX 26 12 27 13 28 14 29 15 30 16 14 17 13 18 12 19 11 20 10 21
REMARK SMILES IDX 9 22 8 23 7 24 6 25 5 26 4 27 3 28 2 29 1 30
REMARK H PARENT
REMARK Flexibility Score: inf
ROOT
ATOM      1  C   UNL     1     -31.590   2.345   1.852  1.00  0.00     0.000 C 
ENDROOT
BRANCH   1   2
ATOM      2  C   UNL     1     -32.778   3.270   2.184  1.00  0.00     0.000 C 
BRANCH   2   3
ATOM      3  C   UNL     1     -33.751   2.731   3.252  1.00  0.00     0.000 C 
BRANCH   3   4
ATOM      4  C   UNL     1     -35.244   2.861   2.898  1.00  0.00     0.000 C 
BRANCH   4   5
ATOM      5  C   UNL     1     -35.973   1.505   2.886  1.00  0.00     0.000 C 
BRANCH   5   6
ATOM      6  C   UNL     1     -35.086   0.365   2.359  1.00  0.00     0.000 C 
BRANCH   6   7
ATOM      7  C   UNL     1     -35.378   0.019   0.888  1.00  0.00     0.000 C 
BRANCH   7   8
ATOM      8  C   UNL     1     -34.252   0.459  -0.065  1.00  0.00     0.000 C 
BRANCH   8   9
ATOM      9  C   UNL     1     -34.548   1.729  -0.882  1.00  0.00     0.000 C 
BRANCH   9  10
ATOM     10  C   UNL     1     -33.273   2.428  -1.388  1.00  0.00     0.000 C 
BRANCH  10  11
ATOM     11  C   UNL     1     -33.547   3.877  -1.843  1.00  0.00     0.000 C 
BRANCH  11  12
ATOM     12  C   UNL     1     -34.516   4.637  -0.921  1.00  0.00     0.006 C 
BRANCH  12  13
ATOM     13  C   UNL     1     -34.599   6.133  -1.248  1.00  0.00     0.053 C 
BRANCH  13  14
ATOM     14  C   UNL     1     -35.878   6.443  -1.960  1.00  0.00     0.041 C 
ATOM     15  O   UNL     1     -36.121   7.616  -2.346  1.00  0.00    -0.550 OA
ATOM     16  O   UNL     1     -36.818   5.441  -2.165  1.00  0.00    -0.550 OA
ENDBRANCH  13  14
ENDBRANCH  12  13
ENDBRANCH  11  12
ENDBRANCH  10  11
ENDBRANCH   9  10
ENDBRANCH   8   9
ENDBRANCH   7   8
ENDBRANCH   6   7
ENDBRANCH   5   6
ENDBRANCH   4   5
ENDBRANCH   3   4
ENDBRANCH   2   3
ENDBRANCH   1   2
BRANCH   1  17
ATOM     17  C   UNL     1     -31.420   1.137   2.791  1.00  0.00     0.000 C 
BRANCH  17  18
ATOM     18  C   UNL     1     -30.468   0.072   2.224  1.00  0.00     0.000 C 
BRANCH  18  19
ATOM     19  C   UNL     1     -31.193  -1.008   1.401  1.00  0.00     0.000 C 
BRANCH  19  20
ATOM     20  C   UNL     1     -31.514  -2.313   2.159  1.00  0.00     0.000 C 
BRANCH  20  21
ATOM     21  C   UNL     1     -32.988  -2.750   2.109  1.00  0.00     0.000 C 
BRANCH  21  22
ATOM     22  C   UNL     1     -33.653  -2.769   3.496  1.00  0.00    -0.000 C 
BRANCH  22  23
ATOM     23  C   UNL     1     -35.170  -3.020   3.429  1.00  0.00    -0.000 C 
BRANCH  23  24
ATOM     24  C   UNL     1     -35.600  -4.157   2.481  1.00  0.00    -0.000 C 
BRANCH  24  25
ATOM     25  C   UNL     1     -36.865  -3.872   1.650  1.00  0.00    -0.000 C 
BRANCH  25  26
ATOM     26  C   UNL     1     -36.639  -3.794   0.128  1.00  0.00    -0.000 C 
BRANCH  26  27
ATOM     27  C   UNL     1     -35.244  -4.245  -0.347  1.00  0.00    -0.000 C 
BRANCH  27  28
ATOM     28  C   UNL     1     -34.467  -3.199  -1.168  1.00  0.00    -0.000 C 
BRANCH  28  29
ATOM     29  C   UNL     1     -33.729  -3.812  -2.368  1.00  0.00    -0.003 C 
ATOM     30  C   UNL     1     -33.919  -5.326  -2.416  1.00  0.00     0.004 C 
ENDBRANCH  28  29
ENDBRANCH  27  28
ENDBRANCH  26  27
ENDBRANCH  25  26
ENDBRANCH  24  25
ENDBRANCH  23  24
ENDBRANCH  22  23
ENDBRANCH  21  22
ENDBRANCH  20  21
ENDBRANCH  19  20
ENDBRANCH  18  19
ENDBRANCH  17  18
ENDBRANCH   1  17
TORSDOF 26
ENDMDL
MODEL 4
REMARK VINA RESULT:    -3.943      3.612      6.654
REMARK INTER + INTRA:         -14.911
REMARK INTER:                  -9.326
REMARK INTRA:                  -5.585
REMARK UNBOUND:                -4.976
REMARK SMILES CCCCCCCCCCCCCCCCCCCCCCCCCCCC(=O)[O-]
REMARK SMILES IDX 15 1 16 2 17 3 18 4 19 5 20 6 21 7 22 8 23 9 24 10 25 11
REMARK SMILES IDX 26 12 27 13 28 14 29 15 30 16 14 17 13 18 12 19 11 20 10 21
REMARK SMILES IDX 9 22 8 23 7 24 6 25 5 26 4 27 3 28 2 29 1 30
REMARK H PARENT
REMARK Flexibility Score: inf
ROOT
ATOM      1  C   UNL     1     -36.716   5.273  -2.709  1.00  0.00     0.000 C 
ENDROOT
BRANCH   1   2
ATOM      2  C   UNL     1     -35.962   3.951  -2.958  1.00  0.00     0.000 C 
BRANCH   2   3
ATOM      3  C   UNL     1     -34.749   3.703  -2.038  1.00  0.00     0.000 C 
BRANCH   3   4
ATOM      4  C   UNL     1     -33.383   3.707  -2.746  1.00  0.00     0.000 C 
BRANCH   4   5
ATOM      5  C   UNL     1     -32.435   4.792  -2.205  1.00  0.00     0.000 C 
BRANCH   5   6
ATOM      6  C   UNL     1     -32.835   5.277  -0.801  1.00  0.00     0.000 C 
BRANCH   6   7
ATOM      7  C   UNL     1     -32.358   6.711  -0.512  1.00  0.00     0.000 C 
BRANCH   7   8
ATOM      8  C   UNL     1     -30.832   6.873  -0.645  1.00  0.00     0.000 C 
BRANCH   8   9
ATOM      9  C   UNL     1     -30.368   8.208  -1.252  1.00  0.00     0.000 C 
BRANCH   9  10
ATOM     10  C   UNL     1     -29.371   8.026  -2.411  1.00  0.00     0.000 C 
BRANCH  10  11
ATOM     11  C   UNL     1     -29.986   7.237  -3.586  1.00  0.00     0.000 C 
BRANCH  11  12
ATOM     12  C   UNL     1     -29.161   6.005  -3.998  1.00  0.00     0.006 C 
BRANCH  12  13
ATOM     13  C   UNL     1     -28.116   5.611  -2.947  1.00  0.00     0.053 C 
BRANCH  13  14
ATOM     14  C   UNL     1     -28.477   4.304  -2.315  1.00  0.00     0.041 C 
ATOM     15  O   UNL     1     -28.525   4.197  -1.061  1.00  0.00    -0.550 OA
ATOM     16  O   UNL     1     -28.723   3.192  -3.112  1.00  0.00    -0.550 OA
ENDBRANCH  13  14
ENDBRANCH  12  13
ENDBRANCH  11  12
ENDBRANCH  10  11
ENDBRANCH   9  10
ENDBRANCH   8   9
ENDBRANCH   7   8
ENDBRANCH   6   7
ENDBRANCH   5   6
ENDBRANCH   4   5
ENDBRANCH   3   4
ENDBRANCH   2   3
ENDBRANCH   1   2
BRANCH   1  17
ATOM     17  C   UNL     1     -36.397   5.964  -1.370  1.00  0.00     0.000 C 
BRANCH  17  18
ATOM     18  C   UNL     1     -35.815   7.375  -1.554  1.00  0.00     0.000 C 
BRANCH  18  19
ATOM     19  C   UNL     1     -35.570   7.739  -3.029  1.00  0.00     0.000 C 
BRANCH  19  20
ATOM     20  C   UNL     1     -34.186   8.344  -3.341  1.00  0.00     0.000 C 
BRANCH  20  21
ATOM     21  C   UNL     1     -33.440   7.694  -4.519  1.00  0.00     0.000 C 
BRANCH  21  22
ATOM     22  C   UNL     1     -34.140   6.429  -5.043  1.00  0.00    -0.000 C 
BRANCH  22  23
ATOM     23  C   UNL     1     -34.704   6.603  -6.465  1.00  0.00    -0.000 C 
BRANCH  23  24
ATOM     24  C   UNL     1     -36.199   6.259  -6.618  1.00  0.00    -0.000 C 
BRANCH  24  25
ATOM     25  C   UNL     1     -36.561   4.786  -6.352  1.00  0.00    -0.000 C 
BRANCH  25  26
ATOM     26  C   UNL     1     -36.420   3.852  -7.569  1.00  0.00    -0.000 C 
BRANCH  26  27
ATOM     27  C   UNL     1     -35.179   2.938  -7.548  1.00  0.00    -0.000 C 
BRANCH  27  28
ATOM     28  C   UNL     1     -34.860   2.304  -6.182  1.00  0.00    -0.000 C 
BRANCH  28  29
ATOM     29  C   UNL     1     -35.773   1.115  -5.849  1.00  0.00    -0.003 C 
ATOM     30  C   UNL     1     -35.574   0.655  -4.407  1.00  0.00     0.004 C 
ENDBRANCH  28  29
ENDBRANCH  27  28
ENDBRANCH  26  27
ENDBRANCH  25  26
ENDBRANCH  24  25
ENDBRANCH  23  24
ENDBRANCH  22  23
ENDBRANCH  21  22
ENDBRANCH  20  21
ENDBRANCH  19  20
ENDBRANCH  18  19
ENDBRANCH  17  18
ENDBRANCH   1  17
TORSDOF 26
ENDMDL
MODEL 5
REMARK VINA RESULT:    -3.933      2.833      5.436
REMARK INTER + INTRA:         -14.887
REMARK INTER:                  -9.536
REMARK INTRA:                  -5.351
REMARK UNBOUND:                -4.976
REMARK SMILES CCCCCCCCCCCCCCCCCCCCCCCCCCCC(=O)[O-]
REMARK SMILES IDX 15 1 16 2 17 3 18 4 19 5 20 6 21 7 22 8 23 9 24 10 25 11
REMARK SMILES IDX 26 12 27 13 28 14 29 15 30 16 14 17 13 18 12 19 11 20 10 21
REMARK SMILES IDX 9 22 8 23 7 24 6 25 5 26 4 27 3 28 2 29 1 30
REMARK H PARENT
REMARK Flexibility Score: inf
ROOT
ATOM      1  C   UNL     1     -36.425   2.961  -2.896  1.00  0.00     0.000 C 
ENDROOT
BRANCH   1   2
ATOM      2  C   UNL     1     -35.423   1.899  -3.393  1.00  0.00     0.000 C 
BRANCH   2   3
ATOM      3  C   UNL     1     -35.829   1.169  -4.689  1.00  0.00     0.000 C 
BRANCH   3   4
ATOM      4  C   UNL     1     -34.854   1.342  -5.867  1.00  0.00     0.000 C 
BRANCH   4   5
ATOM      5  C   UNL     1     -35.407   2.267  -6.966  1.00  0.00     0.000 C 
BRANCH   5   6
ATOM      6  C   UNL     1     -34.767   3.665  -6.935  1.00  0.00     0.000 C 
BRANCH   6   7
ATOM      7  C   UNL     1     -33.525   3.728  -6.028  1.00  0.00     0.000 C 
BRANCH   7   8
ATOM      8  C   UNL     1     -33.367   5.089  -5.324  1.00  0.00     0.000 C 
BRANCH   8   9
ATOM      9  C   UNL     1     -32.435   5.085  -4.100  1.00  0.00     0.000 C 
BRANCH   9  10
ATOM     10  C   UNL     1     -32.939   4.176  -2.964  1.00  0.00     0.000 C 
BRANCH  10  11
ATOM     11  C   UNL     1     -31.906   4.045  -1.825  1.00  0.00     0.000 C 
BRANCH  11  12
ATOM     12  C   UNL     1     -32.382   4.648  -0.491  1.00  0.00     0.006 C 
BRANCH  12  13
ATOM     13  C   UNL     1     -33.734   4.087  -0.034  1.00  0.00     0.053 C 
BRANCH  13  14
ATOM     14  C   UNL     1     -33.550   3.161   1.127  1.00  0.00     0.041 C 
ATOM     15  O   UNL     1     -32.394   2.905   1.556  1.00  0.00    -0.550 OA
ATOM     16  O   UNL     1     -34.653   2.552   1.711  1.00  0.00    -0.550 OA
ENDBRANCH  13  14
ENDBRANCH  12  13
ENDBRANCH  11  12
ENDBRANCH  10  11
ENDBRANCH   9  10
ENDBRANCH   8   9
ENDBRANCH   7   8
ENDBRANCH   6   7
ENDBRANCH   5   6
ENDBRANCH   4   5
ENDBRANCH   3   4
ENDBRANCH   2   3
ENDBRANCH   1   2
BRANCH   1  17
ATOM     17  C   UNL     1     -36.898   3.963  -3.965  1.00  0.00     0.000 C 
BRANCH  17  18
ATOM     18  C   UNL     1     -36.571   5.420  -3.601  1.00  0.00     0.000 C 
BRANCH  18  19
ATOM     19  C   UNL     1     -36.395   5.638  -2.088  1.00  0.00     0.000 C 
BRANCH  19  20
ATOM     20  C   UNL     1     -35.977   7.062  -1.668  1.00  0.00     0.000 C 
BRANCH  20  21
ATOM     21  C   UNL     1     -34.464   7.335  -1.707  1.00  0.00     0.000 C 
BRANCH  21  22
ATOM     22  C   UNL     1     -34.071   8.369  -2.776  1.00  0.00    -0.000 C 
BRANCH  22  23
ATOM     23  C   UNL     1     -32.608   8.231  -3.233  1.00  0.00    -0.000 C 
BRANCH  23  24
ATOM     24  C   UNL     1     -31.561   8.753  -2.230  1.00  0.00    -0.000 C 
BRANCH  24  25
ATOM     25  C   UNL     1     -30.665   7.670  -1.599  1.00  0.00    -0.000 C 
BRANCH  25  26
ATOM     26  C   UNL     1     -29.171   8.036  -1.506  1.00  0.00    -0.000 C 
BRANCH  26  27
ATOM     27  C   UNL     1     -28.236   7.180  -2.383  1.00  0.00    -0.000 C 
BRANCH  27  28
ATOM     28  C   UNL     1     -28.948   6.276  -3.405  1.00  0.00    -0.000 C 
BRANCH  28  29
ATOM     29  C   UNL     1     -28.634   4.786  -3.204  1.00  0.00    -0.003 C 
ATOM     30  C   UNL     1     -28.117   4.518  -1.793  1.00  0.00     0.004 C 
ENDBRANCH  28  29
ENDBRANCH  27  28
ENDBRANCH  26  27
ENDBRANCH  25  26
ENDBRANCH  24  25
ENDBRANCH  23  24
ENDBRANCH  22  23
ENDBRANCH  21  22
ENDBRANCH  20  21
ENDBRANCH  19  20
ENDBRANCH  18  19
ENDBRANCH  17  18
ENDBRANCH   1  17
TORSDOF 26
ENDMDL
MODEL 6
REMARK VINA RESULT:    -3.898      4.741      7.302
REMARK INTER + INTRA:         -14.799
REMARK INTER:                  -9.165
REMARK INTRA:                  -5.634
REMARK UNBOUND:                -4.976
REMARK SMILES CCCCCCCCCCCCCCCCCCCCCCCCCCCC(=O)[O-]
REMARK SMILES IDX 15 1 16 2 17 3 18 4 19 5 20 6 21 7 22 8 23 9 24 10 25 11
REMARK SMILES IDX 26 12 27 13 28 14 29 15 30 16 14 17 13 18 12 19 11 20 10 21
REMARK SMILES IDX 9 22 8 23 7 24 6 25 5 26 4 27 3 28 2 29 1 30
REMARK H PARENT
REMARK Flexibility Score: inf
ROOT
ATOM      1  C   UNL     1     -34.881   4.719  -4.996  1.00  0.00     0.000 C 
ENDROOT
BRANCH   1   2
ATOM      2  C   UNL     1     -33.688   5.355  -5.740  1.00  0.00     0.000 C 
BRANCH   2   3
ATOM      3  C   UNL     1     -32.296   4.914  -5.244  1.00  0.00     0.000 C 
BRANCH   3   4
ATOM      4  C   UNL     1     -31.180   5.958  -5.427  1.00  0.00     0.000 C 
BRANCH   4   5
ATOM      5  C   UNL     1     -29.929   5.646  -4.585  1.00  0.00     0.000 C 
BRANCH   5   6
ATOM      6  C   UNL     1     -29.151   4.430  -5.116  1.00  0.00     0.000 C 
BRANCH   6   7
ATOM      7  C   UNL     1     -28.496   3.609  -3.991  1.00  0.00     0.000 C 
BRANCH   7   8
ATOM      8  C   UNL     1     -29.230   3.748  -2.644  1.00  0.00     0.000 C 
BRANCH   8   9
ATOM      9  C   UNL     1     -28.333   3.646  -1.398  1.00  0.00     0.000 C 
BRANCH   9  10
ATOM     10  C   UNL     1     -27.752   5.004  -0.965  1.00  0.00     0.000 C 
BRANCH  10  11
ATOM     11  C   UNL     1     -28.832   6.105  -0.908  1.00  0.00     0.000 C 
BRANCH  11  12
ATOM     12  C   UNL     1     -28.489   7.346  -1.751  1.00  0.00     0.006 C 
BRANCH  12  13
ATOM     13  C   UNL     1     -28.480   8.640  -0.929  1.00  0.00     0.053 C 
BRANCH  13  14
ATOM     14  C   UNL     1     -29.003   9.781  -1.743  1.00  0.00     0.041 C 
ATOM     15  O   UNL     1     -28.216  10.485  -2.428  1.00  0.00    -0.550 OA
ATOM     16  O   UNL     1     -30.358  10.089  -1.717  1.00  0.00    -0.550 OA
ENDBRANCH  13  14
ENDBRANCH  12  13
ENDBRANCH  11  12
ENDBRANCH  10  11
ENDBRANCH   9  10
ENDBRANCH   8   9
ENDBRANCH   7   8
ENDBRANCH   6   7
ENDBRANCH   5   6
ENDBRANCH   4   5
ENDBRANCH   3   4
ENDBRANCH   2   3
ENDBRANCH   1   2
BRANCH   1  17
ATOM     17  C   UNL     1     -34.502   3.716  -3.892  1.00  0.00     0.000 C 
BRANCH  17  18
ATOM     18  C   UNL     1     -35.328   3.904  -2.609  1.00  0.00     0.000 C 
BRANCH  18  19
ATOM     19  C   UNL     1     -36.183   5.185  -2.624  1.00  0.00     0.000 C 
BRANCH  19  20
ATOM     20  C   UNL     1     -36.177   5.999  -1.315  1.00  0.00     0.000 C 
BRANCH  20  21
ATOM     21  C   UNL     1     -35.496   7.375  -1.406  1.00  0.00     0.000 C 
BRANCH  21  22
ATOM     22  C   UNL     1     -35.046   7.725  -2.834  1.00  0.00    -0.000 C 
BRANCH  22  23
ATOM     23  C   UNL     1     -33.515   7.796  -2.979  1.00  0.00    -0.000 C 
BRANCH  23  24
ATOM     24  C   UNL     1     -32.723   7.358  -1.731  1.00  0.00    -0.000 C 
BRANCH  24  25
ATOM     25  C   UNL     1     -32.313   5.873  -1.706  1.00  0.00    -0.000 C 
BRANCH  25  26
ATOM     26  C   UNL     1     -32.512   5.167  -0.352  1.00  0.00    -0.000 C 
BRANCH  26  27
ATOM     27  C   UNL     1     -32.011   3.710  -0.298  1.00  0.00    -0.000 C 
BRANCH  27  28
ATOM     28  C   UNL     1     -33.071   2.671   0.114  1.00  0.00    -0.000 C 
BRANCH  28  29
ATOM     29  C   UNL     1     -34.232   3.287   0.909  1.00  0.00    -0.003 C 
ATOM     30  C   UNL     1     -34.502   2.498   2.187  1.00  0.00     0.004 C 
ENDBRANCH  28  29
ENDBRANCH  27  28
ENDBRANCH  26  27
ENDBRANCH  25  26
ENDBRANCH  24  25
ENDBRANCH  23  24
ENDBRANCH  22  23
ENDBRANCH  21  22
ENDBRANCH  20  21
ENDBRANCH  19  20
ENDBRANCH  18  19
ENDBRANCH  17  18
ENDBRANCH   1  17
TORSDOF 26
ENDMDL
MODEL 7
REMARK VINA RESULT:    -3.896      3.272      6.051
REMARK INTER + INTRA:         -14.795
REMARK INTER:                  -9.178
REMARK INTRA:                  -5.617
REMARK UNBOUND:                -4.976
REMARK SMILES CCCCCCCCCCCCCCCCCCCCCCCCCCCC(=O)[O-]
REMARK SMILES IDX 15 1 16 2 17 3 18 4 19 5 20 6 21 7 22 8 23 9 24 10 25 11
REMARK SMILES IDX 26 12 27 13 28 14 29 15 30 16 14 17 13 18 12 19 11 20 10 21
REMARK SMILES IDX 9 22 8 23 7 24 6 25 5 26 4 27 3 28 2 29 1 30
REMARK H PARENT
REMARK Flexibility Score: inf
ROOT
ATOM      1  C   UNL     1     -36.022   5.939  -2.061  1.00  0.00     0.000 C 
ENDROOT
BRANCH   1   2
ATOM      2  C   UNL     1     -35.974   7.481  -2.060  1.00  0.00     0.000 C 
BRANCH   2   3
ATOM      3  C   UNL     1     -35.940   8.138  -3.455  1.00  0.00     0.000 C 
BRANCH   3   4
ATOM      4  C   UNL     1     -34.800   9.148  -3.671  1.00  0.00     0.000 C 
BRANCH   4   5
ATOM      5  C   UNL     1     -33.530   8.792  -2.877  1.00  0.00     0.000 C 
BRANCH   5   6
ATOM      6  C   UNL     1     -32.554   7.923  -3.687  1.00  0.00     0.000 C 
BRANCH   6   7
ATOM      7  C   UNL     1     -31.814   6.893  -2.814  1.00  0.00     0.000 C 
BRANCH   7   8
ATOM      8  C   UNL     1     -31.502   7.420  -1.402  1.00  0.00     0.000 C 
BRANCH   8   9
ATOM      9  C   UNL     1     -32.075   6.577  -0.249  1.00  0.00     0.000 C 
BRANCH   9  10
ATOM     10  C   UNL     1     -32.784   5.300  -0.734  1.00  0.00     0.000 C 
BRANCH  10  11
ATOM     11  C   UNL     1     -32.403   4.068   0.114  1.00  0.00     0.000 C 
BRANCH  11  12
ATOM     12  C   UNL     1     -31.135   3.350  -0.380  1.00  0.00     0.006 C 
BRANCH  12  13
ATOM     13  C   UNL     1     -30.965   3.423  -1.903  1.00  0.00     0.053 C 
BRANCH  13  14
ATOM     14  C   UNL     1     -29.577   3.856  -2.254  1.00  0.00     0.041 C 
ATOM     15  O   UNL     1     -29.059   4.850  -1.680  1.00  0.00    -0.550 OA
ATOM     16  O   UNL     1     -28.868   3.183  -3.242  1.00  0.00    -0.550 OA
ENDBRANCH  13  14
ENDBRANCH  12  13
ENDBRANCH  11  12
ENDBRANCH  10  11
ENDBRANCH   9  10
ENDBRANCH   8   9
ENDBRANCH   7   8
ENDBRANCH   6   7
ENDBRANCH   5   6
ENDBRANCH   4   5
ENDBRANCH   3   4
ENDBRANCH   2   3
ENDBRANCH   1   2
BRANCH   1  17
ATOM     17  C   UNL     1     -37.004   5.318  -3.071  1.00  0.00     0.000 C 
BRANCH  17  18
ATOM     18  C   UNL     1     -36.699   3.840  -3.363  1.00  0.00     0.000 C 
BRANCH  18  19
ATOM     19  C   UNL     1     -35.364   3.368  -2.758  1.00  0.00     0.000 C 
BRANCH  19  20
ATOM     20  C   UNL     1     -34.619   2.284  -3.562  1.00  0.00     0.000 C 
BRANCH  20  21
ATOM     21  C   UNL     1     -35.429   1.008  -3.844  1.00  0.00     0.000 C 
BRANCH  21  22
ATOM     22  C   UNL     1     -35.627   0.746  -5.347  1.00  0.00    -0.000 C 
BRANCH  22  23
ATOM     23  C   UNL     1     -35.054   1.869  -6.230  1.00  0.00    -0.000 C 
BRANCH  23  24
ATOM     24  C   UNL     1     -36.100   2.645  -7.055  1.00  0.00    -0.000 C 
BRANCH  24  25
ATOM     25  C   UNL     1     -35.584   3.937  -7.716  1.00  0.00    -0.000 C 
BRANCH  25  26
ATOM     26  C   UNL     1     -35.896   5.232  -6.942  1.00  0.00    -0.000 C 
BRANCH  26  27
ATOM     27  C   UNL     1     -34.808   5.672  -5.943  1.00  0.00    -0.000 C 
BRANCH  27  28
ATOM     28  C   UNL     1     -33.364   5.587  -6.473  1.00  0.00    -0.000 C 
BRANCH  28  29
ATOM     29  C   UNL     1     -32.495   4.601  -5.679  1.00  0.00    -0.003 C 
ATOM     30  C   UNL     1     -31.035   4.678  -6.118  1.00  0.00     0.004 C 
ENDBRANCH  28  29
ENDBRANCH  27  28
ENDBRANCH  26  27
ENDBRANCH  25  26
ENDBRANCH  24  25
ENDBRANCH  23  24
ENDBRANCH  22  23
ENDBRANCH  21  22
ENDBRANCH  20  21
ENDBRANCH  19  20
ENDBRANCH  18  19
ENDBRANCH  17  18
ENDBRANCH   1  17
TORSDOF 26
ENDMDL
MODEL 8
REMARK VINA RESULT:    -3.856      3.595      6.798
REMARK INTER + INTRA:         -14.694
REMARK INTER:                  -9.679
REMARK INTRA:                  -5.015
REMARK UNBOUND:                -4.976
REMARK SMILES CCCCCCCCCCCCCCCCCCCCCCCCCCCC(=O)[O-]
REMARK SMILES IDX 15 1 16 2 17 3 18 4 19 5 20 6 21 7 22 8 23 9 24 10 25 11
REMARK SMILES IDX 26 12 27 13 28 14 29 15 30 16 14 17 13 18 12 19 11 20 10 21
REMARK SMILES IDX 9 22 8 23 7 24 6 25 5 26 4 27 3 28 2 29 1 30
REMARK H PARENT
REMARK Flexibility Score: inf
ROOT
ATOM      1  C   UNL     1     -33.428   4.439  -0.784  1.00  0.00     0.000 C 
ENDROOT
BRANCH   1   2
ATOM      2  C   UNL     1     -32.105   5.126  -0.389  1.00  0.00     0.000 C 
BRANCH   2   3
ATOM      3  C   UNL     1     -32.145   6.667  -0.371  1.00  0.00     0.000 C 
BRANCH   3   4
ATOM      4  C   UNL     1     -30.953   7.358  -1.058  1.00  0.00     0.000 C 
BRANCH   4   5
ATOM      5  C   UNL     1     -31.390   8.403  -2.100  1.00  0.00     0.000 C 
BRANCH   5   6
ATOM      6  C   UNL     1     -31.050   7.978  -3.538  1.00  0.00     0.000 C 
BRANCH   6   7
ATOM      7  C   UNL     1     -32.024   6.921  -4.089  1.00  0.00     0.000 C 
BRANCH   7   8
ATOM      8  C   UNL     1     -31.305   5.730  -4.748  1.00  0.00     0.000 C 
BRANCH   8   9
ATOM      9  C   UNL     1     -30.698   4.711  -3.769  1.00  0.00     0.000 C 
BRANCH   9  10
ATOM     10  C   UNL     1     -29.192   4.486  -3.993  1.00  0.00     0.000 C 
BRANCH  10  11
ATOM     11  C   UNL     1     -28.537   3.730  -2.817  1.00  0.00     0.000 C 
BRANCH  11  12
ATOM     12  C   UNL     1     -28.712   4.435  -1.460  1.00  0.00     0.006 C 
BRANCH  12  13
ATOM     13  C   UNL     1     -27.393   4.577  -0.690  1.00  0.00     0.053 C 
BRANCH  13  14
ATOM     14  C   UNL     1     -27.291   3.526   0.370  1.00  0.00     0.041 C 
ATOM     15  O   UNL     1     -28.233   2.711   0.547  1.00  0.00    -0.550 OA
ATOM     16  O   UNL     1     -26.168   3.471   1.186  1.00  0.00    -0.550 OA
ENDBRANCH  13  14
ENDBRANCH  12  13
ENDBRANCH  11  12
ENDBRANCH  10  11
ENDBRANCH   9  10
ENDBRANCH   8   9
ENDBRANCH   7   8
ENDBRANCH   6   7
ENDBRANCH   5   6
ENDBRANCH   4   5
ENDBRANCH   3   4
ENDBRANCH   2   3
ENDBRANCH   1   2
BRANCH   1  17
ATOM     17  C   UNL     1     -34.278   5.205  -1.814  1.00  0.00     0.000 C 
BRANCH  17  18
ATOM     18  C   UNL     1     -35.677   5.559  -1.284  1.00  0.00     0.000 C 
BRANCH  18  19
ATOM     19  C   UNL     1     -36.102   7.000  -1.621  1.00  0.00     0.000 C 
BRANCH  19  20
ATOM     20  C   UNL     1     -35.106   7.800  -2.485  1.00  0.00     0.000 C 
BRANCH  20  21
ATOM     21  C   UNL     1     -35.727   8.938  -3.312  1.00  0.00     0.000 C 
BRANCH  21  22
ATOM     22  C   UNL     1     -35.351   8.866  -4.802  1.00  0.00    -0.000 C 
BRANCH  22  23
ATOM     23  C   UNL     1     -36.001   7.672  -5.525  1.00  0.00    -0.000 C 
BRANCH  23  24
ATOM     24  C   UNL     1     -35.012   6.610  -6.045  1.00  0.00    -0.000 C 
BRANCH  24  25
ATOM     25  C   UNL     1     -35.263   5.178  -5.533  1.00  0.00    -0.000 C 
BRANCH  25  26
ATOM     26  C   UNL     1     -36.639   4.955  -4.877  1.00  0.00    -0.000 C 
BRANCH  26  27
ATOM     27  C   UNL     1     -36.809   3.596  -4.168  1.00  0.00    -0.000 C 
BRANCH  27  28
ATOM     28  C   UNL     1     -35.698   2.569  -4.455  1.00  0.00    -0.000 C 
BRANCH  28  29
ATOM     29  C   UNL     1     -36.029   1.650  -5.641  1.00  0.00    -0.003 C 
ATOM     30  C   UNL     1     -35.407   0.268  -5.455  1.00  0.00     0.004 C 
ENDBRANCH  28  29
ENDBRANCH  27  28
ENDBRANCH  26  27
ENDBRANCH  25  26
ENDBRANCH  24  25
ENDBRANCH  23  24
ENDBRANCH  22  23
ENDBRANCH  21  22
ENDBRANCH  20  21
ENDBRANCH  19  20
ENDBRANCH  18  19
ENDBRANCH  17  18
ENDBRANCH   1  17
TORSDOF 26
ENDMDL
MODEL 9
REMARK VINA RESULT:    -3.838      3.106      6.047
REMARK INTER + INTRA:         -14.649
REMARK INTER:                  -9.215
REMARK INTRA:                  -5.434
REMARK UNBOUND:                -4.976
REMARK SMILES CCCCCCCCCCCCCCCCCCCCCCCCCCCC(=O)[O-]
REMARK SMILES IDX 15 1 16 2 17 3 18 4 19 5 20 6 21 7 22 8 23 9 24 10 25 11
REMARK SMILES IDX 26 12 27 13 28 14 29 15 30 16 14 17 13 18 12 19 11 20 10 21
REMARK SMILES IDX 9 22 8 23 7 24 6 25 5 26 4 27 3 28 2 29 1 30
REMARK H PARENT
REMARK Flexibility Score: inf
ROOT
ATOM      1  C   UNL     1     -36.203   4.899  -3.291  1.00  0.00     0.000 C 
ENDROOT
BRANCH   1   2
ATOM      2  C   UNL     1     -36.747   3.456  -3.246  1.00  0.00     0.000 C 
BRANCH   2   3
ATOM      3  C   UNL     1     -35.676   2.355  -3.114  1.00  0.00     0.000 C 
BRANCH   3   4
ATOM      4  C   UNL     1     -35.462   1.500  -4.376  1.00  0.00     0.000 C 
BRANCH   4   5
ATOM      5  C   UNL     1     -35.996   2.176  -5.651  1.00  0.00     0.000 C 
BRANCH   5   6
ATOM      6  C   UNL     1     -34.875   2.785  -6.509  1.00  0.00     0.000 C 
BRANCH   6   7
ATOM      7  C   UNL     1     -35.021   4.308  -6.679  1.00  0.00     0.000 C 
BRANCH   7   8
ATOM      8  C   UNL     1     -33.870   5.095  -6.027  1.00  0.00     0.000 C 
BRANCH   8   9
ATOM      9  C   UNL     1     -33.016   4.296  -5.027  1.00  0.00     0.000 C 
BRANCH   9  10
ATOM     10  C   UNL     1     -32.590   5.126  -3.803  1.00  0.00     0.000 C 
BRANCH  10  11
ATOM     11  C   UNL     1     -32.513   4.270  -2.521  1.00  0.00     0.000 C 
BRANCH  11  12
ATOM     12  C   UNL     1     -33.057   4.984  -1.271  1.00  0.00     0.006 C 
BRANCH  12  13
ATOM     13  C   UNL     1     -33.891   4.061  -0.374  1.00  0.00     0.053 C 
BRANCH  13  14
ATOM     14  C   UNL     1     -33.001   3.137   0.396  1.00  0.00     0.041 C 
ATOM     15  O   UNL     1     -32.464   3.521   1.468  1.00  0.00    -0.550 OA
ATOM     16  O   UNL     1     -32.736   1.863  -0.090  1.00  0.00    -0.550 OA
ENDBRANCH  13  14
ENDBRANCH  12  13
ENDBRANCH  11  12
ENDBRANCH  10  11
ENDBRANCH   9  10
ENDBRANCH   8   9
ENDBRANCH   7   8
ENDBRANCH   6   7
ENDBRANCH   5   6
ENDBRANCH   4   5
ENDBRANCH   3   4
ENDBRANCH   2   3
ENDBRANCH   1   2
BRANCH   1  17
ATOM     17  C   UNL     1     -36.613   5.789  -2.104  1.00  0.00     0.000 C 
BRANCH  17  18
ATOM     18  C   UNL     1     -35.979   7.187  -2.163  1.00  0.00     0.000 C 
BRANCH  18  19
ATOM     19  C   UNL     1     -35.662   7.646  -3.598  1.00  0.00     0.000 C 
BRANCH  19  20
ATOM     20  C   UNL     1     -34.303   8.352  -3.783  1.00  0.00     0.000 C 
BRANCH  20  21
ATOM     21  C   UNL     1     -33.462   8.492  -2.502  1.00  0.00     0.000 C 
BRANCH  21  22
ATOM     22  C   UNL     1     -31.978   8.770  -2.791  1.00  0.00    -0.000 C 
BRANCH  22  23
ATOM     23  C   UNL     1     -31.031   7.877  -1.969  1.00  0.00    -0.000 C 
BRANCH  23  24
ATOM     24  C   UNL     1     -29.862   8.618  -1.292  1.00  0.00    -0.000 C 
BRANCH  24  25
ATOM     25  C   UNL     1     -28.498   8.464  -1.991  1.00  0.00    -0.000 C 
BRANCH  25  26
ATOM     26  C   UNL     1     -28.493   7.515  -3.205  1.00  0.00    -0.000 C 
BRANCH  26  27
ATOM     27  C   UNL     1     -27.787   6.165  -2.973  1.00  0.00    -0.000 C 
BRANCH  27  28
ATOM     28  C   UNL     1     -28.728   4.958  -2.806  1.00  0.00    -0.000 C 
BRANCH  28  29
ATOM     29  C   UNL     1     -28.658   4.336  -1.403  1.00  0.00    -0.003 C 
ATOM     30  C   UNL     1     -27.444   4.851  -0.634  1.00  0.00     0.004 C 
ENDBRANCH  28  29
ENDBRANCH  27  28
ENDBRANCH  26  27
ENDBRANCH  25  26
ENDBRANCH  24  25
ENDBRANCH  23  24
ENDBRANCH  22  23
ENDBRANCH  21  22
ENDBRANCH  20  21
ENDBRANCH  19  20
ENDBRANCH  18  19
ENDBRANCH  17  18
ENDBRANCH   1  17
TORSDOF 26
ENDMDL
