MODEL 1
REMARK VINA RESULT:    67.067      0.000      0.000
REMARK INTER + INTRA:         104.460
REMARK INTER:                 106.274
REMARK INTRA:                  -1.814
REMARK UNBOUND:                -1.814
REMARK SMILES C[C@@H]1O[C@@H](O[C@H]2[C@@H](Oc3cc(O)c4c(c3)O[C@H](c3ccc(O)cc3)CC4=O)O[C@H](CO)[C@H](O)[C@@H]2O)[C@@H](O)[C@@H](O)[C@@H]1O
REMARK SMILES IDX 6 1 34 2 32 3 29 4 28 5 7 6 5 7 4 8 1 9 2 10 40 11 3 12
REMARK SMILES IDX 38 13 36 14 41 15 39 17 37 19 35 21 8 23 9 24 10 25 15 26
REMARK SMILES IDX 11 27 14 28 13 29 16 30 26 31 17 32 27 33 25 34 12 35 18 37
REMARK SMILES IDX 19 38 24 39 20 40 23 41 21 42 22 43 33 45 30 47 31 48
REMARK H PARENT 41 16 39 18 37 20 35 22 12 36 22 44 33 46 31 49
REMARK Flexibility Score: inf
ROOT
ATOM      1  C   UNL     1      -6.069  11.160  17.540  1.00  0.00     0.221 C 
ATOM      2  C   UNL     1      -5.265  12.111  16.628  1.00  0.00     0.181 C 
ATOM      3  C   UNL     1      -3.754  11.767  16.667  1.00  0.00     0.177 C 
ATOM      4  C   UNL     1      -3.541  10.243  16.479  1.00  0.00     0.179 C 
ATOM      5  O   UNL     1      -4.300   9.484  17.411  1.00  0.00    -0.332 OA
ATOM      6  C   UNL     1      -5.695   9.707  17.230  1.00  0.00     0.339 C 
ENDROOT
BRANCH   1   7
ATOM      7  O   UNL     1      -7.465  11.308  17.303  1.00  0.00    -0.337 OA
BRANCH   7   8
ATOM      8  C   UNL     1      -8.184  11.661  18.474  1.00  0.00     0.282 C 
ATOM      9  C   UNL     1      -8.914   8.297  19.811  1.00  0.00     0.041 C 
ATOM     10  C   UNL     1      -8.952   9.460  18.818  1.00  0.00     0.150 C 
ATOM     11  C   UNL     1     -10.405   9.816  18.429  1.00  0.00     0.174 C 
ATOM     12  O   UNL     1      -8.294  10.574  19.393  1.00  0.00    -0.344 OA
ATOM     13  C   UNL     1     -10.417  11.041  17.474  1.00  0.00     0.179 C 
ATOM     14  C   UNL     1      -9.572  12.183  18.068  1.00  0.00     0.202 C 
BRANCH  11  15
ATOM     15  O   UNL     1     -11.213  10.055  19.562  1.00  0.00    -0.388 OA
ATOM     16  H   UNL     1     -11.649  10.935  19.460  1.00  0.00     0.211 HD
ENDBRANCH  11  15
BRANCH  13  17
ATOM     17  O   UNL     1      -9.915  10.706  16.203  1.00  0.00    -0.387 OA
ATOM     18  H   UNL     1     -10.113  11.450  15.572  1.00  0.00     0.211 HD
ENDBRANCH  13  17
BRANCH  14  19
ATOM     19  O   UNL     1      -9.423  13.211  17.119  1.00  0.00    -0.385 OA
ATOM     20  H   UNL     1     -10.039  13.943  17.385  1.00  0.00     0.211 HD
ENDBRANCH  14  19
ENDBRANCH   7   8
ENDBRANCH   1   7
BRANCH   2  21
ATOM     21  O   UNL     1      -5.424  13.436  17.037  1.00  0.00    -0.387 OA
ATOM     22  H   UNL     1      -6.396  13.575  17.195  1.00  0.00     0.211 HD
ENDBRANCH   2  21
BRANCH   6  23
ATOM     23  O   UNL     1      -6.103   9.365  15.906  1.00  0.00    -0.462 OA
BRANCH  23  24
ATOM     24  C   UNL     1      -6.441   8.064  15.514  1.00  0.00     0.130 A 
ATOM     25  C   UNL     1      -7.646   7.864  14.831  1.00  0.00     0.093 A 
ATOM     26  C   UNL     1      -5.613   6.973  15.778  1.00  0.00     0.094 A 
ATOM     27  C   UNL     1      -8.001   6.604  14.340  1.00  0.00     0.133 A 
ATOM     28  C   UNL     1      -5.970   5.700  15.345  1.00  0.00     0.138 A 
ATOM     29  C   UNL     1      -7.143   5.489  14.586  1.00  0.00     0.102 A 
ATOM     30  O   UNL     1      -5.134   4.624  15.680  1.00  0.00    -0.484 OA
ATOM     31  C   UNL     1      -7.347   4.120  14.037  1.00  0.00     0.174 C 
ATOM     32  C   UNL     1      -5.540   3.267  15.513  1.00  0.00     0.211 C 
ATOM     33  O   UNL     1      -8.384   3.801  13.398  1.00  0.00    -0.294 OA
ATOM     34  C   UNL     1      -6.244   3.114  14.152  1.00  0.00     0.131 C 
BRANCH  27  35
ATOM     35  O   UNL     1      -9.203   6.529  13.624  1.00  0.00    -0.507 OA
ATOM     36  H   UNL     1      -9.467   7.123  12.856  1.00  0.00     0.293 HD
ENDBRANCH  27  35
BRANCH  32  37
ATOM     37  C   UNL     1      -4.341   2.361  15.721  1.00  0.00    -0.007 A 
ATOM     38  C   UNL     1      -4.140   1.611  16.900  1.00  0.00     0.011 A 
ATOM     39  C   UNL     1      -3.375   2.282  14.699  1.00  0.00     0.011 A 
ATOM     40  C   UNL     1      -3.012   0.798  17.038  1.00  0.00     0.046 A 
ATOM     41  C   UNL     1      -2.246   1.473  14.845  1.00  0.00     0.046 A 
ATOM     42  C   UNL     1      -2.063   0.725  16.013  1.00  0.00     0.115 A 
BRANCH  42  43
ATOM     43  O   UNL     1      -0.942  -0.090  16.145  1.00  0.00    -0.508 OA
ATOM     44  H   UNL     1      -0.390  -0.367  15.341  1.00  0.00     0.293 HD
ENDBRANCH  42  43
ENDBRANCH  32  37
ENDBRANCH  23  24
ENDBRANCH   6  23
BRANCH   3  45
ATOM     45  O   UNL     1      -3.171  12.205  17.873  1.00  0.00    -0.387 OA
ATOM     46  H   UNL     1      -3.888  12.268  18.559  1.00  0.00     0.211 HD
ENDBRANCH   3  45
BRANCH   4  47
ATOM     47  C   UNL     1      -2.063   9.844  16.613  1.00  0.00     0.191 C 
BRANCH  47  48
ATOM     48  O   UNL     1      -1.690   9.777  17.959  1.00  0.00    -0.394 OA
ATOM     49  H   UNL     1      -0.779   9.385  17.979  1.00  0.00     0.210 HD
ENDBRANCH  47  48
ENDBRANCH   4  47
TORSDOF 14
ENDMDL
MODEL 2
REMARK VINA RESULT:    67.410      2.996      7.548
REMARK INTER + INTRA:         105.003
REMARK INTER:                 100.953
REMARK INTRA:                   4.050
REMARK UNBOUND:                -1.814
REMARK SMILES C[C@@H]1O[C@@H](O[C@H]2[C@@H](Oc3cc(O)c4c(c3)O[C@H](c3ccc(O)cc3)CC4=O)O[C@H](CO)[C@H](O)[C@@H]2O)[C@@H](O)[C@@H](O)[C@@H]1O
REMARK SMILES IDX 6 1 34 2 32 3 29 4 28 5 7 6 5 7 4 8 1 9 2 10 40 11 3 12
REMARK SMILES IDX 38 13 36 14 41 15 39 17 37 19 35 21 8 23 9 24 10 25 15 26
REMARK SMILES IDX 11 27 14 28 13 29 16 30 26 31 17 32 27 33 25 34 12 35 18 37
REMARK SMILES IDX 19 38 24 39 20 40 23 41 21 42 22 43 33 45 30 47 31 48
REMARK H PARENT 41 16 39 18 37 20 35 22 12 36 22 44 33 46 31 49
REMARK Flexibility Score: inf
ROOT
ATOM      1  C   UNL     1      -4.968   8.930  15.615  1.00  0.00     0.221 C 
ATOM      2  C   UNL     1      -6.474   8.599  15.534  1.00  0.00     0.181 C 
ATOM      3  C   UNL     1      -6.749   7.152  16.019  1.00  0.00     0.177 C 
ATOM      4  C   UNL     1      -6.027   6.888  17.366  1.00  0.00     0.179 C 
ATOM      5  O   UNL     1      -4.640   7.187  17.291  1.00  0.00    -0.332 OA
ATOM      6  C   UNL     1      -4.433   8.566  17.004  1.00  0.00     0.339 C 
ENDROOT
BRANCH   1   7
ATOM      7  O   UNL     1      -4.756  10.324  15.420  1.00  0.00    -0.337 OA
BRANCH   7   8
ATOM      8  C   UNL     1      -3.616  10.805  16.116  1.00  0.00     0.282 C 
ATOM      9  C   UNL     1      -4.323  14.430  16.064  1.00  0.00     0.041 C 
ATOM     10  C   UNL     1      -4.025  13.041  15.495  1.00  0.00     0.150 C 
ATOM     11  C   UNL     1      -2.823  13.081  14.525  1.00  0.00     0.174 C 
ATOM     12  O   UNL     1      -3.783  12.150  16.567  1.00  0.00    -0.344 OA
ATOM     13  C   UNL     1      -2.501  11.650  14.015  1.00  0.00     0.179 C 
ATOM     14  C   UNL     1      -2.386  10.678  15.203  1.00  0.00     0.202 C 
BRANCH  11  15
ATOM     15  O   UNL     1      -1.684  13.670  15.118  1.00  0.00    -0.388 OA
ATOM     16  H   UNL     1      -1.977  14.240  15.868  1.00  0.00     0.211 HD
ENDBRANCH  11  15
BRANCH  13  17
ATOM     17  O   UNL     1      -3.493  11.184  13.131  1.00  0.00    -0.387 OA
ATOM     18  H   UNL     1      -3.167  10.354  12.690  1.00  0.00     0.211 HD
ENDBRANCH  13  17
BRANCH  14  19
ATOM     19  O   UNL     1      -2.291   9.356  14.733  1.00  0.00    -0.385 OA
ATOM     20  H   UNL     1      -2.384   8.759  15.521  1.00  0.00     0.211 HD
ENDBRANCH  14  19
ENDBRANCH   7   8
ENDBRANCH   1   7
BRANCH   2  21
ATOM     21  O   UNL     1      -6.932   8.716  14.220  1.00  0.00    -0.387 OA
ATOM     22  H   UNL     1      -7.140   7.796  13.904  1.00  0.00     0.211 HD
ENDBRANCH   2  21
BRANCH   6  23
ATOM     23  O   UNL     1      -5.037   9.395  17.997  1.00  0.00    -0.462 OA
BRANCH  23  24
ATOM     24  C   UNL     1      -6.419   9.585  18.108  1.00  0.00     0.130 A 
ATOM     25  C   UNL     1      -6.971  10.776  17.625  1.00  0.00     0.093 A 
ATOM     26  C   UNL     1      -7.254   8.622  18.676  1.00  0.00     0.094 A 
ATOM     27  C   UNL     1      -8.353  10.990  17.630  1.00  0.00     0.133 A 
ATOM     28  C   UNL     1      -8.628   8.834  18.739  1.00  0.00     0.138 A 
ATOM     29  C   UNL     1      -9.214   9.996  18.187  1.00  0.00     0.102 A 
ATOM     30  O   UNL     1      -9.424   7.864  19.368  1.00  0.00    -0.484 OA
ATOM     31  C   UNL     1     -10.702  10.048  18.165  1.00  0.00     0.174 C 
ATOM     32  C   UNL     1     -10.786   8.107  19.713  1.00  0.00     0.211 C 
ATOM     33  O   UNL     1     -11.332  11.058  17.752  1.00  0.00    -0.294 OA
ATOM     34  C   UNL     1     -11.482   8.829  18.544  1.00  0.00     0.131 C 
BRANCH  27  35
ATOM     35  O   UNL     1      -8.800  12.196  17.072  1.00  0.00    -0.507 OA
ATOM     36  H   UNL     1      -9.625  12.700  17.351  1.00  0.00     0.293 HD
ENDBRANCH  27  35
BRANCH  32  37
ATOM     37  C   UNL     1     -11.431   6.801  20.137  1.00  0.00    -0.007 A 
ATOM     38  C   UNL     1     -12.569   6.264  19.497  1.00  0.00     0.011 A 
ATOM     39  C   UNL     1     -10.882   6.106  21.231  1.00  0.00     0.011 A 
ATOM     40  C   UNL     1     -13.124   5.058  19.936  1.00  0.00     0.046 A 
ATOM     41  C   UNL     1     -11.445   4.905  21.670  1.00  0.00     0.046 A 
ATOM     42  C   UNL     1     -12.566   4.376  21.021  1.00  0.00     0.115 A 
BRANCH  42  43
ATOM     43  O   UNL     1     -13.112   3.172  21.455  1.00  0.00    -0.508 OA
ATOM     44  H   UNL     1     -13.583   3.095  22.350  1.00  0.00     0.293 HD
ENDBRANCH  42  43
ENDBRANCH  32  37
ENDBRANCH  23  24
ENDBRANCH   6  23
BRANCH   3  45
ATOM     45  O   UNL     1      -6.347   6.213  15.048  1.00  0.00    -0.387 OA
ATOM     46  H   UNL     1      -5.400   5.965  15.230  1.00  0.00     0.211 HD
ENDBRANCH   3  45
BRANCH   4  47
ATOM     47  C   UNL     1      -6.190   5.433  17.834  1.00  0.00     0.191 C 
BRANCH  47  48
ATOM     48  O   UNL     1      -5.495   4.563  16.987  1.00  0.00    -0.394 OA
ATOM     49  H   UNL     1      -5.080   5.128  16.284  1.00  0.00     0.210 HD
ENDBRANCH  47  48
ENDBRANCH   4  47
TORSDOF 14
ENDMDL
MODEL 3
REMARK VINA RESULT:    67.422      2.706      7.082
REMARK INTER + INTRA:         105.023
REMARK INTER:                 102.762
REMARK INTRA:                   2.261
REMARK UNBOUND:                -1.814
REMARK SMILES C[C@@H]1O[C@@H](O[C@H]2[C@@H](Oc3cc(O)c4c(c3)O[C@H](c3ccc(O)cc3)CC4=O)O[C@H](CO)[C@H](O)[C@@H]2O)[C@@H](O)[C@@H](O)[C@@H]1O
REMARK SMILES IDX 6 1 34 2 32 3 29 4 28 5 7 6 5 7 4 8 1 9 2 10 40 11 3 12
REMARK SMILES IDX 38 13 36 14 41 15 39 17 37 19 35 21 8 23 9 24 10 25 15 26
REMARK SMILES IDX 11 27 14 28 13 29 16 30 26 31 17 32 27 33 25 34 12 35 18 37
REMARK SMILES IDX 19 38 24 39 20 40 23 41 21 42 22 43 33 45 30 47 31 48
REMARK H PARENT 41 16 39 18 37 20 35 22 12 36 22 44 33 46 31 49
REMARK Flexibility Score: inf
ROOT
ATOM      1  C   UNL     1      -4.120   8.615  15.658  1.00  0.00     0.221 C 
ATOM      2  C   UNL     1      -2.865   9.056  16.441  1.00  0.00     0.181 C 
ATOM      3  C   UNL     1      -2.575  10.563  16.218  1.00  0.00     0.177 C 
ATOM      4  C   UNL     1      -3.869  11.396  16.407  1.00  0.00     0.179 C 
ATOM      5  O   UNL     1      -4.932  10.916  15.595  1.00  0.00    -0.332 OA
ATOM      6  C   UNL     1      -5.275   9.580  15.948  1.00  0.00     0.339 C 
ENDROOT
BRANCH   1   7
ATOM      7  O   UNL     1      -4.528   7.314  16.068  1.00  0.00    -0.337 OA
BRANCH   7   8
ATOM      8  C   UNL     1      -5.904   7.258  16.414  1.00  0.00     0.282 C 
ATOM      9  C   UNL     1      -5.999   3.975  18.104  1.00  0.00     0.041 C 
ATOM     10  C   UNL     1      -5.802   4.967  16.956  1.00  0.00     0.150 C 
ATOM     11  C   UNL     1      -6.618   4.550  15.711  1.00  0.00     0.174 C 
ATOM     12  O   UNL     1      -6.176   6.258  17.397  1.00  0.00    -0.344 OA
ATOM     13  C   UNL     1      -6.453   5.607  14.585  1.00  0.00     0.179 C 
ATOM     14  C   UNL     1      -6.728   7.017  15.139  1.00  0.00     0.202 C 
BRANCH  11  15
ATOM     15  O   UNL     1      -7.982   4.350  16.015  1.00  0.00    -0.388 OA
ATOM     16  H   UNL     1      -8.132   4.582  16.963  1.00  0.00     0.211 HD
ENDBRANCH  11  15
BRANCH  13  17
ATOM     17  O   UNL     1      -5.158   5.571  14.033  1.00  0.00    -0.387 OA
ATOM     18  H   UNL     1      -5.035   6.368  13.449  1.00  0.00     0.211 HD
ENDBRANCH  13  17
BRANCH  14  19
ATOM     19  O   UNL     1      -6.388   7.984  14.176  1.00  0.00    -0.385 OA
ATOM     20  H   UNL     1      -6.527   8.874  14.596  1.00  0.00     0.211 HD
ENDBRANCH  14  19
ENDBRANCH   7   8
ENDBRANCH   1   7
BRANCH   2  21
ATOM     21  O   UNL     1      -1.747   8.329  16.029  1.00  0.00    -0.387 OA
ATOM     22  H   UNL     1      -1.331   8.838  15.283  1.00  0.00     0.211 HD
ENDBRANCH   2  21
BRANCH   6  23
ATOM     23  O   UNL     1      -5.659   9.491  17.320  1.00  0.00    -0.462 OA
BRANCH  23  24
ATOM     24  C   UNL     1      -6.974   9.660  17.766  1.00  0.00     0.130 A 
ATOM     25  C   UNL     1      -7.578  10.913  17.607  1.00  0.00     0.093 A 
ATOM     26  C   UNL     1      -7.695   8.620  18.354  1.00  0.00     0.094 A 
ATOM     27  C   UNL     1      -8.916  11.122  17.955  1.00  0.00     0.133 A 
ATOM     28  C   UNL     1      -9.012   8.820  18.757  1.00  0.00     0.138 A 
ATOM     29  C   UNL     1      -9.665  10.053  18.533  1.00  0.00     0.102 A 
ATOM     30  O   UNL     1      -9.681   7.763  19.393  1.00  0.00    -0.484 OA
ATOM     31  C   UNL     1     -11.118  10.108  18.855  1.00  0.00     0.174 C 
ATOM     32  C   UNL     1     -10.923   7.948  20.069  1.00  0.00     0.211 C 
ATOM     33  O   UNL     1     -11.789  11.169  18.753  1.00  0.00    -0.294 OA
ATOM     34  C   UNL     1     -11.837   8.843  19.210  1.00  0.00     0.131 C 
BRANCH  27  35
ATOM     35  O   UNL     1      -9.434  12.400  17.702  1.00  0.00    -0.507 OA
ATOM     36  H   UNL     1      -8.979  13.270  17.920  1.00  0.00     0.293 HD
ENDBRANCH  27  35
BRANCH  32  37
ATOM     37  C   UNL     1     -11.503   6.592  20.423  1.00  0.00    -0.007 A 
ATOM     38  C   UNL     1     -12.631   6.045  19.773  1.00  0.00     0.011 A 
ATOM     39  C   UNL     1     -10.900   5.856  21.462  1.00  0.00     0.011 A 
ATOM     40  C   UNL     1     -13.125   4.793  20.148  1.00  0.00     0.046 A 
ATOM     41  C   UNL     1     -11.402   4.607  21.835  1.00  0.00     0.046 A 
ATOM     42  C   UNL     1     -12.514   4.070  21.177  1.00  0.00     0.115 A 
BRANCH  42  43
ATOM     43  O   UNL     1     -12.999   2.819  21.546  1.00  0.00    -0.508 OA
ATOM     44  H   UNL     1     -12.480   2.211  22.170  1.00  0.00     0.293 HD
ENDBRANCH  42  43
ENDBRANCH  32  37
ENDBRANCH  23  24
ENDBRANCH   6  23
BRANCH   3  45
ATOM     45  O   UNL     1      -2.026  10.784  14.939  1.00  0.00    -0.387 OA
ATOM     46  H   UNL     1      -2.740  10.628  14.263  1.00  0.00     0.211 HD
ENDBRANCH   3  45
BRANCH   4  47
ATOM     47  C   UNL     1      -3.649  12.885  16.096  1.00  0.00     0.191 C 
BRANCH  47  48
ATOM     48  O   UNL     1      -3.421  13.073  14.729  1.00  0.00    -0.394 OA
ATOM     49  H   UNL     1      -4.292  13.336  14.333  1.00  0.00     0.210 HD
ENDBRANCH  47  48
ENDBRANCH   4  47
TORSDOF 14
ENDMDL
MODEL 4
REMARK VINA RESULT:    67.612      3.217      7.580
REMARK INTER + INTRA:         105.324
REMARK INTER:                 105.032
REMARK INTRA:                   0.292
REMARK UNBOUND:                -1.814
REMARK SMILES C[C@@H]1O[C@@H](O[C@H]2[C@@H](Oc3cc(O)c4c(c3)O[C@H](c3ccc(O)cc3)CC4=O)O[C@H](CO)[C@H](O)[C@@H]2O)[C@@H](O)[C@@H](O)[C@@H]1O
REMARK SMILES IDX 6 1 34 2 32 3 29 4 28 5 7 6 5 7 4 8 1 9 2 10 40 11 3 12
REMARK SMILES IDX 38 13 36 14 41 15 39 17 37 19 35 21 8 23 9 24 10 25 15 26
REMARK SMILES IDX 11 27 14 28 13 29 16 30 26 31 17 32 27 33 25 34 12 35 18 37
REMARK SMILES IDX 19 38 24 39 20 40 23 41 21 42 22 43 33 45 30 47 31 48
REMARK H PARENT 41 16 39 18 37 20 35 22 12 36 22 44 33 46 31 49
REMARK Flexibility Score: inf
ROOT
ATOM      1  C   UNL     1      -3.399  10.350  16.298  1.00  0.00     0.221 C 
ATOM      2  C   UNL     1      -3.503   9.829  14.849  1.00  0.00     0.181 C 
ATOM      3  C   UNL     1      -4.023   8.368  14.823  1.00  0.00     0.177 C 
ATOM      4  C   UNL     1      -5.273   8.223  15.728  1.00  0.00     0.179 C 
ATOM      5  O   UNL     1      -5.029   8.695  17.046  1.00  0.00    -0.332 OA
ATOM      6  C   UNL     1      -4.715  10.084  17.038  1.00  0.00     0.339 C 
ENDROOT
BRANCH   1   7
ATOM      7  O   UNL     1      -3.176  11.757  16.304  1.00  0.00    -0.337 OA
BRANCH   7   8
ATOM      8  C   UNL     1      -4.217  12.478  15.663  1.00  0.00     0.282 C 
ATOM      9  C   UNL     1      -2.339  13.928  12.833  1.00  0.00     0.041 C 
ATOM     10  C   UNL     1      -2.718  13.672  14.293  1.00  0.00     0.150 C 
ATOM     11  C   UNL     1      -2.951  14.999  15.051  1.00  0.00     0.174 C 
ATOM     12  O   UNL     1      -3.875  12.858  14.330  1.00  0.00    -0.344 OA
ATOM     13  C   UNL     1      -3.398  14.710  16.510  1.00  0.00     0.179 C 
ATOM     14  C   UNL     1      -4.567  13.708  16.516  1.00  0.00     0.202 C 
BRANCH  11  15
ATOM     15  O   UNL     1      -3.888  15.827  14.394  1.00  0.00    -0.388 OA
ATOM     16  H   UNL     1      -4.288  16.439  15.056  1.00  0.00     0.211 HD
ENDBRANCH  11  15
BRANCH  13  17
ATOM     17  O   UNL     1      -2.339  14.191  17.278  1.00  0.00    -0.387 OA
ATOM     18  H   UNL     1      -2.512  14.386  18.238  1.00  0.00     0.211 HD
ENDBRANCH  13  17
BRANCH  14  19
ATOM     19  O   UNL     1      -4.839  13.299  17.834  1.00  0.00    -0.385 OA
ATOM     20  H   UNL     1      -4.688  14.086  18.420  1.00  0.00     0.211 HD
ENDBRANCH  14  19
ENDBRANCH   7   8
ENDBRANCH   1   7
BRANCH   2  21
ATOM     21  O   UNL     1      -2.254   9.862  14.224  1.00  0.00    -0.387 OA
ATOM     22  H   UNL     1      -1.761  10.636  14.607  1.00  0.00     0.211 HD
ENDBRANCH   2  21
BRANCH   6  23
ATOM     23  O   UNL     1      -5.771  10.848  16.456  1.00  0.00    -0.462 OA
BRANCH  23  24
ATOM     24  C   UNL     1      -7.061  10.916  16.993  1.00  0.00     0.130 A 
ATOM     25  C   UNL     1      -7.762  12.124  16.900  1.00  0.00     0.093 A 
ATOM     26  C   UNL     1      -7.665   9.818  17.608  1.00  0.00     0.094 A 
ATOM     27  C   UNL     1      -9.084  12.232  17.341  1.00  0.00     0.133 A 
ATOM     28  C   UNL     1      -8.962   9.917  18.103  1.00  0.00     0.138 A 
ATOM     29  C   UNL     1      -9.714  11.103  17.948  1.00  0.00     0.102 A 
ATOM     30  O   UNL     1      -9.509   8.806  18.762  1.00  0.00    -0.484 OA
ATOM     31  C   UNL     1     -11.141  11.049  18.369  1.00  0.00     0.174 C 
ATOM     32  C   UNL     1     -10.712   8.892  19.524  1.00  0.00     0.211 C 
ATOM     33  O   UNL     1     -11.891  12.061  18.333  1.00  0.00    -0.294 OA
ATOM     34  C   UNL     1     -11.743   9.732  18.747  1.00  0.00     0.131 C 
BRANCH  27  35
ATOM     35  O   UNL     1      -9.707  13.473  17.149  1.00  0.00    -0.507 OA
ATOM     36  H   UNL     1     -10.571  13.766  17.572  1.00  0.00     0.293 HD
ENDBRANCH  27  35
BRANCH  32  37
ATOM     37  C   UNL     1     -11.168   7.493  19.890  1.00  0.00    -0.007 A 
ATOM     38  C   UNL     1     -10.531   6.711  20.878  1.00  0.00     0.011 A 
ATOM     39  C   UNL     1     -12.264   6.942  19.198  1.00  0.00     0.011 A 
ATOM     40  C   UNL     1     -10.992   5.424  21.169  1.00  0.00     0.046 A 
ATOM     41  C   UNL     1     -12.717   5.652  19.488  1.00  0.00     0.046 A 
ATOM     42  C   UNL     1     -12.085   4.891  20.477  1.00  0.00     0.115 A 
BRANCH  42  43
ATOM     43  O   UNL     1     -12.551   3.613  20.770  1.00  0.00    -0.508 OA
ATOM     44  H   UNL     1     -12.201   2.796  20.281  1.00  0.00     0.293 HD
ENDBRANCH  42  43
ENDBRANCH  32  37
ENDBRANCH  23  24
ENDBRANCH   6  23
BRANCH   3  45
ATOM     45  O   UNL     1      -3.013   7.470  15.222  1.00  0.00    -0.387 OA
ATOM     46  H   UNL     1      -2.232   8.001  15.536  1.00  0.00     0.211 HD
ENDBRANCH   3  45
BRANCH   4  47
ATOM     47  C   UNL     1      -5.762   6.769  15.812  1.00  0.00     0.191 C 
BRANCH  47  48
ATOM     48  O   UNL     1      -6.694   6.504  14.803  1.00  0.00    -0.394 OA
ATOM     49  H   UNL     1      -7.203   5.704  15.096  1.00  0.00     0.210 HD
ENDBRANCH  47  48
ENDBRANCH   4  47
TORSDOF 14
ENDMDL
MODEL 5
REMARK VINA RESULT:    68.176      2.375      7.435
REMARK INTER + INTRA:         106.217
REMARK INTER:                 100.502
REMARK INTRA:                   5.716
REMARK UNBOUND:                -1.814
REMARK SMILES C[C@@H]1O[C@@H](O[C@H]2[C@@H](Oc3cc(O)c4c(c3)O[C@H](c3ccc(O)cc3)CC4=O)O[C@H](CO)[C@H](O)[C@@H]2O)[C@@H](O)[C@@H](O)[C@@H]1O
REMARK SMILES IDX 6 1 34 2 32 3 29 4 28 5 7 6 5 7 4 8 1 9 2 10 40 11 3 12
REMARK SMILES IDX 38 13 36 14 41 15 39 17 37 19 35 21 8 23 9 24 10 25 15 26
REMARK SMILES IDX 11 27 14 28 13 29 16 30 26 31 17 32 27 33 25 34 12 35 18 37
REMARK SMILES IDX 19 38 24 39 20 40 23 41 21 42 22 43 33 45 30 47 31 48
REMARK H PARENT 41 16 39 18 37 20 35 22 12 36 22 44 33 46 31 49
REMARK Flexibility Score: inf
ROOT
ATOM      1  C   UNL     1      -5.333   6.845  16.112  1.00  0.00     0.221 C 
ATOM      2  C   UNL     1      -5.847   7.253  17.509  1.00  0.00     0.181 C 
ATOM      3  C   UNL     1      -4.811   8.145  18.241  1.00  0.00     0.177 C 
ATOM      4  C   UNL     1      -4.311   9.274  17.302  1.00  0.00     0.179 C 
ATOM      5  O   UNL     1      -3.821   8.760  16.072  1.00  0.00    -0.332 OA
ATOM      6  C   UNL     1      -4.852   8.089  15.355  1.00  0.00     0.339 C 
ENDROOT
BRANCH   1   7
ATOM      7  O   UNL     1      -6.382   6.254  15.351  1.00  0.00    -0.337 OA
BRANCH   7   8
ATOM      8  C   UNL     1      -7.127   5.303  16.096  1.00  0.00     0.282 C 
ATOM      9  C   UNL     1      -4.512   2.760  16.677  1.00  0.00     0.041 C 
ATOM     10  C   UNL     1      -5.469   3.644  15.874  1.00  0.00     0.150 C 
ATOM     11  C   UNL     1      -6.323   2.800  14.900  1.00  0.00     0.174 C 
ATOM     12  O   UNL     1      -6.289   4.365  16.773  1.00  0.00    -0.344 OA
ATOM     13  C   UNL     1      -7.331   3.711  14.147  1.00  0.00     0.179 C 
ATOM     14  C   UNL     1      -8.105   4.587  15.150  1.00  0.00     0.202 C 
BRANCH  11  15
ATOM     15  O   UNL     1      -6.996   1.748  15.561  1.00  0.00    -0.388 OA
ATOM     16  H   UNL     1      -6.423   0.945  15.541  1.00  0.00     0.211 HD
ENDBRANCH  11  15
BRANCH  13  17
ATOM     17  O   UNL     1      -6.677   4.542  13.217  1.00  0.00    -0.387 OA
ATOM     18  H   UNL     1      -6.617   5.461  13.593  1.00  0.00     0.211 HD
ENDBRANCH  13  17
BRANCH  14  19
ATOM     19  O   UNL     1      -8.869   5.544  14.460  1.00  0.00    -0.385 OA
ATOM     20  H   UNL     1      -8.917   5.250  13.512  1.00  0.00     0.211 HD
ENDBRANCH  14  19
ENDBRANCH   7   8
ENDBRANCH   1   7
BRANCH   2  21
ATOM     21  O   UNL     1      -6.086   6.124  18.294  1.00  0.00    -0.387 OA
ATOM     22  H   UNL     1      -6.473   6.445  19.152  1.00  0.00     0.211 HD
ENDBRANCH   2  21
BRANCH   6  23
ATOM     23  O   UNL     1      -5.951   8.962  15.094  1.00  0.00    -0.462 OA
BRANCH  23  24
ATOM     24  C   UNL     1      -6.861   9.373  16.074  1.00  0.00     0.130 A 
ATOM     25  C   UNL     1      -6.997  10.742  16.328  1.00  0.00     0.093 A 
ATOM     26  C   UNL     1      -7.634   8.461  16.794  1.00  0.00     0.094 A 
ATOM     27  C   UNL     1      -7.948  11.221  17.234  1.00  0.00     0.133 A 
ATOM     28  C   UNL     1      -8.551   8.911  17.739  1.00  0.00     0.138 A 
ATOM     29  C   UNL     1      -8.759  10.292  17.954  1.00  0.00     0.102 A 
ATOM     30  O   UNL     1      -9.267   7.958  18.478  1.00  0.00    -0.484 OA
ATOM     31  C   UNL     1      -9.874  10.665  18.869  1.00  0.00     0.174 C 
ATOM     32  C   UNL     1     -10.024   8.307  19.636  1.00  0.00     0.211 C 
ATOM     33  O   UNL     1     -10.114  11.861  19.181  1.00  0.00    -0.294 OA
ATOM     34  C   UNL     1     -10.809   9.602  19.354  1.00  0.00     0.131 C 
BRANCH  27  35
ATOM     35  O   UNL     1      -8.035  12.613  17.370  1.00  0.00    -0.507 OA
ATOM     36  H   UNL     1      -8.395  13.102  18.173  1.00  0.00     0.293 HD
ENDBRANCH  27  35
BRANCH  32  37
ATOM     37  C   UNL     1     -10.872   7.120  20.050  1.00  0.00    -0.007 A 
ATOM     38  C   UNL     1     -12.062   6.754  19.382  1.00  0.00     0.011 A 
ATOM     39  C   UNL     1     -10.466   6.361  21.165  1.00  0.00     0.011 A 
ATOM     40  C   UNL     1     -12.807   5.653  19.814  1.00  0.00     0.046 A 
ATOM     41  C   UNL     1     -11.218   5.266  21.596  1.00  0.00     0.046 A 
ATOM     42  C   UNL     1     -12.388   4.906  20.919  1.00  0.00     0.115 A 
BRANCH  42  43
ATOM     43  O   UNL     1     -13.124   3.805  21.347  1.00  0.00    -0.508 OA
ATOM     44  H   UNL     1     -14.137   3.795  21.305  1.00  0.00     0.293 HD
ENDBRANCH  42  43
ENDBRANCH  32  37
ENDBRANCH  23  24
ENDBRANCH   6  23
BRANCH   3  45
ATOM     45  O   UNL     1      -3.729   7.374  18.710  1.00  0.00    -0.387 OA
ATOM     46  H   UNL     1      -3.136   7.168  17.937  1.00  0.00     0.211 HD
ENDBRANCH   3  45
BRANCH   4  47
ATOM     47  C   UNL     1      -3.207  10.121  17.954  1.00  0.00     0.191 C 
BRANCH  47  48
ATOM     48  O   UNL     1      -1.943   9.641  17.596  1.00  0.00    -0.394 OA
ATOM     49  H   UNL     1      -1.986   9.433  16.627  1.00  0.00     0.210 HD
ENDBRANCH  47  48
ENDBRANCH   4  47
TORSDOF 14
ENDMDL
MODEL 6
REMARK VINA RESULT:    68.257      2.207      9.537
REMARK INTER + INTRA:         106.346
REMARK INTER:                  97.204
REMARK INTRA:                   9.143
REMARK UNBOUND:                -1.814
REMARK SMILES C[C@@H]1O[C@@H](O[C@H]2[C@@H](Oc3cc(O)c4c(c3)O[C@H](c3ccc(O)cc3)CC4=O)O[C@H](CO)[C@H](O)[C@@H]2O)[C@@H](O)[C@@H](O)[C@@H]1O
REMARK SMILES IDX 6 1 34 2 32 3 29 4 28 5 7 6 5 7 4 8 1 9 2 10 40 11 3 12
REMARK SMILES IDX 38 13 36 14 41 15 39 17 37 19 35 21 8 23 9 24 10 25 15 26
REMARK SMILES IDX 11 27 14 28 13 29 16 30 26 31 17 32 27 33 25 34 12 35 18 37
REMARK SMILES IDX 19 38 24 39 20 40 23 41 21 42 22 43 33 45 30 47 31 48
REMARK H PARENT 41 16 39 18 37 20 35 22 12 36 22 44 33 46 31 49
REMARK Flexibility Score: inf
ROOT
ATOM      1  C   UNL     1      -6.315   4.183  15.241  1.00  0.00     0.221 C 
ATOM      2  C   UNL     1      -7.082   5.480  14.907  1.00  0.00     0.181 C 
ATOM      3  C   UNL     1      -8.612   5.228  14.890  1.00  0.00     0.177 C 
ATOM      4  C   UNL     1      -9.045   4.445  16.156  1.00  0.00     0.179 C 
ATOM      5  O   UNL     1      -8.294   3.249  16.320  1.00  0.00    -0.332 OA
ATOM      6  C   UNL     1      -6.911   3.539  16.498  1.00  0.00     0.339 C 
ENDROOT
BRANCH   1   7
ATOM      7  O   UNL     1      -4.947   4.472  15.511  1.00  0.00    -0.337 OA
BRANCH   7   8
ATOM      8  C   UNL     1      -4.144   3.303  15.574  1.00  0.00     0.282 C 
ATOM      9  C   UNL     1      -1.537   4.187  13.113  1.00  0.00     0.041 C 
ATOM     10  C   UNL     1      -2.941   3.871  13.629  1.00  0.00     0.150 C 
ATOM     11  C   UNL     1      -3.608   2.757  12.790  1.00  0.00     0.174 C 
ATOM     12  O   UNL     1      -2.855   3.497  14.991  1.00  0.00    -0.344 OA
ATOM     13  C   UNL     1      -5.004   2.410  13.376  1.00  0.00     0.179 C 
ATOM     14  C   UNL     1      -4.892   2.149  14.889  1.00  0.00     0.202 C 
BRANCH  11  15
ATOM     15  O   UNL     1      -2.798   1.603  12.705  1.00  0.00    -0.388 OA
ATOM     16  H   UNL     1      -3.280   0.917  12.184  1.00  0.00     0.211 HD
ENDBRANCH  11  15
BRANCH  13  17
ATOM     17  O   UNL     1      -5.927   3.448  13.152  1.00  0.00    -0.387 OA
ATOM     18  H   UNL     1      -6.440   3.250  12.322  1.00  0.00     0.211 HD
ENDBRANCH  13  17
BRANCH  14  19
ATOM     19  O   UNL     1      -6.177   2.029  15.450  1.00  0.00    -0.385 OA
ATOM     20  H   UNL     1      -6.823   2.019  14.696  1.00  0.00     0.211 HD
ENDBRANCH  14  19
ENDBRANCH   7   8
ENDBRANCH   1   7
BRANCH   2  21
ATOM     21  O   UNL     1      -6.703   5.966  13.654  1.00  0.00    -0.387 OA
ATOM     22  H   UNL     1      -7.508   6.391  13.254  1.00  0.00     0.211 HD
ENDBRANCH   2  21
BRANCH   6  23
ATOM     23  O   UNL     1      -6.703   4.383  17.630  1.00  0.00    -0.462 OA
BRANCH  23  24
ATOM     24  C   UNL     1      -6.364   5.737  17.532  1.00  0.00     0.130 A 
ATOM     25  C   UNL     1      -5.024   6.076  17.312  1.00  0.00     0.093 A 
ATOM     26  C   UNL     1      -7.319   6.748  17.640  1.00  0.00     0.094 A 
ATOM     27  C   UNL     1      -4.634   7.405  17.121  1.00  0.00     0.133 A 
ATOM     28  C   UNL     1      -6.947   8.082  17.505  1.00  0.00     0.138 A 
ATOM     29  C   UNL     1      -5.613   8.441  17.205  1.00  0.00     0.102 A 
ATOM     30  O   UNL     1      -7.930   9.068  17.676  1.00  0.00    -0.484 OA
ATOM     31  C   UNL     1      -5.356   9.881  16.924  1.00  0.00     0.174 C 
ATOM     32  C   UNL     1      -7.604  10.450  17.817  1.00  0.00     0.211 C 
ATOM     33  O   UNL     1      -4.199  10.325  16.704  1.00  0.00    -0.294 OA
ATOM     34  C   UNL     1      -6.515  10.819  16.792  1.00  0.00     0.131 C 
BRANCH  27  35
ATOM     35  O   UNL     1      -3.276   7.625  16.855  1.00  0.00    -0.507 OA
ATOM     36  H   UNL     1      -2.873   7.768  15.944  1.00  0.00     0.293 HD
ENDBRANCH  27  35
BRANCH  32  37
ATOM     37  C   UNL     1      -8.875  11.272  17.728  1.00  0.00    -0.007 A 
ATOM     38  C   UNL     1     -10.164  10.710  17.863  1.00  0.00     0.011 A 
ATOM     39  C   UNL     1      -8.765  12.653  17.477  1.00  0.00     0.011 A 
ATOM     40  C   UNL     1     -11.301  11.517  17.764  1.00  0.00     0.046 A 
ATOM     41  C   UNL     1      -9.905  13.453  17.373  1.00  0.00     0.046 A 
ATOM     42  C   UNL     1     -11.176  12.888  17.520  1.00  0.00     0.115 A 
BRANCH  42  43
ATOM     43  O   UNL     1     -12.307  13.695  17.429  1.00  0.00    -0.508 OA
ATOM     44  H   UNL     1     -12.426  14.510  18.020  1.00  0.00     0.293 HD
ENDBRANCH  42  43
ENDBRANCH  32  37
ENDBRANCH  23  24
ENDBRANCH   6  23
BRANCH   3  45
ATOM     45  O   UNL     1      -8.993   4.536  13.723  1.00  0.00    -0.387 OA
ATOM     46  H   UNL     1      -8.600   5.008  12.940  1.00  0.00     0.211 HD
ENDBRANCH   3  45
BRANCH   4  47
ATOM     47  C   UNL     1     -10.539   4.085  16.130  1.00  0.00     0.191 C 
BRANCH  47  48
ATOM     48  O   UNL     1     -11.190   4.607  17.253  1.00  0.00    -0.394 OA
ATOM     49  H   UNL     1     -11.031   3.965  17.993  1.00  0.00     0.210 HD
ENDBRANCH  47  48
ENDBRANCH   4  47
TORSDOF 14
ENDMDL
MODEL 7
REMARK VINA RESULT:    68.866      3.032      7.269
REMARK INTER + INTRA:         107.310
REMARK INTER:                 107.613
REMARK INTRA:                  -0.303
REMARK UNBOUND:                -1.814
REMARK SMILES C[C@@H]1O[C@@H](O[C@H]2[C@@H](Oc3cc(O)c4c(c3)O[C@H](c3ccc(O)cc3)CC4=O)O[C@H](CO)[C@H](O)[C@@H]2O)[C@@H](O)[C@@H](O)[C@@H]1O
REMARK SMILES IDX 6 1 34 2 32 3 29 4 28 5 7 6 5 7 4 8 1 9 2 10 40 11 3 12
REMARK SMILES IDX 38 13 36 14 41 15 39 17 37 19 35 21 8 23 9 24 10 25 15 26
REMARK SMILES IDX 11 27 14 28 13 29 16 30 26 31 17 32 27 33 25 34 12 35 18 37
REMARK SMILES IDX 19 38 24 39 20 40 23 41 21 42 22 43 33 45 30 47 31 48
REMARK H PARENT 41 16 39 18 37 20 35 22 12 36 22 44 33 46 31 49
REMARK Flexibility Score: inf
ROOT
ATOM      1  C   UNL     1      -5.427   8.535  15.620  1.00  0.00     0.221 C 
ATOM      2  C   UNL     1      -4.020   8.379  16.236  1.00  0.00     0.181 C 
ATOM      3  C   UNL     1      -3.263   9.732  16.233  1.00  0.00     0.177 C 
ATOM      4  C   UNL     1      -4.169  10.859  16.791  1.00  0.00     0.179 C 
ATOM      5  O   UNL     1      -5.412  10.926  16.107  1.00  0.00    -0.332 OA
ATOM      6  C   UNL     1      -6.149   9.718  16.274  1.00  0.00     0.339 C 
ENDROOT
BRANCH   1   7
ATOM      7  O   UNL     1      -6.205   7.366  15.860  1.00  0.00    -0.337 OA
BRANCH   7   8
ATOM      8  C   UNL     1      -5.535   6.175  15.478  1.00  0.00     0.282 C 
ATOM      9  C   UNL     1      -8.222   4.520  13.560  1.00  0.00     0.041 C 
ATOM     10  C   UNL     1      -7.527   5.129  14.779  1.00  0.00     0.150 C 
ATOM     11  C   UNL     1      -7.529   4.146  15.972  1.00  0.00     0.174 C 
ATOM     12  O   UNL     1      -6.206   5.489  14.421  1.00  0.00    -0.344 OA
ATOM     13  C   UNL     1      -6.760   4.762  17.173  1.00  0.00     0.179 C 
ATOM     14  C   UNL     1      -5.382   5.273  16.713  1.00  0.00     0.202 C 
BRANCH  11  15
ATOM     15  O   UNL     1      -6.988   2.889  15.622  1.00  0.00    -0.388 OA
ATOM     16  H   UNL     1      -6.163   2.743  16.144  1.00  0.00     0.211 HD
ENDBRANCH  11  15
BRANCH  13  17
ATOM     17  O   UNL     1      -7.478   5.825  17.752  1.00  0.00    -0.387 OA
ATOM     18  H   UNL     1      -8.392   5.849  17.358  1.00  0.00     0.211 HD
ENDBRANCH  13  17
BRANCH  14  19
ATOM     19  O   UNL     1      -4.772   6.002  17.750  1.00  0.00    -0.385 OA
ATOM     20  H   UNL     1      -4.594   5.363  18.489  1.00  0.00     0.211 HD
ENDBRANCH  14  19
ENDBRANCH   7   8
ENDBRANCH   1   7
BRANCH   2  21
ATOM     21  O   UNL     1      -3.267   7.453  15.511  1.00  0.00    -0.387 OA
ATOM     22  H   UNL     1      -3.478   7.598  14.550  1.00  0.00     0.211 HD
ENDBRANCH   2  21
BRANCH   6  23
ATOM     23  O   UNL     1      -6.388   9.447  17.655  1.00  0.00    -0.462 OA
BRANCH  23  24
ATOM     24  C   UNL     1      -7.666   9.413  18.224  1.00  0.00     0.130 A 
ATOM     25  C   UNL     1      -8.463  10.561  18.148  1.00  0.00     0.093 A 
ATOM     26  C   UNL     1      -8.164   8.272  18.854  1.00  0.00     0.094 A 
ATOM     27  C   UNL     1      -9.778  10.564  18.622  1.00  0.00     0.133 A 
ATOM     28  C   UNL     1      -9.453   8.268  19.381  1.00  0.00     0.138 A 
ATOM     29  C   UNL     1     -10.301   9.390  19.245  1.00  0.00     0.102 A 
ATOM     30  O   UNL     1      -9.893   7.118  20.054  1.00  0.00    -0.484 OA
ATOM     31  C   UNL     1     -11.708   9.223  19.701  1.00  0.00     0.174 C 
ATOM     32  C   UNL     1     -11.080   7.109  20.845  1.00  0.00     0.211 C 
ATOM     33  O   UNL     1     -12.537  10.171  19.684  1.00  0.00    -0.294 OA
ATOM     34  C   UNL     1     -12.193   7.862  20.094  1.00  0.00     0.131 C 
BRANCH  27  35
ATOM     35  O   UNL     1     -10.502  11.751  18.446  1.00  0.00    -0.507 OA
ATOM     36  H   UNL     1     -11.483  11.872  18.634  1.00  0.00     0.293 HD
ENDBRANCH  27  35
BRANCH  32  37
ATOM     37  C   UNL     1     -11.414   5.679  21.223  1.00  0.00    -0.007 A 
ATOM     38  C   UNL     1     -10.656   4.933  22.152  1.00  0.00     0.011 A 
ATOM     39  C   UNL     1     -12.516   5.061  20.601  1.00  0.00     0.011 A 
ATOM     40  C   UNL     1     -11.008   3.615  22.456  1.00  0.00     0.046 A 
ATOM     41  C   UNL     1     -12.859   3.741  20.904  1.00  0.00     0.046 A 
ATOM     42  C   UNL     1     -12.108   3.015  21.835  1.00  0.00     0.115 A 
BRANCH  42  43
ATOM     43  O   UNL     1     -12.465   1.705  22.142  1.00  0.00    -0.508 OA
ATOM     44  H   UNL     1     -13.367   1.325  21.877  1.00  0.00     0.293 HD
ENDBRANCH  42  43
ENDBRANCH  32  37
ENDBRANCH  23  24
ENDBRANCH   6  23
BRANCH   3  45
ATOM     45  O   UNL     1      -2.813  10.052  14.936  1.00  0.00    -0.387 OA
ATOM     46  H   UNL     1      -2.734   9.206  14.418  1.00  0.00     0.211 HD
ENDBRANCH   3  45
BRANCH   4  47
ATOM     47  C   UNL     1      -3.493  12.237  16.712  1.00  0.00     0.191 C 
BRANCH  47  48
ATOM     48  O   UNL     1      -3.458  12.693  15.391  1.00  0.00    -0.394 OA
ATOM     49  H   UNL     1      -4.002  13.523  15.366  1.00  0.00     0.210 HD
ENDBRANCH  47  48
ENDBRANCH   4  47
TORSDOF 14
ENDMDL
MODEL 8
REMARK VINA RESULT:    68.922      1.892      2.366
REMARK INTER + INTRA:         107.399
REMARK INTER:                 109.314
REMARK INTRA:                  -1.915
REMARK UNBOUND:                -1.814
REMARK SMILES C[C@@H]1O[C@@H](O[C@H]2[C@@H](Oc3cc(O)c4c(c3)O[C@H](c3ccc(O)cc3)CC4=O)O[C@H](CO)[C@H](O)[C@@H]2O)[C@@H](O)[C@@H](O)[C@@H]1O
REMARK SMILES IDX 6 1 34 2 32 3 29 4 28 5 7 6 5 7 4 8 1 9 2 10 40 11 3 12
REMARK SMILES IDX 38 13 36 14 41 15 39 17 37 19 35 21 8 23 9 24 10 25 15 26
REMARK SMILES IDX 11 27 14 28 13 29 16 30 26 31 17 32 27 33 25 34 12 35 18 37
REMARK SMILES IDX 19 38 24 39 20 40 23 41 21 42 22 43 33 45 30 47 31 48
REMARK H PARENT 41 16 39 18 37 20 35 22 12 36 22 44 33 46 31 49
REMARK Flexibility Score: inf
ROOT
ATOM      1  C   UNL     1      -6.257   9.966  17.731  1.00  0.00     0.221 C 
ATOM      2  C   UNL     1      -5.882  11.038  16.686  1.00  0.00     0.181 C 
ATOM      3  C   UNL     1      -4.364  10.999  16.374  1.00  0.00     0.177 C 
ATOM      4  C   UNL     1      -3.905   9.543  16.103  1.00  0.00     0.179 C 
ATOM      5  O   UNL     1      -4.270   8.668  17.162  1.00  0.00    -0.332 OA
ATOM      6  C   UNL     1      -5.685   8.608  17.306  1.00  0.00     0.339 C 
ENDROOT
BRANCH   1   7
ATOM      7  O   UNL     1      -7.672   9.831  17.818  1.00  0.00    -0.337 OA
BRANCH   7   8
ATOM      8  C   UNL     1      -8.196  10.351  19.031  1.00  0.00     0.282 C 
ATOM      9  C   UNL     1      -9.843   7.326  20.361  1.00  0.00     0.041 C 
ATOM     10  C   UNL     1      -9.574   8.474  19.387  1.00  0.00     0.150 C 
ATOM     11  C   UNL     1     -10.869   9.260  19.079  1.00  0.00     0.174 C 
ATOM     12  O   UNL     1      -8.586   9.322  19.940  1.00  0.00    -0.344 OA
ATOM     13  C   UNL     1     -10.556  10.459  18.142  1.00  0.00     0.179 C 
ATOM     14  C   UNL     1      -9.379  11.277  18.704  1.00  0.00     0.202 C 
BRANCH  11  15
ATOM     15  O   UNL     1     -11.514   9.700  20.256  1.00  0.00    -0.388 OA
ATOM     16  H   UNL     1     -11.068   9.287  21.034  1.00  0.00     0.211 HD
ENDBRANCH  11  15
BRANCH  13  17
ATOM     17  O   UNL     1     -10.237  10.024  16.841  1.00  0.00    -0.387 OA
ATOM     18  H   UNL     1      -9.250   9.924  16.768  1.00  0.00     0.211 HD
ENDBRANCH  13  17
BRANCH  14  19
ATOM     19  O   UNL     1      -8.971  12.239  17.763  1.00  0.00    -0.385 OA
ATOM     20  H   UNL     1      -9.796  12.639  17.380  1.00  0.00     0.211 HD
ENDBRANCH  14  19
ENDBRANCH   7   8
ENDBRANCH   1   7
BRANCH   2  21
ATOM     21  O   UNL     1      -6.201  12.314  17.155  1.00  0.00    -0.387 OA
ATOM     22  H   UNL     1      -6.274  12.247  18.145  1.00  0.00     0.211 HD
ENDBRANCH   2  21
BRANCH   6  23
ATOM     23  O   UNL     1      -6.308   8.168  16.099  1.00  0.00    -0.462 OA
BRANCH  23  24
ATOM     24  C   UNL     1      -6.324   6.832  15.683  1.00  0.00     0.130 A 
ATOM     25  C   UNL     1      -7.495   6.089  15.865  1.00  0.00     0.093 A 
ATOM     26  C   UNL     1      -5.214   6.229  15.090  1.00  0.00     0.094 A 
ATOM     27  C   UNL     1      -7.603   4.777  15.394  1.00  0.00     0.133 A 
ATOM     28  C   UNL     1      -5.279   4.907  14.660  1.00  0.00     0.138 A 
ATOM     29  C   UNL     1      -6.477   4.164  14.763  1.00  0.00     0.102 A 
ATOM     30  O   UNL     1      -4.123   4.324  14.120  1.00  0.00    -0.484 OA
ATOM     31  C   UNL     1      -6.485   2.817  14.129  1.00  0.00     0.174 C 
ATOM     32  C   UNL     1      -4.013   2.919  13.897  1.00  0.00     0.211 C 
ATOM     33  O   UNL     1      -7.475   2.043  14.210  1.00  0.00    -0.294 OA
ATOM     34  C   UNL     1      -5.325   2.402  13.278  1.00  0.00     0.131 C 
BRANCH  27  35
ATOM     35  O   UNL     1      -8.840   4.145  15.582  1.00  0.00    -0.507 OA
ATOM     36  H   UNL     1      -9.042   3.448  16.279  1.00  0.00     0.293 HD
ENDBRANCH  27  35
BRANCH  32  37
ATOM     37  C   UNL     1      -2.766   2.642  13.082  1.00  0.00    -0.007 A 
ATOM     38  C   UNL     1      -1.979   3.665  12.508  1.00  0.00     0.011 A 
ATOM     39  C   UNL     1      -2.387   1.302  12.869  1.00  0.00     0.011 A 
ATOM     40  C   UNL     1      -0.842   3.349  11.760  1.00  0.00     0.046 A 
ATOM     41  C   UNL     1      -1.253   0.992  12.115  1.00  0.00     0.046 A 
ATOM     42  C   UNL     1      -0.475   2.014  11.561  1.00  0.00     0.115 A 
BRANCH  42  43
ATOM     43  O   UNL     1       0.661   1.697  10.822  1.00  0.00    -0.508 OA
ATOM     44  H   UNL     1       0.638   1.641   9.810  1.00  0.00     0.293 HD
ENDBRANCH  42  43
ENDBRANCH  32  37
ENDBRANCH  23  24
ENDBRANCH   6  23
BRANCH   3  45
ATOM     45  O   UNL     1      -3.621  11.566  17.428  1.00  0.00    -0.387 OA
ATOM     46  H   UNL     1      -3.031  12.272  17.048  1.00  0.00     0.211 HD
ENDBRANCH   3  45
BRANCH   4  47
ATOM     47  C   UNL     1      -2.387   9.446  15.889  1.00  0.00     0.191 C 
BRANCH  47  48
ATOM     48  O   UNL     1      -1.963  10.379  14.937  1.00  0.00    -0.394 OA
ATOM     49  H   UNL     1      -1.039  10.120  14.683  1.00  0.00     0.210 HD
ENDBRANCH  47  48
ENDBRANCH   4  47
TORSDOF 14
ENDMDL
MODEL 9
REMARK VINA RESULT:    69.331      1.838      9.502
REMARK INTER + INTRA:         108.048
REMARK INTER:                 103.882
REMARK INTRA:                   4.166
REMARK UNBOUND:                -1.814
REMARK SMILES C[C@@H]1O[C@@H](O[C@H]2[C@@H](Oc3cc(O)c4c(c3)O[C@H](c3ccc(O)cc3)CC4=O)O[C@H](CO)[C@H](O)[C@@H]2O)[C@@H](O)[C@@H](O)[C@@H]1O
REMARK SMILES IDX 6 1 34 2 32 3 29 4 28 5 7 6 5 7 4 8 1 9 2 10 40 11 3 12
REMARK SMILES IDX 38 13 36 14 41 15 39 17 37 19 35 21 8 23 9 24 10 25 15 26
REMARK SMILES IDX 11 27 14 28 13 29 16 30 26 31 17 32 27 33 25 34 12 35 18 37
REMARK SMILES IDX 19 38 24 39 20 40 23 41 21 42 22 43 33 45 30 47 31 48
REMARK H PARENT 41 16 39 18 37 20 35 22 12 36 22 44 33 46 31 49
REMARK Flexibility Score: inf
ROOT
ATOM      1  C   UNL     1      -6.674   4.198  14.938  1.00  0.00     0.221 C 
ATOM      2  C   UNL     1      -7.959   4.997  14.636  1.00  0.00     0.181 C 
ATOM      3  C   UNL     1      -8.593   5.539  15.944  1.00  0.00     0.177 C 
ATOM      4  C   UNL     1      -7.515   6.220  16.825  1.00  0.00     0.179 C 
ATOM      5  O   UNL     1      -6.409   5.361  17.066  1.00  0.00    -0.332 OA
ATOM      6  C   UNL     1      -5.755   5.021  15.848  1.00  0.00     0.339 C 
ENDROOT
BRANCH   1   7
ATOM      7  O   UNL     1      -5.963   3.929  13.734  1.00  0.00    -0.337 OA
BRANCH   7   8
ATOM      8  C   UNL     1      -5.477   2.597  13.672  1.00  0.00     0.282 C 
ATOM      9  C   UNL     1      -4.913   1.960  17.266  1.00  0.00     0.041 C 
ATOM     10  C   UNL     1      -4.727   2.635  15.906  1.00  0.00     0.150 C 
ATOM     11  C   UNL     1      -3.238   2.662  15.494  1.00  0.00     0.174 C 
ATOM     12  O   UNL     1      -5.506   1.948  14.944  1.00  0.00    -0.344 OA
ATOM     13  C   UNL     1      -3.085   3.291  14.082  1.00  0.00     0.179 C 
ATOM     14  C   UNL     1      -4.053   2.615  13.094  1.00  0.00     0.202 C 
BRANCH  11  15
ATOM     15  O   UNL     1      -2.653   1.376  15.536  1.00  0.00    -0.388 OA
ATOM     16  H   UNL     1      -1.674   1.471  15.456  1.00  0.00     0.211 HD
ENDBRANCH  11  15
BRANCH  13  17
ATOM     17  O   UNL     1      -3.341   4.675  14.106  1.00  0.00    -0.387 OA
ATOM     18  H   UNL     1      -2.499   5.162  13.894  1.00  0.00     0.211 HD
ENDBRANCH  13  17
BRANCH  14  19
ATOM     19  O   UNL     1      -4.054   3.312  11.873  1.00  0.00    -0.385 OA
ATOM     20  H   UNL     1      -4.950   3.181  11.464  1.00  0.00     0.211 HD
ENDBRANCH  14  19
ENDBRANCH   7   8
ENDBRANCH   1   7
BRANCH   2  21
ATOM     21  O   UNL     1      -8.901   4.190  13.994  1.00  0.00    -0.387 OA
ATOM     22  H   UNL     1      -8.406   3.415  13.616  1.00  0.00     0.211 HD
ENDBRANCH   2  21
BRANCH   6  23
ATOM     23  O   UNL     1      -5.300   6.188  15.163  1.00  0.00    -0.462 OA
BRANCH  23  24
ATOM     24  C   UNL     1      -5.270   7.461  15.744  1.00  0.00     0.130 A 
ATOM     25  C   UNL     1      -4.029   8.011  16.085  1.00  0.00     0.093 A 
ATOM     26  C   UNL     1      -6.434   8.192  15.984  1.00  0.00     0.094 A 
ATOM     27  C   UNL     1      -3.926   9.310  16.589  1.00  0.00     0.133 A 
ATOM     28  C   UNL     1      -6.360   9.468  16.534  1.00  0.00     0.138 A 
ATOM     29  C   UNL     1      -5.113  10.072  16.812  1.00  0.00     0.102 A 
ATOM     30  O   UNL     1      -7.558  10.145  16.809  1.00  0.00    -0.484 OA
ATOM     31  C   UNL     1      -5.143  11.495  17.248  1.00  0.00     0.174 C 
ATOM     32  C   UNL     1      -7.596  11.329  17.604  1.00  0.00     0.211 C 
ATOM     33  O   UNL     1      -4.099  12.117  17.580  1.00  0.00    -0.294 OA
ATOM     34  C   UNL     1      -6.434  12.251  17.191  1.00  0.00     0.131 C 
BRANCH  27  35
ATOM     35  O   UNL     1      -2.630   9.779  16.845  1.00  0.00    -0.507 OA
ATOM     36  H   UNL     1      -1.786   9.235  16.783  1.00  0.00     0.293 HD
ENDBRANCH  27  35
BRANCH  32  37
ATOM     37  C   UNL     1      -8.975  11.950  17.503  1.00  0.00    -0.007 A 
ATOM     38  C   UNL     1     -10.156  11.262  17.859  1.00  0.00     0.011 A 
ATOM     39  C   UNL     1      -9.085  13.265  17.012  1.00  0.00     0.011 A 
ATOM     40  C   UNL     1     -11.402  11.884  17.738  1.00  0.00     0.046 A 
ATOM     41  C   UNL     1     -10.333  13.880  16.887  1.00  0.00     0.046 A 
ATOM     42  C   UNL     1     -11.495  13.192  17.254  1.00  0.00     0.115 A 
BRANCH  42  43
ATOM     43  O   UNL     1     -12.734  13.817  17.140  1.00  0.00    -0.508 OA
ATOM     44  H   UNL     1     -12.890  14.568  16.477  1.00  0.00     0.293 HD
ENDBRANCH  42  43
ENDBRANCH  32  37
ENDBRANCH  23  24
ENDBRANCH   6  23
BRANCH   3  45
ATOM     45  O   UNL     1      -9.235   4.506  16.655  1.00  0.00    -0.387 OA
ATOM     46  H   UNL     1      -9.654   3.888  15.995  1.00  0.00     0.211 HD
ENDBRANCH   3  45
BRANCH   4  47
ATOM     47  C   UNL     1      -8.080   6.682  18.177  1.00  0.00     0.191 C 
BRANCH  47  48
ATOM     48  O   UNL     1      -7.197   7.569  18.802  1.00  0.00    -0.394 OA
ATOM     49  H   UNL     1      -6.503   7.795  18.130  1.00  0.00     0.210 HD
ENDBRANCH  47  48
ENDBRANCH   4  47
TORSDOF 14
ENDMDL
