MODEL 1
REMARK VINA RESULT:    -4.520      0.000      0.000
REMARK INTER + INTRA:         -11.759
REMARK INTER:                  -8.748
REMARK INTRA:                  -3.011
REMARK UNBOUND:                -3.011
REMARK SMILES CCCCCCCCCCCCCCCCCC(=O)[O-]
REMARK SMILES IDX 10 1 11 2 12 3 13 4 14 5 15 6 16 7 17 8 18 9 19 10 20 11
REMARK SMILES IDX 9 12 8 13 7 14 6 15 5 16 4 17 3 18 2 19 1 20
REMARK H PARENT
REMARK Flexibility Score: inf
ROOT
ATOM      1  C   UNL     1     -24.026  58.397  29.939  1.00  0.00     0.000 C 
ENDROOT
BRANCH   1   2
ATOM      2  C   UNL     1     -24.405  58.443  31.432  1.00  0.00     0.000 C 
BRANCH   2   3
ATOM      3  C   UNL     1     -25.580  59.402  31.737  1.00  0.00     0.000 C 
BRANCH   3   4
ATOM      4  C   UNL     1     -25.949  59.465  33.229  1.00  0.00     0.000 C 
BRANCH   4   5
ATOM      5  C   UNL     1     -25.907  60.899  33.783  1.00  0.00     0.000 C 
BRANCH   5   6
ATOM      6  C   UNL     1     -25.022  61.037  35.033  1.00  0.00     0.000 C 
BRANCH   6   7
ATOM      7  C   UNL     1     -23.534  60.686  34.832  1.00  0.00     0.006 C 
BRANCH   7   8
ATOM      8  C   UNL     1     -22.556  61.721  35.425  1.00  0.00     0.053 C 
BRANCH   8   9
ATOM      9  C   UNL     1     -21.146  61.511  34.961  1.00  0.00     0.041 C 
ATOM     10  O   UNL     1     -20.261  62.376  35.205  1.00  0.00    -0.550 OA
ATOM     11  O   UNL     1     -20.814  60.382  34.222  1.00  0.00    -0.550 OA
ENDBRANCH   8   9
ENDBRANCH   7   8
ENDBRANCH   6   7
ENDBRANCH   5   6
ENDBRANCH   4   5
ENDBRANCH   3   4
ENDBRANCH   2   3
ENDBRANCH   1   2
BRANCH   1  12
ATOM     12  C   UNL     1     -24.663  59.516  29.092  1.00  0.00     0.000 C 
BRANCH  12  13
ATOM     13  C   UNL     1     -23.661  60.192  28.144  1.00  0.00    -0.000 C 
BRANCH  13  14
ATOM     14  C   UNL     1     -23.598  61.707  28.403  1.00  0.00    -0.000 C 
BRANCH  14  15
ATOM     15  C   UNL     1     -24.579  62.167  29.494  1.00  0.00    -0.000 C 
BRANCH  15  16
ATOM     16  C   UNL     1     -23.918  62.778  30.746  1.00  0.00    -0.000 C 
BRANCH  16  17
ATOM     17  C   UNL     1     -22.861  61.865  31.403  1.00  0.00    -0.000 C 
BRANCH  17  18
ATOM     18  C   UNL     1     -21.457  62.495  31.395  1.00  0.00    -0.000 C 
BRANCH  18  19
ATOM     19  C   UNL     1     -20.417  61.610  30.690  1.00  0.00    -0.003 C 
ATOM     20  C   UNL     1     -20.840  60.141  30.623  1.00  0.00     0.004 C 
ENDBRANCH  18  19
ENDBRANCH  17  18
ENDBRANCH  16  17
ENDBRANCH  15  16
ENDBRANCH  14  15
ENDBRANCH  13  14
ENDBRANCH  12  13
ENDBRANCH   1  12
TORSDOF 16
ENDMDL
MODEL 2
REMARK VINA RESULT:    -4.478      2.258      4.908
REMARK INTER + INTRA:         -11.677
REMARK INTER:                  -9.004
REMARK INTRA:                  -2.673
REMARK UNBOUND:                -3.011
REMARK SMILES CCCCCCCCCCCCCCCCCC(=O)[O-]
REMARK SMILES IDX 10 1 11 2 12 3 13 4 14 5 15 6 16 7 17 8 18 9 19 10 20 11
REMARK SMILES IDX 9 12 8 13 7 14 6 15 5 16 4 17 3 18 2 19 1 20
REMARK H PARENT
REMARK Flexibility Score: inf
ROOT
ATOM      1  C   UNL     1     -25.784  60.290  29.670  1.00  0.00     0.000 C 
ENDROOT
BRANCH   1   2
ATOM      2  C   UNL     1     -24.514  60.864  29.013  1.00  0.00     0.000 C 
BRANCH   2   3
ATOM      3  C   UNL     1     -24.319  62.376  29.273  1.00  0.00     0.000 C 
BRANCH   3   4
ATOM      4  C   UNL     1     -24.144  62.725  30.760  1.00  0.00     0.000 C 
BRANCH   4   5
ATOM      5  C   UNL     1     -23.032  61.900  31.430  1.00  0.00     0.000 C 
BRANCH   5   6
ATOM      6  C   UNL     1     -21.643  62.549  31.308  1.00  0.00     0.000 C 
BRANCH   6   7
ATOM      7  C   UNL     1     -20.481  61.576  31.022  1.00  0.00     0.006 C 
BRANCH   7   8
ATOM      8  C   UNL     1     -19.911  61.677  29.593  1.00  0.00     0.053 C 
BRANCH   8   9
ATOM      9  C   UNL     1     -20.880  61.198  28.553  1.00  0.00     0.041 C 
ATOM     10  O   UNL     1     -21.341  60.025  28.605  1.00  0.00    -0.550 OA
ATOM     11  O   UNL     1     -21.242  62.029  27.499  1.00  0.00    -0.550 OA
ENDBRANCH   8   9
ENDBRANCH   7   8
ENDBRANCH   6   7
ENDBRANCH   5   6
ENDBRANCH   4   5
ENDBRANCH   3   4
ENDBRANCH   2   3
ENDBRANCH   1   2
BRANCH   1  12
ATOM     12  C   UNL     1     -25.508  59.259  30.781  1.00  0.00     0.000 C 
BRANCH  12  13
ATOM     13  C   UNL     1     -26.487  59.373  31.960  1.00  0.00    -0.000 C 
BRANCH  13  14
ATOM     14  C   UNL     1     -27.039  60.804  32.078  1.00  0.00    -0.000 C 
BRANCH  14  15
ATOM     15  C   UNL     1     -26.586  61.513  33.366  1.00  0.00    -0.000 C 
BRANCH  15  16
ATOM     16  C   UNL     1     -26.009  60.582  34.451  1.00  0.00    -0.000 C 
BRANCH  16  17
ATOM     17  C   UNL     1     -24.623  61.015  34.974  1.00  0.00    -0.000 C 
BRANCH  17  18
ATOM     18  C   UNL     1     -23.502  60.059  34.525  1.00  0.00    -0.000 C 
BRANCH  18  19
ATOM     19  C   UNL     1     -22.111  60.522  34.987  1.00  0.00    -0.003 C 
ATOM     20  C   UNL     1     -21.997  62.045  35.081  1.00  0.00     0.004 C 
ENDBRANCH  18  19
ENDBRANCH  17  18
ENDBRANCH  16  17
ENDBRANCH  15  16
ENDBRANCH  14  15
ENDBRANCH  13  14
ENDBRANCH  12  13
ENDBRANCH   1  12
TORSDOF 16
ENDMDL
MODEL 3
REMARK VINA RESULT:    -4.447      2.556      4.390
REMARK INTER + INTRA:         -11.617
REMARK INTER:                  -9.123
REMARK INTRA:                  -2.495
REMARK UNBOUND:                -3.011
REMARK SMILES CCCCCCCCCCCCCCCCCC(=O)[O-]
REMARK SMILES IDX 10 1 11 2 12 3 13 4 14 5 15 6 16 7 17 8 18 9 19 10 20 11
REMARK SMILES IDX 9 12 8 13 7 14 6 15 5 16 4 17 3 18 2 19 1 20
REMARK H PARENT
REMARK Flexibility Score: inf
ROOT
ATOM      1  C   UNL     1     -20.470  61.812  30.591  1.00  0.00     0.000 C 
ENDROOT
BRANCH   1   2
ATOM      2  C   UNL     1     -21.367  62.530  31.617  1.00  0.00     0.000 C 
BRANCH   2   3
ATOM      3  C   UNL     1     -22.426  61.604  32.261  1.00  0.00     0.000 C 
BRANCH   3   4
ATOM      4  C   UNL     1     -21.977  60.997  33.600  1.00  0.00     0.000 C 
BRANCH   4   5
ATOM      5  C   UNL     1     -23.047  61.134  34.696  1.00  0.00     0.000 C 
BRANCH   5   6
ATOM      6  C   UNL     1     -24.434  60.643  34.248  1.00  0.00     0.000 C 
BRANCH   6   7
ATOM      7  C   UNL     1     -25.628  61.232  35.027  1.00  0.00     0.006 C 
BRANCH   7   8
ATOM      8  C   UNL     1     -26.989  60.604  34.664  1.00  0.00     0.053 C 
BRANCH   8   9
ATOM      9  C   UNL     1     -27.517  61.098  33.350  1.00  0.00     0.041 C 
ATOM     10  O   UNL     1     -28.125  60.311  32.573  1.00  0.00    -0.550 OA
ATOM     11  O   UNL     1     -27.304  62.415  32.961  1.00  0.00    -0.550 OA
ENDBRANCH   8   9
ENDBRANCH   7   8
ENDBRANCH   6   7
ENDBRANCH   5   6
ENDBRANCH   4   5
ENDBRANCH   3   4
ENDBRANCH   2   3
ENDBRANCH   1   2
BRANCH   1  12
ATOM     12  C   UNL     1     -21.239  60.923  29.595  1.00  0.00     0.000 C 
BRANCH  12  13
ATOM     13  C   UNL     1     -21.422  61.585  28.220  1.00  0.00    -0.000 C 
BRANCH  13  14
ATOM     14  C   UNL     1     -22.891  61.516  27.769  1.00  0.00    -0.000 C 
BRANCH  14  15
ATOM     15  C   UNL     1     -23.872  61.978  28.861  1.00  0.00    -0.000 C 
BRANCH  15  16
ATOM     16  C   UNL     1     -25.115  61.083  29.037  1.00  0.00    -0.000 C 
BRANCH  16  17
ATOM     17  C   UNL     1     -25.316  60.571  30.479  1.00  0.00    -0.000 C 
BRANCH  17  18
ATOM     18  C   UNL     1     -25.294  59.034  30.564  1.00  0.00    -0.000 C 
BRANCH  18  19
ATOM     19  C   UNL     1     -23.880  58.474  30.784  1.00  0.00    -0.003 C 
ATOM     20  C   UNL     1     -23.324  57.768  29.545  1.00  0.00     0.004 C 
ENDBRANCH  18  19
ENDBRANCH  17  18
ENDBRANCH  16  17
ENDBRANCH  15  16
ENDBRANCH  14  15
ENDBRANCH  13  14
ENDBRANCH  12  13
ENDBRANCH   1  12
TORSDOF 16
ENDMDL
MODEL 4
REMARK VINA RESULT:    -4.419      2.308      4.678
REMARK INTER + INTRA:         -11.563
REMARK INTER:                  -8.780
REMARK INTRA:                  -2.782
REMARK UNBOUND:                -3.011
REMARK SMILES CCCCCCCCCCCCCCCCCC(=O)[O-]
REMARK SMILES IDX 10 1 11 2 12 3 13 4 14 5 15 6 16 7 17 8 18 9 19 10 20 11
REMARK SMILES IDX 9 12 8 13 7 14 6 15 5 16 4 17 3 18 2 19 1 20
REMARK H PARENT
REMARK Flexibility Score: inf
ROOT
ATOM      1  C   UNL     1     -21.752  61.130  27.499  1.00  0.00     0.000 C 
ENDROOT
BRANCH   1   2
ATOM      2  C   UNL     1     -20.650  61.525  28.501  1.00  0.00     0.000 C 
BRANCH   2   3
ATOM      3  C   UNL     1     -20.204  60.359  29.414  1.00  0.00     0.000 C 
BRANCH   3   4
ATOM      4  C   UNL     1     -21.058  59.091  29.250  1.00  0.00     0.000 C 
BRANCH   4   5
ATOM      5  C   UNL     1     -21.981  58.844  30.455  1.00  0.00     0.000 C 
BRANCH   5   6
ATOM      6  C   UNL     1     -23.348  58.262  30.059  1.00  0.00     0.000 C 
BRANCH   6   7
ATOM      7  C   UNL     1     -24.422  58.285  31.166  1.00  0.00     0.006 C 
BRANCH   7   8
ATOM      8  C   UNL     1     -25.706  59.049  30.783  1.00  0.00     0.053 C 
BRANCH   8   9
ATOM      9  C   UNL     1     -26.303  59.788  31.943  1.00  0.00     0.041 C 
ATOM     10  O   UNL     1     -27.073  60.767  31.744  1.00  0.00    -0.550 OA
ATOM     11  O   UNL     1     -25.977  59.427  33.245  1.00  0.00    -0.550 OA
ENDBRANCH   8   9
ENDBRANCH   7   8
ENDBRANCH   6   7
ENDBRANCH   5   6
ENDBRANCH   4   5
ENDBRANCH   3   4
ENDBRANCH   2   3
ENDBRANCH   1   2
BRANCH   1  12
ATOM     12  C   UNL     1     -23.032  61.980  27.600  1.00  0.00     0.000 C 
BRANCH  12  13
ATOM     13  C   UNL     1     -23.983  61.500  28.707  1.00  0.00    -0.000 C 
BRANCH  13  14
ATOM     14  C   UNL     1     -24.642  62.693  29.421  1.00  0.00    -0.000 C 
BRANCH  14  15
ATOM     15  C   UNL     1     -24.302  62.753  30.920  1.00  0.00    -0.000 C 
BRANCH  15  16
ATOM     16  C   UNL     1     -23.115  61.869  31.352  1.00  0.00    -0.000 C 
BRANCH  16  17
ATOM     17  C   UNL     1     -21.798  62.649  31.557  1.00  0.00    -0.000 C 
BRANCH  17  18
ATOM     18  C   UNL     1     -21.077  62.249  32.857  1.00  0.00    -0.000 C 
BRANCH  18  19
ATOM     19  C   UNL     1     -21.828  61.160  33.638  1.00  0.00    -0.003 C 
ATOM     20  C   UNL     1     -22.200  61.601  35.056  1.00  0.00     0.004 C 
ENDBRANCH  18  19
ENDBRANCH  17  18
ENDBRANCH  16  17
ENDBRANCH  15  16
ENDBRANCH  14  15
ENDBRANCH  13  14
ENDBRANCH  12  13
ENDBRANCH   1  12
TORSDOF 16
ENDMDL
MODEL 5
REMARK VINA RESULT:    -4.416      1.184      3.066
REMARK INTER + INTRA:         -11.558
REMARK INTER:                  -8.984
REMARK INTRA:                  -2.573
REMARK UNBOUND:                -3.011
REMARK SMILES CCCCCCCCCCCCCCCCCC(=O)[O-]
REMARK SMILES IDX 10 1 11 2 12 3 13 4 14 5 15 6 16 7 17 8 18 9 19 10 20 11
REMARK SMILES IDX 9 12 8 13 7 14 6 15 5 16 4 17 3 18 2 19 1 20
REMARK H PARENT
REMARK Flexibility Score: inf
ROOT
ATOM      1  C   UNL     1     -25.461  62.426  31.125  1.00  0.00     0.000 C 
ENDROOT
BRANCH   1   2
ATOM      2  C   UNL     1     -25.753  60.979  31.567  1.00  0.00     0.000 C 
BRANCH   2   3
ATOM      3  C   UNL     1     -26.780  60.886  32.720  1.00  0.00     0.000 C 
BRANCH   3   4
ATOM      4  C   UNL     1     -26.248  60.144  33.957  1.00  0.00     0.000 C 
BRANCH   4   5
ATOM      5  C   UNL     1     -25.362  61.036  34.842  1.00  0.00     0.000 C 
BRANCH   5   6
ATOM      6  C   UNL     1     -23.883  60.616  34.833  1.00  0.00     0.000 C 
BRANCH   6   7
ATOM      7  C   UNL     1     -22.907  61.614  35.490  1.00  0.00     0.006 C 
BRANCH   7   8
ATOM      8  C   UNL     1     -21.528  61.692  34.803  1.00  0.00     0.053 C 
BRANCH   8   9
ATOM      9  C   UNL     1     -20.865  60.352  34.690  1.00  0.00     0.041 C 
ATOM     10  O   UNL     1     -20.448  59.759  35.722  1.00  0.00    -0.550 OA
ATOM     11  O   UNL     1     -20.667  59.774  33.442  1.00  0.00    -0.550 OA
ENDBRANCH   8   9
ENDBRANCH   7   8
ENDBRANCH   6   7
ENDBRANCH   5   6
ENDBRANCH   4   5
ENDBRANCH   3   4
ENDBRANCH   2   3
ENDBRANCH   1   2
BRANCH   1  12
ATOM     12  C   UNL     1     -24.015  62.659  30.646  1.00  0.00     0.000 C 
BRANCH  12  13
ATOM     13  C   UNL     1     -22.993  61.774  31.376  1.00  0.00    -0.000 C 
BRANCH  13  14
ATOM     14  C   UNL     1     -21.555  62.170  31.000  1.00  0.00    -0.000 C 
BRANCH  14  15
ATOM     15  C   UNL     1     -20.876  61.144  30.077  1.00  0.00    -0.000 C 
BRANCH  15  16
ATOM     16  C   UNL     1     -20.609  61.639  28.641  1.00  0.00    -0.000 C 
BRANCH  16  17
ATOM     17  C   UNL     1     -21.852  61.602  27.726  1.00  0.00    -0.000 C 
BRANCH  17  18
ATOM     18  C   UNL     1     -22.408  60.177  27.551  1.00  0.00    -0.000 C 
BRANCH  18  19
ATOM     19  C   UNL     1     -23.818  60.017  28.140  1.00  0.00    -0.003 C 
ATOM     20  C   UNL     1     -23.916  58.853  29.130  1.00  0.00     0.004 C 
ENDBRANCH  18  19
ENDBRANCH  17  18
ENDBRANCH  16  17
ENDBRANCH  15  16
ENDBRANCH  14  15
ENDBRANCH  13  14
ENDBRANCH  12  13
ENDBRANCH   1  12
TORSDOF 16
ENDMDL
MODEL 6
REMARK VINA RESULT:    -4.406      2.568      4.889
REMARK INTER + INTRA:         -11.537
REMARK INTER:                  -9.464
REMARK INTRA:                  -2.073
REMARK UNBOUND:                -3.011
REMARK SMILES CCCCCCCCCCCCCCCCCC(=O)[O-]
REMARK SMILES IDX 10 1 11 2 12 3 13 4 14 5 15 6 16 7 17 8 18 9 19 10 20 11
REMARK SMILES IDX 9 12 8 13 7 14 6 15 5 16 4 17 3 18 2 19 1 20
REMARK H PARENT
REMARK Flexibility Score: inf
ROOT
ATOM      1  C   UNL     1     -20.217  61.850  34.647  1.00  0.00     0.000 C 
ENDROOT
BRANCH   1   2
ATOM      2  C   UNL     1     -21.066  61.600  35.908  1.00  0.00     0.000 C 
BRANCH   2   3
ATOM      3  C   UNL     1     -22.575  61.858  35.693  1.00  0.00     0.000 C 
BRANCH   3   4
ATOM      4  C   UNL     1     -23.442  60.598  35.853  1.00  0.00     0.000 C 
BRANCH   4   5
ATOM      5  C   UNL     1     -24.553  60.511  34.793  1.00  0.00     0.000 C 
BRANCH   5   6
ATOM      6  C   UNL     1     -25.821  61.289  35.183  1.00  0.00     0.000 C 
BRANCH   6   7
ATOM      7  C   UNL     1     -27.150  60.668  34.707  1.00  0.00     0.006 C 
BRANCH   7   8
ATOM      8  C   UNL     1     -27.867  61.478  33.608  1.00  0.00     0.053 C 
BRANCH   8   9
ATOM      9  C   UNL     1     -27.082  61.536  32.332  1.00  0.00     0.041 C 
ATOM     10  O   UNL     1     -26.867  60.484  31.669  1.00  0.00    -0.550 OA
ATOM     11  O   UNL     1     -26.548  62.742  31.893  1.00  0.00    -0.550 OA
ENDBRANCH   8   9
ENDBRANCH   7   8
ENDBRANCH   6   7
ENDBRANCH   5   6
ENDBRANCH   4   5
ENDBRANCH   3   4
ENDBRANCH   2   3
ENDBRANCH   1   2
BRANCH   1  12
ATOM     12  C   UNL     1     -21.016  62.396  33.447  1.00  0.00     0.000 C 
BRANCH  12  13
ATOM     13  C   UNL     1     -20.785  61.591  32.159  1.00  0.00    -0.000 C 
BRANCH  13  14
ATOM     14  C   UNL     1     -21.992  60.690  31.851  1.00  0.00    -0.000 C 
BRANCH  14  15
ATOM     15  C   UNL     1     -23.298  61.483  31.669  1.00  0.00    -0.000 C 
BRANCH  15  16
ATOM     16  C   UNL     1     -23.250  62.569  30.576  1.00  0.00    -0.000 C 
BRANCH  16  17
ATOM     17  C   UNL     1     -24.158  62.274  29.363  1.00  0.00    -0.000 C 
BRANCH  17  18
ATOM     18  C   UNL     1     -23.378  61.673  28.180  1.00  0.00    -0.000 C 
BRANCH  18  19
ATOM     19  C   UNL     1     -23.551  60.150  28.071  1.00  0.00    -0.003 C 
ATOM     20  C   UNL     1     -24.825  59.650  28.757  1.00  0.00     0.004 C 
ENDBRANCH  18  19
ENDBRANCH  17  18
ENDBRANCH  16  17
ENDBRANCH  15  16
ENDBRANCH  14  15
ENDBRANCH  13  14
ENDBRANCH  12  13
ENDBRANCH   1  12
TORSDOF 16
ENDMDL
MODEL 7
REMARK VINA RESULT:    -4.394      2.348      4.793
REMARK INTER + INTRA:         -11.515
REMARK INTER:                  -9.215
REMARK INTRA:                  -2.299
REMARK UNBOUND:                -3.011
REMARK SMILES CCCCCCCCCCCCCCCCCC(=O)[O-]
REMARK SMILES IDX 10 1 11 2 12 3 13 4 14 5 15 6 16 7 17 8 18 9 19 10 20 11
REMARK SMILES IDX 9 12 8 13 7 14 6 15 5 16 4 17 3 18 2 19 1 20
REMARK H PARENT
REMARK Flexibility Score: inf
ROOT
ATOM      1  C   UNL     1     -24.522  62.214  29.300  1.00  0.00     0.000 C 
ENDROOT
BRANCH   1   2
ATOM      2  C   UNL     1     -23.793  61.242  28.353  1.00  0.00     0.000 C 
BRANCH   2   3
ATOM      3  C   UNL     1     -24.281  59.779  28.481  1.00  0.00     0.000 C 
BRANCH   3   4
ATOM      4  C   UNL     1     -25.442  59.605  29.474  1.00  0.00     0.000 C 
BRANCH   4   5
ATOM      5  C   UNL     1     -25.025  58.834  30.737  1.00  0.00     0.000 C 
BRANCH   5   6
ATOM      6  C   UNL     1     -25.720  59.341  32.011  1.00  0.00     0.000 C 
BRANCH   6   7
ATOM      7  C   UNL     1     -26.698  60.516  31.808  1.00  0.00     0.006 C 
BRANCH   7   8
ATOM      8  C   UNL     1     -26.598  61.614  32.886  1.00  0.00     0.053 C 
BRANCH   8   9
ATOM      9  C   UNL     1     -26.995  61.123  34.246  1.00  0.00     0.041 C 
ATOM     10  O   UNL     1     -28.069  60.480  34.401  1.00  0.00    -0.550 OA
ATOM     11  O   UNL     1     -26.203  61.409  35.352  1.00  0.00    -0.550 OA
ENDBRANCH   8   9
ENDBRANCH   7   8
ENDBRANCH   6   7
ENDBRANCH   5   6
ENDBRANCH   4   5
ENDBRANCH   3   4
ENDBRANCH   2   3
ENDBRANCH   1   2
BRANCH   1  12
ATOM     12  C   UNL     1     -23.650  62.744  30.454  1.00  0.00     0.000 C 
BRANCH  12  13
ATOM     13  C   UNL     1     -22.674  61.691  30.998  1.00  0.00    -0.000 C 
BRANCH  13  14
ATOM     14  C   UNL     1     -21.555  62.352  31.821  1.00  0.00    -0.000 C 
BRANCH  14  15
ATOM     15  C   UNL     1     -21.393  61.727  33.217  1.00  0.00    -0.000 C 
BRANCH  15  16
ATOM     16  C   UNL     1     -22.397  60.605  33.547  1.00  0.00    -0.000 C 
BRANCH  16  17
ATOM     17  C   UNL     1     -22.996  60.700  34.967  1.00  0.00    -0.000 C 
BRANCH  17  18
ATOM     18  C   UNL     1     -22.386  61.852  35.784  1.00  0.00    -0.000 C 
BRANCH  18  19
ATOM     19  C   UNL     1     -21.778  61.376  37.113  1.00  0.00    -0.003 C 
ATOM     20  C   UNL     1     -21.292  59.926  37.055  1.00  0.00     0.004 C 
ENDBRANCH  18  19
ENDBRANCH  17  18
ENDBRANCH  16  17
ENDBRANCH  15  16
ENDBRANCH  14  15
ENDBRANCH  13  14
ENDBRANCH  12  13
ENDBRANCH   1  12
TORSDOF 16
ENDMDL
MODEL 8
REMARK VINA RESULT:    -4.357      2.405      5.214
REMARK INTER + INTRA:         -11.444
REMARK INTER:                  -8.845
REMARK INTRA:                  -2.599
REMARK UNBOUND:                -3.011
REMARK SMILES CCCCCCCCCCCCCCCCCC(=O)[O-]
REMARK SMILES IDX 10 1 11 2 12 3 13 4 14 5 15 6 16 7 17 8 18 9 19 10 20 11
REMARK SMILES IDX 9 12 8 13 7 14 6 15 5 16 4 17 3 18 2 19 1 20
REMARK H PARENT
REMARK Flexibility Score: inf
ROOT
ATOM      1  C   UNL     1     -26.205  60.474  34.230  1.00  0.00     0.000 C 
ENDROOT
BRANCH   1   2
ATOM      2  C   UNL     1     -26.736  61.324  33.059  1.00  0.00     0.000 C 
BRANCH   2   3
ATOM      3  C   UNL     1     -26.208  60.865  31.680  1.00  0.00     0.000 C 
BRANCH   3   4
ATOM      4  C   UNL     1     -25.624  59.442  31.689  1.00  0.00     0.000 C 
BRANCH   4   5
ATOM      5  C   UNL     1     -25.143  58.996  30.298  1.00  0.00     0.000 C 
BRANCH   5   6
ATOM      6  C   UNL     1     -23.649  58.632  30.265  1.00  0.00     0.000 C 
BRANCH   6   7
ATOM      7  C   UNL     1     -22.858  59.191  29.065  1.00  0.00     0.006 C 
BRANCH   7   8
ATOM      8  C   UNL     1     -23.708  60.020  28.081  1.00  0.00     0.053 C 
BRANCH   8   9
ATOM      9  C   UNL     1     -23.387  61.483  28.134  1.00  0.00     0.041 C 
ATOM     10  O   UNL     1     -24.035  62.250  28.898  1.00  0.00    -0.550 OA
ATOM     11  O   UNL     1     -22.400  62.013  27.311  1.00  0.00    -0.550 OA
ENDBRANCH   8   9
ENDBRANCH   7   8
ENDBRANCH   6   7
ENDBRANCH   5   6
ENDBRANCH   4   5
ENDBRANCH   3   4
ENDBRANCH   2   3
ENDBRANCH   1   2
BRANCH   1  12
ATOM     12  C   UNL     1     -25.332  61.255  35.230  1.00  0.00     0.000 C 
BRANCH  12  13
ATOM     13  C   UNL     1     -23.962  60.602  35.466  1.00  0.00    -0.000 C 
BRANCH  13  14
ATOM     14  C   UNL     1     -22.846  61.659  35.487  1.00  0.00    -0.000 C 
BRANCH  14  15
ATOM     15  C   UNL     1     -21.788  61.431  34.393  1.00  0.00    -0.000 C 
BRANCH  15  16
ATOM     16  C   UNL     1     -22.309  60.731  33.122  1.00  0.00    -0.000 C 
BRANCH  16  17
ATOM     17  C   UNL     1     -22.649  61.700  31.970  1.00  0.00    -0.000 C 
BRANCH  17  18
ATOM     18  C   UNL     1     -21.407  62.440  31.440  1.00  0.00    -0.000 C 
BRANCH  18  19
ATOM     19  C   UNL     1     -20.282  61.480  31.022  1.00  0.00    -0.003 C 
ATOM     20  C   UNL     1     -19.908  61.617  29.545  1.00  0.00     0.004 C 
ENDBRANCH  18  19
ENDBRANCH  17  18
ENDBRANCH  16  17
ENDBRANCH  15  16
ENDBRANCH  14  15
ENDBRANCH  13  14
ENDBRANCH  12  13
ENDBRANCH   1  12
TORSDOF 16
ENDMDL
MODEL 9
REMARK VINA RESULT:    -4.340      1.541      4.051
REMARK INTER + INTRA:         -11.410
REMARK INTER:                  -8.671
REMARK INTRA:                  -2.739
REMARK UNBOUND:                -3.011
REMARK SMILES CCCCCCCCCCCCCCCCCC(=O)[O-]
REMARK SMILES IDX 10 1 11 2 12 3 13 4 14 5 15 6 16 7 17 8 18 9 19 10 20 11
REMARK SMILES IDX 9 12 8 13 7 14 6 15 5 16 4 17 3 18 2 19 1 20
REMARK H PARENT
REMARK Flexibility Score: inf
ROOT
ATOM      1  C   UNL     1     -23.208  61.660  27.899  1.00  0.00     0.000 C 
ENDROOT
BRANCH   1   2
ATOM      2  C   UNL     1     -21.941  60.865  28.270  1.00  0.00     0.000 C 
BRANCH   2   3
ATOM      3  C   UNL     1     -20.660  61.731  28.298  1.00  0.00     0.000 C 
BRANCH   3   4
ATOM      4  C   UNL     1     -19.974  61.767  29.674  1.00  0.00     0.000 C 
BRANCH   4   5
ATOM      5  C   UNL     1     -20.863  61.192  30.789  1.00  0.00     0.000 C 
BRANCH   5   6
ATOM      6  C   UNL     1     -21.067  62.166  31.961  1.00  0.00     0.000 C 
BRANCH   6   7
ATOM      7  C   UNL     1     -20.883  61.558  33.366  1.00  0.00     0.006 C 
BRANCH   7   8
ATOM      8  C   UNL     1     -21.253  62.513  34.520  1.00  0.00     0.053 C 
BRANCH   8   9
ATOM      9  C   UNL     1     -21.833  61.793  35.700  1.00  0.00     0.041 C 
ATOM     10  O   UNL     1     -23.063  61.516  35.734  1.00  0.00    -0.550 OA
ATOM     11  O   UNL     1     -21.027  61.463  36.783  1.00  0.00    -0.550 OA
ENDBRANCH   8   9
ENDBRANCH   7   8
ENDBRANCH   6   7
ENDBRANCH   5   6
ENDBRANCH   4   5
ENDBRANCH   3   4
ENDBRANCH   2   3
ENDBRANCH   1   2
BRANCH   1  12
ATOM     12  C   UNL     1     -24.321  61.607  28.962  1.00  0.00     0.000 C 
BRANCH  12  13
ATOM     13  C   UNL     1     -24.217  62.739  29.995  1.00  0.00    -0.000 C 
BRANCH  13  14
ATOM     14  C   UNL     1     -25.398  62.695  30.980  1.00  0.00    -0.000 C 
BRANCH  14  15
ATOM     15  C   UNL     1     -25.577  61.314  31.633  1.00  0.00    -0.000 C 
BRANCH  15  16
ATOM     16  C   UNL     1     -24.443  60.896  32.590  1.00  0.00    -0.000 C 
BRANCH  16  17
ATOM     17  C   UNL     1     -24.128  59.385  32.565  1.00  0.00    -0.000 C 
BRANCH  17  18
ATOM     18  C   UNL     1     -24.737  58.681  31.339  1.00  0.00    -0.000 C 
BRANCH  18  19
ATOM     19  C   UNL     1     -23.678  58.292  30.295  1.00  0.00    -0.003 C 
ATOM     20  C   UNL     1     -22.424  57.681  30.925  1.00  0.00     0.004 C 
ENDBRANCH  18  19
ENDBRANCH  17  18
ENDBRANCH  16  17
ENDBRANCH  15  16
ENDBRANCH  14  15
ENDBRANCH  13  14
ENDBRANCH  12  13
ENDBRANCH   1  12
TORSDOF 16
ENDMDL
