MODEL 1
REMARK VINA RESULT:    -5.310      0.000      0.000
REMARK INTER + INTRA:          -6.038
REMARK INTER:                  -5.621
REMARK INTRA:                  -0.417
REMARK UNBOUND:                -0.417
REMARK SMILES CC1=CC[C@@H]2[C@H]3[C@H](C(C)C)CC[C@]2(C)[C@@H]13
REMARK SMILES IDX 1 1 2 2 3 3 4 4 5 5 6 6 15 7 13 8 12 9 11 10 7 11 14 12 8 13
REMARK SMILES IDX 9 14 10 15
REMARK H PARENT
REMARK Flexibility Score: inf
ROOT
ATOM      1  C   UNL     1     166.856 164.887 199.792  1.00  0.00     0.039 C 
ATOM      2  C   UNL     1     167.376 166.208 200.277  1.00  0.00    -0.073 C 
ATOM      3  C   UNL     1     168.201 166.288 201.354  1.00  0.00    -0.027 C 
ATOM      4  C   UNL     1     168.714 167.663 201.792  1.00  0.00     0.031 C 
ATOM      5  C   UNL     1     168.120 168.783 200.877  1.00  0.00     0.003 C 
ATOM      6  C   UNL     1     166.603 168.512 200.734  1.00  0.00     0.004 C 
ATOM      7  C   UNL     1     166.985 167.523 199.601  1.00  0.00     0.024 C 
ATOM      8  C   UNL     1     168.233 168.412 199.378  1.00  0.00    -0.022 C 
ATOM      9  C   UNL     1     167.872 169.660 198.516  1.00  0.00     0.008 C 
ATOM     10  C   UNL     1     166.423 170.157 198.765  1.00  0.00     0.005 C 
ATOM     11  C   UNL     1     165.899 169.793 200.188  1.00  0.00    -0.005 C 
ATOM     12  C   UNL     1     169.538 167.751 198.874  1.00  0.00     0.012 C 
ENDROOT
BRANCH  11  13
ATOM     13  C   UNL     1     164.341 169.730 200.246  1.00  0.00    -0.014 C 
ATOM     14  C   UNL     1     163.858 168.843 201.404  1.00  0.00     0.007 C 
ATOM     15  C   UNL     1     163.687 169.273 198.931  1.00  0.00     0.007 C 
ENDBRANCH  11  13
TORSDOF 1
ENDMDL
MODEL 2
REMARK VINA RESULT:    -5.300      3.142      6.567
REMARK INTER + INTRA:          -6.027
REMARK INTER:                  -5.609
REMARK INTRA:                  -0.417
REMARK UNBOUND:                -0.417
REMARK SMILES CC1=CC[C@@H]2[C@H]3[C@H](C(C)C)CC[C@]2(C)[C@@H]13
REMARK SMILES IDX 1 1 2 2 3 3 4 4 5 5 6 6 15 7 13 8 12 9 11 10 7 11 14 12 8 13
REMARK SMILES IDX 9 14 10 15
REMARK H PARENT
REMARK Flexibility Score: inf
ROOT
ATOM      1  C   UNL     1     165.166 167.120 199.767  1.00  0.00     0.039 C 
ATOM      2  C   UNL     1     164.633 165.806 200.256  1.00  0.00    -0.073 C 
ATOM      3  C   UNL     1     163.812 165.737 201.336  1.00  0.00    -0.027 C 
ATOM      4  C   UNL     1     163.285 164.367 201.777  1.00  0.00     0.031 C 
ATOM      5  C   UNL     1     163.861 163.240 200.861  1.00  0.00     0.003 C 
ATOM      6  C   UNL     1     165.380 163.493 200.710  1.00  0.00     0.004 C 
ATOM      7  C   UNL     1     165.005 164.485 199.578  1.00  0.00     0.024 C 
ATOM      8  C   UNL     1     163.745 163.611 199.362  1.00  0.00    -0.022 C 
ATOM      9  C   UNL     1     164.088 162.358 198.500  1.00  0.00     0.008 C 
ATOM     10  C   UNL     1     165.532 161.845 198.742  1.00  0.00     0.005 C 
ATOM     11  C   UNL     1     166.067 162.203 200.162  1.00  0.00    -0.005 C 
ATOM     12  C   UNL     1     162.446 164.287 198.864  1.00  0.00     0.012 C 
ENDROOT
BRANCH  11  13
ATOM     13  C   UNL     1     167.626 162.247 200.212  1.00  0.00    -0.014 C 
ATOM     14  C   UNL     1     168.125 163.130 201.368  1.00  0.00     0.007 C 
ATOM     15  C   UNL     1     168.279 162.696 198.894  1.00  0.00     0.007 C 
ENDBRANCH  11  13
TORSDOF 1
ENDMDL
MODEL 3
REMARK VINA RESULT:    -5.289      4.361      6.672
REMARK INTER + INTRA:          -6.015
REMARK INTER:                  -5.591
REMARK INTRA:                  -0.424
REMARK UNBOUND:                -0.417
REMARK SMILES CC1=CC[C@@H]2[C@H]3[C@H](C(C)C)CC[C@]2(C)[C@@H]13
REMARK SMILES IDX 1 1 2 2 3 3 4 4 5 5 6 6 15 7 13 8 12 9 11 10 7 11 14 12 8 13
REMARK SMILES IDX 9 14 10 15
REMARK H PARENT
REMARK Flexibility Score: inf
ROOT
ATOM      1  C   UNL     1     163.692 165.566 199.685  1.00  0.00     0.039 C 
ATOM      2  C   UNL     1     164.163 164.202 199.277  1.00  0.00    -0.073 C 
ATOM      3  C   UNL     1     163.283 163.235 198.907  1.00  0.00    -0.027 C 
ATOM      4  C   UNL     1     163.825 161.866 198.483  1.00  0.00     0.031 C 
ATOM      5  C   UNL     1     165.384 161.836 198.602  1.00  0.00     0.003 C 
ATOM      6  C   UNL     1     165.758 162.446 199.974  1.00  0.00     0.004 C 
ATOM      7  C   UNL     1     165.647 163.829 199.281  1.00  0.00     0.024 C 
ATOM      8  C   UNL     1     166.026 163.095 197.971  1.00  0.00    -0.022 C 
ATOM      9  C   UNL     1     167.570 162.889 197.884  1.00  0.00     0.008 C 
ATOM     10  C   UNL     1     168.222 162.681 199.277  1.00  0.00     0.005 C 
ATOM     11  C   UNL     1     167.235 162.075 200.319  1.00  0.00    -0.005 C 
ATOM     12  C   UNL     1     165.462 163.623 196.631  1.00  0.00     0.012 C 
ENDROOT
BRANCH  11  13
ATOM     13  C   UNL     1     167.644 162.411 201.786  1.00  0.00    -0.014 C 
ATOM     14  C   UNL     1     166.410 162.565 202.691  1.00  0.00     0.007 C 
ATOM     15  C   UNL     1     168.542 163.653 201.913  1.00  0.00     0.007 C 
ENDBRANCH  11  13
TORSDOF 1
ENDMDL
MODEL 4
REMARK VINA RESULT:    -5.279      3.378      5.303
REMARK INTER + INTRA:          -6.005
REMARK INTER:                  -5.579
REMARK INTRA:                  -0.425
REMARK UNBOUND:                -0.417
REMARK SMILES CC1=CC[C@@H]2[C@H]3[C@H](C(C)C)CC[C@]2(C)[C@@H]13
REMARK SMILES IDX 1 1 2 2 3 3 4 4 5 5 6 6 15 7 13 8 12 9 11 10 7 11 14 12 8 13
REMARK SMILES IDX 9 14 10 15
REMARK H PARENT
REMARK Flexibility Score: inf
ROOT
ATOM      1  C   UNL     1     165.910 164.912 197.470  1.00  0.00     0.039 C 
ATOM      2  C   UNL     1     164.572 164.786 198.135  1.00  0.00    -0.073 C 
ATOM      3  C   UNL     1     163.580 164.037 197.585  1.00  0.00    -0.027 C 
ATOM      4  C   UNL     1     162.240 163.932 198.321  1.00  0.00     0.031 C 
ATOM      5  C   UNL     1     162.265 164.791 199.626  1.00  0.00     0.003 C 
ATOM      6  C   UNL     1     162.863 166.171 199.264  1.00  0.00     0.004 C 
ATOM      7  C   UNL     1     164.254 165.509 199.445  1.00  0.00     0.024 C 
ATOM      8  C   UNL     1     163.559 164.548 200.441  1.00  0.00    -0.022 C 
ATOM      9  C   UNL     1     163.412 165.221 201.841  1.00  0.00     0.008 C 
ATOM     10  C   UNL     1     163.202 166.756 201.745  1.00  0.00     0.005 C 
ATOM     11  C   UNL     1     162.540 167.189 200.402  1.00  0.00    -0.005 C 
ATOM     12  C   UNL     1     164.090 163.102 200.576  1.00  0.00     0.012 C 
ENDROOT
BRANCH  11  13
ATOM     13  C   UNL     1     162.864 168.671 200.035  1.00  0.00    -0.014 C 
ATOM     14  C   UNL     1     162.899 168.876 198.512  1.00  0.00     0.007 C 
ATOM     15  C   UNL     1     164.165 169.198 200.663  1.00  0.00     0.007 C 
ENDBRANCH  11  13
TORSDOF 1
ENDMDL
MODEL 5
REMARK VINA RESULT:    -5.268      2.155      4.956
REMARK INTER + INTRA:          -5.993
REMARK INTER:                  -5.569
REMARK INTRA:                  -0.424
REMARK UNBOUND:                -0.417
REMARK SMILES CC1=CC[C@@H]2[C@H]3[C@H](C(C)C)CC[C@]2(C)[C@@H]13
REMARK SMILES IDX 1 1 2 2 3 3 4 4 5 5 6 6 15 7 13 8 12 9 11 10 7 11 14 12 8 13
REMARK SMILES IDX 9 14 10 15
REMARK H PARENT
REMARK Flexibility Score: inf
ROOT
ATOM      1  C   UNL     1     165.972 167.090 197.574  1.00  0.00     0.039 C 
ATOM      2  C   UNL     1     167.329 167.208 198.200  1.00  0.00    -0.073 C 
ATOM      3  C   UNL     1     168.309 167.953 197.624  1.00  0.00    -0.027 C 
ATOM      4  C   UNL     1     169.670 168.050 198.320  1.00  0.00     0.031 C 
ATOM      5  C   UNL     1     169.678 167.188 199.624  1.00  0.00     0.003 C 
ATOM      6  C   UNL     1     169.063 165.811 199.276  1.00  0.00     0.004 C 
ATOM      7  C   UNL     1     167.681 166.480 199.499  1.00  0.00     0.024 C 
ATOM      8  C   UNL     1     168.410 167.435 200.476  1.00  0.00    -0.022 C 
ATOM      9  C   UNL     1     168.593 166.759 201.870  1.00  0.00     0.008 C 
ATOM     10  C   UNL     1     168.792 165.224 201.765  1.00  0.00     0.005 C 
ATOM     11  C   UNL     1     169.413 164.789 200.403  1.00  0.00    -0.005 C 
ATOM     12  C   UNL     1     167.890 168.884 200.629  1.00  0.00     0.012 C 
ENDROOT
BRANCH  11  13
ATOM     13  C   UNL     1     169.071 163.310 200.043  1.00  0.00    -0.014 C 
ATOM     14  C   UNL     1     169.046 163.095 198.520  1.00  0.00     0.007 C 
ATOM     15  C   UNL     1     167.756 162.806 200.662  1.00  0.00     0.007 C 
ENDBRANCH  11  13
TORSDOF 1
ENDMDL
MODEL 6
REMARK VINA RESULT:    -5.260      1.277      2.685
REMARK INTER + INTRA:          -5.984
REMARK INTER:                  -5.559
REMARK INTRA:                  -0.425
REMARK UNBOUND:                -0.417
REMARK SMILES CC1=CC[C@@H]2[C@H]3[C@H](C(C)C)CC[C@]2(C)[C@@H]13
REMARK SMILES IDX 1 1 2 2 3 3 4 4 5 5 6 6 15 7 13 8 12 9 11 10 7 11 14 12 8 13
REMARK SMILES IDX 9 14 10 15
REMARK H PARENT
REMARK Flexibility Score: inf
ROOT
ATOM      1  C   UNL     1     168.275 166.346 199.696  1.00  0.00     0.039 C 
ATOM      2  C   UNL     1     167.844 167.718 199.273  1.00  0.00    -0.073 C 
ATOM      3  C   UNL     1     168.751 168.655 198.888  1.00  0.00    -0.027 C 
ATOM      4  C   UNL     1     168.248 170.034 198.450  1.00  0.00     0.031 C 
ATOM      5  C   UNL     1     166.692 170.111 198.572  1.00  0.00     0.003 C 
ATOM      6  C   UNL     1     166.303 169.530 199.952  1.00  0.00     0.004 C 
ATOM      7  C   UNL     1     166.372 168.135 199.276  1.00  0.00     0.024 C 
ATOM      8  C   UNL     1     166.011 168.864 197.958  1.00  0.00    -0.022 C 
ATOM      9  C   UNL     1     164.473 169.114 197.873  1.00  0.00     0.008 C 
ATOM     10  C   UNL     1     163.831 169.359 199.264  1.00  0.00     0.005 C 
ATOM     11  C   UNL     1     164.840 169.948 200.296  1.00  0.00    -0.005 C 
ATOM     12  C   UNL     1     166.554 168.304 196.623  1.00  0.00     0.012 C 
ENDROOT
BRANCH  11  13
ATOM     13  C   UNL     1     164.425 169.642 201.769  1.00  0.00    -0.014 C 
ATOM     14  C   UNL     1     165.656 169.493 202.679  1.00  0.00     0.007 C 
ATOM     15  C   UNL     1     163.515 168.411 201.916  1.00  0.00     0.007 C 
ENDBRANCH  11  13
TORSDOF 1
ENDMDL
MODEL 7
REMARK VINA RESULT:    -5.184      2.196      3.850
REMARK INTER + INTRA:          -5.904
REMARK INTER:                  -5.485
REMARK INTRA:                  -0.419
REMARK UNBOUND:                -0.417
REMARK SMILES CC1=CC[C@@H]2[C@H]3[C@H](C(C)C)CC[C@]2(C)[C@@H]13
REMARK SMILES IDX 1 1 2 2 3 3 4 4 5 5 6 6 15 7 13 8 12 9 11 10 7 11 14 12 8 13
REMARK SMILES IDX 9 14 10 15
REMARK H PARENT
REMARK Flexibility Score: inf
ROOT
ATOM      1  C   UNL     1     167.339 166.993 201.656  1.00  0.00     0.039 C 
ATOM      2  C   UNL     1     166.108 167.836 201.513  1.00  0.00    -0.073 C 
ATOM      3  C   UNL     1     165.793 168.785 202.434  1.00  0.00    -0.027 C 
ATOM      4  C   UNL     1     164.531 169.627 202.225  1.00  0.00     0.031 C 
ATOM      5  C   UNL     1     163.783 169.178 200.928  1.00  0.00     0.003 C 
ATOM      6  C   UNL     1     163.710 167.632 200.945  1.00  0.00     0.004 C 
ATOM      7  C   UNL     1     165.139 167.653 200.343  1.00  0.00     0.024 C 
ATOM      8  C   UNL     1     164.758 169.025 199.734  1.00  0.00    -0.022 C 
ATOM      9  C   UNL     1     163.932 168.835 198.425  1.00  0.00     0.008 C 
ATOM     10  C   UNL     1     163.040 167.566 198.463  1.00  0.00     0.005 C 
ATOM     11  C   UNL     1     162.641 167.154 199.912  1.00  0.00    -0.005 C 
ATOM     12  C   UNL     1     165.865 170.089 199.540  1.00  0.00     0.012 C 
ENDROOT
BRANCH  11  13
ATOM     13  C   UNL     1     162.292 165.638 200.021  1.00  0.00    -0.014 C 
ATOM     14  C   UNL     1     162.755 165.051 201.365  1.00  0.00     0.007 C 
ATOM     15  C   UNL     1     162.841 164.788 198.863  1.00  0.00     0.007 C 
ENDBRANCH  11  13
TORSDOF 1
ENDMDL
MODEL 8
REMARK VINA RESULT:    -5.178      3.008      5.368
REMARK INTER + INTRA:          -5.898
REMARK INTER:                  -5.473
REMARK INTRA:                  -0.425
REMARK UNBOUND:                -0.417
REMARK SMILES CC1=CC[C@@H]2[C@H]3[C@H](C(C)C)CC[C@]2(C)[C@@H]13
REMARK SMILES IDX 1 1 2 2 3 3 4 4 5 5 6 6 15 7 13 8 12 9 11 10 7 11 14 12 8 13
REMARK SMILES IDX 9 14 10 15
REMARK H PARENT
REMARK Flexibility Score: inf
ROOT
ATOM      1  C   UNL     1     164.519 165.078 201.301  1.00  0.00     0.039 C 
ATOM      2  C   UNL     1     165.750 164.222 201.326  1.00  0.00    -0.073 C 
ATOM      3  C   UNL     1     165.960 163.318 202.318  1.00  0.00    -0.027 C 
ATOM      4  C   UNL     1     167.228 162.460 202.281  1.00  0.00     0.031 C 
ATOM      5  C   UNL     1     168.109 162.842 201.047  1.00  0.00     0.003 C 
ATOM      6  C   UNL     1     168.196 164.386 200.997  1.00  0.00     0.004 C 
ATOM      7  C   UNL     1     166.835 164.343 200.253  1.00  0.00     0.024 C 
ATOM      8  C   UNL     1     167.263 162.941 199.754  1.00  0.00    -0.022 C 
ATOM      9  C   UNL     1     168.220 163.063 198.528  1.00  0.00     0.008 C 
ATOM     10  C   UNL     1     169.116 164.328 198.597  1.00  0.00     0.005 C 
ATOM     11  C   UNL     1     169.369 164.808 200.058  1.00  0.00    -0.005 C 
ATOM     12  C   UNL     1     166.171 161.875 199.499  1.00  0.00     0.012 C 
ENDROOT
BRANCH  11  13
ATOM     13  C   UNL     1     169.721 166.326 200.130  1.00  0.00    -0.014 C 
ATOM     14  C   UNL     1     169.260 166.947 201.459  1.00  0.00     0.007 C 
ATOM     15  C   UNL     1     169.171 167.148 198.952  1.00  0.00     0.007 C 
ENDBRANCH  11  13
TORSDOF 1
ENDMDL
MODEL 9
REMARK VINA RESULT:    -5.160      4.599      6.484
REMARK INTER + INTRA:          -5.879
REMARK INTER:                  -5.516
REMARK INTRA:                  -0.363
REMARK UNBOUND:                -0.417
REMARK SMILES CC1=CC[C@@H]2[C@H]3[C@H](C(C)C)CC[C@]2(C)[C@@H]13
REMARK SMILES IDX 1 1 2 2 3 3 4 4 5 5 6 6 15 7 13 8 12 9 11 10 7 11 14 12 8 13
REMARK SMILES IDX 9 14 10 15
REMARK H PARENT
REMARK Flexibility Score: inf
ROOT
ATOM      1  C   UNL     1     168.605 166.157 203.010  1.00  0.00     0.039 C 
ATOM      2  C   UNL     1     168.173 164.722 202.973  1.00  0.00    -0.073 C 
ATOM      3  C   UNL     1     168.481 163.866 203.983  1.00  0.00    -0.027 C 
ATOM      4  C   UNL     1     167.997 162.415 203.896  1.00  0.00     0.031 C 
ATOM      5  C   UNL     1     167.223 162.177 202.559  1.00  0.00     0.003 C 
ATOM      6  C   UNL     1     168.062 162.801 201.418  1.00  0.00     0.004 C 
ATOM      7  C   UNL     1     167.389 164.148 201.790  1.00  0.00     0.024 C 
ATOM      8  C   UNL     1     166.193 163.301 202.291  1.00  0.00    -0.022 C 
ATOM      9  C   UNL     1     165.281 162.881 201.098  1.00  0.00     0.008 C 
ATOM     10  C   UNL     1     166.080 162.658 199.786  1.00  0.00     0.005 C 
ATOM     11  C   UNL     1     167.561 162.249 200.047  1.00  0.00    -0.005 C 
ATOM     12  C   UNL     1     165.348 163.830 203.473  1.00  0.00     0.012 C 
ENDROOT
BRANCH  11  13
ATOM     13  C   UNL     1     168.492 162.602 198.846  1.00  0.00    -0.014 C 
ATOM     14  C   UNL     1     169.754 163.346 199.314  1.00  0.00     0.007 C 
ATOM     15  C   UNL     1     167.796 163.405 197.734  1.00  0.00     0.007 C 
ENDBRANCH  11  13
TORSDOF 1
ENDMDL
