MODEL 1
REMARK VINA RESULT:    -6.299      0.000      0.000
REMARK INTER + INTRA:          -7.964
REMARK INTER:                  -7.588
REMARK INTRA:                  -0.377
REMARK UNBOUND:                -0.377
REMARK SMILES O=c1c(O)c(-c2ccc(O)cc2O)oc2cc(O)cc(O)c12
REMARK SMILES IDX 5 1 3 2 2 3 1 4 22 5 20 6 19 7 17 8 16 9 15 10 14 11 6 12
REMARK SMILES IDX 8 13 7 14 9 15 11 16 12 17 10 18 13 20 4 22 21 24 18 26
REMARK H PARENT 10 19 13 21 4 23 21 25 18 27
REMARK Flexibility Score: inf
ROOT
ATOM      1  C   UNL     1      -1.599  13.312   3.034  1.00  0.00     0.184 A 
ATOM      2  C   UNL     1      -0.362  13.622   3.622  1.00  0.00     0.208 A 
ATOM      3  C   UNL     1      -0.239  13.560   5.018  1.00  0.00     0.238 A 
ATOM      4  O   UNL     1       0.856  13.892   5.544  1.00  0.00    -0.285 OA
ATOM      5  C   UNL     1      -1.350  13.174   5.806  1.00  0.00     0.111 A 
ATOM      6  C   UNL     1      -1.328  13.038   7.227  1.00  0.00     0.134 A 
ATOM      7  C   UNL     1      -2.520  12.776   7.914  1.00  0.00     0.093 A 
ATOM      8  C   UNL     1      -3.718  12.579   7.229  1.00  0.00     0.123 A 
ATOM      9  C   UNL     1      -3.741  12.650   5.836  1.00  0.00     0.094 A 
ATOM     10  C   UNL     1      -2.575  12.947   5.124  1.00  0.00     0.146 A 
ATOM     11  O   UNL     1      -2.641  13.016   3.800  1.00  0.00    -0.451 OA
ENDROOT
BRANCH   1  12
ATOM     12  C   UNL     1      -1.791  13.341   1.568  1.00  0.00     0.063 A 
ATOM     13  C   UNL     1      -1.906  14.637  -0.486  1.00  0.00     0.047 A 
ATOM     14  C   UNL     1      -1.723  14.572   0.898  1.00  0.00     0.020 A 
ATOM     15  C   UNL     1      -2.172  13.471  -1.215  1.00  0.00     0.119 A 
ATOM     16  C   UNL     1      -2.263  12.244  -0.553  1.00  0.00     0.093 A 
ATOM     17  C   UNL     1      -2.088  12.172   0.837  1.00  0.00     0.130 A 
BRANCH  15  18
ATOM     18  O   UNL     1      -2.351  13.523  -2.595  1.00  0.00    -0.508 OA
ATOM     19  H   UNL     1      -2.980  14.193  -3.023  1.00  0.00     0.293 HD
ENDBRANCH  15  18
BRANCH  17  20
ATOM     20  O   UNL     1      -2.231  10.949   1.493  1.00  0.00    -0.507 OA
ATOM     21  H   UNL     1      -1.762  10.112   1.164  1.00  0.00     0.293 HD
ENDBRANCH  17  20
ENDBRANCH   1  12
BRANCH   2  22
ATOM     22  O   UNL     1       0.712  14.019   2.821  1.00  0.00    -0.502 OA
ATOM     23  H   UNL     1       1.132  13.406   2.133  1.00  0.00     0.293 HD
ENDBRANCH   2  22
BRANCH   6  24
ATOM     24  O   UNL     1      -0.167  13.124   8.001  1.00  0.00    -0.507 OA
ATOM     25  H   UNL     1      -0.065  13.700   8.822  1.00  0.00     0.293 HD
ENDBRANCH   6  24
BRANCH   8  26
ATOM     26  O   UNL     1      -4.881  12.304   7.945  1.00  0.00    -0.508 OA
ATOM     27  H   UNL     1      -4.893  11.623   8.696  1.00  0.00     0.293 HD
ENDBRANCH   8  26
TORSDOF 6
ENDMDL
MODEL 2
REMARK VINA RESULT:    -5.661      1.763      7.237
REMARK INTER + INTRA:          -7.196
REMARK INTER:                  -6.955
REMARK INTRA:                  -0.241
REMARK UNBOUND:                -0.377
REMARK SMILES O=c1c(O)c(-c2ccc(O)cc2O)oc2cc(O)cc(O)c12
REMARK SMILES IDX 5 1 3 2 2 3 1 4 22 5 20 6 19 7 17 8 16 9 15 10 14 11 6 12
REMARK SMILES IDX 8 13 7 14 9 15 11 16 12 17 10 18 13 20 4 22 21 24 18 26
REMARK H PARENT 10 19 13 21 4 23 21 25 18 27
REMARK Flexibility Score: inf
ROOT
ATOM      1  C   UNL     1      -1.263  13.957   2.355  1.00  0.00     0.184 A 
ATOM      2  C   UNL     1      -2.008  12.928   1.759  1.00  0.00     0.208 A 
ATOM      3  C   UNL     1      -2.319  13.017   0.394  1.00  0.00     0.238 A 
ATOM      4  O   UNL     1      -3.033  12.119  -0.124  1.00  0.00    -0.285 OA
ATOM      5  C   UNL     1      -1.867  14.127  -0.360  1.00  0.00     0.111 A 
ATOM      6  C   UNL     1      -2.089  14.301  -1.760  1.00  0.00     0.134 A 
ATOM      7  C   UNL     1      -1.709  15.500  -2.375  1.00  0.00     0.093 A 
ATOM      8  C   UNL     1      -1.057  16.503  -1.659  1.00  0.00     0.123 A 
ATOM      9  C   UNL     1      -0.780  16.319  -0.303  1.00  0.00     0.094 A 
ATOM     10  C   UNL     1      -1.180  15.149   0.348  1.00  0.00     0.146 A 
ATOM     11  O   UNL     1      -0.908  15.018   1.640  1.00  0.00    -0.451 OA
ENDROOT
BRANCH   1  12
ATOM     12  C   UNL     1      -0.887  13.916   3.784  1.00  0.00     0.063 A 
ATOM     13  C   UNL     1      -1.575  13.719   6.108  1.00  0.00     0.047 A 
ATOM     14  C   UNL     1      -1.894  13.756   4.749  1.00  0.00     0.020 A 
ATOM     15  C   UNL     1      -0.244  13.855   6.522  1.00  0.00     0.119 A 
ATOM     16  C   UNL     1       0.763  14.038   5.570  1.00  0.00     0.093 A 
ATOM     17  C   UNL     1       0.450  14.083   4.203  1.00  0.00     0.130 A 
BRANCH  15  18
ATOM     18  O   UNL     1       0.087  13.815   7.874  1.00  0.00    -0.508 OA
ATOM     19  H   UNL     1       0.918  14.273   8.230  1.00  0.00     0.293 HD
ENDBRANCH  15  18
BRANCH  17  20
ATOM     20  O   UNL     1       1.458  14.315   3.267  1.00  0.00    -0.507 OA
ATOM     21  H   UNL     1       1.555  15.211   2.802  1.00  0.00     0.293 HD
ENDBRANCH  17  20
ENDBRANCH   1  12
BRANCH   2  22
ATOM     22  O   UNL     1      -2.457  11.853   2.531  1.00  0.00    -0.502 OA
ATOM     23  H   UNL     1      -3.002  11.094   2.140  1.00  0.00     0.293 HD
ENDBRANCH   2  22
BRANCH   6  24
ATOM     24  O   UNL     1      -2.651  13.325  -2.588  1.00  0.00    -0.507 OA
ATOM     25  H   UNL     1      -3.190  13.516  -3.418  1.00  0.00     0.293 HD
ENDBRANCH   6  24
BRANCH   8  26
ATOM     26  O   UNL     1      -0.678  17.676  -2.307  1.00  0.00    -0.508 OA
ATOM     27  H   UNL     1      -0.399  17.676  -3.282  1.00  0.00     0.293 HD
ENDBRANCH   8  26
TORSDOF 6
ENDMDL
MODEL 3
REMARK VINA RESULT:    -5.538      1.918      6.557
REMARK INTER + INTRA:          -7.048
REMARK INTER:                  -6.944
REMARK INTRA:                  -0.103
REMARK UNBOUND:                -0.377
REMARK SMILES O=c1c(O)c(-c2ccc(O)cc2O)oc2cc(O)cc(O)c12
REMARK SMILES IDX 5 1 3 2 2 3 1 4 22 5 20 6 19 7 17 8 16 9 15 10 14 11 6 12
REMARK SMILES IDX 8 13 7 14 9 15 11 16 12 17 10 18 13 20 4 22 21 24 18 26
REMARK H PARENT 10 19 13 21 4 23 21 25 18 27
REMARK Flexibility Score: inf
ROOT
ATOM      1  C   UNL     1      -1.897  13.294   4.805  1.00  0.00     0.184 A 
ATOM      2  C   UNL     1      -1.676  14.675   4.687  1.00  0.00     0.208 A 
ATOM      3  C   UNL     1      -1.531  15.234   3.409  1.00  0.00     0.238 A 
ATOM      4  O   UNL     1      -1.279  16.463   3.311  1.00  0.00    -0.285 OA
ATOM      5  C   UNL     1      -1.627  14.406   2.264  1.00  0.00     0.111 A 
ATOM      6  C   UNL     1      -1.537  14.872   0.917  1.00  0.00     0.134 A 
ATOM      7  C   UNL     1      -1.515  13.946  -0.133  1.00  0.00     0.093 A 
ATOM      8  C   UNL     1      -1.646  12.579   0.108  1.00  0.00     0.123 A 
ATOM      9  C   UNL     1      -1.795  12.117   1.416  1.00  0.00     0.094 A 
ATOM     10  C   UNL     1      -1.783  13.013   2.488  1.00  0.00     0.146 A 
ATOM     11  O   UNL     1      -1.916  12.531   3.718  1.00  0.00    -0.451 OA
ENDROOT
BRANCH   1  12
ATOM     12  C   UNL     1      -2.074  12.645   6.121  1.00  0.00     0.063 A 
ATOM     13  C   UNL     1      -1.321  12.362   8.416  1.00  0.00     0.047 A 
ATOM     14  C   UNL     1      -1.186  12.961   7.161  1.00  0.00     0.020 A 
ATOM     15  C   UNL     1      -2.339  11.427   8.642  1.00  0.00     0.119 A 
ATOM     16  C   UNL     1      -3.214  11.089   7.606  1.00  0.00     0.093 A 
ATOM     17  C   UNL     1      -3.080  11.681   6.341  1.00  0.00     0.130 A 
BRANCH  15  18
ATOM     18  O   UNL     1      -2.486  10.827   9.891  1.00  0.00    -0.508 OA
ATOM     19  H   UNL     1      -2.773  11.359  10.704  1.00  0.00     0.293 HD
ENDBRANCH  15  18
BRANCH  17  20
ATOM     20  O   UNL     1      -3.929  11.298   5.303  1.00  0.00    -0.507 OA
ATOM     21  H   UNL     1      -4.928  11.191   5.444  1.00  0.00     0.293 HD
ENDBRANCH  17  20
ENDBRANCH   1  12
BRANCH   2  22
ATOM     22  O   UNL     1      -1.567  15.465   5.835  1.00  0.00    -0.502 OA
ATOM     23  H   UNL     1      -1.410  16.465   5.793  1.00  0.00     0.293 HD
ENDBRANCH   2  22
BRANCH   6  24
ATOM     24  O   UNL     1      -1.494  16.222   0.560  1.00  0.00    -0.507 OA
ATOM     25  H   UNL     1      -0.653  16.776   0.504  1.00  0.00     0.293 HD
ENDBRANCH   6  24
BRANCH   8  26
ATOM     26  O   UNL     1      -1.637  11.688  -0.963  1.00  0.00    -0.508 OA
ATOM     27  H   UNL     1      -1.522  12.009  -1.918  1.00  0.00     0.293 HD
ENDBRANCH   8  26
TORSDOF 6
ENDMDL
MODEL 4
REMARK VINA RESULT:    -5.490      2.166      6.962
REMARK INTER + INTRA:          -6.990
REMARK INTER:                  -6.586
REMARK INTRA:                  -0.404
REMARK UNBOUND:                -0.377
REMARK SMILES O=c1c(O)c(-c2ccc(O)cc2O)oc2cc(O)cc(O)c12
REMARK SMILES IDX 5 1 3 2 2 3 1 4 22 5 20 6 19 7 17 8 16 9 15 10 14 11 6 12
REMARK SMILES IDX 8 13 7 14 9 15 11 16 12 17 10 18 13 20 4 22 21 24 18 26
REMARK H PARENT 10 19 13 21 4 23 21 25 18 27
REMARK Flexibility Score: inf
ROOT
ATOM      1  C   UNL     1      -1.724  14.798   2.348  1.00  0.00     0.184 A 
ATOM      2  C   UNL     1      -0.977  15.986   2.296  1.00  0.00     0.208 A 
ATOM      3  C   UNL     1      -0.624  16.513   1.045  1.00  0.00     0.238 A 
ATOM      4  O   UNL     1       0.092  17.548   1.005  1.00  0.00    -0.285 OA
ATOM      5  C   UNL     1      -1.039  15.855  -0.138  1.00  0.00     0.111 A 
ATOM      6  C   UNL     1      -0.773  16.323  -1.461  1.00  0.00     0.134 A 
ATOM      7  C   UNL     1      -1.118  15.523  -2.558  1.00  0.00     0.093 A 
ATOM      8  C   UNL     1      -1.777  14.307  -2.384  1.00  0.00     0.123 A 
ATOM      9  C   UNL     1      -2.095  13.868  -1.098  1.00  0.00     0.094 A 
ATOM     10  C   UNL     1      -1.731  14.625   0.018  1.00  0.00     0.146 A 
ATOM     11  O   UNL     1      -2.043  14.167   1.224  1.00  0.00    -0.451 OA
ENDROOT
BRANCH   1  12
ATOM     12  C   UNL     1      -2.142  14.199   3.633  1.00  0.00     0.063 A 
ATOM     13  C   UNL     1      -1.601  12.794   5.542  1.00  0.00     0.047 A 
ATOM     14  C   UNL     1      -1.237  13.382   4.328  1.00  0.00     0.020 A 
ATOM     15  C   UNL     1      -2.882  13.007   6.070  1.00  0.00     0.119 A 
ATOM     16  C   UNL     1      -3.797  13.800   5.373  1.00  0.00     0.093 A 
ATOM     17  C   UNL     1      -3.441  14.387   4.150  1.00  0.00     0.130 A 
BRANCH  15  18
ATOM     18  O   UNL     1      -3.254  12.430   7.282  1.00  0.00    -0.508 OA
ATOM     19  H   UNL     1      -3.148  11.436   7.450  1.00  0.00     0.293 HD
ENDBRANCH  15  18
BRANCH  17  20
ATOM     20  O   UNL     1      -4.380  15.137   3.440  1.00  0.00    -0.507 OA
ATOM     21  H   UNL     1      -4.496  15.032   2.438  1.00  0.00     0.293 HD
ENDBRANCH  17  20
ENDBRANCH   1  12
BRANCH   2  22
ATOM     22  O   UNL     1      -0.565  16.604   3.480  1.00  0.00    -0.502 OA
ATOM     23  H   UNL     1      -0.029  16.118   4.189  1.00  0.00     0.293 HD
ENDBRANCH   2  22
BRANCH   6  24
ATOM     24  O   UNL     1      -0.202  17.565  -1.749  1.00  0.00    -0.507 OA
ATOM     25  H   UNL     1      -0.063  17.933  -2.678  1.00  0.00     0.293 HD
ENDBRANCH   6  24
BRANCH   8  26
ATOM     26  O   UNL     1      -2.120  13.546  -3.499  1.00  0.00    -0.508 OA
ATOM     27  H   UNL     1      -3.077  13.490  -3.829  1.00  0.00     0.293 HD
ENDBRANCH   8  26
TORSDOF 6
ENDMDL
MODEL 5
REMARK VINA RESULT:    -5.465      4.791      7.784
REMARK INTER + INTRA:          -6.959
REMARK INTER:                  -6.542
REMARK INTRA:                  -0.417
REMARK UNBOUND:                -0.377
REMARK SMILES O=c1c(O)c(-c2ccc(O)cc2O)oc2cc(O)cc(O)c12
REMARK SMILES IDX 5 1 3 2 2 3 1 4 22 5 20 6 19 7 17 8 16 9 15 10 14 11 6 12
REMARK SMILES IDX 8 13 7 14 9 15 11 16 12 17 10 18 13 20 4 22 21 24 18 26
REMARK H PARENT 10 19 13 21 4 23 21 25 18 27
REMARK Flexibility Score: inf
ROOT
ATOM      1  C   UNL     1      -5.865  10.437   6.833  1.00  0.00     0.184 A 
ATOM      2  C   UNL     1      -5.426   9.526   7.806  1.00  0.00     0.208 A 
ATOM      3  C   UNL     1      -6.211   8.397   8.084  1.00  0.00     0.238 A 
ATOM      4  O   UNL     1      -5.840   7.612   8.995  1.00  0.00    -0.285 OA
ATOM      5  C   UNL     1      -7.416   8.185   7.372  1.00  0.00     0.111 A 
ATOM      6  C   UNL     1      -8.270   7.054   7.542  1.00  0.00     0.134 A 
ATOM      7  C   UNL     1      -9.502   7.013   6.878  1.00  0.00     0.093 A 
ATOM      8  C   UNL     1      -9.883   8.029   6.001  1.00  0.00     0.123 A 
ATOM      9  C   UNL     1      -9.029   9.110   5.781  1.00  0.00     0.094 A 
ATOM     10  C   UNL     1      -7.809   9.198   6.457  1.00  0.00     0.146 A 
ATOM     11  O   UNL     1      -7.031  10.249   6.228  1.00  0.00    -0.451 OA
ENDROOT
BRANCH   1  12
ATOM     12  C   UNL     1      -5.077  11.638   6.481  1.00  0.00     0.063 A 
ATOM     13  C   UNL     1      -3.104  12.592   5.429  1.00  0.00     0.047 A 
ATOM     14  C   UNL     1      -3.876  11.480   5.773  1.00  0.00     0.020 A 
ATOM     15  C   UNL     1      -3.517  13.877   5.803  1.00  0.00     0.119 A 
ATOM     16  C   UNL     1      -4.700  14.042   6.528  1.00  0.00     0.093 A 
ATOM     17  C   UNL     1      -5.477  12.930   6.883  1.00  0.00     0.130 A 
BRANCH  15  18
ATOM     18  O   UNL     1      -2.758  14.994   5.462  1.00  0.00    -0.508 OA
ATOM     19  H   UNL     1      -2.240  15.515   6.160  1.00  0.00     0.293 HD
ENDBRANCH  15  18
BRANCH  17  20
ATOM     20  O   UNL     1      -6.630  13.104   7.650  1.00  0.00    -0.507 OA
ATOM     21  H   UNL     1      -7.183  13.952   7.594  1.00  0.00     0.293 HD
ENDBRANCH  17  20
ENDBRANCH   1  12
BRANCH   2  22
ATOM     22  O   UNL     1      -4.241   9.769   8.507  1.00  0.00    -0.502 OA
ATOM     23  H   UNL     1      -3.634  10.551   8.292  1.00  0.00     0.293 HD
ENDBRANCH   2  22
BRANCH   6  24
ATOM     24  O   UNL     1      -7.945   5.942   8.324  1.00  0.00    -0.507 OA
ATOM     25  H   UNL     1      -8.330   5.748   9.235  1.00  0.00     0.293 HD
ENDBRANCH   6  24
BRANCH   8  26
ATOM     26  O   UNL     1     -11.108   7.947   5.345  1.00  0.00    -0.508 OA
ATOM     27  H   UNL     1     -11.239   7.349   4.537  1.00  0.00     0.293 HD
ENDBRANCH   8  26
TORSDOF 6
ENDMDL
MODEL 6
REMARK VINA RESULT:    -5.432      2.246      3.022
REMARK INTER + INTRA:          -6.920
REMARK INTER:                  -6.510
REMARK INTRA:                  -0.409
REMARK UNBOUND:                -0.377
REMARK SMILES O=c1c(O)c(-c2ccc(O)cc2O)oc2cc(O)cc(O)c12
REMARK SMILES IDX 5 1 3 2 2 3 1 4 22 5 20 6 19 7 17 8 16 9 15 10 14 11 6 12
REMARK SMILES IDX 8 13 7 14 9 15 11 16 12 17 10 18 13 20 4 22 21 24 18 26
REMARK H PARENT 10 19 13 21 4 23 21 25 18 27
REMARK Flexibility Score: inf
ROOT
ATOM      1  C   UNL     1      -2.613  14.368   3.077  1.00  0.00     0.184 A 
ATOM      2  C   UNL     1      -2.146  13.227   3.749  1.00  0.00     0.208 A 
ATOM      3  C   UNL     1      -2.830  12.784   4.891  1.00  0.00     0.238 A 
ATOM      4  O   UNL     1      -2.376  11.793   5.521  1.00  0.00    -0.285 OA
ATOM      5  C   UNL     1      -3.982  13.478   5.336  1.00  0.00     0.111 A 
ATOM      6  C   UNL     1      -4.777  13.093   6.458  1.00  0.00     0.134 A 
ATOM      7  C   UNL     1      -5.817  13.927   6.884  1.00  0.00     0.093 A 
ATOM      8  C   UNL     1      -6.134  15.096   6.192  1.00  0.00     0.123 A 
ATOM      9  C   UNL     1      -5.402  15.451   5.059  1.00  0.00     0.094 A 
ATOM     10  C   UNL     1      -4.334  14.658   4.630  1.00  0.00     0.146 A 
ATOM     11  O   UNL     1      -3.656  15.037   3.553  1.00  0.00    -0.451 OA
ENDROOT
BRANCH   1  12
ATOM     12  C   UNL     1      -1.949  14.877   1.859  1.00  0.00     0.063 A 
ATOM     13  C   UNL     1      -0.382  16.436   0.845  1.00  0.00     0.047 A 
ATOM     14  C   UNL     1      -1.023  15.926   1.976  1.00  0.00     0.020 A 
ATOM     15  C   UNL     1      -0.669  15.911  -0.422  1.00  0.00     0.119 A 
ATOM     16  C   UNL     1      -1.606  14.883  -0.552  1.00  0.00     0.093 A 
ATOM     17  C   UNL     1      -2.260  14.371   0.579  1.00  0.00     0.130 A 
BRANCH  15  18
ATOM     18  O   UNL     1      -0.032  16.409  -1.556  1.00  0.00    -0.508 OA
ATOM     19  H   UNL     1      -0.038  15.900  -2.433  1.00  0.00     0.293 HD
ENDBRANCH  15  18
BRANCH  17  20
ATOM     20  O   UNL     1      -3.229  13.378   0.431  1.00  0.00    -0.507 OA
ATOM     21  H   UNL     1      -3.982  13.468  -0.242  1.00  0.00     0.293 HD
ENDBRANCH  17  20
ENDBRANCH   1  12
BRANCH   2  22
ATOM     22  O   UNL     1      -0.996  12.573   3.299  1.00  0.00    -0.502 OA
ATOM     23  H   UNL     1      -1.022  11.642   2.901  1.00  0.00     0.293 HD
ENDBRANCH   2  22
BRANCH   6  24
ATOM     24  O   UNL     1      -4.603  11.900   7.164  1.00  0.00    -0.507 OA
ATOM     25  H   UNL     1      -5.117  11.050   6.992  1.00  0.00     0.293 HD
ENDBRANCH   6  24
BRANCH   8  26
ATOM     26  O   UNL     1      -7.187  15.893   6.636  1.00  0.00    -0.508 OA
ATOM     27  H   UNL     1      -7.068  16.555   7.394  1.00  0.00     0.293 HD
ENDBRANCH   8  26
TORSDOF 6
ENDMDL
MODEL 7
REMARK VINA RESULT:    -5.358     11.075     13.477
REMARK INTER + INTRA:          -6.831
REMARK INTER:                  -6.421
REMARK INTRA:                  -0.410
REMARK UNBOUND:                -0.377
REMARK SMILES O=c1c(O)c(-c2ccc(O)cc2O)oc2cc(O)cc(O)c12
REMARK SMILES IDX 5 1 3 2 2 3 1 4 22 5 20 6 19 7 17 8 16 9 15 10 14 11 6 12
REMARK SMILES IDX 8 13 7 14 9 15 11 16 12 17 10 18 13 20 4 22 21 24 18 26
REMARK H PARENT 10 19 13 21 4 23 21 25 18 27
REMARK Flexibility Score: inf
ROOT
ATOM      1  C   UNL     1      -8.736   3.482   6.321  1.00  0.00     0.184 A 
ATOM      2  C   UNL     1      -9.849   2.647   6.507  1.00  0.00     0.208 A 
ATOM      3  C   UNL     1      -9.661   1.257   6.521  1.00  0.00     0.238 A 
ATOM      4  O   UNL     1     -10.670   0.512   6.633  1.00  0.00    -0.285 OA
ATOM      5  C   UNL     1      -8.360   0.721   6.366  1.00  0.00     0.111 A 
ATOM      6  C   UNL     1      -8.047  -0.671   6.406  1.00  0.00     0.134 A 
ATOM      7  C   UNL     1      -6.745  -1.095   6.111  1.00  0.00     0.093 A 
ATOM      8  C   UNL     1      -5.731  -0.175   5.845  1.00  0.00     0.123 A 
ATOM      9  C   UNL     1      -6.012   1.191   5.862  1.00  0.00     0.094 A 
ATOM     10  C   UNL     1      -7.310   1.644   6.116  1.00  0.00     0.146 A 
ATOM     11  O   UNL     1      -7.538   2.951   6.113  1.00  0.00    -0.451 OA
ENDROOT
BRANCH   1  12
ATOM     12  C   UNL     1      -8.863   4.955   6.313  1.00  0.00     0.063 A 
ATOM     13  C   UNL     1      -8.903   7.043   7.558  1.00  0.00     0.047 A 
ATOM     14  C   UNL     1      -8.782   5.652   7.528  1.00  0.00     0.020 A 
ATOM     15  C   UNL     1      -9.121   7.755   6.371  1.00  0.00     0.119 A 
ATOM     16  C   UNL     1      -9.226   7.068   5.159  1.00  0.00     0.093 A 
ATOM     17  C   UNL     1      -9.112   5.670   5.122  1.00  0.00     0.130 A 
BRANCH  15  18
ATOM     18  O   UNL     1      -9.239   9.143   6.388  1.00  0.00    -0.508 OA
ATOM     19  H   UNL     1      -8.524   9.730   6.802  1.00  0.00     0.293 HD
ENDBRANCH  15  18
BRANCH  17  20
ATOM     20  O   UNL     1      -9.268   4.992   3.913  1.00  0.00    -0.507 OA
ATOM     21  H   UNL     1      -9.054   5.433   3.025  1.00  0.00     0.293 HD
ENDBRANCH  17  20
ENDBRANCH   1  12
BRANCH   2  22
ATOM     22  O   UNL     1     -11.125   3.203   6.637  1.00  0.00    -0.502 OA
ATOM     23  H   UNL     1     -11.970   2.669   6.472  1.00  0.00     0.293 HD
ENDBRANCH   2  22
BRANCH   6  24
ATOM     24  O   UNL     1      -8.965  -1.668   6.751  1.00  0.00    -0.507 OA
ATOM     25  H   UNL     1      -9.967  -1.566   6.709  1.00  0.00     0.293 HD
ENDBRANCH   6  24
BRANCH   8  26
ATOM     26  O   UNL     1      -4.444  -0.632   5.573  1.00  0.00    -0.508 OA
ATOM     27  H   UNL     1      -3.703   0.003   5.300  1.00  0.00     0.293 HD
ENDBRANCH   8  26
TORSDOF 6
ENDMDL
MODEL 8
REMARK VINA RESULT:    -5.218      2.241      3.544
REMARK INTER + INTRA:          -6.662
REMARK INTER:                  -6.328
REMARK INTRA:                  -0.334
REMARK UNBOUND:                -0.377
REMARK SMILES O=c1c(O)c(-c2ccc(O)cc2O)oc2cc(O)cc(O)c12
REMARK SMILES IDX 5 1 3 2 2 3 1 4 22 5 20 6 19 7 17 8 16 9 15 10 14 11 6 12
REMARK SMILES IDX 8 13 7 14 9 15 11 16 12 17 10 18 13 20 4 22 21 24 18 26
REMARK H PARENT 10 19 13 21 4 23 21 25 18 27
REMARK Flexibility Score: inf
ROOT
ATOM      1  C   UNL     1      -1.523  14.635   2.997  1.00  0.00     0.184 A 
ATOM      2  C   UNL     1      -2.595  14.950   3.847  1.00  0.00     0.208 A 
ATOM      3  C   UNL     1      -2.322  15.361   5.160  1.00  0.00     0.238 A 
ATOM      4  O   UNL     1      -3.288  15.590   5.935  1.00  0.00    -0.285 OA
ATOM      5  C   UNL     1      -0.980  15.469   5.600  1.00  0.00     0.111 A 
ATOM      6  C   UNL     1      -0.586  15.915   6.898  1.00  0.00     0.134 A 
ATOM      7  C   UNL     1       0.764  15.857   7.267  1.00  0.00     0.093 A 
ATOM      8  C   UNL     1       1.740  15.433   6.366  1.00  0.00     0.123 A 
ATOM      9  C   UNL     1       1.373  15.051   5.075  1.00  0.00     0.094 A 
ATOM     10  C   UNL     1       0.030  15.062   4.689  1.00  0.00     0.146 A 
ATOM     11  O   UNL     1      -0.278  14.681   3.455  1.00  0.00    -0.451 OA
ENDROOT
BRANCH   1  12
ATOM     12  C   UNL     1      -1.741  14.212   1.597  1.00  0.00     0.063 A 
ATOM     13  C   UNL     1      -1.749  14.780  -0.767  1.00  0.00     0.047 A 
ATOM     14  C   UNL     1      -1.546  15.144   0.567  1.00  0.00     0.020 A 
ATOM     15  C   UNL     1      -2.162  13.480  -1.085  1.00  0.00     0.119 A 
ATOM     16  C   UNL     1      -2.381  12.551  -0.064  1.00  0.00     0.093 A 
ATOM     17  C   UNL     1      -2.186  12.912   1.278  1.00  0.00     0.130 A 
BRANCH  15  18
ATOM     18  O   UNL     1      -2.363  13.105  -2.411  1.00  0.00    -0.508 OA
ATOM     19  H   UNL     1      -1.684  12.543  -2.912  1.00  0.00     0.293 HD
ENDBRANCH  15  18
BRANCH  17  20
ATOM     20  O   UNL     1      -2.455  11.991   2.290  1.00  0.00    -0.507 OA
ATOM     21  H   UNL     1      -1.722  11.424   2.702  1.00  0.00     0.293 HD
ENDBRANCH  17  20
ENDBRANCH   1  12
BRANCH   2  22
ATOM     22  O   UNL     1      -3.909  14.817   3.393  1.00  0.00    -0.502 OA
ATOM     23  H   UNL     1      -4.698  15.220   3.885  1.00  0.00     0.293 HD
ENDBRANCH   2  22
BRANCH   6  24
ATOM     24  O   UNL     1      -1.470  16.444   7.843  1.00  0.00    -0.507 OA
ATOM     25  H   UNL     1      -2.307  15.985   8.167  1.00  0.00     0.293 HD
ENDBRANCH   6  24
BRANCH   8  26
ATOM     26  O   UNL     1       3.074  15.404   6.763  1.00  0.00    -0.508 OA
ATOM     27  H   UNL     1       3.360  15.708   7.686  1.00  0.00     0.293 HD
ENDBRANCH   8  26
TORSDOF 6
ENDMDL
