MODEL 1
REMARK VINA RESULT:    -5.456      0.000      0.000
REMARK INTER + INTRA:          -5.983
REMARK INTER:                  -5.934
REMARK INTRA:                  -0.049
REMARK UNBOUND:                -0.049
REMARK SMILES CCc1cccc(O)c1
REMARK SMILES IDX 3 1 9 2 7 3 6 4 5 5 4 6 2 7 1 8 8 9
REMARK H PARENT 8 10
REMARK Flexibility Score: inf
ROOT
ATOM      1  C   UNL     1       1.075  32.115  78.282  1.00  0.00    -0.045 A 
ATOM      2  C   UNL     1       2.157  33.002  78.411  1.00  0.00     0.049 A 
ATOM      3  C   UNL     1       2.047  34.322  77.961  1.00  0.00     0.115 A 
ATOM      4  C   UNL     1       0.846  34.764  77.387  1.00  0.00     0.046 A 
ATOM      5  C   UNL     1      -0.237  33.891  77.268  1.00  0.00     0.004 A 
ATOM      6  C   UNL     1      -0.128  32.572  77.718  1.00  0.00     0.004 A 
ENDROOT
BRANCH   1   7
ATOM      7  C   UNL     1       1.183  30.704  78.795  1.00  0.00     0.032 C 
ATOM      8  C   UNL     1       2.628  30.220  78.742  1.00  0.00     0.009 C 
ENDBRANCH   1   7
BRANCH   3   9
ATOM      9  O   UNL     1       3.132  35.186  78.093  1.00  0.00    -0.508 OA
ATOM     10  H   UNL     1       3.972  35.067  77.539  1.00  0.00     0.293 HD
ENDBRANCH   3   9
TORSDOF 2
ENDMDL
MODEL 2
REMARK VINA RESULT:    -5.170      2.525      3.925
REMARK INTER + INTRA:          -5.672
REMARK INTER:                  -5.602
REMARK INTRA:                  -0.071
REMARK UNBOUND:                -0.049
REMARK SMILES CCc1cccc(O)c1
REMARK SMILES IDX 3 1 9 2 7 3 6 4 5 5 4 6 2 7 1 8 8 9
REMARK H PARENT 8 10
REMARK Flexibility Score: inf
ROOT
ATOM      1  C   UNL     1       1.311  33.192  77.363  1.00  0.00    -0.045 A 
ATOM      2  C   UNL     1       0.669  32.822  76.169  1.00  0.00     0.049 A 
ATOM      3  C   UNL     1       0.598  31.476  75.792  1.00  0.00     0.115 A 
ATOM      4  C   UNL     1       1.163  30.492  76.615  1.00  0.00     0.046 A 
ATOM      5  C   UNL     1       1.790  30.852  77.810  1.00  0.00     0.004 A 
ATOM      6  C   UNL     1       1.861  32.197  78.188  1.00  0.00     0.004 A 
ENDROOT
BRANCH   1   7
ATOM      7  C   UNL     1       1.358  34.637  77.784  1.00  0.00     0.032 C 
ATOM      8  C   UNL     1       2.644  34.936  78.547  1.00  0.00     0.009 C 
ENDBRANCH   1   7
BRANCH   3   9
ATOM      9  O   UNL     1      -0.037  31.128  74.602  1.00  0.00    -0.508 OA
ATOM     10  H   UNL     1      -0.406  30.196  74.452  1.00  0.00     0.293 HD
ENDBRANCH   3   9
TORSDOF 2
ENDMDL
MODEL 3
REMARK VINA RESULT:    -5.037      1.781      2.342
REMARK INTER + INTRA:          -5.528
REMARK INTER:                  -5.479
REMARK INTRA:                  -0.048
REMARK UNBOUND:                -0.049
REMARK SMILES CCc1cccc(O)c1
REMARK SMILES IDX 3 1 9 2 7 3 6 4 5 5 4 6 2 7 1 8 8 9
REMARK H PARENT 8 10
REMARK Flexibility Score: inf
ROOT
ATOM      1  C   UNL     1       1.967  32.243  78.203  1.00  0.00    -0.045 A 
ATOM      2  C   UNL     1       1.052  32.213  77.137  1.00  0.00     0.049 A 
ATOM      3  C   UNL     1       0.532  33.404  76.617  1.00  0.00     0.115 A 
ATOM      4  C   UNL     1       0.933  34.633  77.158  1.00  0.00     0.046 A 
ATOM      5  C   UNL     1       1.853  34.671  78.209  1.00  0.00     0.004 A 
ATOM      6  C   UNL     1       2.373  33.481  78.728  1.00  0.00     0.004 A 
ENDROOT
BRANCH   1   7
ATOM      7  C   UNL     1       2.551  30.964  78.740  1.00  0.00     0.032 C 
ATOM      8  C   UNL     1       1.629  30.347  79.787  1.00  0.00     0.009 C 
ENDBRANCH   1   7
BRANCH   3   9
ATOM      9  O   UNL     1      -0.378  33.354  75.564  1.00  0.00    -0.508 OA
ATOM     10  H   UNL     1      -0.374  32.591  74.896  1.00  0.00     0.293 HD
ENDBRANCH   3   9
TORSDOF 2
ENDMDL
MODEL 4
REMARK VINA RESULT:    -4.918      2.817      4.103
REMARK INTER + INTRA:          -5.399
REMARK INTER:                  -5.339
REMARK INTRA:                  -0.060
REMARK UNBOUND:                -0.049
REMARK SMILES CCc1cccc(O)c1
REMARK SMILES IDX 3 1 9 2 7 3 6 4 5 5 4 6 2 7 1 8 8 9
REMARK H PARENT 8 10
REMARK Flexibility Score: inf
ROOT
ATOM      1  C   UNL     1       1.516  29.852  80.014  1.00  0.00    -0.045 A 
ATOM      2  C   UNL     1       1.608  30.985  79.188  1.00  0.00     0.049 A 
ATOM      3  C   UNL     1       2.356  30.940  78.006  1.00  0.00     0.115 A 
ATOM      4  C   UNL     1       3.008  29.755  77.640  1.00  0.00     0.046 A 
ATOM      5  C   UNL     1       2.910  28.621  78.450  1.00  0.00     0.004 A 
ATOM      6  C   UNL     1       2.162  28.665  79.631  1.00  0.00     0.004 A 
ENDROOT
BRANCH   1   7
ATOM      7  C   UNL     1       0.684  29.891  81.269  1.00  0.00     0.032 C 
ATOM      8  C   UNL     1       1.551  29.647  82.499  1.00  0.00     0.009 C 
ENDBRANCH   1   7
BRANCH   3   9
ATOM      9  O   UNL     1       2.440  32.075  77.203  1.00  0.00    -0.508 OA
ATOM     10  H   UNL     1       3.324  32.544  77.040  1.00  0.00     0.293 HD
ENDBRANCH   3   9
TORSDOF 2
ENDMDL
MODEL 5
REMARK VINA RESULT:    -4.871      3.356      4.790
REMARK INTER + INTRA:          -5.347
REMARK INTER:                  -5.272
REMARK INTRA:                  -0.076
REMARK UNBOUND:                -0.049
REMARK SMILES CCc1cccc(O)c1
REMARK SMILES IDX 3 1 9 2 7 3 6 4 5 5 4 6 2 7 1 8 8 9
REMARK H PARENT 8 10
REMARK Flexibility Score: inf
ROOT
ATOM      1  C   UNL     1       2.475  27.928  79.700  1.00  0.00    -0.045 A 
ATOM      2  C   UNL     1       2.912  28.706  78.614  1.00  0.00     0.049 A 
ATOM      3  C   UNL     1       2.584  30.065  78.540  1.00  0.00     0.115 A 
ATOM      4  C   UNL     1       1.825  30.654  79.560  1.00  0.00     0.046 A 
ATOM      5  C   UNL     1       1.399  29.889  80.649  1.00  0.00     0.004 A 
ATOM      6  C   UNL     1       1.726  28.532  80.723  1.00  0.00     0.004 A 
ENDROOT
BRANCH   1   7
ATOM      7  C   UNL     1       2.855  26.475  79.795  1.00  0.00     0.032 C 
ATOM      8  C   UNL     1       2.448  25.897  81.146  1.00  0.00     0.009 C 
ENDBRANCH   1   7
BRANCH   3   9
ATOM      9  O   UNL     1       3.022  30.819  77.454  1.00  0.00    -0.508 OA
ATOM     10  H   UNL     1       2.485  31.605  77.105  1.00  0.00     0.293 HD
ENDBRANCH   3   9
TORSDOF 2
ENDMDL
MODEL 6
REMARK VINA RESULT:    -4.834     13.810     14.884
REMARK INTER + INTRA:          -5.307
REMARK INTER:                  -5.256
REMARK INTRA:                  -0.051
REMARK UNBOUND:                -0.049
REMARK SMILES CCc1cccc(O)c1
REMARK SMILES IDX 3 1 9 2 7 3 6 4 5 5 4 6 2 7 1 8 8 9
REMARK H PARENT 8 10
REMARK Flexibility Score: inf
ROOT
ATOM      1  C   UNL     1       6.303  29.133  91.523  1.00  0.00    -0.045 A 
ATOM      2  C   UNL     1       7.374  29.964  91.895  1.00  0.00     0.049 A 
ATOM      3  C   UNL     1       8.442  30.176  91.017  1.00  0.00     0.115 A 
ATOM      4  C   UNL     1       8.439  29.564  89.756  1.00  0.00     0.046 A 
ATOM      5  C   UNL     1       7.371  28.747  89.375  1.00  0.00     0.004 A 
ATOM      6  C   UNL     1       6.303  28.535  90.252  1.00  0.00     0.004 A 
ENDROOT
BRANCH   1   7
ATOM      7  C   UNL     1       5.138  28.932  92.456  1.00  0.00     0.032 C 
ATOM      8  C   UNL     1       4.749  30.245  93.125  1.00  0.00     0.009 C 
ENDBRANCH   1   7
BRANCH   3   9
ATOM      9  O   UNL     1       9.498  30.998  91.405  1.00  0.00    -0.508 OA
ATOM     10  H   UNL     1      10.291  31.163  90.796  1.00  0.00     0.293 HD
ENDBRANCH   3   9
TORSDOF 2
ENDMDL
MODEL 7
REMARK VINA RESULT:    -4.820      5.660      8.038
REMARK INTER + INTRA:          -5.291
REMARK INTER:                  -5.222
REMARK INTRA:                  -0.069
REMARK UNBOUND:                -0.049
REMARK SMILES CCc1cccc(O)c1
REMARK SMILES IDX 3 1 9 2 7 3 6 4 5 5 4 6 2 7 1 8 8 9
REMARK H PARENT 8 10
REMARK Flexibility Score: inf
ROOT
ATOM      1  C   UNL     1       2.224  26.946  79.275  1.00  0.00    -0.045 A 
ATOM      2  C   UNL     1       1.712  25.978  78.394  1.00  0.00     0.049 A 
ATOM      3  C   UNL     1       1.486  24.669  78.834  1.00  0.00     0.115 A 
ATOM      4  C   UNL     1       1.762  24.324  80.164  1.00  0.00     0.046 A 
ATOM      5  C   UNL     1       2.259  25.285  81.049  1.00  0.00     0.004 A 
ATOM      6  C   UNL     1       2.485  26.593  80.610  1.00  0.00     0.004 A 
ENDROOT
BRANCH   1   7
ATOM      7  C   UNL     1       2.437  28.361  78.810  1.00  0.00     0.032 C 
ATOM      8  C   UNL     1       1.838  29.352  79.802  1.00  0.00     0.009 C 
ENDBRANCH   1   7
BRANCH   3   9
ATOM      9  O   UNL     1       0.983  23.722  77.944  1.00  0.00    -0.508 OA
ATOM     10  H   UNL     1       1.453  23.516  77.070  1.00  0.00     0.293 HD
ENDBRANCH   3   9
TORSDOF 2
ENDMDL
MODEL 8
REMARK VINA RESULT:    -4.806      8.540      9.438
REMARK INTER + INTRA:          -5.277
REMARK INTER:                  -5.226
REMARK INTRA:                  -0.051
REMARK UNBOUND:                -0.049
REMARK SMILES CCc1cccc(O)c1
REMARK SMILES IDX 3 1 9 2 7 3 6 4 5 5 4 6 2 7 1 8 8 9
REMARK H PARENT 8 10
REMARK Flexibility Score: inf
ROOT
ATOM      1  C   UNL     1       4.460  25.076  81.450  1.00  0.00    -0.045 A 
ATOM      2  C   UNL     1       4.538  24.171  80.377  1.00  0.00     0.049 A 
ATOM      3  C   UNL     1       3.424  23.944  79.561  1.00  0.00     0.115 A 
ATOM      4  C   UNL     1       2.227  24.631  79.810  1.00  0.00     0.046 A 
ATOM      5  C   UNL     1       2.148  25.542  80.867  1.00  0.00     0.004 A 
ATOM      6  C   UNL     1       3.261  25.769  81.682  1.00  0.00     0.004 A 
ENDROOT
BRANCH   1   7
ATOM      7  C   UNL     1       5.669  25.343  82.307  1.00  0.00     0.032 C 
ATOM      8  C   UNL     1       6.937  25.361  81.461  1.00  0.00     0.009 C 
ENDBRANCH   1   7
BRANCH   3   9
ATOM      9  O   UNL     1       3.518  23.040  78.506  1.00  0.00    -0.508 OA
ATOM     10  H   UNL     1       4.039  22.176  78.595  1.00  0.00     0.293 HD
ENDBRANCH   3   9
TORSDOF 2
ENDMDL
MODEL 9
REMARK VINA RESULT:    -4.790     13.534     14.579
REMARK INTER + INTRA:          -5.259
REMARK INTER:                  -5.191
REMARK INTRA:                  -0.068
REMARK UNBOUND:                -0.049
REMARK SMILES CCc1cccc(O)c1
REMARK SMILES IDX 3 1 9 2 7 3 6 4 5 5 4 6 2 7 1 8 8 9
REMARK H PARENT 8 10
REMARK Flexibility Score: inf
ROOT
ATOM      1  C   UNL     1      12.834  35.791  85.564  1.00  0.00    -0.045 A 
ATOM      2  C   UNL     1      12.571  36.956  86.305  1.00  0.00     0.049 A 
ATOM      3  C   UNL     1      12.437  36.894  87.697  1.00  0.00     0.115 A 
ATOM      4  C   UNL     1      12.576  35.664  88.355  1.00  0.00     0.046 A 
ATOM      5  C   UNL     1      12.851  34.505  87.626  1.00  0.00     0.004 A 
ATOM      6  C   UNL     1      12.985  34.567  86.235  1.00  0.00     0.004 A 
ENDROOT
BRANCH   1   7
ATOM      7  C   UNL     1      13.011  35.865  84.071  1.00  0.00     0.032 C 
ATOM      8  C   UNL     1      12.308  34.698  83.386  1.00  0.00     0.009 C 
ENDBRANCH   1   7
BRANCH   3   9
ATOM      9  O   UNL     1      12.170  38.058  88.414  1.00  0.00    -0.508 OA
ATOM     10  H   UNL     1      11.268  38.217  88.848  1.00  0.00     0.293 HD
ENDBRANCH   3   9
TORSDOF 2
ENDMDL
