MODEL 1
REMARK VINA RESULT:    -5.028      0.000      0.000
REMARK INTER + INTRA:          -5.691
REMARK INTER:                  -5.469
REMARK INTRA:                  -0.222
REMARK UNBOUND:                -0.222
REMARK SMILES O=C([O-])c1ccccc1O
REMARK SMILES IDX 4 1 9 2 5 3 8 4 6 5 7 6 2 7 1 8 3 9 10 10
REMARK H PARENT 10 11
REMARK Flexibility Score: inf
ROOT
ATOM      1  C   UNL     1      21.006   0.771 -20.318  1.00  0.00     0.039 A 
ATOM      2  C   UNL     1      21.536   1.054 -19.034  1.00  0.00     0.124 A 
ATOM      3  C   UNL     1      19.839  -0.012 -20.415  1.00  0.00     0.014 A 
ATOM      4  C   UNL     1      20.860   0.607 -17.891  1.00  0.00     0.047 A 
ATOM      5  C   UNL     1      19.189  -0.468 -19.265  1.00  0.00     0.001 A 
ATOM      6  C   UNL     1      19.694  -0.150 -18.005  1.00  0.00     0.004 A 
ENDROOT
BRANCH   1   7
ATOM      7  C   UNL     1      21.609   1.299 -21.561  1.00  0.00     0.075 C 
ATOM      8  O   UNL     1      21.756   2.542 -21.713  1.00  0.00    -0.545 OA
ATOM      9  O   UNL     1      22.083   0.439 -22.544  1.00  0.00    -0.545 OA
ENDBRANCH   1   7
BRANCH   2  10
ATOM     10  O   UNL     1      22.740   1.739 -18.852  1.00  0.00    -0.507 OA
ATOM     11  H   UNL     1      23.391   1.530 -18.108  1.00  0.00     0.293 HD
ENDBRANCH   2  10
TORSDOF 2
ENDMDL
MODEL 2
REMARK VINA RESULT:    -4.915      1.447      2.306
REMARK INTER + INTRA:          -5.568
REMARK INTER:                  -5.321
REMARK INTRA:                  -0.247
REMARK UNBOUND:                -0.222
REMARK SMILES O=C([O-])c1ccccc1O
REMARK SMILES IDX 4 1 9 2 5 3 8 4 6 5 7 6 2 7 1 8 3 9 10 10
REMARK H PARENT 10 11
REMARK Flexibility Score: inf
ROOT
ATOM      1  C   UNL     1      21.371   0.677 -20.909  1.00  0.00     0.039 A 
ATOM      2  C   UNL     1      20.670  -0.555 -20.878  1.00  0.00     0.124 A 
ATOM      3  C   UNL     1      21.645   1.335 -19.694  1.00  0.00     0.014 A 
ATOM      4  C   UNL     1      20.321  -1.123 -19.646  1.00  0.00     0.047 A 
ATOM      5  C   UNL     1      21.270   0.764 -18.475  1.00  0.00     0.001 A 
ATOM      6  C   UNL     1      20.618  -0.468 -18.451  1.00  0.00     0.004 A 
ENDROOT
BRANCH   1   7
ATOM      7  C   UNL     1      21.861   1.281 -22.167  1.00  0.00     0.075 C 
ATOM      8  O   UNL     1      21.753   2.522 -22.356  1.00  0.00    -0.545 OA
ATOM      9  O   UNL     1      22.504   0.506 -23.125  1.00  0.00    -0.545 OA
ENDBRANCH   1   7
BRANCH   2  10
ATOM     10  O   UNL     1      20.273  -1.223 -22.038  1.00  0.00    -0.507 OA
ATOM     11  H   UNL     1      20.174  -0.768 -22.935  1.00  0.00     0.293 HD
ENDBRANCH   2  10
TORSDOF 2
ENDMDL
MODEL 3
REMARK VINA RESULT:    -4.799      1.617      3.410
REMARK INTER + INTRA:          -5.441
REMARK INTER:                  -5.193
REMARK INTRA:                  -0.248
REMARK UNBOUND:                -0.222
REMARK SMILES O=C([O-])c1ccccc1O
REMARK SMILES IDX 4 1 9 2 5 3 8 4 6 5 7 6 2 7 1 8 3 9 10 10
REMARK H PARENT 10 11
REMARK Flexibility Score: inf
ROOT
ATOM      1  C   UNL     1      21.059   0.521 -19.424  1.00  0.00     0.039 A 
ATOM      2  C   UNL     1      21.646   1.480 -20.287  1.00  0.00     0.124 A 
ATOM      3  C   UNL     1      20.550  -0.670 -19.976  1.00  0.00     0.014 A 
ATOM      4  C   UNL     1      21.765   1.201 -21.655  1.00  0.00     0.047 A 
ATOM      5  C   UNL     1      20.658  -0.923 -21.347  1.00  0.00     0.001 A 
ATOM      6  C   UNL     1      21.274   0.007 -22.183  1.00  0.00     0.004 A 
ENDROOT
BRANCH   1   7
ATOM      7  C   UNL     1      20.995   0.705 -17.958  1.00  0.00     0.075 C 
ATOM      8  O   UNL     1      22.012   1.098 -17.326  1.00  0.00    -0.545 OA
ATOM      9  O   UNL     1      19.804   0.515 -17.268  1.00  0.00    -0.545 OA
ENDBRANCH   1   7
BRANCH   2  10
ATOM     10  O   UNL     1      22.086   2.727 -19.837  1.00  0.00    -0.507 OA
ATOM     11  H   UNL     1      22.453   2.885 -18.909  1.00  0.00     0.293 HD
ENDBRANCH   2  10
TORSDOF 2
ENDMDL
MODEL 4
REMARK VINA RESULT:    -4.788      1.617      3.435
REMARK INTER + INTRA:          -5.429
REMARK INTER:                  -5.183
REMARK INTRA:                  -0.246
REMARK UNBOUND:                -0.222
REMARK SMILES O=C([O-])c1ccccc1O
REMARK SMILES IDX 4 1 9 2 5 3 8 4 6 5 7 6 2 7 1 8 3 9 10 10
REMARK H PARENT 10 11
REMARK Flexibility Score: inf
ROOT
ATOM      1  C   UNL     1      21.013   0.473 -19.550  1.00  0.00     0.039 A 
ATOM      2  C   UNL     1      21.613   1.435 -20.400  1.00  0.00     0.124 A 
ATOM      3  C   UNL     1      20.545  -0.732 -20.109  1.00  0.00     0.014 A 
ATOM      4  C   UNL     1      21.787   1.147 -21.760  1.00  0.00     0.047 A 
ATOM      5  C   UNL     1      20.707  -0.994 -21.472  1.00  0.00     0.001 A 
ATOM      6  C   UNL     1      21.336  -0.060 -22.294  1.00  0.00     0.004 A 
ENDROOT
BRANCH   1   7
ATOM      7  C   UNL     1      20.893   0.668 -18.088  1.00  0.00     0.075 C 
ATOM      8  O   UNL     1      19.831   0.344 -17.493  1.00  0.00    -0.545 OA
ATOM      9  O   UNL     1      21.964   1.146 -17.344  1.00  0.00    -0.545 OA
ENDBRANCH   1   7
BRANCH   2  10
ATOM     10  O   UNL     1      22.015   2.694 -19.945  1.00  0.00    -0.507 OA
ATOM     11  H   UNL     1      21.525   3.548 -20.169  1.00  0.00     0.293 HD
ENDBRANCH   2  10
TORSDOF 2
ENDMDL
MODEL 5
REMARK VINA RESULT:    -4.579      1.476      3.542
REMARK INTER + INTRA:          -5.203
REMARK INTER:                  -4.964
REMARK INTRA:                  -0.238
REMARK UNBOUND:                -0.222
REMARK SMILES O=C([O-])c1ccccc1O
REMARK SMILES IDX 4 1 9 2 5 3 8 4 6 5 7 6 2 7 1 8 3 9 10 10
REMARK H PARENT 10 11
REMARK Flexibility Score: inf
ROOT
ATOM      1  C   UNL     1      20.936   0.661 -17.971  1.00  0.00     0.039 A 
ATOM      2  C   UNL     1      21.376   1.006 -19.273  1.00  0.00     0.124 A 
ATOM      3  C   UNL     1      19.747  -0.080 -17.828  1.00  0.00     0.014 A 
ATOM      4  C   UNL     1      20.660   0.555 -20.390  1.00  0.00     0.047 A 
ATOM      5  C   UNL     1      19.033  -0.503 -18.952  1.00  0.00     0.001 A 
ATOM      6  C   UNL     1      19.495  -0.195 -20.231  1.00  0.00     0.004 A 
ENDROOT
BRANCH   1   7
ATOM      7  C   UNL     1      21.700   1.014 -16.754  1.00  0.00     0.075 C 
ATOM      8  O   UNL     1      22.951   1.150 -16.811  1.00  0.00    -0.545 OA
ATOM      9  O   UNL     1      21.048   1.267 -15.553  1.00  0.00    -0.545 OA
ENDBRANCH   1   7
BRANCH   2  10
ATOM     10  O   UNL     1      22.490   1.819 -19.500  1.00  0.00    -0.507 OA
ATOM     11  H   UNL     1      22.876   2.439 -18.801  1.00  0.00     0.293 HD
ENDBRANCH   2  10
TORSDOF 2
ENDMDL
MODEL 6
REMARK VINA RESULT:    -4.489      2.386      3.942
REMARK INTER + INTRA:          -5.105
REMARK INTER:                  -4.858
REMARK INTRA:                  -0.247
REMARK UNBOUND:                -0.222
REMARK SMILES O=C([O-])c1ccccc1O
REMARK SMILES IDX 4 1 9 2 5 3 8 4 6 5 7 6 2 7 1 8 3 9 10 10
REMARK H PARENT 10 11
REMARK Flexibility Score: inf
ROOT
ATOM      1  C   UNL     1      20.963   0.374 -19.296  1.00  0.00     0.039 A 
ATOM      2  C   UNL     1      20.517  -0.777 -19.993  1.00  0.00     0.124 A 
ATOM      3  C   UNL     1      21.598   1.403 -20.017  1.00  0.00     0.014 A 
ATOM      4  C   UNL     1      20.658  -0.842 -21.386  1.00  0.00     0.047 A 
ATOM      5  C   UNL     1      21.749   1.313 -21.404  1.00  0.00     0.001 A 
ATOM      6  C   UNL     1      21.271   0.196 -22.087  1.00  0.00     0.004 A 
ENDROOT
BRANCH   1   7
ATOM      7  C   UNL     1      20.752   0.553 -17.843  1.00  0.00     0.075 C 
ATOM      8  O   UNL     1      19.621   0.329 -17.336  1.00  0.00    -0.545 OA
ATOM      9  O   UNL     1      21.807   0.904 -17.009  1.00  0.00    -0.545 OA
ENDBRANCH   1   7
BRANCH   2  10
ATOM     10  O   UNL     1      19.966  -1.884 -19.343  1.00  0.00    -0.507 OA
ATOM     11  H   UNL     1      19.809  -2.774 -19.797  1.00  0.00     0.293 HD
ENDBRANCH   2  10
TORSDOF 2
ENDMDL
MODEL 7
REMARK VINA RESULT:    -4.468      1.798      2.699
REMARK INTER + INTRA:          -5.082
REMARK INTER:                  -4.828
REMARK INTRA:                  -0.253
REMARK UNBOUND:                -0.222
REMARK SMILES O=C([O-])c1ccccc1O
REMARK SMILES IDX 4 1 9 2 5 3 8 4 6 5 7 6 2 7 1 8 3 9 10 10
REMARK H PARENT 10 11
REMARK Flexibility Score: inf
ROOT
ATOM      1  C   UNL     1      20.927   0.359 -19.374  1.00  0.00     0.039 A 
ATOM      2  C   UNL     1      21.863   1.366 -19.720  1.00  0.00     0.124 A 
ATOM      3  C   UNL     1      20.805  -0.021 -18.023  1.00  0.00     0.014 A 
ATOM      4  C   UNL     1      22.599   2.005 -18.713  1.00  0.00     0.047 A 
ATOM      5  C   UNL     1      21.562   0.612 -17.034  1.00  0.00     0.001 A 
ATOM      6  C   UNL     1      22.450   1.630 -17.378  1.00  0.00     0.004 A 
ENDROOT
BRANCH   1   7
ATOM      7  C   UNL     1      20.045  -0.283 -20.373  1.00  0.00     0.075 C 
ATOM      8  O   UNL     1      18.811  -0.395 -20.145  1.00  0.00    -0.545 OA
ATOM      9  O   UNL     1      20.547  -0.707 -21.597  1.00  0.00    -0.545 OA
ENDBRANCH   1   7
BRANCH   2  10
ATOM     10  O   UNL     1      22.118   1.733 -21.044  1.00  0.00    -0.507 OA
ATOM     11  H   UNL     1      22.643   1.159 -21.688  1.00  0.00     0.293 HD
ENDBRANCH   2  10
TORSDOF 2
ENDMDL
MODEL 8
REMARK VINA RESULT:    -4.438      5.386      6.515
REMARK INTER + INTRA:          -5.050
REMARK INTER:                  -4.796
REMARK INTRA:                  -0.253
REMARK UNBOUND:                -0.222
REMARK SMILES O=C([O-])c1ccccc1O
REMARK SMILES IDX 4 1 9 2 5 3 8 4 6 5 7 6 2 7 1 8 3 9 10 10
REMARK H PARENT 10 11
REMARK Flexibility Score: inf
ROOT
ATOM      1  C   UNL     1      24.164   6.032 -20.708  1.00  0.00     0.039 A 
ATOM      2  C   UNL     1      23.595   5.350 -19.603  1.00  0.00     0.124 A 
ATOM      3  C   UNL     1      24.910   7.203 -20.474  1.00  0.00     0.014 A 
ATOM      4  C   UNL     1      23.834   5.815 -18.303  1.00  0.00     0.047 A 
ATOM      5  C   UNL     1      25.121   7.665 -19.172  1.00  0.00     0.001 A 
ATOM      6  C   UNL     1      24.592   6.965 -18.088  1.00  0.00     0.004 A 
ENDROOT
BRANCH   1   7
ATOM      7  C   UNL     1      24.038   5.538 -22.097  1.00  0.00     0.075 C 
ATOM      8  O   UNL     1      25.045   5.518 -22.854  1.00  0.00    -0.545 OA
ATOM      9  O   UNL     1      22.832   5.029 -22.565  1.00  0.00    -0.545 OA
ENDBRANCH   1   7
BRANCH   2  10
ATOM     10  O   UNL     1      22.762   4.239 -19.753  1.00  0.00    -0.507 OA
ATOM     11  H   UNL     1      22.118   4.127 -20.524  1.00  0.00     0.293 HD
ENDBRANCH   2  10
TORSDOF 2
ENDMDL
MODEL 9
REMARK VINA RESULT:    -4.393     17.496     19.083
REMARK INTER + INTRA:          -5.000
REMARK INTER:                  -4.748
REMARK INTRA:                  -0.252
REMARK UNBOUND:                -0.222
REMARK SMILES O=C([O-])c1ccccc1O
REMARK SMILES IDX 4 1 9 2 5 3 8 4 6 5 7 6 2 7 1 8 3 9 10 10
REMARK H PARENT 10 11
REMARK Flexibility Score: inf
ROOT
ATOM      1  C   UNL     1       8.652  -6.771  -7.522  1.00  0.00     0.039 A 
ATOM      2  C   UNL     1       9.895  -6.101  -7.645  1.00  0.00     0.124 A 
ATOM      3  C   UNL     1       8.126  -7.441  -8.643  1.00  0.00     0.014 A 
ATOM      4  C   UNL     1      10.603  -6.170  -8.852  1.00  0.00     0.047 A 
ATOM      5  C   UNL     1       8.836  -7.482  -9.847  1.00  0.00     0.001 A 
ATOM      6  C   UNL     1      10.077  -6.855  -9.947  1.00  0.00     0.004 A 
ENDROOT
BRANCH   1   7
ATOM      7  C   UNL     1       7.902  -6.827  -6.248  1.00  0.00     0.075 C 
ATOM      8  O   UNL     1       7.376  -7.908  -5.871  1.00  0.00    -0.545 OA
ATOM      9  O   UNL     1       7.823  -5.714  -5.420  1.00  0.00    -0.545 OA
ENDBRANCH   1   7
BRANCH   2  10
ATOM     10  O   UNL     1      10.440  -5.332  -6.614  1.00  0.00    -0.507 OA
ATOM     11  H   UNL     1      10.636  -4.345  -6.702  1.00  0.00     0.293 HD
ENDBRANCH   2  10
TORSDOF 2
ENDMDL
