MODEL 1
REMARK VINA RESULT:    -3.856      0.000      0.000
REMARK INTER + INTRA:          -6.865
REMARK INTER:                  -5.884
REMARK INTRA:                  -0.981
REMARK UNBOUND:                -0.981
REMARK SMILES CCCCCCCCCCC(=O)[O-]
REMARK SMILES IDX 7 1 8 2 9 3 10 4 11 5 12 6 13 7 6 8 5 9 4 10 3 11 2 12 1 13
REMARK H PARENT
REMARK Flexibility Score: inf
ROOT
ATOM      1  C   UNL     1       6.641 -22.580  48.042  1.00  0.00     0.000 C 
ENDROOT
BRANCH   1   2
ATOM      2  C   UNL     1       7.131 -21.250  48.636  1.00  0.00     0.000 C 
BRANCH   2   3
ATOM      3  C   UNL     1       6.436 -20.032  48.009  1.00  0.00     0.006 C 
BRANCH   3   4
ATOM      4  C   UNL     1       7.463 -18.997  47.541  1.00  0.00     0.053 C 
BRANCH   4   5
ATOM      5  C   UNL     1       7.065 -18.424  46.217  1.00  0.00     0.041 C 
ATOM      6  O   UNL     1       5.997 -18.796  45.662  1.00  0.00    -0.550 OA
ATOM      7  O   UNL     1       7.846 -17.444  45.620  1.00  0.00    -0.550 OA
ENDBRANCH   4   5
ENDBRANCH   3   4
ENDBRANCH   2   3
ENDBRANCH   1   2
BRANCH   1   8
ATOM      8  C   UNL     1       6.184 -22.441  46.580  1.00  0.00     0.000 C 
BRANCH   8   9
ATOM      9  C   UNL     1       4.736 -22.915  46.361  1.00  0.00    -0.000 C 
BRANCH   9  10
ATOM     10  C   UNL     1       3.765 -22.587  47.514  1.00  0.00    -0.000 C 
BRANCH  10  11
ATOM     11  C   UNL     1       2.564 -21.701  47.126  1.00  0.00    -0.000 C 
BRANCH  11  12
ATOM     12  C   UNL     1       2.927 -20.262  46.719  1.00  0.00    -0.003 C 
ATOM     13  C   UNL     1       2.562 -19.943  45.271  1.00  0.00     0.004 C 
ENDBRANCH  11  12
ENDBRANCH  10  11
ENDBRANCH   9  10
ENDBRANCH   8   9
ENDBRANCH   1   8
TORSDOF 9
ENDMDL
MODEL 2
REMARK VINA RESULT:    -3.802      2.085      4.317
REMARK INTER + INTRA:          -6.783
REMARK INTER:                  -5.638
REMARK INTRA:                  -1.144
REMARK UNBOUND:                -0.981
REMARK SMILES CCCCCCCCCCC(=O)[O-]
REMARK SMILES IDX 7 1 8 2 9 3 10 4 11 5 12 6 13 7 6 8 5 9 4 10 3 11 2 12 1 13
REMARK H PARENT
REMARK Flexibility Score: inf
ROOT
ATOM      1  C   UNL     1       4.785 -22.812  46.615  1.00  0.00     0.000 C 
ENDROOT
BRANCH   1   2
ATOM      2  C   UNL     1       4.009 -22.941  47.934  1.00  0.00     0.000 C 
BRANCH   2   3
ATOM      3  C   UNL     1       2.909 -21.878  48.078  1.00  0.00     0.006 C 
BRANCH   3   4
ATOM      4  C   UNL     1       3.188 -20.676  47.171  1.00  0.00     0.053 C 
BRANCH   4   5
ATOM      5  C   UNL     1       2.141 -20.568  46.107  1.00  0.00     0.041 C 
ATOM      6  O   UNL     1       2.301 -19.778  45.139  1.00  0.00    -0.550 OA
ATOM      7  O   UNL     1       1.013 -21.375  46.156  1.00  0.00    -0.550 OA
ENDBRANCH   4   5
ENDBRANCH   3   4
ENDBRANCH   2   3
ENDBRANCH   1   2
BRANCH   1   8
ATOM      8  C   UNL     1       6.308 -22.903  46.814  1.00  0.00     0.000 C 
BRANCH   8   9
ATOM      9  C   UNL     1       6.728 -22.723  48.284  1.00  0.00    -0.000 C 
BRANCH   9  10
ATOM     10  C   UNL     1       7.482 -21.412  48.587  1.00  0.00    -0.000 C 
BRANCH  10  11
ATOM     11  C   UNL     1       6.639 -20.127  48.461  1.00  0.00    -0.000 C 
BRANCH  11  12
ATOM     12  C   UNL     1       7.144 -19.124  47.408  1.00  0.00    -0.003 C 
ATOM     13  C   UNL     1       6.335 -19.163  46.114  1.00  0.00     0.004 C 
ENDBRANCH  11  12
ENDBRANCH  10  11
ENDBRANCH   9  10
ENDBRANCH   8   9
ENDBRANCH   1   8
TORSDOF 9
ENDMDL
MODEL 3
REMARK VINA RESULT:    -3.740     14.798     16.590
REMARK INTER + INTRA:          -6.688
REMARK INTER:                  -5.975
REMARK INTRA:                  -0.713
REMARK UNBOUND:                -0.981
REMARK SMILES CCCCCCCCCCC(=O)[O-]
REMARK SMILES IDX 7 1 8 2 9 3 10 4 11 5 12 6 13 7 6 8 5 9 4 10 3 11 2 12 1 13
REMARK H PARENT
REMARK Flexibility Score: inf
ROOT
ATOM      1  C   UNL     1      -3.050 -35.150  46.401  1.00  0.00     0.000 C 
ENDROOT
BRANCH   1   2
ATOM      2  C   UNL     1      -1.839 -34.393  45.837  1.00  0.00     0.000 C 
BRANCH   2   3
ATOM      3  C   UNL     1      -0.676 -35.328  45.473  1.00  0.00     0.006 C 
BRANCH   3   4
ATOM      4  C   UNL     1       0.388 -34.588  44.658  1.00  0.00     0.053 C 
BRANCH   4   5
ATOM      5  C   UNL     1       1.602 -34.328  45.493  1.00  0.00     0.041 C 
ATOM      6  O   UNL     1       2.752 -34.490  45.006  1.00  0.00    -0.550 OA
ATOM      7  O   UNL     1       1.465 -33.861  46.793  1.00  0.00    -0.550 OA
ENDBRANCH   4   5
ENDBRANCH   3   4
ENDBRANCH   2   3
ENDBRANCH   1   2
BRANCH   1   8
ATOM      8  C   UNL     1      -3.451 -36.356  45.533  1.00  0.00     0.000 C 
BRANCH   8   9
ATOM      9  C   UNL     1      -4.940 -36.341  45.145  1.00  0.00    -0.000 C 
BRANCH   9  10
ATOM     10  C   UNL     1      -5.339 -35.238  44.144  1.00  0.00    -0.000 C 
BRANCH  10  11
ATOM     11  C   UNL     1      -6.249 -34.132  44.716  1.00  0.00    -0.000 C 
BRANCH  11  12
ATOM     12  C   UNL     1      -6.838 -34.435  46.106  1.00  0.00    -0.003 C 
ATOM     13  C   UNL     1      -6.559 -33.331  47.123  1.00  0.00     0.004 C 
ENDBRANCH  11  12
ENDBRANCH  10  11
ENDBRANCH   9  10
ENDBRANCH   8   9
ENDBRANCH   1   8
TORSDOF 9
ENDMDL
MODEL 4
REMARK VINA RESULT:    -3.657     15.000     16.726
REMARK INTER + INTRA:          -6.561
REMARK INTER:                  -5.586
REMARK INTRA:                  -0.976
REMARK UNBOUND:                -0.981
REMARK SMILES CCCCCCCCCCC(=O)[O-]
REMARK SMILES IDX 7 1 8 2 9 3 10 4 11 5 12 6 13 7 6 8 5 9 4 10 3 11 2 12 1 13
REMARK H PARENT
REMARK Flexibility Score: inf
ROOT
ATOM      1  C   UNL     1      -3.428 -35.361  47.480  1.00  0.00     0.000 C 
ENDROOT
BRANCH   1   2
ATOM      2  C   UNL     1      -2.565 -34.154  47.081  1.00  0.00     0.000 C 
BRANCH   2   3
ATOM      3  C   UNL     1      -1.926 -34.320  45.694  1.00  0.00     0.006 C 
BRANCH   3   4
ATOM      4  C   UNL     1      -0.412 -34.098  45.758  1.00  0.00     0.053 C 
BRANCH   4   5
ATOM      5  C   UNL     1       0.283 -34.921  44.720  1.00  0.00     0.041 C 
ATOM      6  O   UNL     1      -0.177 -36.047  44.391  1.00  0.00    -0.550 OA
ATOM      7  O   UNL     1       1.411 -34.425  44.079  1.00  0.00    -0.550 OA
ENDBRANCH   4   5
ENDBRANCH   3   4
ENDBRANCH   2   3
ENDBRANCH   1   2
BRANCH   1   8
ATOM      8  C   UNL     1      -4.777 -34.946  48.091  1.00  0.00     0.000 C 
BRANCH   8   9
ATOM      9  C   UNL     1      -5.157 -33.490  47.764  1.00  0.00    -0.000 C 
BRANCH   9  10
ATOM     10  C   UNL     1      -6.504 -33.320  47.034  1.00  0.00    -0.000 C 
BRANCH  10  11
ATOM     11  C   UNL     1      -6.823 -34.404  45.985  1.00  0.00    -0.000 C 
BRANCH  11  12
ATOM     12  C   UNL     1      -6.113 -34.221  44.631  1.00  0.00    -0.003 C 
ATOM     13  C   UNL     1      -5.300 -35.445  44.216  1.00  0.00     0.004 C 
ENDBRANCH  11  12
ENDBRANCH  10  11
ENDBRANCH   9  10
ENDBRANCH   8   9
ENDBRANCH   1   8
TORSDOF 9
ENDMDL
MODEL 5
REMARK VINA RESULT:    -3.650     15.290     17.554
REMARK INTER + INTRA:          -6.551
REMARK INTER:                  -5.936
REMARK INTRA:                  -0.615
REMARK UNBOUND:                -0.981
REMARK SMILES CCCCCCCCCCC(=O)[O-]
REMARK SMILES IDX 7 1 8 2 9 3 10 4 11 5 12 6 13 7 6 8 5 9 4 10 3 11 2 12 1 13
REMARK H PARENT
REMARK Flexibility Score: inf
ROOT
ATOM      1  C   UNL     1      -4.864 -36.340  45.130  1.00  0.00     0.000 C 
ENDROOT
BRANCH   1   2
ATOM      2  C   UNL     1      -5.113 -34.935  44.562  1.00  0.00     0.000 C 
BRANCH   2   3
ATOM      3  C   UNL     1      -6.498 -34.385  44.934  1.00  0.00     0.006 C 
BRANCH   3   4
ATOM      4  C   UNL     1      -6.814 -34.649  46.410  1.00  0.00     0.053 C 
BRANCH   4   5
ATOM      5  C   UNL     1      -6.218 -33.581  47.272  1.00  0.00     0.041 C 
ATOM      6  O   UNL     1      -6.824 -32.490  47.439  1.00  0.00    -0.550 OA
ATOM      7  O   UNL     1      -5.018 -33.809  47.933  1.00  0.00    -0.550 OA
ENDBRANCH   4   5
ENDBRANCH   3   4
ENDBRANCH   2   3
ENDBRANCH   1   2
BRANCH   1   8
ATOM      8  C   UNL     1      -3.512 -36.454  45.855  1.00  0.00     0.000 C 
BRANCH   8   9
ATOM      9  C   UNL     1      -2.663 -35.175  45.735  1.00  0.00    -0.000 C 
BRANCH   9  10
ATOM     10  C   UNL     1      -1.227 -35.295  46.285  1.00  0.00    -0.000 C 
BRANCH  10  11
ATOM     11  C   UNL     1      -0.209 -34.309  45.679  1.00  0.00    -0.000 C 
BRANCH  11  12
ATOM     12  C   UNL     1       0.579 -34.854  44.474  1.00  0.00    -0.003 C 
ATOM     13  C   UNL     1       2.055 -34.462  44.503  1.00  0.00     0.004 C 
ENDBRANCH  11  12
ENDBRANCH  10  11
ENDBRANCH   9  10
ENDBRANCH   8   9
ENDBRANCH   1   8
TORSDOF 9
ENDMDL
MODEL 6
REMARK VINA RESULT:    -3.646     10.580     13.109
REMARK INTER + INTRA:          -6.545
REMARK INTER:                  -5.856
REMARK INTRA:                  -0.689
REMARK UNBOUND:                -0.981
REMARK SMILES CCCCCCCCCCC(=O)[O-]
REMARK SMILES IDX 7 1 8 2 9 3 10 4 11 5 12 6 13 7 6 8 5 9 4 10 3 11 2 12 1 13
REMARK H PARENT
REMARK Flexibility Score: inf
ROOT
ATOM      1  C   UNL     1      -8.075 -24.876  48.085  1.00  0.00     0.000 C 
ENDROOT
BRANCH   1   2
ATOM      2  C   UNL     1      -6.947 -24.986  49.122  1.00  0.00     0.000 C 
BRANCH   2   3
ATOM      3  C   UNL     1      -5.685 -25.651  48.554  1.00  0.00     0.006 C 
BRANCH   3   4
ATOM      4  C   UNL     1      -5.115 -24.836  47.389  1.00  0.00     0.053 C 
BRANCH   4   5
ATOM      5  C   UNL     1      -4.243 -23.732  47.898  1.00  0.00     0.041 C 
ATOM      6  O   UNL     1      -3.965 -23.659  49.125  1.00  0.00    -0.550 OA
ATOM      7  O   UNL     1      -3.695 -22.813  47.013  1.00  0.00    -0.550 OA
ENDBRANCH   4   5
ENDBRANCH   3   4
ENDBRANCH   2   3
ENDBRANCH   1   2
BRANCH   1   8
ATOM      8  C   UNL     1      -9.452 -24.643  48.730  1.00  0.00     0.000 C 
BRANCH   8   9
ATOM      9  C   UNL     1     -10.011 -23.237  48.449  1.00  0.00    -0.000 C 
BRANCH   9  10
ATOM     10  C   UNL     1      -9.627 -22.649  47.076  1.00  0.00    -0.000 C 
BRANCH  10  11
ATOM     11  C   UNL     1      -8.723 -21.401  47.127  1.00  0.00    -0.000 C 
BRANCH  11  12
ATOM     12  C   UNL     1      -7.239 -21.664  46.815  1.00  0.00    -0.003 C 
ATOM     13  C   UNL     1      -6.406 -20.386  46.767  1.00  0.00     0.004 C 
ENDBRANCH  11  12
ENDBRANCH  10  11
ENDBRANCH   9  10
ENDBRANCH   8   9
ENDBRANCH   1   8
TORSDOF 9
ENDMDL
MODEL 7
REMARK VINA RESULT:    -3.582     12.084     14.696
REMARK INTER + INTRA:          -6.447
REMARK INTER:                  -5.661
REMARK INTRA:                  -0.786
REMARK UNBOUND:                -0.981
REMARK SMILES CCCCCCCCCCC(=O)[O-]
REMARK SMILES IDX 7 1 8 2 9 3 10 4 11 5 12 6 13 7 6 8 5 9 4 10 3 11 2 12 1 13
REMARK H PARENT
REMARK Flexibility Score: inf
ROOT
ATOM      1  C   UNL     1      -7.889 -23.644  47.216  1.00  0.00     0.000 C 
ENDROOT
BRANCH   1   2
ATOM      2  C   UNL     1      -7.857 -22.123  47.003  1.00  0.00     0.000 C 
BRANCH   2   3
ATOM      3  C   UNL     1      -9.195 -21.451  47.347  1.00  0.00     0.006 C 
BRANCH   3   4
ATOM      4  C   UNL     1     -10.374 -22.338  46.939  1.00  0.00     0.053 C 
BRANCH   4   5
ATOM      5  C   UNL     1     -11.485 -22.224  47.935  1.00  0.00     0.041 C 
ATOM      6  O   UNL     1     -12.114 -21.140  48.061  1.00  0.00    -0.550 OA
ATOM      7  O   UNL     1     -11.860 -23.329  48.688  1.00  0.00    -0.550 OA
ENDBRANCH   4   5
ENDBRANCH   3   4
ENDBRANCH   2   3
ENDBRANCH   1   2
BRANCH   1   8
ATOM      8  C   UNL     1      -7.835 -24.034  48.704  1.00  0.00     0.000 C 
BRANCH   8   9
ATOM      9  C   UNL     1      -7.110 -25.370  48.943  1.00  0.00    -0.000 C 
BRANCH   9  10
ATOM     10  C   UNL     1      -6.018 -25.710  47.908  1.00  0.00    -0.000 C 
BRANCH  10  11
ATOM     11  C   UNL     1      -4.570 -25.487  48.388  1.00  0.00    -0.000 C 
BRANCH  11  12
ATOM     12  C   UNL     1      -4.161 -24.011  48.541  1.00  0.00    -0.003 C 
ATOM     13  C   UNL     1      -4.192 -23.245  47.220  1.00  0.00     0.004 C 
ENDBRANCH  11  12
ENDBRANCH  10  11
ENDBRANCH   9  10
ENDBRANCH   8   9
ENDBRANCH   1   8
TORSDOF 9
ENDMDL
MODEL 8
REMARK VINA RESULT:    -3.503     15.303     17.245
REMARK INTER + INTRA:          -6.327
REMARK INTER:                  -5.796
REMARK INTRA:                  -0.531
REMARK UNBOUND:                -0.981
REMARK SMILES CCCCCCCCCCC(=O)[O-]
REMARK SMILES IDX 7 1 8 2 9 3 10 4 11 5 12 6 13 7 6 8 5 9 4 10 3 11 2 12 1 13
REMARK H PARENT
REMARK Flexibility Score: inf
ROOT
ATOM      1  C   UNL     1      -2.685 -34.253  46.129  1.00  0.00     0.000 C 
ENDROOT
BRANCH   1   2
ATOM      2  C   UNL     1      -3.168 -35.657  46.521  1.00  0.00     0.000 C 
BRANCH   2   3
ATOM      3  C   UNL     1      -4.658 -35.874  46.221  1.00  0.00     0.006 C 
BRANCH   3   4
ATOM      4  C   UNL     1      -4.999 -35.436  44.793  1.00  0.00     0.053 C 
BRANCH   4   5
ATOM      5  C   UNL     1      -6.070 -34.391  44.807  1.00  0.00     0.041 C 
ATOM      6  O   UNL     1      -6.372 -33.780  43.748  1.00  0.00    -0.550 OA
ATOM      7  O   UNL     1      -6.769 -34.126  45.977  1.00  0.00    -0.550 OA
ENDBRANCH   4   5
ENDBRANCH   3   4
ENDBRANCH   2   3
ENDBRANCH   1   2
BRANCH   1   8
ATOM      8  C   UNL     1      -1.175 -34.205  45.841  1.00  0.00     0.000 C 
BRANCH   8   9
ATOM      9  C   UNL     1      -0.534 -35.604  45.789  1.00  0.00    -0.000 C 
BRANCH   9  10
ATOM     10  C   UNL     1       0.512 -35.798  44.672  1.00  0.00    -0.000 C 
BRANCH  10  11
ATOM     11  C   UNL     1       1.374 -34.558  44.360  1.00  0.00    -0.000 C 
BRANCH  11  12
ATOM     12  C   UNL     1       2.730 -34.515  45.088  1.00  0.00    -0.003 C 
ATOM     13  C   UNL     1       3.061 -35.821  45.807  1.00  0.00     0.004 C 
ENDBRANCH  11  12
ENDBRANCH  10  11
ENDBRANCH   9  10
ENDBRANCH   8   9
ENDBRANCH   1   8
TORSDOF 9
ENDMDL
MODEL 9
REMARK VINA RESULT:    -3.470     15.318     17.138
REMARK INTER + INTRA:          -6.277
REMARK INTER:                  -5.821
REMARK INTRA:                  -0.456
REMARK UNBOUND:                -0.981
REMARK SMILES CCCCCCCCCCC(=O)[O-]
REMARK SMILES IDX 7 1 8 2 9 3 10 4 11 5 12 6 13 7 6 8 5 9 4 10 3 11 2 12 1 13
REMARK H PARENT
REMARK Flexibility Score: inf
ROOT
ATOM      1  C   UNL     1      -2.922 -34.324  46.355  1.00  0.00     0.000 C 
ENDROOT
BRANCH   1   2
ATOM      2  C   UNL     1      -4.161 -34.102  47.234  1.00  0.00     0.000 C 
BRANCH   2   3
ATOM      3  C   UNL     1      -5.310 -35.060  46.886  1.00  0.00     0.006 C 
BRANCH   3   4
ATOM      4  C   UNL     1      -6.372 -34.356  46.035  1.00  0.00     0.053 C 
BRANCH   4   5
ATOM      5  C   UNL     1      -6.099 -34.565  44.579  1.00  0.00     0.041 C 
ATOM      6  O   UNL     1      -6.454 -33.697  43.738  1.00  0.00    -0.550 OA
ATOM      7  O   UNL     1      -5.410 -35.693  44.154  1.00  0.00    -0.550 OA
ENDBRANCH   4   5
ENDBRANCH   3   4
ENDBRANCH   2   3
ENDBRANCH   1   2
BRANCH   1   8
ATOM      8  C   UNL     1      -1.990 -35.414  46.911  1.00  0.00     0.000 C 
BRANCH   8   9
ATOM      9  C   UNL     1      -0.510 -34.989  46.912  1.00  0.00    -0.000 C 
BRANCH   9  10
ATOM     10  C   UNL     1      -0.092 -34.092  45.729  1.00  0.00    -0.000 C 
BRANCH  10  11
ATOM     11  C   UNL     1       0.595 -34.827  44.561  1.00  0.00    -0.000 C 
BRANCH  11  12
ATOM     12  C   UNL     1       2.063 -34.429  44.321  1.00  0.00    -0.003 C 
ATOM     13  C   UNL     1       2.968 -34.752  45.509  1.00  0.00     0.004 C 
ENDBRANCH  11  12
ENDBRANCH  10  11
ENDBRANCH   9  10
ENDBRANCH   8   9
ENDBRANCH   1   8
TORSDOF 9
ENDMDL
