MODEL 1
REMARK VINA RESULT:    -3.330      0.000      0.000
REMARK INTER + INTRA:         -14.570
REMARK INTER:                  -8.391
REMARK INTRA:                  -6.179
REMARK UNBOUND:                -6.179
REMARK SMILES CCCCCCCCCCCCCCCCCCCCCCCCCCCC(=O)[O-]
REMARK SMILES IDX 15 1 16 2 17 3 18 4 19 5 20 6 21 7 22 8 23 9 24 10 25 11
REMARK SMILES IDX 26 12 27 13 28 14 29 15 30 16 14 17 13 18 12 19 11 20 10 21
REMARK SMILES IDX 9 22 8 23 7 24 6 25 5 26 4 27 3 28 2 29 1 30
REMARK H PARENT
REMARK Flexibility Score: inf
ROOT
ATOM      1  C   UNL     1      76.063  82.365  76.746  1.00  0.00     0.000 C 
ENDROOT
BRANCH   1   2
ATOM      2  C   UNL     1      75.340  83.377  75.836  1.00  0.00     0.000 C 
BRANCH   2   3
ATOM      3  C   UNL     1      73.802  83.257  75.873  1.00  0.00     0.000 C 
BRANCH   3   4
ATOM      4  C   UNL     1      73.177  83.187  74.468  1.00  0.00     0.000 C 
BRANCH   4   5
ATOM      5  C   UNL     1      71.958  82.240  74.419  1.00  0.00     0.000 C 
BRANCH   5   6
ATOM      6  C   UNL     1      71.584  81.636  75.787  1.00  0.00     0.000 C 
BRANCH   6   7
ATOM      7  C   UNL     1      72.012  80.173  75.986  1.00  0.00     0.000 C 
BRANCH   7   8
ATOM      8  C   UNL     1      72.794  79.610  74.789  1.00  0.00     0.000 C 
BRANCH   8   9
ATOM      9  C   UNL     1      73.915  78.676  75.260  1.00  0.00     0.000 C 
BRANCH   9  10
ATOM     10  C   UNL     1      75.292  79.216  74.850  1.00  0.00     0.000 C 
BRANCH  10  11
ATOM     11  C   UNL     1      75.203  80.299  73.762  1.00  0.00     0.000 C 
BRANCH  11  12
ATOM     12  C   UNL     1      76.500  80.422  72.943  1.00  0.00     0.006 C 
BRANCH  12  13
ATOM     13  C   UNL     1      77.683  80.891  73.800  1.00  0.00     0.053 C 
BRANCH  13  14
ATOM     14  C   UNL     1      78.282  82.161  73.275  1.00  0.00     0.041 C 
ATOM     15  O   UNL     1      78.278  83.203  73.983  1.00  0.00    -0.550 OA
ATOM     16  O   UNL     1      78.834  82.196  72.000  1.00  0.00    -0.550 OA
ENDBRANCH  13  14
ENDBRANCH  12  13
ENDBRANCH  11  12
ENDBRANCH  10  11
ENDBRANCH   9  10
ENDBRANCH   8   9
ENDBRANCH   7   8
ENDBRANCH   6   7
ENDBRANCH   5   6
ENDBRANCH   4   5
ENDBRANCH   3   4
ENDBRANCH   2   3
ENDBRANCH   1   2
BRANCH   1  17
ATOM     17  C   UNL     1      75.137  81.532  77.652  1.00  0.00     0.000 C 
BRANCH  17  18
ATOM     18  C   UNL     1      75.571  81.444  79.129  1.00  0.00     0.000 C 
BRANCH  18  19
ATOM     19  C   UNL     1      75.355  80.071  79.792  1.00  0.00     0.000 C 
BRANCH  19  20
ATOM     20  C   UNL     1      74.461  79.139  78.962  1.00  0.00     0.000 C 
BRANCH  20  21
ATOM     21  C   UNL     1      75.180  77.817  78.654  1.00  0.00     0.000 C 
BRANCH  21  22
ATOM     22  C   UNL     1      76.710  77.932  78.760  1.00  0.00    -0.000 C 
BRANCH  22  23
ATOM     23  C   UNL     1      77.395  77.996  77.385  1.00  0.00    -0.000 C 
BRANCH  23  24
ATOM     24  C   UNL     1      78.309  79.225  77.229  1.00  0.00    -0.000 C 
BRANCH  24  25
ATOM     25  C   UNL     1      78.844  79.808  78.550  1.00  0.00    -0.000 C 
BRANCH  25  26
ATOM     26  C   UNL     1      79.271  81.283  78.423  1.00  0.00    -0.000 C 
BRANCH  26  27
ATOM     27  C   UNL     1      79.515  81.706  76.965  1.00  0.00    -0.000 C 
BRANCH  27  28
ATOM     28  C   UNL     1      80.979  82.102  76.704  1.00  0.00    -0.000 C 
BRANCH  28  29
ATOM     29  C   UNL     1      81.969  81.002  77.118  1.00  0.00    -0.003 C 
ATOM     30  C   UNL     1      82.010  79.837  76.130  1.00  0.00     0.004 C 
ENDBRANCH  28  29
ENDBRANCH  27  28
ENDBRANCH  26  27
ENDBRANCH  25  26
ENDBRANCH  24  25
ENDBRANCH  23  24
ENDBRANCH  22  23
ENDBRANCH  21  22
ENDBRANCH  20  21
ENDBRANCH  19  20
ENDBRANCH  18  19
ENDBRANCH  17  18
ENDBRANCH   1  17
TORSDOF 26
ENDMDL
MODEL 2
REMARK VINA RESULT:    -3.078      2.563      6.282
REMARK INTER + INTRA:         -13.934
REMARK INTER:                  -8.309
REMARK INTRA:                  -5.625
REMARK UNBOUND:                -6.179
REMARK SMILES CCCCCCCCCCCCCCCCCCCCCCCCCCCC(=O)[O-]
REMARK SMILES IDX 15 1 16 2 17 3 18 4 19 5 20 6 21 7 22 8 23 9 24 10 25 11
REMARK SMILES IDX 26 12 27 13 28 14 29 15 30 16 14 17 13 18 12 19 11 20 10 21
REMARK SMILES IDX 9 22 8 23 7 24 6 25 5 26 4 27 3 28 2 29 1 30
REMARK H PARENT
REMARK Flexibility Score: inf
ROOT
ATOM      1  C   UNL     1      76.955  80.712  78.835  1.00  0.00     0.000 C 
ENDROOT
BRANCH   1   2
ATOM      2  C   UNL     1      78.088  81.729  78.605  1.00  0.00     0.000 C 
BRANCH   2   3
ATOM      3  C   UNL     1      79.304  81.146  77.854  1.00  0.00     0.000 C 
BRANCH   3   4
ATOM      4  C   UNL     1      79.894  82.128  76.825  1.00  0.00     0.000 C 
BRANCH   4   5
ATOM      5  C   UNL     1      81.363  81.796  76.479  1.00  0.00     0.000 C 
BRANCH   5   6
ATOM      6  C   UNL     1      81.662  81.800  74.968  1.00  0.00     0.000 C 
BRANCH   6   7
ATOM      7  C   UNL     1      80.419  81.817  74.063  1.00  0.00     0.000 C 
BRANCH   7   8
ATOM      8  C   UNL     1      80.078  80.433  73.488  1.00  0.00     0.000 C 
BRANCH   8   9
ATOM      9  C   UNL     1      79.233  80.564  72.216  1.00  0.00     0.000 C 
BRANCH   9  10
ATOM     10  C   UNL     1      79.143  82.028  71.762  1.00  0.00     0.000 C 
BRANCH  10  11
ATOM     11  C   UNL     1      79.850  82.275  70.418  1.00  0.00     0.000 C 
BRANCH  11  12
ATOM     12  C   UNL     1      80.551  81.015  69.879  1.00  0.00     0.006 C 
BRANCH  12  13
ATOM     13  C   UNL     1      81.882  81.344  69.190  1.00  0.00     0.053 C 
BRANCH  13  14
ATOM     14  C   UNL     1      83.041  81.224  70.133  1.00  0.00     0.041 C 
ATOM     15  O   UNL     1      84.190  81.595  69.775  1.00  0.00    -0.550 OA
ATOM     16  O   UNL     1      82.854  80.692  71.403  1.00  0.00    -0.550 OA
ENDBRANCH  13  14
ENDBRANCH  12  13
ENDBRANCH  11  12
ENDBRANCH  10  11
ENDBRANCH   9  10
ENDBRANCH   8   9
ENDBRANCH   7   8
ENDBRANCH   6   7
ENDBRANCH   5   6
ENDBRANCH   4   5
ENDBRANCH   3   4
ENDBRANCH   2   3
ENDBRANCH   1   2
BRANCH   1  17
ATOM     17  C   UNL     1      75.537  81.251  78.565  1.00  0.00     0.000 C 
BRANCH  17  18
ATOM     18  C   UNL     1      74.487  80.180  78.204  1.00  0.00     0.000 C 
BRANCH  18  19
ATOM     19  C   UNL     1      73.546  80.554  77.044  1.00  0.00     0.000 C 
BRANCH  19  20
ATOM     20  C   UNL     1      73.313  82.067  76.926  1.00  0.00     0.000 C 
BRANCH  20  21
ATOM     21  C   UNL     1      72.965  82.460  75.482  1.00  0.00     0.000 C 
BRANCH  21  22
ATOM     22  C   UNL     1      74.142  83.121  74.745  1.00  0.00    -0.000 C 
BRANCH  22  23
ATOM     23  C   UNL     1      75.147  83.780  75.706  1.00  0.00    -0.000 C 
BRANCH  23  24
ATOM     24  C   UNL     1      76.573  83.219  75.557  1.00  0.00    -0.000 C 
BRANCH  24  25
ATOM     25  C   UNL     1      76.727  82.109  74.501  1.00  0.00    -0.000 C 
BRANCH  25  26
ATOM     26  C   UNL     1      76.829  80.703  75.123  1.00  0.00    -0.000 C 
BRANCH  26  27
ATOM     27  C   UNL     1      75.941  79.672  74.408  1.00  0.00    -0.000 C 
BRANCH  27  28
ATOM     28  C   UNL     1      75.571  80.103  72.979  1.00  0.00    -0.000 C 
BRANCH  28  29
ATOM     29  C   UNL     1      74.080  79.893  72.669  1.00  0.00    -0.003 C 
ATOM     30  C   UNL     1      73.369  79.038  73.718  1.00  0.00     0.004 C 
ENDBRANCH  28  29
ENDBRANCH  27  28
ENDBRANCH  26  27
ENDBRANCH  25  26
ENDBRANCH  24  25
ENDBRANCH  23  24
ENDBRANCH  22  23
ENDBRANCH  21  22
ENDBRANCH  20  21
ENDBRANCH  19  20
ENDBRANCH  18  19
ENDBRANCH  17  18
ENDBRANCH   1  17
TORSDOF 26
ENDMDL
MODEL 3
REMARK VINA RESULT:    -3.071      2.507      5.604
REMARK INTER + INTRA:         -13.917
REMARK INTER:                  -7.825
REMARK INTRA:                  -6.092
REMARK UNBOUND:                -6.179
REMARK SMILES CCCCCCCCCCCCCCCCCCCCCCCCCCCC(=O)[O-]
REMARK SMILES IDX 15 1 16 2 17 3 18 4 19 5 20 6 21 7 22 8 23 9 24 10 25 11
REMARK SMILES IDX 26 12 27 13 28 14 29 15 30 16 14 17 13 18 12 19 11 20 10 21
REMARK SMILES IDX 9 22 8 23 7 24 6 25 5 26 4 27 3 28 2 29 1 30
REMARK H PARENT
REMARK Flexibility Score: inf
ROOT
ATOM      1  C   UNL     1      76.502  77.734  76.483  1.00  0.00     0.000 C 
ENDROOT
BRANCH   1   2
ATOM      2  C   UNL     1      75.156  78.033  77.170  1.00  0.00     0.000 C 
BRANCH   2   3
ATOM      3  C   UNL     1      75.255  79.078  78.302  1.00  0.00     0.000 C 
BRANCH   3   4
ATOM      4  C   UNL     1      76.690  79.243  78.834  1.00  0.00     0.000 C 
BRANCH   4   5
ATOM      5  C   UNL     1      77.165  80.712  78.785  1.00  0.00     0.000 C 
BRANCH   5   6
ATOM      6  C   UNL     1      76.133  81.679  78.172  1.00  0.00     0.000 C 
BRANCH   6   7
ATOM      7  C   UNL     1      76.441  82.126  76.734  1.00  0.00     0.000 C 
BRANCH   7   8
ATOM      8  C   UNL     1      75.687  83.402  76.330  1.00  0.00     0.000 C 
BRANCH   8   9
ATOM      9  C   UNL     1      74.998  83.221  74.972  1.00  0.00     0.000 C 
BRANCH   9  10
ATOM     10  C   UNL     1      74.864  81.734  74.614  1.00  0.00     0.000 C 
BRANCH  10  11
ATOM     11  C   UNL     1      73.415  81.332  74.291  1.00  0.00     0.000 C 
BRANCH  11  12
ATOM     12  C   UNL     1      72.848  80.309  75.290  1.00  0.00     0.006 C 
BRANCH  12  13
ATOM     13  C   UNL     1      72.701  80.896  76.700  1.00  0.00     0.053 C 
BRANCH  13  14
ATOM     14  C   UNL     1      71.557  81.862  76.784  1.00  0.00     0.041 C 
ATOM     15  O   UNL     1      70.455  81.587  76.241  1.00  0.00    -0.550 OA
ATOM     16  O   UNL     1      71.714  83.070  77.452  1.00  0.00    -0.550 OA
ENDBRANCH  13  14
ENDBRANCH  12  13
ENDBRANCH  11  12
ENDBRANCH  10  11
ENDBRANCH   9  10
ENDBRANCH   8   9
ENDBRANCH   7   8
ENDBRANCH   6   7
ENDBRANCH   5   6
ENDBRANCH   4   5
ENDBRANCH   3   4
ENDBRANCH   2   3
ENDBRANCH   1   2
BRANCH   1  17
ATOM     17  C   UNL     1      76.890  78.718  75.364  1.00  0.00     0.000 C 
BRANCH  17  18
ATOM     18  C   UNL     1      78.339  79.243  75.426  1.00  0.00     0.000 C 
BRANCH  18  19
ATOM     19  C   UNL     1      79.302  78.399  76.282  1.00  0.00     0.000 C 
BRANCH  19  20
ATOM     20  C   UNL     1      80.647  79.097  76.533  1.00  0.00     0.000 C 
BRANCH  20  21
ATOM     21  C   UNL     1      80.693  79.717  77.937  1.00  0.00     0.000 C 
BRANCH  21  22
ATOM     22  C   UNL     1      81.105  81.198  77.921  1.00  0.00    -0.000 C 
BRANCH  22  23
ATOM     23  C   UNL     1      80.121  82.077  77.130  1.00  0.00    -0.000 C 
BRANCH  23  24
ATOM     24  C   UNL     1      80.792  82.824  75.963  1.00  0.00    -0.000 C 
BRANCH  24  25
ATOM     25  C   UNL     1      80.303  82.415  74.562  1.00  0.00    -0.000 C 
BRANCH  25  26
ATOM     26  C   UNL     1      78.898  82.956  74.238  1.00  0.00    -0.000 C 
BRANCH  26  27
ATOM     27  C   UNL     1      78.158  82.102  73.196  1.00  0.00    -0.000 C 
BRANCH  27  28
ATOM     28  C   UNL     1      79.099  81.147  72.442  1.00  0.00    -0.000 C 
BRANCH  28  29
ATOM     29  C   UNL     1      78.336  80.099  71.617  1.00  0.00    -0.003 C 
ATOM     30  C   UNL     1      76.830  80.122  71.873  1.00  0.00     0.004 C 
ENDBRANCH  28  29
ENDBRANCH  27  28
ENDBRANCH  26  27
ENDBRANCH  25  26
ENDBRANCH  24  25
ENDBRANCH  23  24
ENDBRANCH  22  23
ENDBRANCH  21  22
ENDBRANCH  20  21
ENDBRANCH  19  20
ENDBRANCH  18  19
ENDBRANCH  17  18
ENDBRANCH   1  17
TORSDOF 26
ENDMDL
MODEL 4
REMARK VINA RESULT:    -3.019      2.547      4.758
REMARK INTER + INTRA:         -13.786
REMARK INTER:                  -8.529
REMARK INTRA:                  -5.257
REMARK UNBOUND:                -6.179
REMARK SMILES CCCCCCCCCCCCCCCCCCCCCCCCCCCC(=O)[O-]
REMARK SMILES IDX 15 1 16 2 17 3 18 4 19 5 20 6 21 7 22 8 23 9 24 10 25 11
REMARK SMILES IDX 26 12 27 13 28 14 29 15 30 16 14 17 13 18 12 19 11 20 10 21
REMARK SMILES IDX 9 22 8 23 7 24 6 25 5 26 4 27 3 28 2 29 1 30
REMARK H PARENT
REMARK Flexibility Score: inf
ROOT
ATOM      1  C   UNL     1      75.256  79.840  76.067  1.00  0.00     0.000 C 
ENDROOT
BRANCH   1   2
ATOM      2  C   UNL     1      74.613  79.421  74.731  1.00  0.00     0.000 C 
BRANCH   2   3
ATOM      3  C   UNL     1      75.629  79.244  73.582  1.00  0.00     0.000 C 
BRANCH   3   4
ATOM      4  C   UNL     1      76.141  80.587  73.030  1.00  0.00     0.000 C 
BRANCH   4   5
ATOM      5  C   UNL     1      77.673  80.726  73.165  1.00  0.00     0.000 C 
BRANCH   5   6
ATOM      6  C   UNL     1      78.133  82.127  73.612  1.00  0.00     0.000 C 
BRANCH   6   7
ATOM      7  C   UNL     1      77.632  82.560  74.999  1.00  0.00     0.000 C 
BRANCH   7   8
ATOM      8  C   UNL     1      76.786  83.842  74.956  1.00  0.00     0.000 C 
BRANCH   8   9
ATOM      9  C   UNL     1      75.429  83.622  75.635  1.00  0.00     0.000 C 
BRANCH   9  10
ATOM     10  C   UNL     1      74.367  83.183  74.616  1.00  0.00     0.000 C 
BRANCH  10  11
ATOM     11  C   UNL     1      73.005  82.895  75.269  1.00  0.00     0.000 C 
BRANCH  11  12
ATOM     12  C   UNL     1      71.965  82.372  74.262  1.00  0.00     0.006 C 
BRANCH  12  13
ATOM     13  C   UNL     1      70.635  82.012  74.937  1.00  0.00     0.053 C 
BRANCH  13  14
ATOM     14  C   UNL     1      70.822  81.008  76.034  1.00  0.00     0.041 C 
ATOM     15  O   UNL     1      70.684  81.352  77.238  1.00  0.00    -0.550 OA
ATOM     16  O   UNL     1      71.160  79.696  75.727  1.00  0.00    -0.550 OA
ENDBRANCH  13  14
ENDBRANCH  12  13
ENDBRANCH  11  12
ENDBRANCH  10  11
ENDBRANCH   9  10
ENDBRANCH   8   9
ENDBRANCH   7   8
ENDBRANCH   6   7
ENDBRANCH   5   6
ENDBRANCH   4   5
ENDBRANCH   3   4
ENDBRANCH   2   3
ENDBRANCH   1   2
BRANCH   1  17
ATOM     17  C   UNL     1      74.257  80.138  77.201  1.00  0.00     0.000 C 
BRANCH  17  18
ATOM     18  C   UNL     1      74.685  81.256  78.174  1.00  0.00     0.000 C 
BRANCH  18  19
ATOM     19  C   UNL     1      75.974  80.972  78.967  1.00  0.00     0.000 C 
BRANCH  19  20
ATOM     20  C   UNL     1      77.137  81.893  78.569  1.00  0.00     0.000 C 
BRANCH  20  21
ATOM     21  C   UNL     1      78.464  81.120  78.535  1.00  0.00     0.000 C 
BRANCH  21  22
ATOM     22  C   UNL     1      78.275  79.604  78.706  1.00  0.00    -0.000 C 
BRANCH  22  23
ATOM     23  C   UNL     1      79.447  78.792  78.128  1.00  0.00    -0.000 C 
BRANCH  23  24
ATOM     24  C   UNL     1      79.285  78.495  76.626  1.00  0.00    -0.000 C 
BRANCH  24  25
ATOM     25  C   UNL     1      79.860  79.570  75.686  1.00  0.00    -0.000 C 
BRANCH  25  26
ATOM     26  C   UNL     1      81.345  79.874  75.962  1.00  0.00    -0.000 C 
BRANCH  26  27
ATOM     27  C   UNL     1      81.570  81.298  76.493  1.00  0.00    -0.000 C 
BRANCH  27  28
ATOM     28  C   UNL     1      82.776  81.388  77.444  1.00  0.00    -0.000 C 
BRANCH  28  29
ATOM     29  C   UNL     1      82.682  80.391  78.609  1.00  0.00    -0.003 C 
ATOM     30  C   UNL     1      81.973  80.971  79.833  1.00  0.00     0.004 C 
ENDBRANCH  28  29
ENDBRANCH  27  28
ENDBRANCH  26  27
ENDBRANCH  25  26
ENDBRANCH  24  25
ENDBRANCH  23  24
ENDBRANCH  22  23
ENDBRANCH  21  22
ENDBRANCH  20  21
ENDBRANCH  19  20
ENDBRANCH  18  19
ENDBRANCH  17  18
ENDBRANCH   1  17
TORSDOF 26
ENDMDL
MODEL 5
REMARK VINA RESULT:    -3.017      1.341      5.418
REMARK INTER + INTRA:         -13.782
REMARK INTER:                  -8.461
REMARK INTRA:                  -5.321
REMARK UNBOUND:                -6.179
REMARK SMILES CCCCCCCCCCCCCCCCCCCCCCCCCCCC(=O)[O-]
REMARK SMILES IDX 15 1 16 2 17 3 18 4 19 5 20 6 21 7 22 8 23 9 24 10 25 11
REMARK SMILES IDX 26 12 27 13 28 14 29 15 30 16 14 17 13 18 12 19 11 20 10 21
REMARK SMILES IDX 9 22 8 23 7 24 6 25 5 26 4 27 3 28 2 29 1 30
REMARK H PARENT
REMARK Flexibility Score: inf
ROOT
ATOM      1  C   UNL     1      76.227  82.536  76.998  1.00  0.00     0.000 C 
ENDROOT
BRANCH   1   2
ATOM      2  C   UNL     1      75.632  82.118  78.356  1.00  0.00     0.000 C 
BRANCH   2   3
ATOM      3  C   UNL     1      76.345  80.909  79.000  1.00  0.00     0.000 C 
BRANCH   3   4
ATOM      4  C   UNL     1      75.370  79.963  79.725  1.00  0.00     0.000 C 
BRANCH   4   5
ATOM      5  C   UNL     1      76.042  78.631  80.127  1.00  0.00     0.000 C 
BRANCH   5   6
ATOM      6  C   UNL     1      75.925  77.527  79.058  1.00  0.00     0.000 C 
BRANCH   6   7
ATOM      7  C   UNL     1      77.216  77.249  78.271  1.00  0.00     0.000 C 
BRANCH   7   8
ATOM      8  C   UNL     1      78.450  77.922  78.891  1.00  0.00     0.000 C 
BRANCH   8   9
ATOM      9  C   UNL     1      79.123  78.860  77.882  1.00  0.00     0.000 C 
BRANCH   9  10
ATOM     10  C   UNL     1      80.043  79.864  78.591  1.00  0.00     0.000 C 
BRANCH  10  11
ATOM     11  C   UNL     1      79.837  81.306  78.096  1.00  0.00     0.000 C 
BRANCH  11  12
ATOM     12  C   UNL     1      80.526  81.571  76.746  1.00  0.00     0.006 C 
BRANCH  12  13
ATOM     13  C   UNL     1      79.517  81.892  75.635  1.00  0.00     0.053 C 
BRANCH  13  14
ATOM     14  C   UNL     1      79.505  83.353  75.299  1.00  0.00     0.041 C 
ATOM     15  O   UNL     1      80.442  84.100  75.686  1.00  0.00    -0.550 OA
ATOM     16  O   UNL     1      78.452  83.892  74.569  1.00  0.00    -0.550 OA
ENDBRANCH  13  14
ENDBRANCH  12  13
ENDBRANCH  11  12
ENDBRANCH  10  11
ENDBRANCH   9  10
ENDBRANCH   8   9
ENDBRANCH   7   8
ENDBRANCH   6   7
ENDBRANCH   5   6
ENDBRANCH   4   5
ENDBRANCH   3   4
ENDBRANCH   2   3
ENDBRANCH   1   2
BRANCH   1  17
ATOM     17  C   UNL     1      75.335  83.473  76.162  1.00  0.00     0.000 C 
BRANCH  17  18
ATOM     18  C   UNL     1      74.808  82.871  74.844  1.00  0.00     0.000 C 
BRANCH  18  19
ATOM     19  C   UNL     1      73.276  82.753  74.746  1.00  0.00     0.000 C 
BRANCH  19  20
ATOM     20  C   UNL     1      72.581  82.828  76.114  1.00  0.00     0.000 C 
BRANCH  20  21
ATOM     21  C   UNL     1      71.948  81.478  76.485  1.00  0.00     0.000 C 
BRANCH  21  22
ATOM     22  C   UNL     1      72.991  80.424  76.893  1.00  0.00    -0.000 C 
BRANCH  22  23
ATOM     23  C   UNL     1      72.881  79.132  76.065  1.00  0.00    -0.000 C 
BRANCH  23  24
ATOM     24  C   UNL     1      74.235  78.421  75.884  1.00  0.00    -0.000 C 
BRANCH  24  25
ATOM     25  C   UNL     1      75.455  79.357  75.811  1.00  0.00    -0.000 C 
BRANCH  25  26
ATOM     26  C   UNL     1      76.524  78.868  74.816  1.00  0.00    -0.000 C 
BRANCH  26  27
ATOM     27  C   UNL     1      76.972  79.967  73.839  1.00  0.00    -0.000 C 
BRANCH  27  28
ATOM     28  C   UNL     1      75.971  80.178  72.690  1.00  0.00    -0.000 C 
BRANCH  28  29
ATOM     29  C   UNL     1      76.647  80.162  71.310  1.00  0.00    -0.003 C 
ATOM     30  C   UNL     1      75.796  79.481  70.239  1.00  0.00     0.004 C 
ENDBRANCH  28  29
ENDBRANCH  27  28
ENDBRANCH  26  27
ENDBRANCH  25  26
ENDBRANCH  24  25
ENDBRANCH  23  24
ENDBRANCH  22  23
ENDBRANCH  21  22
ENDBRANCH  20  21
ENDBRANCH  19  20
ENDBRANCH  18  19
ENDBRANCH  17  18
ENDBRANCH   1  17
TORSDOF 26
ENDMDL
MODEL 6
REMARK VINA RESULT:    -3.002     10.660     12.757
REMARK INTER + INTRA:         -13.743
REMARK INTER:                  -8.573
REMARK INTRA:                  -5.170
REMARK UNBOUND:                -6.179
REMARK SMILES CCCCCCCCCCCCCCCCCCCCCCCCCCCC(=O)[O-]
REMARK SMILES IDX 15 1 16 2 17 3 18 4 19 5 20 6 21 7 22 8 23 9 24 10 25 11
REMARK SMILES IDX 26 12 27 13 28 14 29 15 30 16 14 17 13 18 12 19 11 20 10 21
REMARK SMILES IDX 9 22 8 23 7 24 6 25 5 26 4 27 3 28 2 29 1 30
REMARK H PARENT
REMARK Flexibility Score: inf
ROOT
ATOM      1  C   UNL     1      77.644  87.151  66.525  1.00  0.00     0.000 C 
ENDROOT
BRANCH   1   2
ATOM      2  C   UNL     1      76.538  86.844  67.552  1.00  0.00     0.000 C 
BRANCH   2   3
ATOM      3  C   UNL     1      75.974  88.100  68.251  1.00  0.00     0.000 C 
BRANCH   3   4
ATOM      4  C   UNL     1      77.045  88.870  69.044  1.00  0.00     0.000 C 
BRANCH   4   5
ATOM      5  C   UNL     1      76.951  90.396  68.821  1.00  0.00     0.000 C 
BRANCH   5   6
ATOM      6  C   UNL     1      77.807  90.907  67.647  1.00  0.00     0.000 C 
BRANCH   6   7
ATOM      7  C   UNL     1      77.019  91.242  66.370  1.00  0.00     0.000 C 
BRANCH   7   8
ATOM      8  C   UNL     1      75.527  91.494  66.637  1.00  0.00     0.000 C 
BRANCH   8   9
ATOM      9  C   UNL     1      74.661  90.828  65.561  1.00  0.00     0.000 C 
BRANCH   9  10
ATOM     10  C   UNL     1      75.421  89.688  64.868  1.00  0.00     0.000 C 
BRANCH  10  11
ATOM     11  C   UNL     1      74.600  88.391  64.791  1.00  0.00     0.000 C 
BRANCH  11  12
ATOM     12  C   UNL     1      73.228  88.519  65.476  1.00  0.00     0.006 C 
BRANCH  12  13
ATOM     13  C   UNL     1      72.480  87.180  65.530  1.00  0.00     0.053 C 
BRANCH  13  14
ATOM     14  C   UNL     1      72.269  86.716  66.940  1.00  0.00     0.041 C 
ATOM     15  O   UNL     1      73.060  85.884  67.459  1.00  0.00    -0.550 OA
ATOM     16  O   UNL     1      71.191  87.194  67.676  1.00  0.00    -0.550 OA
ENDBRANCH  13  14
ENDBRANCH  12  13
ENDBRANCH  11  12
ENDBRANCH  10  11
ENDBRANCH   9  10
ENDBRANCH   8   9
ENDBRANCH   7   8
ENDBRANCH   6   7
ENDBRANCH   5   6
ENDBRANCH   4   5
ENDBRANCH   3   4
ENDBRANCH   2   3
ENDBRANCH   1   2
BRANCH   1  17
ATOM     17  C   UNL     1      78.929  86.318  66.690  1.00  0.00     0.000 C 
BRANCH  17  18
ATOM     18  C   UNL     1      80.043  86.990  67.519  1.00  0.00     0.000 C 
BRANCH  18  19
ATOM     19  C   UNL     1      80.387  88.432  67.103  1.00  0.00     0.000 C 
BRANCH  19  20
ATOM     20  C   UNL     1      81.118  89.214  68.204  1.00  0.00     0.000 C 
BRANCH  20  21
ATOM     21  C   UNL     1      80.741  88.687  69.597  1.00  0.00     0.000 C 
BRANCH  21  22
ATOM     22  C   UNL     1      81.967  88.450  70.495  1.00  0.00    -0.000 C 
BRANCH  22  23
ATOM     23  C   UNL     1      83.222  88.066  69.692  1.00  0.00    -0.000 C 
BRANCH  23  24
ATOM     24  C   UNL     1      83.825  86.719  70.134  1.00  0.00    -0.000 C 
BRANCH  24  25
ATOM     25  C   UNL     1      83.608  85.556  69.148  1.00  0.00    -0.000 C 
BRANCH  25  26
ATOM     26  C   UNL     1      83.506  86.025  67.685  1.00  0.00    -0.000 C 
BRANCH  26  27
ATOM     27  C   UNL     1      84.856  85.982  66.951  1.00  0.00    -0.000 C 
BRANCH  27  28
ATOM     28  C   UNL     1      85.425  87.385  66.681  1.00  0.00    -0.000 C 
BRANCH  28  29
ATOM     29  C   UNL     1      84.347  88.378  66.218  1.00  0.00    -0.003 C 
ATOM     30  C   UNL     1      84.560  89.788  66.770  1.00  0.00     0.004 C 
ENDBRANCH  28  29
ENDBRANCH  27  28
ENDBRANCH  26  27
ENDBRANCH  25  26
ENDBRANCH  24  25
ENDBRANCH  23  24
ENDBRANCH  22  23
ENDBRANCH  21  22
ENDBRANCH  20  21
ENDBRANCH  19  20
ENDBRANCH  18  19
ENDBRANCH  17  18
ENDBRANCH   1  17
TORSDOF 26
ENDMDL
MODEL 7
REMARK VINA RESULT:    -2.995      2.544      5.256
REMARK INTER + INTRA:         -13.726
REMARK INTER:                  -9.143
REMARK INTRA:                  -4.583
REMARK UNBOUND:                -6.179
REMARK SMILES CCCCCCCCCCCCCCCCCCCCCCCCCCCC(=O)[O-]
REMARK SMILES IDX 15 1 16 2 17 3 18 4 19 5 20 6 21 7 22 8 23 9 24 10 25 11
REMARK SMILES IDX 26 12 27 13 28 14 29 15 30 16 14 17 13 18 12 19 11 20 10 21
REMARK SMILES IDX 9 22 8 23 7 24 6 25 5 26 4 27 3 28 2 29 1 30
REMARK H PARENT
REMARK Flexibility Score: inf
ROOT
ATOM      1  C   UNL     1      78.470  79.763  78.062  1.00  0.00     0.000 C 
ENDROOT
BRANCH   1   2
ATOM      2  C   UNL     1      78.191  81.126  78.725  1.00  0.00     0.000 C 
BRANCH   2   3
ATOM      3  C   UNL     1      77.032  81.908  78.072  1.00  0.00     0.000 C 
BRANCH   3   4
ATOM      4  C   UNL     1      75.706  81.757  78.839  1.00  0.00     0.000 C 
BRANCH   4   5
ATOM      5  C   UNL     1      74.547  81.314  77.919  1.00  0.00     0.000 C 
BRANCH   5   6
ATOM      6  C   UNL     1      74.256  79.801  77.969  1.00  0.00     0.000 C 
BRANCH   6   7
ATOM      7  C   UNL     1      74.871  78.986  76.819  1.00  0.00     0.000 C 
BRANCH   7   8
ATOM      8  C   UNL     1      75.330  79.863  75.644  1.00  0.00     0.000 C 
BRANCH   8   9
ATOM      9  C   UNL     1      74.518  79.551  74.382  1.00  0.00     0.000 C 
BRANCH   9  10
ATOM     10  C   UNL     1      73.645  80.748  73.977  1.00  0.00     0.000 C 
BRANCH  10  11
ATOM     11  C   UNL     1      74.224  82.090  74.456  1.00  0.00     0.000 C 
BRANCH  11  12
ATOM     12  C   UNL     1      73.136  83.059  74.950  1.00  0.00     0.006 C 
BRANCH  12  13
ATOM     13  C   UNL     1      71.766  82.379  75.071  1.00  0.00     0.053 C 
BRANCH  13  14
ATOM     14  C   UNL     1      71.395  82.123  76.500  1.00  0.00     0.041 C 
ATOM     15  O   UNL     1      71.488  83.045  77.354  1.00  0.00    -0.550 OA
ATOM     16  O   UNL     1      70.960  80.863  76.892  1.00  0.00    -0.550 OA
ENDBRANCH  13  14
ENDBRANCH  12  13
ENDBRANCH  11  12
ENDBRANCH  10  11
ENDBRANCH   9  10
ENDBRANCH   8   9
ENDBRANCH   7   8
ENDBRANCH   6   7
ENDBRANCH   5   6
ENDBRANCH   4   5
ENDBRANCH   3   4
ENDBRANCH   2   3
ENDBRANCH   1   2
BRANCH   1  17
ATOM     17  C   UNL     1      78.270  78.543  78.981  1.00  0.00     0.000 C 
BRANCH  17  18
ATOM     18  C   UNL     1      79.569  77.850  79.440  1.00  0.00     0.000 C 
BRANCH  18  19
ATOM     19  C   UNL     1      80.864  78.426  78.839  1.00  0.00     0.000 C 
BRANCH  19  20
ATOM     20  C   UNL     1      81.734  79.152  79.876  1.00  0.00     0.000 C 
BRANCH  20  21
ATOM     21  C   UNL     1      81.914  80.632  79.505  1.00  0.00     0.000 C 
BRANCH  21  22
ATOM     22  C   UNL     1      83.176  80.885  78.663  1.00  0.00    -0.000 C 
BRANCH  22  23
ATOM     23  C   UNL     1      82.851  81.401  77.251  1.00  0.00    -0.000 C 
BRANCH  23  24
ATOM     24  C   UNL     1      81.370  81.790  77.083  1.00  0.00    -0.000 C 
BRANCH  24  25
ATOM     25  C   UNL     1      81.060  82.647  75.842  1.00  0.00    -0.000 C 
BRANCH  25  26
ATOM     26  C   UNL     1      79.574  82.600  75.440  1.00  0.00    -0.000 C 
BRANCH  26  27
ATOM     27  C   UNL     1      79.371  82.238  73.960  1.00  0.00    -0.000 C 
BRANCH  27  28
ATOM     28  C   UNL     1      77.884  82.142  73.576  1.00  0.00    -0.000 C 
BRANCH  28  29
ATOM     29  C   UNL     1      77.552  80.841  72.829  1.00  0.00    -0.003 C 
ATOM     30  C   UNL     1      78.763  79.924  72.665  1.00  0.00     0.004 C 
ENDBRANCH  28  29
ENDBRANCH  27  28
ENDBRANCH  26  27
ENDBRANCH  25  26
ENDBRANCH  24  25
ENDBRANCH  23  24
ENDBRANCH  22  23
ENDBRANCH  21  22
ENDBRANCH  20  21
ENDBRANCH  19  20
ENDBRANCH  18  19
ENDBRANCH  17  18
ENDBRANCH   1  17
TORSDOF 26
ENDMDL
MODEL 8
REMARK VINA RESULT:    -2.987      1.208      1.949
REMARK INTER + INTRA:         -13.707
REMARK INTER:                  -8.206
REMARK INTRA:                  -5.501
REMARK UNBOUND:                -6.179
REMARK SMILES CCCCCCCCCCCCCCCCCCCCCCCCCCCC(=O)[O-]
REMARK SMILES IDX 15 1 16 2 17 3 18 4 19 5 20 6 21 7 22 8 23 9 24 10 25 11
REMARK SMILES IDX 26 12 27 13 28 14 29 15 30 16 14 17 13 18 12 19 11 20 10 21
REMARK SMILES IDX 9 22 8 23 7 24 6 25 5 26 4 27 3 28 2 29 1 30
REMARK H PARENT
REMARK Flexibility Score: inf
ROOT
ATOM      1  C   UNL     1      75.391  82.858  76.161  1.00  0.00     0.000 C 
ENDROOT
BRANCH   1   2
ATOM      2  C   UNL     1      74.684  82.503  74.840  1.00  0.00     0.000 C 
BRANCH   2   3
ATOM      3  C   UNL     1      73.193  82.902  74.806  1.00  0.00     0.000 C 
BRANCH   3   4
ATOM      4  C   UNL     1      72.292  81.901  75.551  1.00  0.00     0.000 C 
BRANCH   4   5
ATOM      5  C   UNL     1      72.474  80.457  75.034  1.00  0.00     0.000 C 
BRANCH   5   6
ATOM      6  C   UNL     1      72.636  79.410  76.154  1.00  0.00     0.000 C 
BRANCH   6   7
ATOM      7  C   UNL     1      73.937  78.593  76.092  1.00  0.00     0.000 C 
BRANCH   7   8
ATOM      8  C   UNL     1      74.688  78.764  74.763  1.00  0.00     0.000 C 
BRANCH   8   9
ATOM      9  C   UNL     1      76.202  78.648  74.973  1.00  0.00     0.000 C 
BRANCH   9  10
ATOM     10  C   UNL     1      76.961  79.649  74.090  1.00  0.00     0.000 C 
BRANCH  10  11
ATOM     11  C   UNL     1      78.445  79.283  73.922  1.00  0.00     0.000 C 
BRANCH  11  12
ATOM     12  C   UNL     1      79.385  80.446  74.281  1.00  0.00     0.006 C 
BRANCH  12  13
ATOM     13  C   UNL     1      78.638  81.610  74.948  1.00  0.00     0.053 C 
BRANCH  13  14
ATOM     14  C   UNL     1      78.510  82.788  74.029  1.00  0.00     0.041 C 
ATOM     15  O   UNL     1      78.602  82.632  72.783  1.00  0.00    -0.550 OA
ATOM     16  O   UNL     1      78.302  84.058  74.552  1.00  0.00    -0.550 OA
ENDBRANCH  13  14
ENDBRANCH  12  13
ENDBRANCH  11  12
ENDBRANCH  10  11
ENDBRANCH   9  10
ENDBRANCH   8   9
ENDBRANCH   7   8
ENDBRANCH   6   7
ENDBRANCH   5   6
ENDBRANCH   4   5
ENDBRANCH   3   4
ENDBRANCH   2   3
ENDBRANCH   1   2
BRANCH   1  17
ATOM     17  C   UNL     1      75.749  81.651  77.049  1.00  0.00     0.000 C 
BRANCH  17  18
ATOM     18  C   UNL     1      75.214  81.719  78.494  1.00  0.00     0.000 C 
BRANCH  18  19
ATOM     19  C   UNL     1      75.708  80.598  79.426  1.00  0.00     0.000 C 
BRANCH  19  20
ATOM     20  C   UNL     1      74.789  79.368  79.422  1.00  0.00     0.000 C 
BRANCH  20  21
ATOM     21  C   UNL     1      75.609  78.068  79.422  1.00  0.00     0.000 C 
BRANCH  21  22
ATOM     22  C   UNL     1      76.810  78.122  80.381  1.00  0.00    -0.000 C 
BRANCH  22  23
ATOM     23  C   UNL     1      77.958  77.196  79.944  1.00  0.00    -0.000 C 
BRANCH  23  24
ATOM     24  C   UNL     1      79.289  77.946  79.748  1.00  0.00    -0.000 C 
BRANCH  24  25
ATOM     25  C   UNL     1      79.623  78.306  78.289  1.00  0.00    -0.000 C 
BRANCH  25  26
ATOM     26  C   UNL     1      78.872  79.557  77.795  1.00  0.00    -0.000 C 
BRANCH  26  27
ATOM     27  C   UNL     1      79.263  80.827  78.567  1.00  0.00    -0.000 C 
BRANCH  27  28
ATOM     28  C   UNL     1      80.786  81.028  78.638  1.00  0.00    -0.000 C 
BRANCH  28  29
ATOM     29  C   UNL     1      81.384  81.476  77.295  1.00  0.00    -0.003 C 
ATOM     30  C   UNL     1      82.363  80.457  76.712  1.00  0.00     0.004 C 
ENDBRANCH  28  29
ENDBRANCH  27  28
ENDBRANCH  26  27
ENDBRANCH  25  26
ENDBRANCH  24  25
ENDBRANCH  23  24
ENDBRANCH  22  23
ENDBRANCH  21  22
ENDBRANCH  20  21
ENDBRANCH  19  20
ENDBRANCH  18  19
ENDBRANCH  17  18
ENDBRANCH   1  17
TORSDOF 26
ENDMDL
MODEL 9
REMARK VINA RESULT:    -2.987      2.738      7.162
REMARK INTER + INTRA:         -13.706
REMARK INTER:                  -9.083
REMARK INTRA:                  -4.623
REMARK UNBOUND:                -6.179
REMARK SMILES CCCCCCCCCCCCCCCCCCCCCCCCCCCC(=O)[O-]
REMARK SMILES IDX 15 1 16 2 17 3 18 4 19 5 20 6 21 7 22 8 23 9 24 10 25 11
REMARK SMILES IDX 26 12 27 13 28 14 29 15 30 16 14 17 13 18 12 19 11 20 10 21
REMARK SMILES IDX 9 22 8 23 7 24 6 25 5 26 4 27 3 28 2 29 1 30
REMARK H PARENT
REMARK Flexibility Score: inf
ROOT
ATOM      1  C   UNL     1      79.165  81.253  72.987  1.00  0.00     0.000 C 
ENDROOT
BRANCH   1   2
ATOM      2  C   UNL     1      79.867  80.934  74.321  1.00  0.00     0.000 C 
BRANCH   2   3
ATOM      3  C   UNL     1      80.685  82.114  74.890  1.00  0.00     0.000 C 
BRANCH   3   4
ATOM      4  C   UNL     1      80.075  82.692  76.180  1.00  0.00     0.000 C 
BRANCH   4   5
ATOM      5  C   UNL     1      79.100  81.704  76.857  1.00  0.00     0.000 C 
BRANCH   5   6
ATOM      6  C   UNL     1      79.607  81.155  78.205  1.00  0.00     0.000 C 
BRANCH   6   7
ATOM      7  C   UNL     1      79.354  79.655  78.428  1.00  0.00     0.000 C 
BRANCH   7   8
ATOM      8  C   UNL     1      80.649  78.829  78.466  1.00  0.00     0.000 C 
BRANCH   8   9
ATOM      9  C   UNL     1      81.327  78.816  77.091  1.00  0.00     0.000 C 
BRANCH   9  10
ATOM     10  C   UNL     1      82.855  78.886  77.229  1.00  0.00     0.000 C 
BRANCH  10  11
ATOM     11  C   UNL     1      83.433  80.221  76.730  1.00  0.00     0.000 C 
BRANCH  11  12
ATOM     12  C   UNL     1      83.148  81.386  77.694  1.00  0.00     0.006 C 
BRANCH  12  13
ATOM     13  C   UNL     1      84.082  81.372  78.911  1.00  0.00     0.053 C 
BRANCH  13  14
ATOM     14  C   UNL     1      83.394  80.849  80.136  1.00  0.00     0.041 C 
ATOM     15  O   UNL     1      82.351  81.410  80.564  1.00  0.00    -0.550 OA
ATOM     16  O   UNL     1      83.912  79.750  80.810  1.00  0.00    -0.550 OA
ENDBRANCH  13  14
ENDBRANCH  12  13
ENDBRANCH  11  12
ENDBRANCH  10  11
ENDBRANCH   9  10
ENDBRANCH   8   9
ENDBRANCH   7   8
ENDBRANCH   6   7
ENDBRANCH   5   6
ENDBRANCH   4   5
ENDBRANCH   3   4
ENDBRANCH   2   3
ENDBRANCH   1   2
BRANCH   1  17
ATOM     17  C   UNL     1      77.798  80.570  72.796  1.00  0.00     0.000 C 
BRANCH  17  18
ATOM     18  C   UNL     1      76.950  80.432  74.077  1.00  0.00     0.000 C 
BRANCH  18  19
ATOM     19  C   UNL     1      75.819  81.466  74.226  1.00  0.00     0.000 C 
BRANCH  19  20
ATOM     20  C   UNL     1      76.266  82.740  74.958  1.00  0.00     0.000 C 
BRANCH  20  21
ATOM     21  C   UNL     1      75.080  83.690  75.184  1.00  0.00     0.000 C 
BRANCH  21  22
ATOM     22  C   UNL     1      73.720  82.982  75.067  1.00  0.00    -0.000 C 
BRANCH  22  23
ATOM     23  C   UNL     1      73.064  82.731  76.436  1.00  0.00    -0.000 C 
BRANCH  23  24
ATOM     24  C   UNL     1      73.431  81.360  77.032  1.00  0.00    -0.000 C 
BRANCH  24  25
ATOM     25  C   UNL     1      74.595  81.380  78.039  1.00  0.00    -0.000 C 
BRANCH  25  26
ATOM     26  C   UNL     1      75.626  80.264  77.785  1.00  0.00    -0.000 C 
BRANCH  26  27
ATOM     27  C   UNL     1      75.672  79.229  78.920  1.00  0.00    -0.000 C 
BRANCH  27  28
ATOM     28  C   UNL     1      76.233  79.813  80.228  1.00  0.00    -0.000 C 
BRANCH  28  29
ATOM     29  C   UNL     1      75.258  79.660  81.406  1.00  0.00    -0.003 C 
ATOM     30  C   UNL     1      74.834  78.211  81.643  1.00  0.00     0.004 C 
ENDBRANCH  28  29
ENDBRANCH  27  28
ENDBRANCH  26  27
ENDBRANCH  25  26
ENDBRANCH  24  25
ENDBRANCH  23  24
ENDBRANCH  22  23
ENDBRANCH  21  22
ENDBRANCH  20  21
ENDBRANCH  19  20
ENDBRANCH  18  19
ENDBRANCH  17  18
ENDBRANCH   1  17
TORSDOF 26
ENDMDL
