MODEL 1
REMARK VINA RESULT:    -4.177      0.000      0.000
REMARK INTER + INTRA:          -9.905
REMARK INTER:                  -7.841
REMARK INTRA:                  -2.065
REMARK UNBOUND:                -2.065
REMARK SMILES O=C([O-])CCCCCCCCCCCCCCC(=O)[O-]
REMARK SMILES IDX 10 1 9 2 8 3 7 4 6 5 5 6 4 7 2 8 1 9 3 10 11 11 12 12 13 13
REMARK SMILES IDX 14 14 15 15 16 16 17 17 18 18 19 19 20 20
REMARK H PARENT
REMARK Flexibility Score: inf
ROOT
ATOM      1  C   UNL     1     129.385 145.034 108.503  1.00  0.00     0.000 C 
ENDROOT
BRANCH   1   2
ATOM      2  C   UNL     1     130.692 145.637 107.962  1.00  0.00     0.000 C 
BRANCH   2   3
ATOM      3  C   UNL     1     130.626 145.941 106.458  1.00  0.00     0.000 C 
BRANCH   3   4
ATOM      4  C   UNL     1     131.997 146.385 105.927  1.00  0.00     0.000 C 
BRANCH   4   5
ATOM      5  C   UNL     1     133.101 145.340 106.168  1.00  0.00     0.000 C 
BRANCH   5   6
ATOM      6  C   UNL     1     134.120 145.190 105.020  1.00  0.00     0.006 C 
BRANCH   6   7
ATOM      7  C   UNL     1     135.272 146.205 105.052  1.00  0.00     0.053 C 
BRANCH   7   8
ATOM      8  C   UNL     1     136.138 146.034 106.264  1.00  0.00     0.041 C 
ATOM      9  O   UNL     1     137.034 145.149 106.280  1.00  0.00    -0.550 OA
ATOM     10  O   UNL     1     135.978 146.873 107.359  1.00  0.00    -0.550 OA
ENDBRANCH   7   8
ENDBRANCH   6   7
ENDBRANCH   5   6
ENDBRANCH   4   5
ENDBRANCH   3   4
ENDBRANCH   2   3
ENDBRANCH   1   2
BRANCH   1  11
ATOM     11  C   UNL     1     128.183 145.976 108.332  1.00  0.00     0.000 C 
BRANCH  11  12
ATOM     12  C   UNL     1     127.094 145.325 107.471  1.00  0.00     0.000 C 
BRANCH  12  13
ATOM     13  C   UNL     1     126.895 146.095 106.160  1.00  0.00     0.000 C 
BRANCH  13  14
ATOM     14  C   UNL     1     127.245 145.221 104.949  1.00  0.00     0.000 C 
BRANCH  14  15
ATOM     15  C   UNL     1     127.461 143.762 105.368  1.00  0.00     0.000 C 
BRANCH  15  16
ATOM     16  C   UNL     1     128.858 143.274 104.960  1.00  0.00     0.006 C 
BRANCH  16  17
ATOM     17  C   UNL     1     129.442 142.273 105.966  1.00  0.00     0.053 C 
BRANCH  17  18
ATOM     18  C   UNL     1     130.939 142.294 105.967  1.00  0.00     0.041 C 
ATOM     19  O   UNL     1     131.572 142.244 107.055  1.00  0.00    -0.550 OA
ATOM     20  O   UNL     1     131.637 142.336 104.766  1.00  0.00    -0.550 OA
ENDBRANCH  17  18
ENDBRANCH  16  17
ENDBRANCH  15  16
ENDBRANCH  14  15
ENDBRANCH  13  14
ENDBRANCH  12  13
ENDBRANCH  11  12
ENDBRANCH   1  11
TORSDOF 15
ENDMDL
MODEL 2
REMARK VINA RESULT:    -4.177      2.165      6.073
REMARK INTER + INTRA:          -9.904
REMARK INTER:                  -7.454
REMARK INTRA:                  -2.451
REMARK UNBOUND:                -2.065
REMARK SMILES O=C([O-])CCCCCCCCCCCCCCC(=O)[O-]
REMARK SMILES IDX 10 1 9 2 8 3 7 4 6 5 5 6 4 7 2 8 1 9 3 10 11 11 12 12 13 13
REMARK SMILES IDX 14 14 15 15 16 16 17 17 18 18 19 19 20 20
REMARK H PARENT
REMARK Flexibility Score: inf
ROOT
ATOM      1  C   UNL     1     126.975 145.955 106.076  1.00  0.00     0.000 C 
ENDROOT
BRANCH   1   2
ATOM      2  C   UNL     1     126.921 145.252 107.441  1.00  0.00     0.000 C 
BRANCH   2   3
ATOM      3  C   UNL     1     127.831 145.915 108.485  1.00  0.00     0.000 C 
BRANCH   3   4
ATOM      4  C   UNL     1     128.450 144.865 109.420  1.00  0.00     0.000 C 
BRANCH   4   5
ATOM      5  C   UNL     1     127.866 143.457 109.212  1.00  0.00     0.000 C 
BRANCH   5   6
ATOM      6  C   UNL     1     128.863 142.299 109.422  1.00  0.00     0.006 C 
BRANCH   6   7
ATOM      7  C   UNL     1     128.261 140.898 109.234  1.00  0.00     0.053 C 
BRANCH   7   8
ATOM      8  C   UNL     1     128.224 140.491 107.793  1.00  0.00     0.041 C 
ATOM      9  O   UNL     1     127.130 140.476 107.168  1.00  0.00    -0.550 OA
ATOM     10  O   UNL     1     129.400 140.162 107.131  1.00  0.00    -0.550 OA
ENDBRANCH   7   8
ENDBRANCH   6   7
ENDBRANCH   5   6
ENDBRANCH   4   5
ENDBRANCH   3   4
ENDBRANCH   2   3
ENDBRANCH   1   2
BRANCH   1  11
ATOM     11  C   UNL     1     127.436 145.021 104.946  1.00  0.00     0.000 C 
BRANCH  11  12
ATOM     12  C   UNL     1     127.665 143.598 105.469  1.00  0.00     0.000 C 
BRANCH  12  13
ATOM     13  C   UNL     1     129.103 143.137 105.201  1.00  0.00     0.000 C 
BRANCH  13  14
ATOM     14  C   UNL     1     130.031 143.528 106.357  1.00  0.00     0.000 C 
BRANCH  14  15
ATOM     15  C   UNL     1     131.134 144.480 105.880  1.00  0.00     0.000 C 
BRANCH  15  16
ATOM     16  C   UNL     1     130.773 145.940 106.191  1.00  0.00     0.006 C 
BRANCH  16  17
ATOM     17  C   UNL     1     131.983 146.876 106.076  1.00  0.00     0.053 C 
BRANCH  17  18
ATOM     18  C   UNL     1     132.971 146.646 107.177  1.00  0.00     0.041 C 
ATOM     19  O   UNL     1     132.683 146.959 108.363  1.00  0.00    -0.550 OA
ATOM     20  O   UNL     1     134.199 146.055 106.901  1.00  0.00    -0.550 OA
ENDBRANCH  17  18
ENDBRANCH  16  17
ENDBRANCH  15  16
ENDBRANCH  14  15
ENDBRANCH  13  14
ENDBRANCH  12  13
ENDBRANCH  11  12
ENDBRANCH   1  11
TORSDOF 15
ENDMDL
MODEL 3
REMARK VINA RESULT:    -4.120      2.032      5.528
REMARK INTER + INTRA:          -9.798
REMARK INTER:                  -7.025
REMARK INTRA:                  -2.774
REMARK UNBOUND:                -2.065
REMARK SMILES O=C([O-])CCCCCCCCCCCCCCC(=O)[O-]
REMARK SMILES IDX 10 1 9 2 8 3 7 4 6 5 5 6 4 7 2 8 1 9 3 10 11 11 12 12 13 13
REMARK SMILES IDX 14 14 15 15 16 16 17 17 18 18 19 19 20 20
REMARK H PARENT
REMARK Flexibility Score: inf
ROOT
ATOM      1  C   UNL     1     127.999 141.596 106.176  1.00  0.00     0.000 C 
ENDROOT
BRANCH   1   2
ATOM      2  C   UNL     1     127.096 142.826 105.993  1.00  0.00     0.000 C 
BRANCH   2   3
ATOM      3  C   UNL     1     127.670 143.838 104.991  1.00  0.00     0.000 C 
BRANCH   3   4
ATOM      4  C   UNL     1     127.420 145.278 105.461  1.00  0.00     0.000 C 
BRANCH   4   5
ATOM      5  C   UNL     1     126.960 145.361 106.928  1.00  0.00     0.000 C 
BRANCH   5   6
ATOM      6  C   UNL     1     127.990 145.969 107.902  1.00  0.00     0.006 C 
BRANCH   6   7
ATOM      7  C   UNL     1     128.306 145.092 109.123  1.00  0.00     0.053 C 
BRANCH   7   8
ATOM      8  C   UNL     1     129.600 145.480 109.773  1.00  0.00     0.041 C 
ATOM      9  O   UNL     1     129.929 146.693 109.854  1.00  0.00    -0.550 OA
ATOM     10  O   UNL     1     130.425 144.505 110.319  1.00  0.00    -0.550 OA
ENDBRANCH   7   8
ENDBRANCH   6   7
ENDBRANCH   5   6
ENDBRANCH   4   5
ENDBRANCH   3   4
ENDBRANCH   2   3
ENDBRANCH   1   2
BRANCH   1  11
ATOM     11  C   UNL     1     128.657 141.545 107.564  1.00  0.00     0.000 C 
BRANCH  11  12
ATOM     12  C   UNL     1     130.057 142.170 107.532  1.00  0.00     0.000 C 
BRANCH  12  13
ATOM     13  C   UNL     1     130.724 141.955 106.168  1.00  0.00     0.000 C 
BRANCH  13  14
ATOM     14  C   UNL     1     131.266 143.276 105.606  1.00  0.00     0.000 C 
BRANCH  14  15
ATOM     15  C   UNL     1     131.125 144.408 106.630  1.00  0.00     0.000 C 
BRANCH  15  16
ATOM     16  C   UNL     1     131.079 145.776 105.934  1.00  0.00     0.006 C 
BRANCH  16  17
ATOM     17  C   UNL     1     132.094 146.764 106.524  1.00  0.00     0.053 C 
BRANCH  17  18
ATOM     18  C   UNL     1     133.504 146.357 106.224  1.00  0.00     0.041 C 
ATOM     19  O   UNL     1     134.387 146.422 107.121  1.00  0.00    -0.550 OA
ATOM     20  O   UNL     1     133.838 145.877 104.964  1.00  0.00    -0.550 OA
ENDBRANCH  17  18
ENDBRANCH  16  17
ENDBRANCH  15  16
ENDBRANCH  14  15
ENDBRANCH  13  14
ENDBRANCH  12  13
ENDBRANCH  11  12
ENDBRANCH   1  11
TORSDOF 15
ENDMDL
MODEL 4
REMARK VINA RESULT:    -4.057      1.282      5.114
REMARK INTER + INTRA:          -9.679
REMARK INTER:                  -7.696
REMARK INTRA:                  -1.982
REMARK UNBOUND:                -2.065
REMARK SMILES O=C([O-])CCCCCCCCCCCCCCC(=O)[O-]
REMARK SMILES IDX 10 1 9 2 8 3 7 4 6 5 5 6 4 7 2 8 1 9 3 10 11 11 12 12 13 13
REMARK SMILES IDX 14 14 15 15 16 16 17 17 18 18 19 19 20 20
REMARK H PARENT
REMARK Flexibility Score: inf
ROOT
ATOM      1  C   UNL     1     127.029 146.306 108.335  1.00  0.00     0.000 C 
ENDROOT
BRANCH   1   2
ATOM      2  C   UNL     1     126.881 145.269 107.211  1.00  0.00     0.000 C 
BRANCH   2   3
ATOM      3  C   UNL     1     126.899 145.905 105.813  1.00  0.00     0.000 C 
BRANCH   3   4
ATOM      4  C   UNL     1     127.384 144.898 104.759  1.00  0.00     0.000 C 
BRANCH   4   5
ATOM      5  C   UNL     1     127.561 143.477 105.322  1.00  0.00     0.000 C 
BRANCH   5   6
ATOM      6  C   UNL     1     129.007 142.939 105.295  1.00  0.00     0.006 C 
BRANCH   6   7
ATOM      7  C   UNL     1     129.339 141.948 106.421  1.00  0.00     0.053 C 
BRANCH   7   8
ATOM      8  C   UNL     1     130.801 141.622 106.469  1.00  0.00     0.041 C 
ATOM      9  O   UNL     1     131.495 141.974 107.460  1.00  0.00    -0.550 OA
ATOM     10  O   UNL     1     131.389 140.901 105.438  1.00  0.00    -0.550 OA
ENDBRANCH   7   8
ENDBRANCH   6   7
ENDBRANCH   5   6
ENDBRANCH   4   5
ENDBRANCH   3   4
ENDBRANCH   2   3
ENDBRANCH   1   2
BRANCH   1  11
ATOM     11  C   UNL     1     128.422 146.283 108.983  1.00  0.00     0.000 C 
BRANCH  11  12
ATOM     12  C   UNL     1     129.228 145.067 108.510  1.00  0.00     0.000 C 
BRANCH  12  13
ATOM     13  C   UNL     1     130.608 145.489 107.992  1.00  0.00     0.000 C 
BRANCH  13  14
ATOM     14  C   UNL     1     130.604 145.630 106.465  1.00  0.00     0.000 C 
BRANCH  14  15
ATOM     15  C   UNL     1     131.601 146.701 106.009  1.00  0.00     0.000 C 
BRANCH  15  16
ATOM     16  C   UNL     1     133.033 146.329 106.418  1.00  0.00     0.006 C 
BRANCH  16  17
ATOM     17  C   UNL     1     133.485 144.996 105.807  1.00  0.00     0.053 C 
BRANCH  17  18
ATOM     18  C   UNL     1     134.566 145.190 104.788  1.00  0.00     0.041 C 
ATOM     19  O   UNL     1     135.477 144.329 104.660  1.00  0.00    -0.550 OA
ATOM     20  O   UNL     1     134.550 146.303 103.957  1.00  0.00    -0.550 OA
ENDBRANCH  17  18
ENDBRANCH  16  17
ENDBRANCH  15  16
ENDBRANCH  14  15
ENDBRANCH  13  14
ENDBRANCH  12  13
ENDBRANCH  11  12
ENDBRANCH   1  11
TORSDOF 15
ENDMDL
MODEL 5
REMARK VINA RESULT:    -3.993      2.188      5.867
REMARK INTER + INTRA:          -9.560
REMARK INTER:                  -7.310
REMARK INTRA:                  -2.250
REMARK UNBOUND:                -2.065
REMARK SMILES O=C([O-])CCCCCCCCCCCCCCC(=O)[O-]
REMARK SMILES IDX 10 1 9 2 8 3 7 4 6 5 5 6 4 7 2 8 1 9 3 10 11 11 12 12 13 13
REMARK SMILES IDX 14 14 15 15 16 16 17 17 18 18 19 19 20 20
REMARK H PARENT
REMARK Flexibility Score: inf
ROOT
ATOM      1  C   UNL     1     127.110 146.056 106.125  1.00  0.00     0.000 C 
ENDROOT
BRANCH   1   2
ATOM      2  C   UNL     1     127.533 145.160 104.950  1.00  0.00     0.000 C 
BRANCH   2   3
ATOM      3  C   UNL     1     127.405 143.663 105.270  1.00  0.00     0.000 C 
BRANCH   3   4
ATOM      4  C   UNL     1     128.782 142.986 105.283  1.00  0.00     0.000 C 
BRANCH   4   5
ATOM      5  C   UNL     1     128.847 141.772 106.226  1.00  0.00     0.000 C 
BRANCH   5   6
ATOM      6  C   UNL     1     127.800 141.770 107.360  1.00  0.00     0.006 C 
BRANCH   6   7
ATOM      7  C   UNL     1     128.252 141.055 108.643  1.00  0.00     0.053 C 
BRANCH   7   8
ATOM      8  C   UNL     1     128.262 141.976 109.825  1.00  0.00     0.041 C 
ATOM      9  O   UNL     1     129.249 141.990 110.608  1.00  0.00    -0.550 OA
ATOM     10  O   UNL     1     127.198 142.842 110.042  1.00  0.00    -0.550 OA
ENDBRANCH   7   8
ENDBRANCH   6   7
ENDBRANCH   5   6
ENDBRANCH   4   5
ENDBRANCH   3   4
ENDBRANCH   2   3
ENDBRANCH   1   2
BRANCH   1  11
ATOM     11  C   UNL     1     127.119 145.313 107.469  1.00  0.00     0.000 C 
BRANCH  11  12
ATOM     12  C   UNL     1     128.256 145.815 108.367  1.00  0.00     0.000 C 
BRANCH  12  13
ATOM     13  C   UNL     1     129.544 145.020 108.121  1.00  0.00     0.000 C 
BRANCH  13  14
ATOM     14  C   UNL     1     130.685 145.944 107.676  1.00  0.00     0.000 C 
BRANCH  14  15
ATOM     15  C   UNL     1     130.950 145.807 106.173  1.00  0.00     0.000 C 
BRANCH  15  16
ATOM     16  C   UNL     1     132.015 144.734 105.898  1.00  0.00     0.006 C 
BRANCH  16  17
ATOM     17  C   UNL     1     133.425 145.204 106.279  1.00  0.00     0.053 C 
BRANCH  17  18
ATOM     18  C   UNL     1     134.321 145.302 105.082  1.00  0.00     0.041 C 
ATOM     19  O   UNL     1     134.280 146.321 104.343  1.00  0.00    -0.550 OA
ATOM     20  O   UNL     1     135.223 144.283 104.800  1.00  0.00    -0.550 OA
ENDBRANCH  17  18
ENDBRANCH  16  17
ENDBRANCH  15  16
ENDBRANCH  14  15
ENDBRANCH  13  14
ENDBRANCH  12  13
ENDBRANCH  11  12
ENDBRANCH   1  11
TORSDOF 15
ENDMDL
MODEL 6
REMARK VINA RESULT:    -3.977      2.436      3.898
REMARK INTER + INTRA:          -9.529
REMARK INTER:                  -7.414
REMARK INTRA:                  -2.115
REMARK UNBOUND:                -2.065
REMARK SMILES O=C([O-])CCCCCCCCCCCCCCC(=O)[O-]
REMARK SMILES IDX 10 1 9 2 8 3 7 4 6 5 5 6 4 7 2 8 1 9 3 10 11 11 12 12 13 13
REMARK SMILES IDX 14 14 15 15 16 16 17 17 18 18 19 19 20 20
REMARK H PARENT
REMARK Flexibility Score: inf
ROOT
ATOM      1  C   UNL     1     130.991 144.250 106.514  1.00  0.00     0.000 C 
ENDROOT
BRANCH   1   2
ATOM      2  C   UNL     1     130.789 145.729 106.146  1.00  0.00     0.000 C 
BRANCH   2   3
ATOM      3  C   UNL     1     132.115 146.461 105.888  1.00  0.00     0.000 C 
BRANCH   3   4
ATOM      4  C   UNL     1     133.275 145.464 105.755  1.00  0.00     0.000 C 
BRANCH   4   5
ATOM      5  C   UNL     1     134.615 146.029 106.259  1.00  0.00     0.000 C 
BRANCH   5   6
ATOM      6  C   UNL     1     134.665 146.341 107.769  1.00  0.00     0.006 C 
BRANCH   6   7
ATOM      7  C   UNL     1     133.986 145.289 108.659  1.00  0.00     0.053 C 
BRANCH   7   8
ATOM      8  C   UNL     1     132.892 145.883 109.495  1.00  0.00     0.041 C 
ATOM      9  O   UNL     1     132.591 147.100 109.372  1.00  0.00    -0.550 OA
ATOM     10  O   UNL     1     132.184 145.085 110.384  1.00  0.00    -0.550 OA
ENDBRANCH   7   8
ENDBRANCH   6   7
ENDBRANCH   5   6
ENDBRANCH   4   5
ENDBRANCH   3   4
ENDBRANCH   2   3
ENDBRANCH   1   2
BRANCH   1  11
ATOM     11  C   UNL     1     130.352 143.294 105.495  1.00  0.00     0.000 C 
BRANCH  11  12
ATOM     12  C   UNL     1     128.852 143.129 105.762  1.00  0.00     0.000 C 
BRANCH  12  13
ATOM     13  C   UNL     1     128.020 143.730 104.622  1.00  0.00     0.000 C 
BRANCH  13  14
ATOM     14  C   UNL     1     127.271 144.984 105.088  1.00  0.00     0.000 C 
BRANCH  14  15
ATOM     15  C   UNL     1     126.875 144.872 106.565  1.00  0.00     0.000 C 
BRANCH  15  16
ATOM     16  C   UNL     1     127.117 146.197 107.302  1.00  0.00     0.006 C 
BRANCH  16  17
ATOM     17  C   UNL     1     127.185 146.013 108.824  1.00  0.00     0.053 C 
BRANCH  17  18
ATOM     18  C   UNL     1     128.579 145.717 109.285  1.00  0.00     0.041 C 
ATOM     19  O   UNL     1     129.389 146.659 109.496  1.00  0.00    -0.550 OA
ATOM     20  O   UNL     1     128.975 144.405 109.514  1.00  0.00    -0.550 OA
ENDBRANCH  17  18
ENDBRANCH  16  17
ENDBRANCH  15  16
ENDBRANCH  14  15
ENDBRANCH  13  14
ENDBRANCH  12  13
ENDBRANCH  11  12
ENDBRANCH   1  11
TORSDOF 15
ENDMDL
MODEL 7
REMARK VINA RESULT:    -3.927      2.674      4.412
REMARK INTER + INTRA:          -9.435
REMARK INTER:                  -7.186
REMARK INTRA:                  -2.249
REMARK UNBOUND:                -2.065
REMARK SMILES O=C([O-])CCCCCCCCCCCCCCC(=O)[O-]
REMARK SMILES IDX 10 1 9 2 8 3 7 4 6 5 5 6 4 7 2 8 1 9 3 10 11 11 12 12 13 13
REMARK SMILES IDX 14 14 15 15 16 16 17 17 18 18 19 19 20 20
REMARK H PARENT
REMARK Flexibility Score: inf
ROOT
ATOM      1  C   UNL     1     127.870 144.047 104.746  1.00  0.00     0.000 C 
ENDROOT
BRANCH   1   2
ATOM      2  C   UNL     1     128.526 143.019 105.681  1.00  0.00     0.000 C 
BRANCH   2   3
ATOM      3  C   UNL     1     130.052 143.183 105.763  1.00  0.00     0.000 C 
BRANCH   3   4
ATOM      4  C   UNL     1     130.488 143.547 107.189  1.00  0.00     0.000 C 
BRANCH   4   5
ATOM      5  C   UNL     1     130.670 145.061 107.395  1.00  0.00     0.000 C 
BRANCH   5   6
ATOM      6  C   UNL     1     130.851 145.879 106.100  1.00  0.00     0.006 C 
BRANCH   6   7
ATOM      7  C   UNL     1     132.069 146.815 106.102  1.00  0.00     0.053 C 
BRANCH   7   8
ATOM      8  C   UNL     1     133.361 146.056 106.047  1.00  0.00     0.041 C 
ATOM      9  O   UNL     1     133.487 145.078 105.264  1.00  0.00    -0.550 OA
ATOM     10  O   UNL     1     134.435 146.452 106.834  1.00  0.00    -0.550 OA
ENDBRANCH   7   8
ENDBRANCH   6   7
ENDBRANCH   5   6
ENDBRANCH   4   5
ENDBRANCH   3   4
ENDBRANCH   2   3
ENDBRANCH   1   2
BRANCH   1  11
ATOM     11  C   UNL     1     127.167 145.179 105.510  1.00  0.00     0.000 C 
BRANCH  11  12
ATOM     12  C   UNL     1     126.989 144.816 106.989  1.00  0.00     0.000 C 
BRANCH  12  13
ATOM     13  C   UNL     1     127.199 146.041 107.887  1.00  0.00     0.000 C 
BRANCH  13  14
ATOM     14  C   UNL     1     127.165 145.650 109.369  1.00  0.00     0.000 C 
BRANCH  14  15
ATOM     15  C   UNL     1     127.712 144.233 109.577  1.00  0.00     0.000 C 
BRANCH  15  16
ATOM     16  C   UNL     1     127.841 143.906 111.072  1.00  0.00     0.006 C 
BRANCH  16  17
ATOM     17  C   UNL     1     129.298 143.673 111.493  1.00  0.00     0.053 C 
BRANCH  17  18
ATOM     18  C   UNL     1     129.960 144.942 111.931  1.00  0.00     0.041 C 
ATOM     19  O   UNL     1     130.569 145.660 111.094  1.00  0.00    -0.550 OA
ATOM     20  O   UNL     1     129.879 145.350 113.257  1.00  0.00    -0.550 OA
ENDBRANCH  17  18
ENDBRANCH  16  17
ENDBRANCH  15  16
ENDBRANCH  14  15
ENDBRANCH  13  14
ENDBRANCH  12  13
ENDBRANCH  11  12
ENDBRANCH   1  11
TORSDOF 15
ENDMDL
MODEL 8
REMARK VINA RESULT:    -3.900      2.227      2.879
REMARK INTER + INTRA:          -9.385
REMARK INTER:                  -7.360
REMARK INTRA:                  -2.025
REMARK UNBOUND:                -2.065
REMARK SMILES O=C([O-])CCCCCCCCCCCCCCC(=O)[O-]
REMARK SMILES IDX 10 1 9 2 8 3 7 4 6 5 5 6 4 7 2 8 1 9 3 10 11 11 12 12 13 13
REMARK SMILES IDX 14 14 15 15 16 16 17 17 18 18 19 19 20 20
REMARK H PARENT
REMARK Flexibility Score: inf
ROOT
ATOM      1  C   UNL     1     127.927 145.733 108.551  1.00  0.00     0.000 C 
ENDROOT
BRANCH   1   2
ATOM      2  C   UNL     1     128.706 144.535 109.116  1.00  0.00     0.000 C 
BRANCH   2   3
ATOM      3  C   UNL     1     130.102 144.388 108.492  1.00  0.00     0.000 C 
BRANCH   3   4
ATOM      4  C   UNL     1     130.528 145.687 107.791  1.00  0.00     0.000 C 
BRANCH   4   5
ATOM      5  C   UNL     1     131.246 145.440 106.452  1.00  0.00     0.000 C 
BRANCH   5   6
ATOM      6  C   UNL     1     132.288 146.509 106.063  1.00  0.00     0.006 C 
BRANCH   6   7
ATOM      7  C   UNL     1     133.607 145.944 105.516  1.00  0.00     0.053 C 
BRANCH   7   8
ATOM      8  C   UNL     1     134.623 145.741 106.599  1.00  0.00     0.041 C 
ATOM      9  O   UNL     1     134.584 144.708 107.318  1.00  0.00    -0.550 OA
ATOM     10  O   UNL     1     135.633 146.676 106.790  1.00  0.00    -0.550 OA
ENDBRANCH   7   8
ENDBRANCH   6   7
ENDBRANCH   5   6
ENDBRANCH   4   5
ENDBRANCH   3   4
ENDBRANCH   2   3
ENDBRANCH   1   2
BRANCH   1  11
ATOM     11  C   UNL     1     126.897 145.322 107.488  1.00  0.00     0.000 C 
BRANCH  11  12
ATOM     12  C   UNL     1     127.264 145.896 106.115  1.00  0.00     0.000 C 
BRANCH  12  13
ATOM     13  C   UNL     1     127.848 144.812 105.202  1.00  0.00     0.000 C 
BRANCH  13  14
ATOM     14  C   UNL     1     127.342 143.421 105.606  1.00  0.00     0.000 C 
BRANCH  14  15
ATOM     15  C   UNL     1     128.506 142.434 105.751  1.00  0.00     0.000 C 
BRANCH  15  16
ATOM     16  C   UNL     1     128.318 141.540 106.986  1.00  0.00     0.006 C 
BRANCH  16  17
ATOM     17  C   UNL     1     128.926 140.145 106.793  1.00  0.00     0.053 C 
BRANCH  17  18
ATOM     18  C   UNL     1     127.875 139.114 106.516  1.00  0.00     0.041 C 
ATOM     19  O   UNL     1     127.625 138.767 105.331  1.00  0.00    -0.550 OA
ATOM     20  O   UNL     1     127.194 138.513 107.567  1.00  0.00    -0.550 OA
ENDBRANCH  17  18
ENDBRANCH  16  17
ENDBRANCH  15  16
ENDBRANCH  14  15
ENDBRANCH  13  14
ENDBRANCH  12  13
ENDBRANCH  11  12
ENDBRANCH   1  11
TORSDOF 15
ENDMDL
MODEL 9
REMARK VINA RESULT:    -2.636      1.679      2.342
REMARK INTER + INTRA:          -7.012
REMARK INTER:                  -4.558
REMARK INTRA:                  -2.454
REMARK UNBOUND:                -2.065
REMARK SMILES O=C([O-])CCCCCCCCCCCCCCC(=O)[O-]
REMARK SMILES IDX 10 1 9 2 8 3 7 4 6 5 5 6 4 7 2 8 1 9 3 10 11 11 12 12 13 13
REMARK SMILES IDX 14 14 15 15 16 16 17 17 18 18 19 19 20 20
REMARK H PARENT
REMARK Flexibility Score: inf
ROOT
ATOM      1  C   UNL     1     127.951 145.374 108.789  1.00  0.00     0.000 C 
ENDROOT
BRANCH   1   2
ATOM      2  C   UNL     1     129.291 145.952 108.310  1.00  0.00     0.000 C 
BRANCH   2   3
ATOM      3  C   UNL     1     130.459 144.972 108.496  1.00  0.00     0.000 C 
BRANCH   3   4
ATOM      4  C   UNL     1     131.063 144.576 107.140  1.00  0.00     0.000 C 
BRANCH   4   5
ATOM      5  C   UNL     1     131.074 145.734 106.126  1.00  0.00     0.000 C 
BRANCH   5   6
ATOM      6  C   UNL     1     132.241 146.730 106.284  1.00  0.00     0.006 C 
BRANCH   6   7
ATOM      7  C   UNL     1     133.555 146.282 105.626  1.00  0.00     0.053 C 
BRANCH   7   8
ATOM      8  C   UNL     1     134.532 145.748 106.629  1.00  0.00     0.041 C 
ATOM      9  O   UNL     1     134.812 144.520 106.647  1.00  0.00    -0.550 OA
ATOM     10  O   UNL     1     135.159 146.610 107.519  1.00  0.00    -0.550 OA
ENDBRANCH   7   8
ENDBRANCH   6   7
ENDBRANCH   5   6
ENDBRANCH   4   5
ENDBRANCH   3   4
ENDBRANCH   2   3
ENDBRANCH   1   2
BRANCH   1  11
ATOM     11  C   UNL     1     126.875 145.384 107.692  1.00  0.00     0.000 C 
BRANCH  11  12
ATOM     12  C   UNL     1     127.330 146.212 106.485  1.00  0.00     0.000 C 
BRANCH  12  13
ATOM     13  C   UNL     1     127.555 145.320 105.258  1.00  0.00     0.000 C 
BRANCH  13  14
ATOM     14  C   UNL     1     127.278 143.848 105.590  1.00  0.00     0.000 C 
BRANCH  14  15
ATOM     15  C   UNL     1     128.497 142.974 105.273  1.00  0.00     0.000 C 
BRANCH  15  16
ATOM     16  C   UNL     1     128.488 141.691 106.117  1.00  0.00     0.006 C 
BRANCH  16  17
ATOM     17  C   UNL     1     127.681 141.852 107.412  1.00  0.00     0.053 C 
BRANCH  17  18
ATOM     18  C   UNL     1     128.545 141.706 108.627  1.00  0.00     0.041 C 
ATOM     19  O   UNL     1     128.035 141.772 109.777  1.00  0.00    -0.550 OA
ATOM     20  O   UNL     1     129.906 141.465 108.490  1.00  0.00    -0.550 OA
ENDBRANCH  17  18
ENDBRANCH  16  17
ENDBRANCH  15  16
ENDBRANCH  14  15
ENDBRANCH  13  14
ENDBRANCH  12  13
ENDBRANCH  11  12
ENDBRANCH   1  11
TORSDOF 15
ENDMDL
