MODEL 1
REMARK VINA RESULT:    -5.584      0.000      0.000
REMARK INTER + INTRA:          -9.842
REMARK INTER:                  -8.522
REMARK INTRA:                  -1.320
REMARK UNBOUND:                -1.320
REMARK SMILES CCCCCCCCCC=CC(=O)[O-]
REMARK SMILES IDX 7 1 8 2 9 3 10 4 11 5 12 6 13 7 14 8 6 9 5 10 4 11 3 12 2 13
REMARK SMILES IDX 1 14
REMARK H PARENT
REMARK Flexibility Score: inf
ROOT
ATOM      1  C   UNL     1     -18.281  -9.502   0.730  1.00  0.00     0.000 C 
ENDROOT
BRANCH   1   2
ATOM      2  C   UNL     1     -19.065  -9.485  -0.591  1.00  0.00     0.004 C 
BRANCH   2   3
ATOM      3  C   UNL     1     -18.653 -10.661  -1.486  1.00  0.00     0.027 C 
BRANCH   3   4
ATOM      4  C   UNL     1     -18.293 -11.870  -0.666  1.00  0.00    -0.025 C 
ATOM      5  C   UNL     1     -18.147 -13.123  -1.130  1.00  0.00     0.020 C 
BRANCH   5   6
ATOM      6  C   UNL     1     -18.271 -13.562  -2.536  1.00  0.00     0.064 C 
ATOM      7  O   UNL     1     -17.240 -13.586  -3.258  1.00  0.00    -0.545 OA
ATOM      8  O   UNL     1     -19.489 -13.927  -3.096  1.00  0.00    -0.545 OA
ENDBRANCH   5   6
ENDBRANCH   3   4
ENDBRANCH   2   3
ENDBRANCH   1   2
BRANCH   1   9
ATOM      9  C   UNL     1     -17.845  -8.099   1.191  1.00  0.00     0.000 C 
BRANCH   9  10
ATOM     10  C   UNL     1     -16.435  -7.667   0.747  1.00  0.00     0.000 C 
BRANCH  10  11
ATOM     11  C   UNL     1     -15.569  -8.844   0.268  1.00  0.00    -0.000 C 
BRANCH  11  12
ATOM     12  C   UNL     1     -15.242  -8.773  -1.236  1.00  0.00    -0.000 C 
BRANCH  12  13
ATOM     13  C   UNL     1     -16.114  -7.799  -2.049  1.00  0.00    -0.003 C 
ATOM     14  C   UNL     1     -16.510  -8.348  -3.418  1.00  0.00     0.004 C 
ENDBRANCH  12  13
ENDBRANCH  11  12
ENDBRANCH  10  11
ENDBRANCH   9  10
ENDBRANCH   1   9
TORSDOF 9
ENDMDL
MODEL 2
REMARK VINA RESULT:    -5.546      2.677      5.052
REMARK INTER + INTRA:          -9.783
REMARK INTER:                  -8.810
REMARK INTRA:                  -0.973
REMARK UNBOUND:                -1.320
REMARK SMILES CCCCCCCCCC=CC(=O)[O-]
REMARK SMILES IDX 7 1 8 2 9 3 10 4 11 5 12 6 13 7 14 8 6 9 5 10 4 11 3 12 2 13
REMARK SMILES IDX 1 14
REMARK H PARENT
REMARK Flexibility Score: inf
ROOT
ATOM      1  C   UNL     1     -18.838 -11.537  -0.248  1.00  0.00     0.000 C 
ENDROOT
BRANCH   1   2
ATOM      2  C   UNL     1     -18.934 -10.207  -1.009  1.00  0.00     0.004 C 
BRANCH   2   3
ATOM      3  C   UNL     1     -17.756 -10.047  -1.981  1.00  0.00     0.027 C 
BRANCH   3   4
ATOM      4  C   UNL     1     -17.075  -8.719  -1.798  1.00  0.00    -0.025 C 
ATOM      5  C   UNL     1     -16.338  -8.076  -2.720  1.00  0.00     0.020 C 
BRANCH   5   6
ATOM      6  C   UNL     1     -16.080  -8.519  -4.107  1.00  0.00     0.064 C 
ATOM      7  O   UNL     1     -16.725  -7.982  -5.046  1.00  0.00    -0.545 OA
ATOM      8  O   UNL     1     -15.170  -9.523  -4.409  1.00  0.00    -0.545 OA
ENDBRANCH   5   6
ENDBRANCH   3   4
ENDBRANCH   2   3
ENDBRANCH   1   2
BRANCH   1   9
ATOM      9  C   UNL     1     -17.387 -11.960   0.047  1.00  0.00     0.000 C 
BRANCH   9  10
ATOM     10  C   UNL     1     -17.116 -13.475  -0.018  1.00  0.00     0.000 C 
BRANCH  10  11
ATOM     11  C   UNL     1     -16.119 -13.861  -1.125  1.00  0.00    -0.000 C 
BRANCH  11  12
ATOM     12  C   UNL     1     -16.745 -14.762  -2.206  1.00  0.00    -0.000 C 
BRANCH  12  13
ATOM     13  C   UNL     1     -17.581 -14.025  -3.268  1.00  0.00    -0.003 C 
ATOM     14  C   UNL     1     -19.069 -13.970  -2.927  1.00  0.00     0.004 C 
ENDBRANCH  12  13
ENDBRANCH  11  12
ENDBRANCH  10  11
ENDBRANCH   9  10
ENDBRANCH   1   9
TORSDOF 9
ENDMDL
MODEL 3
REMARK VINA RESULT:    -5.505      2.850      5.234
REMARK INTER + INTRA:          -9.721
REMARK INTER:                  -8.363
REMARK INTRA:                  -1.358
REMARK UNBOUND:                -1.320
REMARK SMILES CCCCCCCCCC=CC(=O)[O-]
REMARK SMILES IDX 7 1 8 2 9 3 10 4 11 5 12 6 13 7 14 8 6 9 5 10 4 11 3 12 2 13
REMARK SMILES IDX 1 14
REMARK H PARENT
REMARK Flexibility Score: inf
ROOT
ATOM      1  C   UNL     1     -18.381 -11.492  -0.235  1.00  0.00     0.000 C 
ENDROOT
BRANCH   1   2
ATOM      2  C   UNL     1     -18.638 -10.469  -1.352  1.00  0.00     0.004 C 
BRANCH   2   3
ATOM      3  C   UNL     1     -17.404 -10.322  -2.253  1.00  0.00     0.027 C 
BRANCH   3   4
ATOM      4  C   UNL     1     -17.079  -8.874  -2.500  1.00  0.00    -0.025 C 
ATOM      5  C   UNL     1     -16.328  -8.089  -1.709  1.00  0.00     0.020 C 
BRANCH   5   6
ATOM      6  C   UNL     1     -15.638  -8.492  -0.465  1.00  0.00     0.064 C 
ATOM      7  O   UNL     1     -14.545  -9.110  -0.549  1.00  0.00    -0.545 OA
ATOM      8  O   UNL     1     -16.166  -8.234   0.794  1.00  0.00    -0.545 OA
ENDBRANCH   5   6
ENDBRANCH   3   4
ENDBRANCH   2   3
ENDBRANCH   1   2
BRANCH   1   9
ATOM      9  C   UNL     1     -16.935 -12.020  -0.222  1.00  0.00     0.000 C 
BRANCH   9  10
ATOM     10  C   UNL     1     -16.764 -13.463   0.290  1.00  0.00     0.000 C 
BRANCH  10  11
ATOM     11  C   UNL     1     -16.108 -14.394  -0.743  1.00  0.00    -0.000 C 
BRANCH  11  12
ATOM     12  C   UNL     1     -16.375 -13.959  -2.196  1.00  0.00    -0.000 C 
BRANCH  12  13
ATOM     13  C   UNL     1     -17.486 -14.742  -2.918  1.00  0.00    -0.003 C 
ATOM     14  C   UNL     1     -18.821 -14.000  -2.947  1.00  0.00     0.004 C 
ENDBRANCH  12  13
ENDBRANCH  11  12
ENDBRANCH  10  11
ENDBRANCH   9  10
ENDBRANCH   1   9
TORSDOF 9
ENDMDL
MODEL 4
REMARK VINA RESULT:    -5.467      1.255      2.742
REMARK INTER + INTRA:          -9.664
REMARK INTER:                  -8.344
REMARK INTRA:                  -1.319
REMARK UNBOUND:                -1.320
REMARK SMILES CCCCCCCCCC=CC(=O)[O-]
REMARK SMILES IDX 7 1 8 2 9 3 10 4 11 5 12 6 13 7 14 8 6 9 5 10 4 11 3 12 2 13
REMARK SMILES IDX 1 14
REMARK H PARENT
REMARK Flexibility Score: inf
ROOT
ATOM      1  C   UNL     1     -18.764 -10.530  -1.371  1.00  0.00     0.000 C 
ENDROOT
BRANCH   1   2
ATOM      2  C   UNL     1     -18.620 -11.726  -0.417  1.00  0.00     0.004 C 
BRANCH   2   3
ATOM      3  C   UNL     1     -17.141 -12.033  -0.144  1.00  0.00     0.027 C 
BRANCH   3   4
ATOM      4  C   UNL     1     -16.887 -13.515  -0.124  1.00  0.00    -0.025 C 
ATOM      5  C   UNL     1     -16.595 -14.280  -1.190  1.00  0.00     0.020 C 
BRANCH   5   6
ATOM      6  C   UNL     1     -16.425 -13.820  -2.585  1.00  0.00     0.064 C 
ATOM      7  O   UNL     1     -15.374 -13.200  -2.897  1.00  0.00    -0.545 OA
ATOM      8  O   UNL     1     -17.394 -14.026  -3.558  1.00  0.00    -0.545 OA
ENDBRANCH   5   6
ENDBRANCH   3   4
ENDBRANCH   2   3
ENDBRANCH   1   2
BRANCH   1   9
ATOM      9  C   UNL     1     -17.496 -10.267  -2.203  1.00  0.00     0.000 C 
BRANCH   9  10
ATOM     10  C   UNL     1     -17.099  -8.786  -2.351  1.00  0.00     0.000 C 
BRANCH  10  11
ATOM     11  C   UNL     1     -15.819  -8.427  -1.577  1.00  0.00    -0.000 C 
BRANCH  11  12
ATOM     12  C   UNL     1     -16.098  -7.597  -0.310  1.00  0.00    -0.000 C 
BRANCH  12  13
ATOM     13  C   UNL     1     -16.590  -8.405   0.904  1.00  0.00    -0.003 C 
ATOM     14  C   UNL     1     -18.054  -8.138   1.250  1.00  0.00     0.004 C 
ENDBRANCH  12  13
ENDBRANCH  11  12
ENDBRANCH  10  11
ENDBRANCH   9  10
ENDBRANCH   1   9
TORSDOF 9
ENDMDL
MODEL 5
REMARK VINA RESULT:    -5.397      3.223      5.506
REMARK INTER + INTRA:          -9.556
REMARK INTER:                  -8.252
REMARK INTRA:                  -1.304
REMARK UNBOUND:                -1.320
REMARK SMILES CCCCCCCCCC=CC(=O)[O-]
REMARK SMILES IDX 7 1 8 2 9 3 10 4 11 5 12 6 13 7 14 8 6 9 5 10 4 11 3 12 2 13
REMARK SMILES IDX 1 14
REMARK H PARENT
REMARK Flexibility Score: inf
ROOT
ATOM      1  C   UNL     1     -18.702 -11.546  -0.367  1.00  0.00     0.000 C 
ENDROOT
BRANCH   1   2
ATOM      2  C   UNL     1     -19.002 -10.329  -1.255  1.00  0.00     0.004 C 
BRANCH   2   3
ATOM      3  C   UNL     1     -17.706  -9.621  -1.669  1.00  0.00     0.027 C 
BRANCH   3   4
ATOM      4  C   UNL     1     -16.573  -9.969  -0.742  1.00  0.00    -0.025 C 
ATOM      5  C   UNL     1     -16.228  -9.296   0.368  1.00  0.00     0.020 C 
BRANCH   5   6
ATOM      6  C   UNL     1     -16.907  -8.108   0.927  1.00  0.00     0.064 C 
ATOM      7  O   UNL     1     -16.304  -7.003   0.919  1.00  0.00    -0.545 OA
ATOM      8  O   UNL     1     -18.179  -8.172   1.482  1.00  0.00    -0.545 OA
ENDBRANCH   5   6
ENDBRANCH   3   4
ENDBRANCH   2   3
ENDBRANCH   1   2
BRANCH   1   9
ATOM      9  C   UNL     1     -19.138 -12.878  -1.003  1.00  0.00     0.000 C 
BRANCH   9  10
ATOM     10  C   UNL     1     -18.633 -13.122  -2.437  1.00  0.00     0.000 C 
BRANCH  10  11
ATOM     11  C   UNL     1     -17.129 -13.441  -2.499  1.00  0.00    -0.000 C 
BRANCH  11  12
ATOM     12  C   UNL     1     -16.682 -14.431  -1.407  1.00  0.00    -0.000 C 
BRANCH  12  13
ATOM     13  C   UNL     1     -15.519 -13.945  -0.522  1.00  0.00    -0.003 C 
ATOM     14  C   UNL     1     -15.936 -13.679   0.923  1.00  0.00     0.004 C 
ENDBRANCH  12  13
ENDBRANCH  11  12
ENDBRANCH  10  11
ENDBRANCH   9  10
ENDBRANCH   1   9
TORSDOF 9
ENDMDL
MODEL 6
REMARK VINA RESULT:    -5.372      2.368      4.998
REMARK INTER + INTRA:          -9.518
REMARK INTER:                  -8.439
REMARK INTRA:                  -1.079
REMARK UNBOUND:                -1.320
REMARK SMILES CCCCCCCCCC=CC(=O)[O-]
REMARK SMILES IDX 7 1 8 2 9 3 10 4 11 5 12 6 13 7 14 8 6 9 5 10 4 11 3 12 2 13
REMARK SMILES IDX 1 14
REMARK H PARENT
REMARK Flexibility Score: inf
ROOT
ATOM      1  C   UNL     1     -18.913  -9.697  -0.949  1.00  0.00     0.000 C 
ENDROOT
BRANCH   1   2
ATOM      2  C   UNL     1     -18.223  -9.352   0.379  1.00  0.00     0.004 C 
BRANCH   2   3
ATOM      3  C   UNL     1     -16.699  -9.292   0.203  1.00  0.00     0.027 C 
BRANCH   3   4
ATOM      4  C   UNL     1     -16.246  -7.906  -0.166  1.00  0.00    -0.025 C 
ATOM      5  C   UNL     1     -15.828  -7.510  -1.380  1.00  0.00     0.020 C 
BRANCH   5   6
ATOM      6  C   UNL     1     -15.766  -8.336  -2.604  1.00  0.00     0.064 C 
ATOM      7  O   UNL     1     -14.720  -8.995  -2.841  1.00  0.00    -0.545 OA
ATOM      8  O   UNL     1     -16.813  -8.393  -3.516  1.00  0.00    -0.545 OA
ENDBRANCH   5   6
ENDBRANCH   3   4
ENDBRANCH   2   3
ENDBRANCH   1   2
BRANCH   1   9
ATOM      9  C   UNL     1     -18.473 -11.056  -1.523  1.00  0.00     0.000 C 
BRANCH   9  10
ATOM     10  C   UNL     1     -18.821 -12.281  -0.657  1.00  0.00     0.000 C 
BRANCH  10  11
ATOM     11  C   UNL     1     -17.579 -13.035  -0.153  1.00  0.00    -0.000 C 
BRANCH  11  12
ATOM     12  C   UNL     1     -16.524 -13.255  -1.254  1.00  0.00    -0.000 C 
BRANCH  12  13
ATOM     13  C   UNL     1     -16.495 -14.671  -1.856  1.00  0.00    -0.003 C 
ATOM     14  C   UNL     1     -17.504 -14.863  -2.987  1.00  0.00     0.004 C 
ENDBRANCH  12  13
ENDBRANCH  11  12
ENDBRANCH  10  11
ENDBRANCH   9  10
ENDBRANCH   1   9
TORSDOF 9
ENDMDL
MODEL 7
REMARK VINA RESULT:    -5.361      1.572      1.931
REMARK INTER + INTRA:          -9.502
REMARK INTER:                  -8.104
REMARK INTRA:                  -1.397
REMARK UNBOUND:                -1.320
REMARK SMILES CCCCCCCCCC=CC(=O)[O-]
REMARK SMILES IDX 7 1 8 2 9 3 10 4 11 5 12 6 13 7 14 8 6 9 5 10 4 11 3 12 2 13
REMARK SMILES IDX 1 14
REMARK H PARENT
REMARK Flexibility Score: inf
ROOT
ATOM      1  C   UNL     1     -18.287  -8.764   0.556  1.00  0.00     0.000 C 
ENDROOT
BRANCH   1   2
ATOM      2  C   UNL     1     -18.992  -9.493  -0.597  1.00  0.00     0.004 C 
BRANCH   2   3
ATOM      3  C   UNL     1     -18.485 -10.936  -0.722  1.00  0.00     0.027 C 
BRANCH   3   4
ATOM      4  C   UNL     1     -18.066 -11.246  -2.134  1.00  0.00    -0.025 C 
ATOM      5  C   UNL     1     -17.044 -12.039  -2.497  1.00  0.00     0.020 C 
BRANCH   5   6
ATOM      6  C   UNL     1     -16.153 -12.798  -1.594  1.00  0.00     0.064 C 
ATOM      7  O   UNL     1     -14.977 -12.385  -1.413  1.00  0.00    -0.545 OA
ATOM      8  O   UNL     1     -16.558 -13.963  -0.957  1.00  0.00    -0.545 OA
ENDBRANCH   5   6
ENDBRANCH   3   4
ENDBRANCH   2   3
ENDBRANCH   1   2
BRANCH   1   9
ATOM      9  C   UNL     1     -16.751  -8.846   0.472  1.00  0.00     0.000 C 
BRANCH   9  10
ATOM     10  C   UNL     1     -16.054  -7.595  -0.095  1.00  0.00     0.000 C 
BRANCH  10  11
ATOM     11  C   UNL     1     -15.978  -7.593  -1.631  1.00  0.00    -0.000 C 
BRANCH  11  12
ATOM     12  C   UNL     1     -15.086  -8.718  -2.188  1.00  0.00    -0.000 C 
BRANCH  12  13
ATOM     13  C   UNL     1     -15.319  -9.062  -3.671  1.00  0.00    -0.003 C 
ATOM     14  C   UNL     1     -16.505  -8.317  -4.280  1.00  0.00     0.004 C 
ENDBRANCH  12  13
ENDBRANCH  11  12
ENDBRANCH  10  11
ENDBRANCH   9  10
ENDBRANCH   1   9
TORSDOF 9
ENDMDL
MODEL 8
REMARK VINA RESULT:    -5.309      2.555      5.356
REMARK INTER + INTRA:          -9.421
REMARK INTER:                  -8.586
REMARK INTRA:                  -0.836
REMARK UNBOUND:                -1.320
REMARK SMILES CCCCCCCCCC=CC(=O)[O-]
REMARK SMILES IDX 7 1 8 2 9 3 10 4 11 5 12 6 13 7 14 8 6 9 5 10 4 11 3 12 2 13
REMARK SMILES IDX 1 14
REMARK H PARENT
REMARK Flexibility Score: inf
ROOT
ATOM      1  C   UNL     1     -18.726 -11.685  -0.602  1.00  0.00     0.000 C 
ENDROOT
BRANCH   1   2
ATOM      2  C   UNL     1     -18.378 -10.196  -0.455  1.00  0.00     0.004 C 
BRANCH   2   3
ATOM      3  C   UNL     1     -17.961  -9.596  -1.805  1.00  0.00     0.027 C 
BRANCH   3   4
ATOM      4  C   UNL     1     -16.911  -8.533  -1.628  1.00  0.00    -0.025 C 
ATOM      5  C   UNL     1     -16.041  -8.120  -2.565  1.00  0.00     0.020 C 
BRANCH   5   6
ATOM      6  C   UNL     1     -15.964  -8.590  -3.965  1.00  0.00     0.064 C 
ATOM      7  O   UNL     1     -16.741  -8.088  -4.818  1.00  0.00    -0.545 OA
ATOM      8  O   UNL     1     -15.081  -9.584  -4.366  1.00  0.00    -0.545 OA
ENDBRANCH   5   6
ENDBRANCH   3   4
ENDBRANCH   2   3
ENDBRANCH   1   2
BRANCH   1   9
ATOM      9  C   UNL     1     -18.550 -12.205  -2.041  1.00  0.00     0.000 C 
BRANCH   9  10
ATOM     10  C   UNL     1     -18.433 -13.735  -2.179  1.00  0.00     0.000 C 
BRANCH  10  11
ATOM     11  C   UNL     1     -16.983 -14.213  -2.367  1.00  0.00    -0.000 C 
BRANCH  11  12
ATOM     12  C   UNL     1     -16.346 -14.720  -1.059  1.00  0.00    -0.000 C 
BRANCH  12  13
ATOM     13  C   UNL     1     -15.582 -13.655  -0.251  1.00  0.00    -0.003 C 
ATOM     14  C   UNL     1     -15.738 -13.822   1.260  1.00  0.00     0.004 C 
ENDBRANCH  12  13
ENDBRANCH  11  12
ENDBRANCH  10  11
ENDBRANCH   9  10
ENDBRANCH   1   9
TORSDOF 9
ENDMDL
MODEL 9
REMARK VINA RESULT:    -5.304      2.035      2.678
REMARK INTER + INTRA:          -9.414
REMARK INTER:                  -7.945
REMARK INTRA:                  -1.469
REMARK UNBOUND:                -1.320
REMARK SMILES CCCCCCCCCC=CC(=O)[O-]
REMARK SMILES IDX 7 1 8 2 9 3 10 4 11 5 12 6 13 7 14 8 6 9 5 10 4 11 3 12 2 13
REMARK SMILES IDX 1 14
REMARK H PARENT
REMARK Flexibility Score: inf
ROOT
ATOM      1  C   UNL     1     -19.116 -10.357  -1.098  1.00  0.00     0.000 C 
ENDROOT
BRANCH   1   2
ATOM      2  C   UNL     1     -18.974 -11.632  -0.252  1.00  0.00     0.004 C 
BRANCH   2   3
ATOM      3  C   UNL     1     -18.164 -12.698  -1.002  1.00  0.00     0.027 C 
BRANCH   3   4
ATOM      4  C   UNL     1     -17.281 -12.075  -2.049  1.00  0.00    -0.025 C 
ATOM      5  C   UNL     1     -15.949 -11.921  -1.967  1.00  0.00     0.020 C 
BRANCH   5   6
ATOM      6  C   UNL     1     -15.076 -12.364  -0.859  1.00  0.00     0.064 C 
ATOM      7  O   UNL     1     -14.255 -13.295  -1.066  1.00  0.00    -0.545 OA
ATOM      8  O   UNL     1     -15.148 -11.805   0.411  1.00  0.00    -0.545 OA
ENDBRANCH   5   6
ENDBRANCH   3   4
ENDBRANCH   2   3
ENDBRANCH   1   2
BRANCH   1   9
ATOM      9  C   UNL     1     -19.019  -9.067  -0.264  1.00  0.00     0.000 C 
BRANCH   9  10
ATOM     10  C   UNL     1     -17.968  -9.086   0.862  1.00  0.00     0.000 C 
BRANCH  10  11
ATOM     11  C   UNL     1     -16.823  -8.085   0.634  1.00  0.00    -0.000 C 
BRANCH  11  12
ATOM     12  C   UNL     1     -15.901  -8.487  -0.533  1.00  0.00    -0.000 C 
BRANCH  12  13
ATOM     13  C   UNL     1     -16.025  -7.611  -1.794  1.00  0.00    -0.003 C 
ATOM     14  C   UNL     1     -16.525  -8.384  -3.013  1.00  0.00     0.004 C 
ENDBRANCH  12  13
ENDBRANCH  11  12
ENDBRANCH  10  11
ENDBRANCH   9  10
ENDBRANCH   1   9
TORSDOF 9
ENDMDL
