MODEL 1
REMARK VINA RESULT:    -5.891      0.000      0.000
REMARK INTER + INTRA:          -9.657
REMARK INTER:                  -8.646
REMARK INTRA:                  -1.011
REMARK UNBOUND:                -1.011
REMARK SMILES CC(C)(O)CC[C@H](O)[C@](C)(O)[C@H]1CC[C@@]2(O)C3=CC(=O)[C@@H]4C[C@@H](O)[C@H](O)C[C@@]4(C)[C@@H]3CC[C@@]12C
REMARK SMILES IDX 6 1 7 2 9 3 10 4 12 5 34 6 33 7 32 8 15 9 31 10 17 11 14 12
REMARK SMILES IDX 13 13 30 14 18 15 28 16 19 17 21 18 27 19 29 20 20 21 22 22
REMARK SMILES IDX 25 23 23 24 16 25 26 27 24 29 11 31 8 33 5 35 2 36 1 37 3 38
REMARK SMILES IDX 4 39
REMARK H PARENT 16 26 26 28 24 30 11 32 8 34 4 40
REMARK Flexibility Score: inf
ROOT
ATOM      1  C   UNL     1       4.857  27.750  16.892  1.00  0.00     0.038 C 
ENDROOT
BRANCH   1   2
ATOM      2  C   UNL     1       5.883  28.915  17.007  1.00  0.00     0.146 C 
BRANCH   2   3
ATOM      3  C   UNL     1       6.001  29.793  15.708  1.00  0.00     0.091 C 
ATOM      4  C   UNL     1       5.177  31.100  15.863  1.00  0.00     0.045 C 
BRANCH   3   5
ATOM      5  C   UNL     1       7.523  30.037  15.295  1.00  0.00     0.032 C 
ATOM      6  C   UNL     1       8.143  28.834  13.068  1.00  0.00     0.015 C 
ATOM      7  C   UNL     1       8.441  28.964  14.597  1.00  0.00     0.006 C 
ATOM      8  C   UNL     1       8.347  27.566  15.265  1.00  0.00     0.011 C 
ATOM      9  C   UNL     1       9.864  29.584  14.812  1.00  0.00     0.092 C 
ATOM     10  C   UNL     1       9.443  26.621  14.784  1.00  0.00     0.009 C 
ATOM     11  C   UNL     1      11.026  28.585  14.705  1.00  0.00    -0.031 C 
ATOM     12  C   UNL     1       9.802  30.162  16.241  1.00  0.00     0.041 C 
ATOM     13  C   UNL     1       8.367  30.614  16.457  1.00  0.00     0.010 C 
ATOM     14  C   UNL     1      10.838  27.141  15.178  1.00  0.00     0.025 C 
ATOM     15  C   UNL     1      12.272  29.059  14.479  1.00  0.00     0.050 C 
ATOM     16  C   UNL     1      12.001  26.173  14.727  1.00  0.00    -0.013 C 
ATOM     17  C   UNL     1      13.470  28.224  14.620  1.00  0.00     0.159 C 
ATOM     18  C   UNL     1      13.350  26.825  15.158  1.00  0.00     0.070 C 
ATOM     19  C   UNL     1      11.848  24.778  15.442  1.00  0.00     0.042 C 
ATOM     20  C   UNL     1      11.965  25.976  13.180  1.00  0.00     0.013 C 
ATOM     21  O   UNL     1      14.602  28.735  14.413  1.00  0.00    -0.295 OA
ATOM     22  C   UNL     1      14.587  25.952  14.815  1.00  0.00     0.047 C 
ATOM     23  C   UNL     1      13.164  24.166  15.984  1.00  0.00     0.143 C 
ATOM     24  C   UNL     1      14.345  24.438  15.034  1.00  0.00     0.143 C 
BRANCH   9  25
ATOM     25  O   UNL     1      10.030  30.619  13.854  1.00  0.00    -0.385 OA
ATOM     26  H   UNL     1       9.599  31.456  14.170  1.00  0.00     0.211 HD
ENDBRANCH   9  25
BRANCH  23  27
ATOM     27  O   UNL     1      13.014  22.779  16.151  1.00  0.00    -0.390 OA
ATOM     28  H   UNL     1      12.201  22.515  15.646  1.00  0.00     0.211 HD
ENDBRANCH  23  27
BRANCH  24  29
ATOM     29  O   UNL     1      15.515  23.814  15.503  1.00  0.00    -0.390 OA
ATOM     30  H   UNL     1      15.383  22.833  15.433  1.00  0.00     0.211 HD
ENDBRANCH  24  29
ENDBRANCH   3   5
BRANCH   3  31
ATOM     31  O   UNL     1       5.393  29.089  14.646  1.00  0.00    -0.387 OA
ATOM     32  H   UNL     1       6.065  28.479  14.248  1.00  0.00     0.211 HD
ENDBRANCH   3  31
ENDBRANCH   2   3
BRANCH   2  33
ATOM     33  O   UNL     1       5.516  29.719  18.099  1.00  0.00    -0.390 OA
ATOM     34  H   UNL     1       5.868  29.270  18.916  1.00  0.00     0.211 HD
ENDBRANCH   2  33
ENDBRANCH   1   2
BRANCH   1  35
ATOM     35  C   UNL     1       5.519  26.356  16.832  1.00  0.00     0.037 C 
BRANCH  35  36
ATOM     36  C   UNL     1       4.980  25.452  15.686  1.00  0.00     0.059 C 
ATOM     37  C   UNL     1       6.154  24.671  15.058  1.00  0.00     0.042 C 
ATOM     38  C   UNL     1       3.946  24.442  16.219  1.00  0.00     0.042 C 
BRANCH  36  39
ATOM     39  O   UNL     1       4.359  26.231  14.690  1.00  0.00    -0.390 OA
ATOM     40  H   UNL     1       5.038  26.439  13.995  1.00  0.00     0.211 HD
ENDBRANCH  36  39
ENDBRANCH  35  36
ENDBRANCH   1  35
TORSDOF 11
ENDMDL
MODEL 2
REMARK VINA RESULT:    -5.533      1.969      8.589
REMARK INTER + INTRA:          -9.132
REMARK INTER:                  -8.121
REMARK INTRA:                  -1.011
REMARK UNBOUND:                -1.011
REMARK SMILES CC(C)(O)CC[C@H](O)[C@](C)(O)[C@H]1CC[C@@]2(O)C3=CC(=O)[C@@H]4C[C@@H](O)[C@H](O)C[C@@]4(C)[C@@H]3CC[C@@]12C
REMARK SMILES IDX 6 1 7 2 9 3 10 4 12 5 34 6 33 7 32 8 15 9 31 10 17 11 14 12
REMARK SMILES IDX 13 13 30 14 18 15 28 16 19 17 21 18 27 19 29 20 20 21 22 22
REMARK SMILES IDX 25 23 23 24 16 25 26 27 24 29 11 31 8 33 5 35 2 36 1 37 3 38
REMARK SMILES IDX 4 39
REMARK H PARENT 16 26 26 28 24 30 11 32 8 34 4 40
REMARK Flexibility Score: inf
ROOT
ATOM      1  C   UNL     1      15.992  23.856  13.439  1.00  0.00     0.038 C 
ENDROOT
BRANCH   1   2
ATOM      2  C   UNL     1      16.559  24.823  14.520  1.00  0.00     0.146 C 
BRANCH   2   3
ATOM      3  C   UNL     1      15.470  25.729  15.201  1.00  0.00     0.091 C 
ATOM      4  C   UNL     1      15.709  27.221  14.845  1.00  0.00     0.045 C 
BRANCH   3   5
ATOM      5  C   UNL     1      13.992  25.220  14.881  1.00  0.00     0.032 C 
ATOM      6  C   UNL     1      12.876  26.585  12.962  1.00  0.00     0.015 C 
ATOM      7  C   UNL     1      12.797  26.157  14.463  1.00  0.00     0.006 C 
ATOM      8  C   UNL     1      12.682  27.420  15.358  1.00  0.00     0.011 C 
ATOM      9  C   UNL     1      11.567  25.210  14.683  1.00  0.00     0.092 C 
ATOM     10  C   UNL     1      11.365  28.160  15.146  1.00  0.00     0.009 C 
ATOM     11  C   UNL     1      10.221  25.929  14.853  1.00  0.00    -0.031 C 
ATOM     12  C   UNL     1      11.917  24.446  15.977  1.00  0.00     0.041 C 
ATOM     13  C   UNL     1      13.431  24.296  15.988  1.00  0.00     0.010 C 
ATOM     14  C   UNL     1      10.164  27.288  15.557  1.00  0.00     0.025 C 
ATOM     15  C   UNL     1       9.081  25.231  14.651  1.00  0.00     0.050 C 
ATOM     16  C   UNL     1       8.782  28.031  15.383  1.00  0.00    -0.013 C 
ATOM     17  C   UNL     1       7.762  25.747  15.038  1.00  0.00     0.159 C 
ATOM     18  C   UNL     1       7.656  27.037  15.803  1.00  0.00     0.070 C 
ATOM     19  C   UNL     1       8.729  29.297  16.319  1.00  0.00     0.042 C 
ATOM     20  C   UNL     1       8.591  28.469  13.898  1.00  0.00     0.013 C 
ATOM     21  O   UNL     1       6.743  25.036  14.839  1.00  0.00    -0.295 OA
ATOM     22  C   UNL     1       6.235  27.655  15.725  1.00  0.00     0.047 C 
ATOM     23  C   UNL     1       7.391  29.510  17.069  1.00  0.00     0.143 C 
ATOM     24  C   UNL     1       6.186  29.132  16.188  1.00  0.00     0.143 C 
BRANCH   9  25
ATOM     25  O   UNL     1      11.504  24.326  13.574  1.00  0.00    -0.385 OA
ATOM     26  H   UNL     1      12.279  24.469  12.971  1.00  0.00     0.211 HD
ENDBRANCH   9  25
BRANCH  23  27
ATOM     27  O   UNL     1       7.272  30.852  17.467  1.00  0.00    -0.390 OA
ATOM     28  H   UNL     1       7.005  30.845  18.423  1.00  0.00     0.211 HD
ENDBRANCH  23  27
BRANCH  24  29
ATOM     29  O   UNL     1       4.978  29.400  16.856  1.00  0.00    -0.390 OA
ATOM     30  H   UNL     1       4.314  28.722  16.566  1.00  0.00     0.211 HD
ENDBRANCH  24  29
ENDBRANCH   3   5
BRANCH   3  31
ATOM     31  O   UNL     1      15.642  25.645  16.600  1.00  0.00    -0.387 OA
ATOM     32  H   UNL     1      15.342  26.498  17.006  1.00  0.00     0.211 HD
ENDBRANCH   3  31
ENDBRANCH   2   3
BRANCH   2  33
ATOM     33  O   UNL     1      17.223  24.055  15.492  1.00  0.00    -0.390 OA
ATOM     34  H   UNL     1      17.989  24.603  15.816  1.00  0.00     0.211 HD
ENDBRANCH   2  33
ENDBRANCH   1   2
BRANCH   1  35
ATOM     35  C   UNL     1      16.526  22.413  13.570  1.00  0.00     0.037 C 
BRANCH  35  36
ATOM     36  C   UNL     1      15.496  21.414  14.174  1.00  0.00     0.059 C 
ATOM     37  C   UNL     1      14.108  21.679  13.557  1.00  0.00     0.042 C 
ATOM     38  C   UNL     1      15.899  19.958  13.874  1.00  0.00     0.042 C 
BRANCH  36  39
ATOM     39  O   UNL     1      15.419  21.568  15.572  1.00  0.00    -0.390 OA
ATOM     40  H   UNL     1      14.460  21.527  15.832  1.00  0.00     0.211 HD
ENDBRANCH  36  39
ENDBRANCH  35  36
ENDBRANCH   1  35
TORSDOF 11
ENDMDL
MODEL 3
REMARK VINA RESULT:    -5.400      1.673      2.506
REMARK INTER + INTRA:          -8.936
REMARK INTER:                  -7.915
REMARK INTRA:                  -1.021
REMARK UNBOUND:                -1.011
REMARK SMILES CC(C)(O)CC[C@H](O)[C@](C)(O)[C@H]1CC[C@@]2(O)C3=CC(=O)[C@@H]4C[C@@H](O)[C@H](O)C[C@@]4(C)[C@@H]3CC[C@@]12C
REMARK SMILES IDX 6 1 7 2 9 3 10 4 12 5 34 6 33 7 32 8 15 9 31 10 17 11 14 12
REMARK SMILES IDX 13 13 30 14 18 15 28 16 19 17 21 18 27 19 29 20 20 21 22 22
REMARK SMILES IDX 25 23 23 24 16 25 26 27 24 29 11 31 8 33 5 35 2 36 1 37 3 38
REMARK SMILES IDX 4 39
REMARK H PARENT 16 26 26 28 24 30 11 32 8 34 4 40
REMARK Flexibility Score: inf
ROOT
ATOM      1  C   UNL     1       3.786  29.708  14.127  1.00  0.00     0.038 C 
ENDROOT
BRANCH   1   2
ATOM      2  C   UNL     1       5.014  28.929  14.681  1.00  0.00     0.146 C 
BRANCH   2   3
ATOM      3  C   UNL     1       5.804  29.698  15.803  1.00  0.00     0.091 C 
ATOM      4  C   UNL     1       5.653  28.971  17.166  1.00  0.00     0.045 C 
BRANCH   3   5
ATOM      5  C   UNL     1       7.320  29.966  15.381  1.00  0.00     0.032 C 
ATOM      6  C   UNL     1       7.945  28.771  13.151  1.00  0.00     0.015 C 
ATOM      7  C   UNL     1       8.251  28.907  14.677  1.00  0.00     0.006 C 
ATOM      8  C   UNL     1       8.182  27.508  15.347  1.00  0.00     0.011 C 
ATOM      9  C   UNL     1       9.665  29.549  14.884  1.00  0.00     0.092 C 
ATOM     10  C   UNL     1       9.290  26.580  14.861  1.00  0.00     0.009 C 
ATOM     11  C   UNL     1      10.842  28.569  14.771  1.00  0.00    -0.031 C 
ATOM     12  C   UNL     1       9.603  30.127  16.313  1.00  0.00     0.041 C 
ATOM     13  C   UNL     1       8.161  30.557  16.537  1.00  0.00     0.010 C 
ATOM     14  C   UNL     1      10.679  27.122  15.246  1.00  0.00     0.025 C 
ATOM     15  C   UNL     1      12.078  29.062  14.537  1.00  0.00     0.050 C 
ATOM     16  C   UNL     1      11.854  26.172  14.789  1.00  0.00    -0.013 C 
ATOM     17  C   UNL     1      13.291  28.245  14.672  1.00  0.00     0.159 C 
ATOM     18  C   UNL     1      13.196  26.845  15.211  1.00  0.00     0.070 C 
ATOM     19  C   UNL     1      11.728  24.775  15.506  1.00  0.00     0.042 C 
ATOM     20  C   UNL     1      11.812  25.973  13.242  1.00  0.00     0.013 C 
ATOM     21  O   UNL     1      14.413  28.774  14.458  1.00  0.00    -0.295 OA
ATOM     22  C   UNL     1      14.444  25.991  14.861  1.00  0.00     0.047 C 
ATOM     23  C   UNL     1      13.056  24.184  16.040  1.00  0.00     0.143 C 
ATOM     24  C   UNL     1      14.227  24.474  15.083  1.00  0.00     0.143 C 
BRANCH   9  25
ATOM     25  O   UNL     1       9.809  30.586  13.924  1.00  0.00    -0.385 OA
ATOM     26  H   UNL     1       9.000  31.161  13.913  1.00  0.00     0.211 HD
ENDBRANCH   9  25
BRANCH  23  27
ATOM     27  O   UNL     1      12.929  22.795  16.209  1.00  0.00    -0.390 OA
ATOM     28  H   UNL     1      12.118  22.646  16.763  1.00  0.00     0.211 HD
ENDBRANCH  23  27
BRANCH  24  29
ATOM     29  O   UNL     1      15.409  23.868  15.545  1.00  0.00    -0.390 OA
ATOM     30  H   UNL     1      15.363  22.903  15.319  1.00  0.00     0.211 HD
ENDBRANCH  24  29
ENDBRANCH   3   5
BRANCH   3  31
ATOM     31  O   UNL     1       5.197  30.961  15.981  1.00  0.00    -0.387 OA
ATOM     32  H   UNL     1       5.824  31.659  15.664  1.00  0.00     0.211 HD
ENDBRANCH   3  31
ENDBRANCH   2   3
BRANCH   2  33
ATOM     33  O   UNL     1       4.567  27.691  15.172  1.00  0.00    -0.390 OA
ATOM     34  H   UNL     1       3.869  27.889  15.855  1.00  0.00     0.211 HD
ENDBRANCH   2  33
ENDBRANCH   1   2
BRANCH   1  35
ATOM     35  C   UNL     1       2.433  29.086  14.537  1.00  0.00     0.037 C 
BRANCH  35  36
ATOM     36  C   UNL     1       1.761  29.787  15.754  1.00  0.00     0.059 C 
ATOM     37  C   UNL     1       0.279  30.063  15.427  1.00  0.00     0.042 C 
ATOM     38  C   UNL     1       1.832  28.899  17.010  1.00  0.00     0.042 C 
BRANCH  36  39
ATOM     39  O   UNL     1       2.407  31.005  16.041  1.00  0.00    -0.390 OA
ATOM     40  H   UNL     1       3.295  30.796  16.434  1.00  0.00     0.211 HD
ENDBRANCH  36  39
ENDBRANCH  35  36
ENDBRANCH   1  35
TORSDOF 11
ENDMDL
MODEL 4
REMARK VINA RESULT:    -5.126      3.458      7.454
REMARK INTER + INTRA:          -8.534
REMARK INTER:                  -7.842
REMARK INTRA:                  -0.692
REMARK UNBOUND:                -1.011
REMARK SMILES CC(C)(O)CC[C@H](O)[C@](C)(O)[C@H]1CC[C@@]2(O)C3=CC(=O)[C@@H]4C[C@@H](O)[C@H](O)C[C@@]4(C)[C@@H]3CC[C@@]12C
REMARK SMILES IDX 6 1 7 2 9 3 10 4 12 5 34 6 33 7 32 8 15 9 31 10 17 11 14 12
REMARK SMILES IDX 13 13 30 14 18 15 28 16 19 17 21 18 27 19 29 20 20 21 22 22
REMARK SMILES IDX 25 23 23 24 16 25 26 27 24 29 11 31 8 33 5 35 2 36 1 37 3 38
REMARK SMILES IDX 4 39
REMARK H PARENT 16 26 26 28 24 30 11 32 8 34 4 40
REMARK Flexibility Score: inf
ROOT
ATOM      1  C   UNL     1       1.281  20.541  14.061  1.00  0.00     0.038 C 
ENDROOT
BRANCH   1   2
ATOM      2  C   UNL     1       1.551  21.724  15.036  1.00  0.00     0.146 C 
BRANCH   2   3
ATOM      3  C   UNL     1       2.843  22.552  14.692  1.00  0.00     0.091 C 
ATOM      4  C   UNL     1       2.975  22.735  13.156  1.00  0.00     0.045 C 
BRANCH   3   5
ATOM      5  C   UNL     1       2.903  23.920  15.510  1.00  0.00     0.032 C 
ATOM      6  C   UNL     1       2.779  26.005  13.951  1.00  0.00     0.015 C 
ATOM      7  C   UNL     1       3.626  25.228  15.010  1.00  0.00     0.006 C 
ATOM      8  C   UNL     1       5.043  24.951  14.440  1.00  0.00     0.011 C 
ATOM      9  C   UNL     1       3.716  26.060  16.335  1.00  0.00     0.092 C 
ATOM     10  C   UNL     1       5.845  26.233  14.238  1.00  0.00     0.009 C 
ATOM     11  C   UNL     1       4.789  27.160  16.335  1.00  0.00    -0.031 C 
ATOM     12  C   UNL     1       4.050  25.006  17.411  1.00  0.00     0.041 C 
ATOM     13  C   UNL     1       3.373  23.718  16.971  1.00  0.00     0.010 C 
ATOM     14  C   UNL     1       6.103  26.945  15.579  1.00  0.00     0.025 C 
ATOM     15  C   UNL     1       4.689  28.165  17.233  1.00  0.00     0.050 C 
ATOM     16  C   UNL     1       6.960  28.261  15.416  1.00  0.00    -0.013 C 
ATOM     17  C   UNL     1       5.786  29.107  17.486  1.00  0.00     0.159 C 
ATOM     18  C   UNL     1       7.124  28.895  16.832  1.00  0.00     0.070 C 
ATOM     19  C   UNL     1       8.383  27.910  14.839  1.00  0.00     0.042 C 
ATOM     20  C   UNL     1       6.237  29.257  14.458  1.00  0.00     0.013 C 
ATOM     21  O   UNL     1       5.633  30.008  18.351  1.00  0.00    -0.295 OA
ATOM     22  C   UNL     1       7.990  30.182  16.828  1.00  0.00     0.047 C 
ATOM     23  C   UNL     1       9.568  28.648  15.509  1.00  0.00     0.143 C 
ATOM     24  C   UNL     1       9.200  30.100  15.864  1.00  0.00     0.143 C 
BRANCH   9  25
ATOM     25  O   UNL     1       2.439  26.635  16.569  1.00  0.00    -0.385 OA
ATOM     26  H   UNL     1       2.059  26.298  17.422  1.00  0.00     0.211 HD
ENDBRANCH   9  25
BRANCH  23  27
ATOM     27  O   UNL     1      10.680  28.648  14.650  1.00  0.00    -0.390 OA
ATOM     28  H   UNL     1      10.326  28.622  13.723  1.00  0.00     0.211 HD
ENDBRANCH  23  27
BRANCH  24  29
ATOM     29  O   UNL     1      10.308  30.777  16.403  1.00  0.00    -0.390 OA
ATOM     30  H   UNL     1      10.819  31.170  15.649  1.00  0.00     0.211 HD
ENDBRANCH  24  29
ENDBRANCH   3   5
BRANCH   3  31
ATOM     31  O   UNL     1       3.968  21.791  15.078  1.00  0.00    -0.387 OA
ATOM     32  H   UNL     1       4.646  22.404  15.460  1.00  0.00     0.211 HD
ENDBRANCH   3  31
ENDBRANCH   2   3
BRANCH   2  33
ATOM     33  O   UNL     1       0.426  22.565  15.031  1.00  0.00    -0.390 OA
ATOM     34  H   UNL     1      -0.134  22.290  14.255  1.00  0.00     0.211 HD
ENDBRANCH   2  33
ENDBRANCH   1   2
BRANCH   1  35
ATOM     35  C   UNL     1       1.408  19.155  14.733  1.00  0.00     0.037 C 
BRANCH  35  36
ATOM     36  C   UNL     1       2.639  18.334  14.252  1.00  0.00     0.059 C 
ATOM     37  C   UNL     1       3.283  17.627  15.462  1.00  0.00     0.042 C 
ATOM     38  C   UNL     1       2.222  17.266  13.223  1.00  0.00     0.042 C 
BRANCH  36  39
ATOM     39  O   UNL     1       3.592  19.177  13.648  1.00  0.00    -0.390 OA
ATOM     40  H   UNL     1       3.706  18.883  12.705  1.00  0.00     0.211 HD
ENDBRANCH  36  39
ENDBRANCH  35  36
ENDBRANCH   1  35
TORSDOF 11
ENDMDL
MODEL 5
REMARK VINA RESULT:    -4.995      2.175      8.976
REMARK INTER + INTRA:          -8.342
REMARK INTER:                  -8.206
REMARK INTRA:                  -0.135
REMARK UNBOUND:                -1.011
REMARK SMILES CC(C)(O)CC[C@H](O)[C@](C)(O)[C@H]1CC[C@@]2(O)C3=CC(=O)[C@@H]4C[C@@H](O)[C@H](O)C[C@@]4(C)[C@@H]3CC[C@@]12C
REMARK SMILES IDX 6 1 7 2 9 3 10 4 12 5 34 6 33 7 32 8 15 9 31 10 17 11 14 12
REMARK SMILES IDX 13 13 30 14 18 15 28 16 19 17 21 18 27 19 29 20 20 21 22 22
REMARK SMILES IDX 25 23 23 24 16 25 26 27 24 29 11 31 8 33 5 35 2 36 1 37 3 38
REMARK SMILES IDX 4 39
REMARK H PARENT 16 26 26 28 24 30 11 32 8 34 4 40
REMARK Flexibility Score: inf
ROOT
ATOM      1  C   UNL     1      16.942  26.355  14.546  1.00  0.00     0.038 C 
ENDROOT
BRANCH   1   2
ATOM      2  C   UNL     1      15.490  26.290  13.988  1.00  0.00     0.146 C 
BRANCH   2   3
ATOM      3  C   UNL     1      14.384  26.669  15.040  1.00  0.00     0.091 C 
ATOM      4  C   UNL     1      14.253  28.211  15.155  1.00  0.00     0.045 C 
BRANCH   3   5
ATOM      5  C   UNL     1      13.004  25.927  14.739  1.00  0.00     0.032 C 
ATOM      6  C   UNL     1      11.591  27.170  12.936  1.00  0.00     0.015 C 
ATOM      7  C   UNL     1      11.648  26.661  14.412  1.00  0.00     0.006 C 
ATOM      8  C   UNL     1      11.355  27.839  15.380  1.00  0.00     0.011 C 
ATOM      9  C   UNL     1      10.610  25.505  14.619  1.00  0.00     0.092 C 
ATOM     10  C   UNL     1       9.923  28.348  15.253  1.00  0.00     0.009 C 
ATOM     11  C   UNL     1       9.168  25.970  14.872  1.00  0.00    -0.031 C 
ATOM     12  C   UNL     1      11.140  24.750  15.856  1.00  0.00     0.041 C 
ATOM     13  C   UNL     1      12.655  24.866  15.811  1.00  0.00     0.010 C 
ATOM     14  C   UNL     1       8.908  27.261  15.653  1.00  0.00     0.025 C 
ATOM     15  C   UNL     1       8.158  25.095  14.668  1.00  0.00     0.050 C 
ATOM     16  C   UNL     1       7.413  27.760  15.566  1.00  0.00    -0.013 C 
ATOM     17  C   UNL     1       6.788  25.354  15.126  1.00  0.00     0.159 C 
ATOM     18  C   UNL     1       6.493  26.566  15.965  1.00  0.00     0.070 C 
ATOM     19  C   UNL     1       7.182  28.950  16.572  1.00  0.00     0.042 C 
ATOM     20  C   UNL     1       7.088  28.231  14.114  1.00  0.00     0.013 C 
ATOM     21  O   UNL     1       5.899  24.487  14.920  1.00  0.00    -0.295 OA
ATOM     22  C   UNL     1       4.984  26.931  15.967  1.00  0.00     0.047 C 
ATOM     23  C   UNL     1       5.859  28.889  17.375  1.00  0.00     0.143 C 
ATOM     24  C   UNL     1       4.701  28.352  16.514  1.00  0.00     0.143 C 
BRANCH   9  25
ATOM     25  O   UNL     1      10.654  24.679  13.465  1.00  0.00    -0.385 OA
ATOM     26  H   UNL     1       9.778  24.232  13.326  1.00  0.00     0.211 HD
ENDBRANCH   9  25
BRANCH  23  27
ATOM     27  O   UNL     1       5.528  30.169  17.851  1.00  0.00    -0.390 OA
ATOM     28  H   UNL     1       4.711  30.454  17.363  1.00  0.00     0.211 HD
ENDBRANCH  23  27
BRANCH  24  29
ATOM     29  O   UNL     1       3.494  28.372  17.234  1.00  0.00    -0.390 OA
ATOM     30  H   UNL     1       3.712  28.551  18.186  1.00  0.00     0.211 HD
ENDBRANCH  24  29
ENDBRANCH   3   5
BRANCH   3  31
ATOM     31  O   UNL     1      14.819  26.232  16.310  1.00  0.00    -0.387 OA
ATOM     32  H   UNL     1      14.257  26.667  17.001  1.00  0.00     0.211 HD
ENDBRANCH   3  31
ENDBRANCH   2   3
BRANCH   2  33
ATOM     33  O   UNL     1      15.407  27.144  12.875  1.00  0.00    -0.390 OA
ATOM     34  H   UNL     1      16.119  27.832  12.988  1.00  0.00     0.211 HD
ENDBRANCH   2  33
ENDBRANCH   1   2
BRANCH   1  35
ATOM     35  C   UNL     1      17.890  25.321  13.901  1.00  0.00     0.037 C 
BRANCH  35  36
ATOM     36  C   UNL     1      18.510  24.317  14.916  1.00  0.00     0.059 C 
ATOM     37  C   UNL     1      18.350  22.882  14.375  1.00  0.00     0.042 C 
ATOM     38  C   UNL     1      20.010  24.600  15.125  1.00  0.00     0.042 C 
BRANCH  36  39
ATOM     39  O   UNL     1      17.867  24.415  16.166  1.00  0.00    -0.390 OA
ATOM     40  H   UNL     1      16.965  24.804  16.016  1.00  0.00     0.211 HD
ENDBRANCH  36  39
ENDBRANCH  35  36
ENDBRANCH   1  35
TORSDOF 11
ENDMDL
MODEL 6
REMARK VINA RESULT:    -4.845      2.145      8.273
REMARK INTER + INTRA:          -8.122
REMARK INTER:                  -7.665
REMARK INTRA:                  -0.457
REMARK UNBOUND:                -1.011
REMARK SMILES CC(C)(O)CC[C@H](O)[C@](C)(O)[C@H]1CC[C@@]2(O)C3=CC(=O)[C@@H]4C[C@@H](O)[C@H](O)C[C@@]4(C)[C@@H]3CC[C@@]12C
REMARK SMILES IDX 6 1 7 2 9 3 10 4 12 5 34 6 33 7 32 8 15 9 31 10 17 11 14 12
REMARK SMILES IDX 13 13 30 14 18 15 28 16 19 17 21 18 27 19 29 20 20 21 22 22
REMARK SMILES IDX 25 23 23 24 16 25 26 27 24 29 11 31 8 33 5 35 2 36 1 37 3 38
REMARK SMILES IDX 4 39
REMARK H PARENT 16 26 26 28 24 30 11 32 8 34 4 40
REMARK Flexibility Score: inf
ROOT
ATOM      1  C   UNL     1      11.047  26.834  15.028  1.00  0.00     0.038 C 
ENDROOT
BRANCH   1   2
ATOM      2  C   UNL     1       9.871  27.503  14.258  1.00  0.00     0.146 C 
BRANCH   2   3
ATOM      3  C   UNL     1       9.543  28.965  14.738  1.00  0.00     0.091 C 
ATOM      4  C   UNL     1       9.951  29.995  13.651  1.00  0.00     0.045 C 
BRANCH   3   5
ATOM      5  C   UNL     1       8.028  29.103  15.219  1.00  0.00     0.032 C 
ATOM      6  C   UNL     1       7.596  27.868  17.474  1.00  0.00     0.015 C 
ATOM      7  C   UNL     1       7.220  27.971  15.961  1.00  0.00     0.006 C 
ATOM      8  C   UNL     1       7.383  26.580  15.290  1.00  0.00     0.011 C 
ATOM      9  C   UNL     1       5.749  28.488  15.810  1.00  0.00     0.092 C 
ATOM     10  C   UNL     1       6.379  25.562  15.821  1.00  0.00     0.009 C 
ATOM     11  C   UNL     1       4.666  27.411  15.970  1.00  0.00    -0.031 C 
ATOM     12  C   UNL     1       5.705  29.063  14.379  1.00  0.00     0.041 C 
ATOM     13  C   UNL     1       7.094  29.614  14.097  1.00  0.00     0.010 C 
ATOM     14  C   UNL     1       4.934  25.981  15.490  1.00  0.00     0.025 C 
ATOM     15  C   UNL     1       3.402  27.797  16.253  1.00  0.00     0.050 C 
ATOM     16  C   UNL     1       3.864  24.936  15.995  1.00  0.00    -0.013 C 
ATOM     17  C   UNL     1       2.260  26.879  16.167  1.00  0.00     0.159 C 
ATOM     18  C   UNL     1       2.454  25.489  15.625  1.00  0.00     0.070 C 
ATOM     19  C   UNL     1       4.082  23.551  15.275  1.00  0.00     0.042 C 
ATOM     20  C   UNL     1       3.984  24.748  17.539  1.00  0.00     0.013 C 
ATOM     21  O   UNL     1       1.106  27.310  16.424  1.00  0.00    -0.295 OA
ATOM     22  C   UNL     1       1.298  24.533  16.025  1.00  0.00     0.047 C 
ATOM     23  C   UNL     1       2.789  22.846  14.795  1.00  0.00     0.143 C 
ATOM     24  C   UNL     1       1.636  23.039  15.797  1.00  0.00     0.143 C 
BRANCH   9  25
ATOM     25  O   UNL     1       5.554  29.513  16.773  1.00  0.00    -0.385 OA
ATOM     26  H   UNL     1       5.949  30.367  16.455  1.00  0.00     0.211 HD
ENDBRANCH   9  25
BRANCH  23  27
ATOM     27  O   UNL     1       3.029  21.473  14.622  1.00  0.00    -0.390 OA
ATOM     28  H   UNL     1       2.592  21.007  15.383  1.00  0.00     0.211 HD
ENDBRANCH  23  27
BRANCH  24  29
ATOM     29  O   UNL     1       0.493  22.332  15.382  1.00  0.00    -0.390 OA
ATOM     30  H   UNL     1       0.674  21.364  15.507  1.00  0.00     0.211 HD
ENDBRANCH  24  29
ENDBRANCH   3   5
BRANCH   3  31
ATOM     31  O   UNL     1      10.359  29.253  15.854  1.00  0.00    -0.387 OA
ATOM     32  H   UNL     1       9.943  28.851  16.659  1.00  0.00     0.211 HD
ENDBRANCH   3  31
ENDBRANCH   2   3
BRANCH   2  33
ATOM     33  O   UNL     1      10.187  27.507  12.889  1.00  0.00    -0.390 OA
ATOM     34  H   UNL     1       9.797  26.676  12.503  1.00  0.00     0.211 HD
ENDBRANCH   2  33
ENDBRANCH   1   2
BRANCH   1  35
ATOM     35  C   UNL     1      12.399  26.938  14.288  1.00  0.00     0.037 C 
BRANCH  35  36
ATOM     36  C   UNL     1      13.596  27.298  15.214  1.00  0.00     0.059 C 
ATOM     37  C   UNL     1      13.767  26.194  16.278  1.00  0.00     0.042 C 
ATOM     38  C   UNL     1      14.904  27.410  14.407  1.00  0.00     0.042 C 
BRANCH  36  39
ATOM     39  O   UNL     1      13.372  28.530  15.858  1.00  0.00    -0.390 OA
ATOM     40  H   UNL     1      12.392  28.630  15.995  1.00  0.00     0.211 HD
ENDBRANCH  36  39
ENDBRANCH  35  36
ENDBRANCH   1  35
TORSDOF 11
ENDMDL
MODEL 7
REMARK VINA RESULT:    -4.733      1.761      3.360
REMARK INTER + INTRA:          -7.957
REMARK INTER:                  -6.745
REMARK INTRA:                  -1.212
REMARK UNBOUND:                -1.011
REMARK SMILES CC(C)(O)CC[C@H](O)[C@](C)(O)[C@H]1CC[C@@]2(O)C3=CC(=O)[C@@H]4C[C@@H](O)[C@H](O)C[C@@]4(C)[C@@H]3CC[C@@]12C
REMARK SMILES IDX 6 1 7 2 9 3 10 4 12 5 34 6 33 7 32 8 15 9 31 10 17 11 14 12
REMARK SMILES IDX 13 13 30 14 18 15 28 16 19 17 21 18 27 19 29 20 20 21 22 22
REMARK SMILES IDX 25 23 23 24 16 25 26 27 24 29 11 31 8 33 5 35 2 36 1 37 3 38
REMARK SMILES IDX 4 39
REMARK H PARENT 16 26 26 28 24 30 11 32 8 34 4 40
REMARK Flexibility Score: inf
ROOT
ATOM      1  C   UNL     1       4.587  28.125  16.538  1.00  0.00     0.038 C 
ENDROOT
BRANCH   1   2
ATOM      2  C   UNL     1       4.638  29.119  15.341  1.00  0.00     0.146 C 
BRANCH   2   3
ATOM      3  C   UNL     1       6.085  29.365  14.777  1.00  0.00     0.091 C 
ATOM      4  C   UNL     1       6.746  30.573  15.495  1.00  0.00     0.045 C 
BRANCH   3   5
ATOM      5  C   UNL     1       6.966  28.036  14.808  1.00  0.00     0.032 C 
ATOM      6  C   UNL     1       8.490  27.917  16.920  1.00  0.00     0.015 C 
ATOM      7  C   UNL     1       8.441  27.956  15.359  1.00  0.00     0.006 C 
ATOM      8  C   UNL     1       9.339  29.111  14.840  1.00  0.00     0.011 C 
ATOM      9  C   UNL     1       8.917  26.582  14.775  1.00  0.00     0.092 C 
ATOM     10  C   UNL     1      10.817  28.867  15.127  1.00  0.00     0.009 C 
ATOM     11  C   UNL     1      10.441  26.410  14.689  1.00  0.00    -0.031 C 
ATOM     12  C   UNL     1       8.307  26.551  13.358  1.00  0.00     0.041 C 
ATOM     13  C   UNL     1       6.991  27.308  13.443  1.00  0.00     0.010 C 
ATOM     14  C   UNL     1      11.330  27.620  14.385  1.00  0.00     0.025 C 
ATOM     15  C   UNL     1      10.950  25.162  14.586  1.00  0.00     0.050 C 
ATOM     16  C   UNL     1      12.866  27.351  14.630  1.00  0.00    -0.013 C 
ATOM     17  C   UNL     1      12.353  24.910  14.238  1.00  0.00     0.159 C 
ATOM     18  C   UNL     1      13.248  26.055  13.852  1.00  0.00     0.070 C 
ATOM     19  C   UNL     1      13.719  28.556  14.079  1.00  0.00     0.042 C 
ATOM     20  C   UNL     1      13.142  27.168  16.155  1.00  0.00     0.013 C 
ATOM     21  O   UNL     1      12.756  23.722  14.140  1.00  0.00    -0.295 OA
ATOM     22  C   UNL     1      14.753  25.694  13.968  1.00  0.00     0.047 C 
ATOM     23  C   UNL     1      14.996  28.159  13.299  1.00  0.00     0.143 C 
ATOM     24  C   UNL     1      15.682  26.932  13.928  1.00  0.00     0.143 C 
BRANCH   9  25
ATOM     25  O   UNL     1       8.363  25.557  15.586  1.00  0.00    -0.385 OA
ATOM     26  H   UNL     1       7.372  25.559  15.519  1.00  0.00     0.211 HD
ENDBRANCH   9  25
BRANCH  23  27
ATOM     27  O   UNL     1      15.899  29.235  13.278  1.00  0.00    -0.390 OA
ATOM     28  H   UNL     1      16.333  29.264  14.171  1.00  0.00     0.211 HD
ENDBRANCH  23  27
BRANCH  24  29
ATOM     29  O   UNL     1      16.878  26.630  13.253  1.00  0.00    -0.390 OA
ATOM     30  H   UNL     1      16.785  25.724  12.861  1.00  0.00     0.211 HD
ENDBRANCH  24  29
ENDBRANCH   3   5
BRANCH   3  31
ATOM     31  O   UNL     1       5.968  29.751  13.423  1.00  0.00    -0.387 OA
ATOM     32  H   UNL     1       6.638  29.248  12.894  1.00  0.00     0.211 HD
ENDBRANCH   3  31
ENDBRANCH   2   3
BRANCH   2  33
ATOM     33  O   UNL     1       3.803  28.626  14.324  1.00  0.00    -0.390 OA
ATOM     34  H   UNL     1       3.302  27.857  14.712  1.00  0.00     0.211 HD
ENDBRANCH   2  33
ENDBRANCH   1   2
BRANCH   1  35
ATOM     35  C   UNL     1       3.720  26.877  16.260  1.00  0.00     0.037 C 
BRANCH  35  36
ATOM     36  C   UNL     1       4.485  25.531  16.419  1.00  0.00     0.059 C 
ATOM     37  C   UNL     1       3.644  24.567  17.280  1.00  0.00     0.042 C 
ATOM     38  C   UNL     1       4.737  24.875  15.048  1.00  0.00     0.042 C 
BRANCH  36  39
ATOM     39  O   UNL     1       5.731  25.740  17.041  1.00  0.00    -0.390 OA
ATOM     40  H   UNL     1       5.565  25.937  18.001  1.00  0.00     0.211 HD
ENDBRANCH  36  39
ENDBRANCH  35  36
ENDBRANCH   1  35
TORSDOF 11
ENDMDL
MODEL 8
REMARK VINA RESULT:    -4.728      3.386      7.079
REMARK INTER + INTRA:          -7.950
REMARK INTER:                  -7.235
REMARK INTRA:                  -0.716
REMARK UNBOUND:                -1.011
REMARK SMILES CC(C)(O)CC[C@H](O)[C@](C)(O)[C@H]1CC[C@@]2(O)C3=CC(=O)[C@@H]4C[C@@H](O)[C@H](O)C[C@@]4(C)[C@@H]3CC[C@@]12C
REMARK SMILES IDX 6 1 7 2 9 3 10 4 12 5 34 6 33 7 32 8 15 9 31 10 17 11 14 12
REMARK SMILES IDX 13 13 30 14 18 15 28 16 19 17 21 18 27 19 29 20 20 21 22 22
REMARK SMILES IDX 25 23 23 24 16 25 26 27 24 29 11 31 8 33 5 35 2 36 1 37 3 38
REMARK SMILES IDX 4 39
REMARK H PARENT 16 26 26 28 24 30 11 32 8 34 4 40
REMARK Flexibility Score: inf
ROOT
ATOM      1  C   UNL     1       4.467  22.063  12.913  1.00  0.00     0.038 C 
ENDROOT
BRANCH   1   2
ATOM      2  C   UNL     1       3.714  22.179  14.271  1.00  0.00     0.146 C 
BRANCH   2   3
ATOM      3  C   UNL     1       2.462  23.130  14.227  1.00  0.00     0.091 C 
ATOM      4  C   UNL     1       1.162  22.324  14.495  1.00  0.00     0.045 C 
BRANCH   3   5
ATOM      5  C   UNL     1       2.646  24.392  15.185  1.00  0.00     0.032 C 
ATOM      6  C   UNL     1       2.493  26.645  13.884  1.00  0.00     0.015 C 
ATOM      7  C   UNL     1       3.384  25.723  14.777  1.00  0.00     0.006 C 
ATOM      8  C   UNL     1       4.739  25.464  14.066  1.00  0.00     0.011 C 
ATOM      9  C   UNL     1       3.613  26.393  16.175  1.00  0.00     0.092 C 
ATOM     10  C   UNL     1       5.578  26.731  13.943  1.00  0.00     0.009 C 
ATOM     11  C   UNL     1       4.729  27.448  16.210  1.00  0.00    -0.031 C 
ATOM     12  C   UNL     1       3.983  25.211  17.095  1.00  0.00     0.041 C 
ATOM     13  C   UNL     1       3.217  24.006  16.571  1.00  0.00     0.010 C 
ATOM     14  C   UNL     1       5.970  27.275  15.330  1.00  0.00     0.025 C 
ATOM     15  C   UNL     1       4.744  28.346  17.220  1.00  0.00     0.050 C 
ATOM     16  C   UNL     1       6.869  28.571  15.246  1.00  0.00    -0.013 C 
ATOM     17  C   UNL     1       5.897  29.214  17.486  1.00  0.00     0.159 C 
ATOM     18  C   UNL     1       7.169  29.031  16.705  1.00  0.00     0.070 C 
ATOM     19  C   UNL     1       8.227  28.239  14.518  1.00  0.00     0.042 C 
ATOM     20  C   UNL     1       6.119  29.695  14.467  1.00  0.00     0.013 C 
ATOM     21  O   UNL     1       5.851  30.014  18.456  1.00  0.00    -0.295 OA
ATOM     22  C   UNL     1       8.089  30.280  16.774  1.00  0.00     0.047 C 
ATOM     23  C   UNL     1       9.491  28.853  15.167  1.00  0.00     0.143 C 
ATOM     24  C   UNL     1       9.215  30.267  15.712  1.00  0.00     0.143 C 
BRANCH   9  25
ATOM     25  O   UNL     1       2.384  26.981  16.575  1.00  0.00    -0.385 OA
ATOM     26  H   UNL     1       1.639  26.641  16.014  1.00  0.00     0.211 HD
ENDBRANCH   9  25
BRANCH  23  27
ATOM     27  O   UNL     1      10.532  28.914  14.226  1.00  0.00    -0.390 OA
ATOM     28  H   UNL     1      11.221  28.260  14.518  1.00  0.00     0.211 HD
ENDBRANCH  23  27
BRANCH  24  29
ATOM     29  O   UNL     1      10.391  30.839  16.231  1.00  0.00    -0.390 OA
ATOM     30  H   UNL     1      10.785  30.192  16.872  1.00  0.00     0.211 HD
ENDBRANCH  24  29
ENDBRANCH   3   5
BRANCH   3  31
ATOM     31  O   UNL     1       2.334  23.625  12.911  1.00  0.00    -0.387 OA
ATOM     32  H   UNL     1       2.458  24.608  12.932  1.00  0.00     0.211 HD
ENDBRANCH   3  31
ENDBRANCH   2   3
BRANCH   2  33
ATOM     33  O   UNL     1       3.324  20.889  14.670  1.00  0.00    -0.390 OA
ATOM     34  H   UNL     1       3.629  20.264  13.956  1.00  0.00     0.211 HD
ENDBRANCH   2  33
ENDBRANCH   1   2
BRANCH   1  35
ATOM     35  C   UNL     1       5.481  20.898  12.875  1.00  0.00     0.037 C 
BRANCH  35  36
ATOM     36  C   UNL     1       6.802  21.188  13.645  1.00  0.00     0.059 C 
ATOM     37  C   UNL     1       7.909  20.245  13.130  1.00  0.00     0.042 C 
ATOM     38  C   UNL     1       7.257  22.645  13.430  1.00  0.00     0.042 C 
BRANCH  36  39
ATOM     39  O   UNL     1       6.626  20.984  15.027  1.00  0.00    -0.390 OA
ATOM     40  H   UNL     1       6.391  21.858  15.438  1.00  0.00     0.211 HD
ENDBRANCH  36  39
ENDBRANCH  35  36
ENDBRANCH   1  35
TORSDOF 11
ENDMDL
MODEL 9
REMARK VINA RESULT:    -4.457      2.232      5.188
REMARK INTER + INTRA:          -7.552
REMARK INTER:                  -7.351
REMARK INTRA:                  -0.201
REMARK UNBOUND:                -1.011
REMARK SMILES CC(C)(O)CC[C@H](O)[C@](C)(O)[C@H]1CC[C@@]2(O)C3=CC(=O)[C@@H]4C[C@@H](O)[C@H](O)C[C@@]4(C)[C@@H]3CC[C@@]12C
REMARK SMILES IDX 6 1 7 2 9 3 10 4 12 5 34 6 33 7 32 8 15 9 31 10 17 11 14 12
REMARK SMILES IDX 13 13 30 14 18 15 28 16 19 17 21 18 27 19 29 20 20 21 22 22
REMARK SMILES IDX 25 23 23 24 16 25 26 27 24 29 11 31 8 33 5 35 2 36 1 37 3 38
REMARK SMILES IDX 4 39
REMARK H PARENT 16 26 26 28 24 30 11 32 8 34 4 40
REMARK Flexibility Score: inf
ROOT
ATOM      1  C   UNL     1       6.716  26.579  16.142  1.00  0.00     0.038 C 
ENDROOT
BRANCH   1   2
ATOM      2  C   UNL     1       7.171  25.855  14.841  1.00  0.00     0.146 C 
BRANCH   2   3
ATOM      3  C   UNL     1       8.557  26.349  14.286  1.00  0.00     0.091 C 
ATOM      4  C   UNL     1       9.005  27.640  15.025  1.00  0.00     0.045 C 
BRANCH   3   5
ATOM      5  C   UNL     1       9.649  25.187  14.302  1.00  0.00     0.032 C 
ATOM      6  C   UNL     1      10.932  25.074  16.569  1.00  0.00     0.015 C 
ATOM      7  C   UNL     1      11.046  25.285  15.024  1.00  0.00     0.006 C 
ATOM      8  C   UNL     1      11.779  26.623  14.736  1.00  0.00     0.011 C 
ATOM      9  C   UNL     1      11.816  24.083  14.377  1.00  0.00     0.092 C 
ATOM     10  C   UNL     1      13.236  26.592  15.184  1.00  0.00     0.009 C 
ATOM     11  C   UNL     1      13.347  24.174  14.468  1.00  0.00    -0.031 C 
ATOM     12  C   UNL     1      11.379  24.118  12.898  1.00  0.00     0.041 C 
ATOM     13  C   UNL     1       9.949  24.636  12.888  1.00  0.00     0.010 C 
ATOM     14  C   UNL     1      14.038  25.538  14.396  1.00  0.00     0.025 C 
ATOM     15  C   UNL     1      14.075  23.045  14.312  1.00  0.00     0.050 C 
ATOM     16  C   UNL     1      15.561  25.497  14.807  1.00  0.00    -0.013 C 
ATOM     17  C   UNL     1      15.530  23.067  14.122  1.00  0.00     0.159 C 
ATOM     18  C   UNL     1      16.247  24.379  13.963  1.00  0.00     0.070 C 
ATOM     19  C   UNL     1      16.244  26.880  14.486  1.00  0.00     0.042 C 
ATOM     20  C   UNL     1      15.698  25.186  16.330  1.00  0.00     0.013 C 
ATOM     21  O   UNL     1      16.144  21.980  13.963  1.00  0.00    -0.295 OA
ATOM     22  C   UNL     1      17.770  24.257  14.235  1.00  0.00     0.047 C 
ATOM     23  C   UNL     1      17.648  26.789  13.840  1.00  0.00     0.143 C 
ATOM     24  C   UNL     1      18.467  25.626  14.430  1.00  0.00     0.143 C 
BRANCH   9  25
ATOM     25  O   UNL     1      11.366  22.895  15.010  1.00  0.00    -0.385 OA
ATOM     26  H   UNL     1      11.701  22.096  14.525  1.00  0.00     0.211 HD
ENDBRANCH   9  25
BRANCH  23  27
ATOM     27  O   UNL     1      18.345  27.993  14.036  1.00  0.00    -0.390 OA
ATOM     28  H   UNL     1      18.810  27.917  14.910  1.00  0.00     0.211 HD
ENDBRANCH  23  27
BRANCH  24  29
ATOM     29  O   UNL     1      19.763  25.603  13.887  1.00  0.00    -0.390 OA
ATOM     30  H   UNL     1      19.906  26.461  13.408  1.00  0.00     0.211 HD
ENDBRANCH  24  29
ENDBRANCH   3   5
BRANCH   3  31
ATOM     31  O   UNL     1       8.379  26.730  12.938  1.00  0.00    -0.387 OA
ATOM     32  H   UNL     1       9.024  27.452  12.728  1.00  0.00     0.211 HD
ENDBRANCH   3  31
ENDBRANCH   2   3
BRANCH   2  33
ATOM     33  O   UNL     1       7.222  24.475  15.101  1.00  0.00    -0.390 OA
ATOM     34  H   UNL     1       6.704  24.321  15.938  1.00  0.00     0.211 HD
ENDBRANCH   2  33
ENDBRANCH   1   2
BRANCH   1  35
ATOM     35  C   UNL     1       5.724  27.735  15.882  1.00  0.00     0.037 C 
BRANCH  35  36
ATOM     36  C   UNL     1       5.963  28.982  16.780  1.00  0.00     0.059 C 
ATOM     37  C   UNL     1       6.433  30.160  15.902  1.00  0.00     0.042 C 
ATOM     38  C   UNL     1       4.668  29.396  17.506  1.00  0.00     0.042 C 
BRANCH  36  39
ATOM     39  O   UNL     1       6.944  28.711  17.755  1.00  0.00    -0.390 OA
ATOM     40  H   UNL     1       7.403  29.565  17.972  1.00  0.00     0.211 HD
ENDBRANCH  36  39
ENDBRANCH  35  36
ENDBRANCH   1  35
TORSDOF 11
ENDMDL
