MODEL 1
REMARK VINA RESULT:    -5.492      0.000      0.000
REMARK INTER + INTRA:          -6.665
REMARK INTER:                  -6.616
REMARK INTRA:                  -0.049
REMARK UNBOUND:                -0.049
REMARK SMILES O=c1c(O)c(-c2ccc(O)c(O)c2)oc2cc(O)cc(O)c12
REMARK SMILES IDX 5 1 3 2 2 3 1 4 22 5 20 6 19 7 17 8 16 9 15 10 14 11 6 12
REMARK SMILES IDX 7 13 8 14 9 15 13 16 11 17 10 18 12 20 4 22 21 24 18 26
REMARK H PARENT 10 19 12 21 4 23 21 25 18 27
REMARK Flexibility Score: inf
ROOT
ATOM      1  C   UNL     1      15.661  12.113  14.855  1.00  0.00     0.180 A 
ATOM      2  C   UNL     1      16.998  12.248  14.444  1.00  0.00     0.208 A 
ATOM      3  C   UNL     1      18.005  12.332  15.420  1.00  0.00     0.238 A 
ATOM      4  O   UNL     1      19.205  12.398  15.046  1.00  0.00    -0.285 OA
ATOM      5  C   UNL     1      17.660  12.297  16.792  1.00  0.00     0.111 A 
ATOM      6  C   UNL     1      18.594  12.415  17.866  1.00  0.00     0.134 A 
ATOM      7  C   UNL     1      18.157  12.235  19.184  1.00  0.00     0.093 A 
ATOM      8  C   UNL     1      16.809  12.007  19.471  1.00  0.00     0.123 A 
ATOM      9  C   UNL     1      15.881  11.949  18.435  1.00  0.00     0.094 A 
ATOM     10  C   UNL     1      16.292  12.088  17.106  1.00  0.00     0.146 A 
ATOM     11  O   UNL     1      15.376  12.016  16.148  1.00  0.00    -0.452 OA
ENDROOT
BRANCH   1  12
ATOM     12  C   UNL     1      14.542  12.043  13.886  1.00  0.00     0.025 A 
ATOM     13  C   UNL     1      13.587  11.023  14.008  1.00  0.00     0.016 A 
ATOM     14  C   UNL     1      12.512  10.950  13.118  1.00  0.00     0.051 A 
ATOM     15  C   UNL     1      12.368  11.901  12.105  1.00  0.00     0.157 A 
ATOM     16  C   UNL     1      14.384  13.011  12.879  1.00  0.00     0.062 A 
ATOM     17  C   UNL     1      13.306  12.941  11.986  1.00  0.00     0.158 A 
BRANCH  15  18
ATOM     18  O   UNL     1      11.287  11.802  11.229  1.00  0.00    -0.504 OA
ATOM     19  H   UNL     1      10.539  11.133  11.371  1.00  0.00     0.293 HD
ENDBRANCH  15  18
BRANCH  17  20
ATOM     20  O   UNL     1      13.160  13.902  10.986  1.00  0.00    -0.504 OA
ATOM     21  H   UNL     1      12.471  14.641  11.057  1.00  0.00     0.293 HD
ENDBRANCH  17  20
ENDBRANCH   1  12
BRANCH   2  22
ATOM     22  O   UNL     1      17.319  12.258  13.085  1.00  0.00    -0.502 OA
ATOM     23  H   UNL     1      16.783  11.745  12.395  1.00  0.00     0.293 HD
ENDBRANCH   2  22
BRANCH   6  24
ATOM     24  O   UNL     1      19.945  12.732  17.694  1.00  0.00    -0.507 OA
ATOM     25  H   UNL     1      20.713  12.193  18.066  1.00  0.00     0.293 HD
ENDBRANCH   6  24
BRANCH   8  26
ATOM     26  O   UNL     1      16.380  11.845  20.787  1.00  0.00    -0.508 OA
ATOM     27  H   UNL     1      16.181  10.928  21.171  1.00  0.00     0.293 HD
ENDBRANCH   8  26
TORSDOF 6
ENDMDL
MODEL 2
REMARK VINA RESULT:    -5.266      2.857      5.546
REMARK INTER + INTRA:          -6.392
REMARK INTER:                  -6.354
REMARK INTRA:                  -0.039
REMARK UNBOUND:                -0.049
REMARK SMILES O=c1c(O)c(-c2ccc(O)c(O)c2)oc2cc(O)cc(O)c12
REMARK SMILES IDX 5 1 3 2 2 3 1 4 22 5 20 6 19 7 17 8 16 9 15 10 14 11 6 12
REMARK SMILES IDX 7 13 8 14 9 15 13 16 11 17 10 18 12 20 4 22 21 24 18 26
REMARK H PARENT 10 19 12 21 4 23 21 25 18 27
REMARK Flexibility Score: inf
ROOT
ATOM      1  C   UNL     1      15.133  11.921  17.969  1.00  0.00     0.180 A 
ATOM      2  C   UNL     1      16.229  11.968  18.847  1.00  0.00     0.208 A 
ATOM      3  C   UNL     1      17.527  12.032  18.313  1.00  0.00     0.238 A 
ATOM      4  O   UNL     1      18.502  12.130  19.103  1.00  0.00    -0.285 OA
ATOM      5  C   UNL     1      17.711  12.032  16.909  1.00  0.00     0.111 A 
ATOM      6  C   UNL     1      18.982  12.054  16.260  1.00  0.00     0.134 A 
ATOM      7  C   UNL     1      19.043  12.183  14.867  1.00  0.00     0.093 A 
ATOM      8  C   UNL     1      17.879  12.225  14.095  1.00  0.00     0.123 A 
ATOM      9  C   UNL     1      16.635  12.145  14.716  1.00  0.00     0.094 A 
ATOM     10  C   UNL     1      16.541  12.052  16.107  1.00  0.00     0.146 A 
ATOM     11  O   UNL     1      15.336  11.988  16.659  1.00  0.00    -0.452 OA
ENDROOT
BRANCH   1  12
ATOM     12  C   UNL     1      13.737  11.827  18.456  1.00  0.00     0.025 A 
ATOM     13  C   UNL     1      12.766  12.697  17.940  1.00  0.00     0.016 A 
ATOM     14  C   UNL     1      11.439  12.612  18.369  1.00  0.00     0.051 A 
ATOM     15  C   UNL     1      11.060  11.649  19.309  1.00  0.00     0.157 A 
ATOM     16  C   UNL     1      13.350  10.845  19.386  1.00  0.00     0.062 A 
ATOM     17  C   UNL     1      12.019  10.757  19.817  1.00  0.00     0.158 A 
BRANCH  15  18
ATOM     18  O   UNL     1       9.729  11.590  19.721  1.00  0.00    -0.504 OA
ATOM     19  H   UNL     1       9.035  12.252  19.395  1.00  0.00     0.293 HD
ENDBRANCH  15  18
BRANCH  17  20
ATOM     20  O   UNL     1      11.646   9.784  20.744  1.00  0.00    -0.504 OA
ATOM     21  H   UNL     1      12.328   9.167  21.170  1.00  0.00     0.293 HD
ENDBRANCH  17  20
ENDBRANCH   1  12
BRANCH   2  22
ATOM     22  O   UNL     1      16.024  11.990  20.229  1.00  0.00    -0.502 OA
ATOM     23  H   UNL     1      15.099  12.018  20.641  1.00  0.00     0.293 HD
ENDBRANCH   2  22
BRANCH   6  24
ATOM     24  O   UNL     1      20.204  11.925  16.928  1.00  0.00    -0.507 OA
ATOM     25  H   UNL     1      21.065  11.624  16.497  1.00  0.00     0.293 HD
ENDBRANCH   6  24
BRANCH   8  26
ATOM     26  O   UNL     1      17.949  12.339  12.708  1.00  0.00    -0.508 OA
ATOM     27  H   UNL     1      17.257  12.861  12.183  1.00  0.00     0.293 HD
ENDBRANCH   8  26
TORSDOF 6
ENDMDL
MODEL 3
REMARK VINA RESULT:    -5.052      1.439      3.277
REMARK INTER + INTRA:          -6.135
REMARK INTER:                  -5.944
REMARK INTRA:                  -0.191
REMARK UNBOUND:                -0.049
REMARK SMILES O=c1c(O)c(-c2ccc(O)c(O)c2)oc2cc(O)cc(O)c12
REMARK SMILES IDX 5 1 3 2 2 3 1 4 22 5 20 6 19 7 17 8 16 9 15 10 14 11 6 12
REMARK SMILES IDX 7 13 8 14 9 15 13 16 11 17 10 18 12 20 4 22 21 24 18 26
REMARK H PARENT 10 19 12 21 4 23 21 25 18 27
REMARK Flexibility Score: inf
ROOT
ATOM      1  C   UNL     1      14.576  11.906  14.856  1.00  0.00     0.180 A 
ATOM      2  C   UNL     1      14.021  11.937  16.146  1.00  0.00     0.208 A 
ATOM      3  C   UNL     1      14.878  12.038  17.254  1.00  0.00     0.238 A 
ATOM      4  O   UNL     1      14.372  12.121  18.404  1.00  0.00    -0.285 OA
ATOM      5  C   UNL     1      16.279  12.091  17.058  1.00  0.00     0.111 A 
ATOM      6  C   UNL     1      17.242  12.154  18.110  1.00  0.00     0.134 A 
ATOM      7  C   UNL     1      18.595  12.333  17.797  1.00  0.00     0.093 A 
ATOM      8  C   UNL     1      19.027  12.387  16.469  1.00  0.00     0.123 A 
ATOM      9  C   UNL     1      18.101  12.267  15.436  1.00  0.00     0.094 A 
ATOM     10  C   UNL     1      16.740  12.123  15.716  1.00  0.00     0.146 A 
ATOM     11  O   UNL     1      15.890  12.023  14.702  1.00  0.00    -0.452 OA
ENDROOT
BRANCH   1  12
ATOM     12  C   UNL     1      13.740  11.775  13.640  1.00  0.00     0.025 A 
ATOM     13  C   UNL     1      13.742  12.804  12.687  1.00  0.00     0.016 A 
ATOM     14  C   UNL     1      12.976  12.692  11.523  1.00  0.00     0.051 A 
ATOM     15  C   UNL     1      12.210  11.547  11.288  1.00  0.00     0.157 A 
ATOM     16  C   UNL     1      12.984  10.615  13.393  1.00  0.00     0.062 A 
ATOM     17  C   UNL     1      12.216  10.500  12.225  1.00  0.00     0.158 A 
BRANCH  15  18
ATOM     18  O   UNL     1      11.454  11.465  10.120  1.00  0.00    -0.504 OA
ATOM     19  H   UNL     1      11.791  10.988   9.292  1.00  0.00     0.293 HD
ENDBRANCH  15  18
BRANCH  17  20
ATOM     20  O   UNL     1      11.466   9.348  11.990  1.00  0.00    -0.504 OA
ATOM     21  H   UNL     1      11.091   9.136  11.073  1.00  0.00     0.293 HD
ENDBRANCH  17  20
ENDBRANCH   1  12
BRANCH   2  22
ATOM     22  O   UNL     1      12.635  11.906  16.316  1.00  0.00    -0.502 OA
ATOM     23  H   UNL     1      12.107  12.711  16.632  1.00  0.00     0.293 HD
ENDBRANCH   2  22
BRANCH   6  24
ATOM     24  O   UNL     1      16.928  12.018  19.466  1.00  0.00    -0.507 OA
ATOM     25  H   UNL     1      17.602  12.046  20.216  1.00  0.00     0.293 HD
ENDBRANCH   6  24
BRANCH   8  26
ATOM     26  O   UNL     1      20.377  12.551  16.167  1.00  0.00    -0.508 OA
ATOM     27  H   UNL     1      21.050  12.820  16.875  1.00  0.00     0.293 HD
ENDBRANCH   8  26
TORSDOF 6
ENDMDL
MODEL 4
REMARK VINA RESULT:    -4.782      3.394      5.325
REMARK INTER + INTRA:          -5.809
REMARK INTER:                  -5.638
REMARK INTRA:                  -0.170
REMARK UNBOUND:                -0.049
REMARK SMILES O=c1c(O)c(-c2ccc(O)c(O)c2)oc2cc(O)cc(O)c12
REMARK SMILES IDX 5 1 3 2 2 3 1 4 22 5 20 6 19 7 17 8 16 9 15 10 14 11 6 12
REMARK SMILES IDX 7 13 8 14 9 15 13 16 11 17 10 18 12 20 4 22 21 24 18 26
REMARK H PARENT 10 19 12 21 4 23 21 25 18 27
REMARK Flexibility Score: inf
ROOT
ATOM      1  C   UNL     1      13.877  11.955  17.582  1.00  0.00     0.180 A 
ATOM      2  C   UNL     1      13.739  11.856  16.187  1.00  0.00     0.208 A 
ATOM      3  C   UNL     1      14.888  11.918  15.382  1.00  0.00     0.238 A 
ATOM      4  O   UNL     1      14.764  11.773  14.138  1.00  0.00    -0.285 OA
ATOM      5  C   UNL     1      16.159  12.095  15.982  1.00  0.00     0.111 A 
ATOM      6  C   UNL     1      17.385  12.212  15.262  1.00  0.00     0.134 A 
ATOM      7  C   UNL     1      18.596  12.253  15.963  1.00  0.00     0.093 A 
ATOM      8  C   UNL     1      18.621  12.247  17.360  1.00  0.00     0.123 A 
ATOM      9  C   UNL     1      17.426  12.193  18.072  1.00  0.00     0.094 A 
ATOM     10  C   UNL     1      16.203  12.114  17.400  1.00  0.00     0.146 A 
ATOM     11  O   UNL     1      15.088  12.054  18.118  1.00  0.00    -0.452 OA
ENDROOT
BRANCH   1  12
ATOM     12  C   UNL     1      12.710  11.923  18.494  1.00  0.00     0.025 A 
ATOM     13  C   UNL     1      12.621  10.915  19.466  1.00  0.00     0.016 A 
ATOM     14  C   UNL     1      11.539  10.878  20.350  1.00  0.00     0.051 A 
ATOM     15  C   UNL     1      10.541  11.853  20.286  1.00  0.00     0.157 A 
ATOM     16  C   UNL     1      11.715  12.915  18.445  1.00  0.00     0.062 A 
ATOM     17  C   UNL     1      10.630  12.881  19.332  1.00  0.00     0.158 A 
BRANCH  15  18
ATOM     18  O   UNL     1       9.472  11.789  21.180  1.00  0.00    -0.504 OA
ATOM     19  H   UNL     1       9.140  10.910  21.560  1.00  0.00     0.293 HD
ENDBRANCH  15  18
BRANCH  17  20
ATOM     20  O   UNL     1       9.645  13.866  19.272  1.00  0.00    -0.504 OA
ATOM     21  H   UNL     1       8.659  13.633  19.299  1.00  0.00     0.293 HD
ENDBRANCH  17  20
ENDBRANCH   1  12
BRANCH   2  22
ATOM     22  O   UNL     1      12.478  11.659  15.617  1.00  0.00    -0.502 OA
ATOM     23  H   UNL     1      11.987  12.390  15.118  1.00  0.00     0.293 HD
ENDBRANCH   2  22
BRANCH   6  24
ATOM     24  O   UNL     1      17.466  12.318  13.869  1.00  0.00    -0.507 OA
ATOM     25  H   UNL     1      18.256  12.022  13.316  1.00  0.00     0.293 HD
ENDBRANCH   6  24
BRANCH   8  26
ATOM     26  O   UNL     1      19.830  12.304  18.050  1.00  0.00    -0.508 OA
ATOM     27  H   UNL     1      19.896  12.718  18.972  1.00  0.00     0.293 HD
ENDBRANCH   8  26
TORSDOF 6
ENDMDL
MODEL 5
REMARK VINA RESULT:    -4.304      3.030      6.518
REMARK INTER + INTRA:          -5.234
REMARK INTER:                  -5.673
REMARK INTRA:                   0.439
REMARK UNBOUND:                -0.049
REMARK SMILES O=c1c(O)c(-c2ccc(O)c(O)c2)oc2cc(O)cc(O)c12
REMARK SMILES IDX 5 1 3 2 2 3 1 4 22 5 20 6 19 7 17 8 16 9 15 10 14 11 6 12
REMARK SMILES IDX 7 13 8 14 9 15 13 16 11 17 10 18 12 20 4 22 21 24 18 26
REMARK H PARENT 10 19 12 21 4 23 21 25 18 27
REMARK Flexibility Score: inf
ROOT
ATOM      1  C   UNL     1      14.700  12.033  16.697  1.00  0.00     0.180 A 
ATOM      2  C   UNL     1      14.222  11.772  15.401  1.00  0.00     0.208 A 
ATOM      3  C   UNL     1      12.836  11.680  15.192  1.00  0.00     0.238 A 
ATOM      4  O   UNL     1      12.411  11.501  14.020  1.00  0.00    -0.285 OA
ATOM      5  C   UNL     1      11.948  11.834  16.284  1.00  0.00     0.111 A 
ATOM      6  C   UNL     1      10.527  11.720  16.194  1.00  0.00     0.134 A 
ATOM      7  C   UNL     1       9.739  12.020  17.312  1.00  0.00     0.093 A 
ATOM      8  C   UNL     1      10.323  12.366  18.534  1.00  0.00     0.123 A 
ATOM      9  C   UNL     1      11.710  12.421  18.647  1.00  0.00     0.094 A 
ATOM     10  C   UNL     1      12.522  12.163  17.539  1.00  0.00     0.146 A 
ATOM     11  O   UNL     1      13.839  12.237  17.687  1.00  0.00    -0.452 OA
ENDROOT
BRANCH   1  12
ATOM     12  C   UNL     1      16.147  12.119  17.000  1.00  0.00     0.025 A 
ATOM     13  C   UNL     1      16.579  12.038  18.332  1.00  0.00     0.016 A 
ATOM     14  C   UNL     1      17.941  12.097  18.640  1.00  0.00     0.051 A 
ATOM     15  C   UNL     1      18.890  12.221  17.622  1.00  0.00     0.157 A 
ATOM     16  C   UNL     1      17.105  12.223  15.976  1.00  0.00     0.062 A 
ATOM     17  C   UNL     1      18.472  12.280  16.282  1.00  0.00     0.158 A 
BRANCH  15  18
ATOM     18  O   UNL     1      20.242  12.279  17.959  1.00  0.00    -0.504 OA
ATOM     19  H   UNL     1      20.865  11.491  17.827  1.00  0.00     0.293 HD
ENDBRANCH  15  18
BRANCH  17  20
ATOM     20  O   UNL     1      19.415  12.390  15.261  1.00  0.00    -0.504 OA
ATOM     21  H   UNL     1      20.022  13.197  15.183  1.00  0.00     0.293 HD
ENDBRANCH  17  20
ENDBRANCH   1  12
BRANCH   2  22
ATOM     22  O   UNL     1      15.115  11.646  14.334  1.00  0.00    -0.502 OA
ATOM     23  H   UNL     1      15.636  10.796  14.157  1.00  0.00     0.293 HD
ENDBRANCH   2  22
BRANCH   6  24
ATOM     24  O   UNL     1       9.848  11.294  15.048  1.00  0.00    -0.507 OA
ATOM     25  H   UNL     1      10.292  10.905  14.230  1.00  0.00     0.293 HD
ENDBRANCH   6  24
BRANCH   8  26
ATOM     26  O   UNL     1       9.531  12.648  19.645  1.00  0.00    -0.508 OA
ATOM     27  H   UNL     1       8.521  12.696  19.578  1.00  0.00     0.293 HD
ENDBRANCH   8  26
TORSDOF 6
ENDMDL
MODEL 6
REMARK VINA RESULT:    -4.213      1.822      7.340
REMARK INTER + INTRA:          -5.124
REMARK INTER:                  -5.261
REMARK INTRA:                   0.137
REMARK UNBOUND:                -0.049
REMARK SMILES O=c1c(O)c(-c2ccc(O)c(O)c2)oc2cc(O)cc(O)c12
REMARK SMILES IDX 5 1 3 2 2 3 1 4 22 5 20 6 19 7 17 8 16 9 15 10 14 11 6 12
REMARK SMILES IDX 7 13 8 14 9 15 13 16 11 17 10 18 12 20 4 22 21 24 18 26
REMARK H PARENT 10 19 12 21 4 23 21 25 18 27
REMARK Flexibility Score: inf
ROOT
ATOM      1  C   UNL     1      14.042  11.982  13.698  1.00  0.00     0.180 A 
ATOM      2  C   UNL     1      14.154  12.806  12.565  1.00  0.00     0.208 A 
ATOM      3  C   UNL     1      13.178  12.719  11.560  1.00  0.00     0.238 A 
ATOM      4  O   UNL     1      13.253  13.498  10.574  1.00  0.00    -0.285 OA
ATOM      5  C   UNL     1      12.110  11.798  11.694  1.00  0.00     0.111 A 
ATOM      6  C   UNL     1      11.087  11.598  10.719  1.00  0.00     0.134 A 
ATOM      7  C   UNL     1      10.008  10.755  11.013  1.00  0.00     0.093 A 
ATOM      8  C   UNL     1       9.950  10.055  12.221  1.00  0.00     0.123 A 
ATOM      9  C   UNL     1      10.973  10.198  13.154  1.00  0.00     0.094 A 
ATOM     10  C   UNL     1      12.045  11.061  12.904  1.00  0.00     0.146 A 
ATOM     11  O   UNL     1      12.994  11.176  13.824  1.00  0.00    -0.452 OA
ENDROOT
BRANCH   1  12
ATOM     12  C   UNL     1      15.046  11.998  14.787  1.00  0.00     0.025 A 
ATOM     13  C   UNL     1      16.410  12.066  14.468  1.00  0.00     0.016 A 
ATOM     14  C   UNL     1      17.373  12.104  15.480  1.00  0.00     0.051 A 
ATOM     15  C   UNL     1      16.988  12.089  16.823  1.00  0.00     0.157 A 
ATOM     16  C   UNL     1      14.659  12.003  16.140  1.00  0.00     0.062 A 
ATOM     17  C   UNL     1      15.623  12.043  17.157  1.00  0.00     0.158 A 
BRANCH  15  18
ATOM     18  O   UNL     1      17.971  12.124  17.811  1.00  0.00    -0.504 OA
ATOM     19  H   UNL     1      17.826  12.590  18.699  1.00  0.00     0.293 HD
ENDBRANCH  15  18
BRANCH  17  20
ATOM     20  O   UNL     1      15.231  12.042  18.494  1.00  0.00    -0.504 OA
ATOM     21  H   UNL     1      14.261  12.156  18.763  1.00  0.00     0.293 HD
ENDBRANCH  17  20
ENDBRANCH   1  12
BRANCH   2  22
ATOM     22  O   UNL     1      15.203  13.723  12.464  1.00  0.00    -0.502 OA
ATOM     23  H   UNL     1      15.050  14.709  12.288  1.00  0.00     0.293 HD
ENDBRANCH   2  22
BRANCH   6  24
ATOM     24  O   UNL     1      11.097  12.177   9.445  1.00  0.00    -0.507 OA
ATOM     25  H   UNL     1      10.436  11.964   8.713  1.00  0.00     0.293 HD
ENDBRANCH   6  24
BRANCH   8  26
ATOM     26  O   UNL     1       8.880   9.206  12.499  1.00  0.00    -0.508 OA
ATOM     27  H   UNL     1       9.019   8.305  12.942  1.00  0.00     0.293 HD
ENDBRANCH   8  26
TORSDOF 6
ENDMDL
MODEL 7
REMARK VINA RESULT:    -4.172      2.013      7.143
REMARK INTER + INTRA:          -5.075
REMARK INTER:                  -5.523
REMARK INTRA:                   0.448
REMARK UNBOUND:                -0.049
REMARK SMILES O=c1c(O)c(-c2ccc(O)c(O)c2)oc2cc(O)cc(O)c12
REMARK SMILES IDX 5 1 3 2 2 3 1 4 22 5 20 6 19 7 17 8 16 9 15 10 14 11 6 12
REMARK SMILES IDX 7 13 8 14 9 15 13 16 11 17 10 18 12 20 4 22 21 24 18 26
REMARK H PARENT 10 19 12 21 4 23 21 25 18 27
REMARK Flexibility Score: inf
ROOT
ATOM      1  C   UNL     1      14.881  11.884  15.780  1.00  0.00     0.180 A 
ATOM      2  C   UNL     1      13.972  12.030  16.841  1.00  0.00     0.208 A 
ATOM      3  C   UNL     1      12.596  11.924  16.580  1.00  0.00     0.238 A 
ATOM      4  O   UNL     1      11.790  12.001  17.544  1.00  0.00    -0.285 OA
ATOM      5  C   UNL     1      12.147  11.688  15.258  1.00  0.00     0.111 A 
ATOM      6  C   UNL     1      10.775  11.601  14.873  1.00  0.00     0.134 A 
ATOM      7  C   UNL     1      10.449  11.235  13.561  1.00  0.00     0.093 A 
ATOM      8  C   UNL     1      11.444  11.017  12.605  1.00  0.00     0.123 A 
ATOM      9  C   UNL     1      12.784  11.156  12.957  1.00  0.00     0.094 A 
ATOM     10  C   UNL     1      13.142  11.485  14.267  1.00  0.00     0.146 A 
ATOM     11  O   UNL     1      14.431  11.598  14.563  1.00  0.00    -0.452 OA
ENDROOT
BRANCH   1  12
ATOM     12  C   UNL     1      16.345  12.008  15.972  1.00  0.00     0.025 A 
ATOM     13  C   UNL     1      17.178  12.147  14.852  1.00  0.00     0.016 A 
ATOM     14  C   UNL     1      18.560  12.287  15.012  1.00  0.00     0.051 A 
ATOM     15  C   UNL     1      19.126  12.304  16.289  1.00  0.00     0.157 A 
ATOM     16  C   UNL     1      16.914  12.046  17.257  1.00  0.00     0.062 A 
ATOM     17  C   UNL     1      18.299  12.188  17.420  1.00  0.00     0.158 A 
BRANCH  15  18
ATOM     18  O   UNL     1      20.507  12.442  16.417  1.00  0.00    -0.504 OA
ATOM     19  H   UNL     1      20.957  13.349  16.451  1.00  0.00     0.293 HD
ENDBRANCH  15  18
BRANCH  17  20
ATOM     20  O   UNL     1      18.855  12.219  18.698  1.00  0.00    -0.504 OA
ATOM     21  H   UNL     1      18.358  11.854  19.502  1.00  0.00     0.293 HD
ENDBRANCH  17  20
ENDBRANCH   1  12
BRANCH   2  22
ATOM     22  O   UNL     1      14.438  12.240  18.142  1.00  0.00    -0.502 OA
ATOM     23  H   UNL     1      14.294  13.112  18.638  1.00  0.00     0.293 HD
ENDBRANCH   2  22
BRANCH   6  24
ATOM     24  O   UNL     1       9.705  11.890  15.725  1.00  0.00    -0.507 OA
ATOM     25  H   UNL     1       8.971  12.551  15.520  1.00  0.00     0.293 HD
ENDBRANCH   6  24
BRANCH   8  26
ATOM     26  O   UNL     1      11.110  10.668  11.298  1.00  0.00    -0.508 OA
ATOM     27  H   UNL     1      10.212  10.914  10.897  1.00  0.00     0.293 HD
ENDBRANCH   8  26
TORSDOF 6
ENDMDL
MODEL 8
REMARK VINA RESULT:    -3.898      5.717      7.338
REMARK INTER + INTRA:          -4.744
REMARK INTER:                  -4.434
REMARK INTRA:                  -0.309
REMARK UNBOUND:                -0.049
REMARK SMILES O=c1c(O)c(-c2ccc(O)c(O)c2)oc2cc(O)cc(O)c12
REMARK SMILES IDX 5 1 3 2 2 3 1 4 22 5 20 6 19 7 17 8 16 9 15 10 14 11 6 12
REMARK SMILES IDX 7 13 8 14 9 15 13 16 11 17 10 18 12 20 4 22 21 24 18 26
REMARK H PARENT 10 19 12 21 4 23 21 25 18 27
REMARK Flexibility Score: inf
ROOT
ATOM      1  C   UNL     1      10.007  11.524  17.798  1.00  0.00     0.180 A 
ATOM      2  C   UNL     1      10.214  12.585  18.694  1.00  0.00     0.208 A 
ATOM      3  C   UNL     1      10.160  12.331  20.075  1.00  0.00     0.238 A 
ATOM      4  O   UNL     1      10.401  13.274  20.873  1.00  0.00    -0.285 OA
ATOM      5  C   UNL     1       9.884  11.022  20.539  1.00  0.00     0.111 A 
ATOM      6  C   UNL     1       9.767  10.659  21.915  1.00  0.00     0.134 A 
ATOM      7  C   UNL     1       9.621   9.311  22.263  1.00  0.00     0.093 A 
ATOM      8  C   UNL     1       9.523   8.320  21.282  1.00  0.00     0.123 A 
ATOM      9  C   UNL     1       9.577   8.672  19.936  1.00  0.00     0.094 A 
ATOM     10  C   UNL     1       9.759  10.005  19.558  1.00  0.00     0.146 A 
ATOM     11  O   UNL     1       9.816  10.295  18.264  1.00  0.00    -0.452 OA
ENDROOT
BRANCH   1  12
ATOM     12  C   UNL     1      10.024  11.718  16.329  1.00  0.00     0.025 A 
ATOM     13  C   UNL     1       8.875  12.199  15.683  1.00  0.00     0.016 A 
ATOM     14  C   UNL     1       8.875  12.410  14.302  1.00  0.00     0.051 A 
ATOM     15  C   UNL     1      10.025  12.158  13.549  1.00  0.00     0.157 A 
ATOM     16  C   UNL     1      11.186  11.485  15.573  1.00  0.00     0.062 A 
ATOM     17  C   UNL     1      11.189  11.697  14.186  1.00  0.00     0.158 A 
BRANCH  15  18
ATOM     18  O   UNL     1       9.995  12.374  12.171  1.00  0.00    -0.504 OA
ATOM     19  H   UNL     1       9.548  13.187  11.764  1.00  0.00     0.293 HD
ENDBRANCH  15  18
BRANCH  17  20
ATOM     20  O   UNL     1      12.344  11.457  13.444  1.00  0.00    -0.504 OA
ATOM     21  H   UNL     1      13.201  11.139  13.882  1.00  0.00     0.293 HD
ENDBRANCH  17  20
ENDBRANCH   1  12
BRANCH   2  22
ATOM     22  O   UNL     1      10.508  13.864  18.215  1.00  0.00    -0.502 OA
ATOM     23  H   UNL     1       9.794  14.567  18.066  1.00  0.00     0.293 HD
ENDBRANCH   2  22
BRANCH   6  24
ATOM     24  O   UNL     1       9.759  11.580  22.968  1.00  0.00    -0.507 OA
ATOM     25  H   UNL     1      10.564  12.101  23.280  1.00  0.00     0.293 HD
ENDBRANCH   6  24
BRANCH   8  26
ATOM     26  O   UNL     1       9.362   6.982  21.637  1.00  0.00    -0.508 OA
ATOM     27  H   UNL     1       9.591   6.649  22.567  1.00  0.00     0.293 HD
ENDBRANCH   8  26
TORSDOF 6
ENDMDL
MODEL 9
REMARK VINA RESULT:    -3.896      2.059      7.788
REMARK INTER + INTRA:          -4.742
REMARK INTER:                  -4.446
REMARK INTRA:                  -0.297
REMARK UNBOUND:                -0.049
REMARK SMILES O=c1c(O)c(-c2ccc(O)c(O)c2)oc2cc(O)cc(O)c12
REMARK SMILES IDX 5 1 3 2 2 3 1 4 22 5 20 6 19 7 17 8 16 9 15 10 14 11 6 12
REMARK SMILES IDX 7 13 8 14 9 15 13 16 11 17 10 18 12 20 4 22 21 24 18 26
REMARK H PARENT 10 19 12 21 4 23 21 25 18 27
REMARK Flexibility Score: inf
ROOT
ATOM      1  C   UNL     1      13.697  11.971  13.407  1.00  0.00     0.180 A 
ATOM      2  C   UNL     1      13.036  10.808  12.978  1.00  0.00     0.208 A 
ATOM      3  C   UNL     1      12.178  10.881  11.868  1.00  0.00     0.238 A 
ATOM      4  O   UNL     1      11.631   9.826  11.455  1.00  0.00    -0.285 OA
ATOM      5  C   UNL     1      11.980  12.121  11.213  1.00  0.00     0.111 A 
ATOM      6  C   UNL     1      11.103  12.320  10.104  1.00  0.00     0.134 A 
ATOM      7  C   UNL     1      11.085  13.559   9.452  1.00  0.00     0.093 A 
ATOM      8  C   UNL     1      11.863  14.625   9.909  1.00  0.00     0.123 A 
ATOM      9  C   UNL     1      12.677  14.458  11.026  1.00  0.00     0.094 A 
ATOM     10  C   UNL     1      12.745  13.223  11.676  1.00  0.00     0.146 A 
ATOM     11  O   UNL     1      13.541  13.103  12.731  1.00  0.00    -0.452 OA
ENDROOT
BRANCH   1  12
ATOM     12  C   UNL     1      14.597  11.977  14.583  1.00  0.00     0.025 A 
ATOM     13  C   UNL     1      15.986  12.027  14.390  1.00  0.00     0.016 A 
ATOM     14  C   UNL     1      16.853  12.055  15.485  1.00  0.00     0.051 A 
ATOM     15  C   UNL     1      16.346  12.049  16.787  1.00  0.00     0.157 A 
ATOM     16  C   UNL     1      14.088  11.992  15.894  1.00  0.00     0.062 A 
ATOM     17  C   UNL     1      14.956  12.022  16.995  1.00  0.00     0.158 A 
BRANCH  15  18
ATOM     18  O   UNL     1      17.235  12.074  17.861  1.00  0.00    -0.504 OA
ATOM     19  H   UNL     1      17.419  12.920  18.388  1.00  0.00     0.293 HD
ENDBRANCH  15  18
BRANCH  17  20
ATOM     20  O   UNL     1      14.444  12.030  18.291  1.00  0.00    -0.504 OA
ATOM     21  H   UNL     1      14.567  12.826  18.906  1.00  0.00     0.293 HD
ENDBRANCH  17  20
ENDBRANCH   1  12
BRANCH   2  22
ATOM     22  O   UNL     1      13.262   9.590  13.625  1.00  0.00    -0.502 OA
ATOM     23  H   UNL     1      14.098   9.410  14.169  1.00  0.00     0.293 HD
ENDBRANCH   2  22
BRANCH   6  24
ATOM     24  O   UNL     1      10.217  11.350   9.625  1.00  0.00    -0.507 OA
ATOM     25  H   UNL     1      10.495  10.486   9.184  1.00  0.00     0.293 HD
ENDBRANCH   6  24
BRANCH   8  26
ATOM     26  O   UNL     1      11.827  15.859   9.263  1.00  0.00    -0.508 OA
ATOM     27  H   UNL     1      11.625  15.934   8.273  1.00  0.00     0.293 HD
ENDBRANCH   8  26
TORSDOF 6
ENDMDL
