MODEL 1
REMARK VINA RESULT:    -5.121      0.000      0.000
REMARK INTER + INTRA:          -9.970
REMARK INTER:                  -9.312
REMARK INTRA:                  -0.658
REMARK UNBOUND:                -0.658
REMARK SMILES CCCCCC=CCC=CCCCCCCCC(=O)[O-]
REMARK SMILES IDX 11 1 12 2 13 3 14 4 15 5 16 6 17 7 18 8 19 9 20 10 10 11
REMARK SMILES IDX 9 12 8 13 7 14 6 15 5 16 4 17 3 18 2 19 1 20
REMARK H PARENT
REMARK Flexibility Score: inf
ROOT
ATOM      1  C   UNL     1     147.544 148.846 156.806  1.00  0.00     0.027 C 
ENDROOT
BRANCH   1   2
ATOM      2  C   UNL     1     147.329 150.045 157.746  1.00  0.00     0.004 C 
BRANCH   2   3
ATOM      3  C   UNL     1     146.671 151.265 157.077  1.00  0.00     0.000 C 
BRANCH   3   4
ATOM      4  C   UNL     1     146.809 152.550 157.913  1.00  0.00     0.000 C 
BRANCH   4   5
ATOM      5  C   UNL     1     148.273 152.964 158.125  1.00  0.00     0.000 C 
BRANCH   5   6
ATOM      6  C   UNL     1     148.569 154.384 157.611  1.00  0.00     0.006 C 
BRANCH   6   7
ATOM      7  C   UNL     1     150.022 154.804 157.868  1.00  0.00     0.053 C 
BRANCH   7   8
ATOM      8  C   UNL     1     150.675 155.333 156.627  1.00  0.00     0.041 C 
ATOM      9  O   UNL     1     150.769 154.607 155.603  1.00  0.00    -0.550 OA
ATOM     10  O   UNL     1     151.129 156.644 156.584  1.00  0.00    -0.550 OA
ENDBRANCH   7   8
ENDBRANCH   6   7
ENDBRANCH   5   6
ENDBRANCH   4   5
ENDBRANCH   3   4
ENDBRANCH   2   3
ENDBRANCH   1   2
BRANCH   1  11
ATOM     11  C   UNL     1     146.802 147.616 157.275  1.00  0.00    -0.031 C 
ATOM     12  C   UNL     1     147.324 146.377 157.338  1.00  0.00    -0.027 C 
BRANCH  12  13
ATOM     13  C   UNL     1     148.752 146.025 157.006  1.00  0.00     0.054 C 
BRANCH  13  14
ATOM     14  C   UNL     1     148.970 144.542 157.094  1.00  0.00    -0.027 C 
ATOM     15  C   UNL     1     148.120 143.738 157.751  1.00  0.00    -0.031 C 
BRANCH  15  16
ATOM     16  C   UNL     1     148.344 142.252 157.809  1.00  0.00     0.027 C 
BRANCH  16  17
ATOM     17  C   UNL     1     147.028 141.517 158.106  1.00  0.00     0.004 C 
BRANCH  17  18
ATOM     18  C   UNL     1     147.185 139.986 158.124  1.00  0.00     0.000 C 
BRANCH  18  19
ATOM     19  C   UNL     1     146.004 139.206 157.519  1.00  0.00    -0.003 C 
ATOM     20  C   UNL     1     145.131 140.059 156.600  1.00  0.00     0.004 C 
ENDBRANCH  18  19
ENDBRANCH  17  18
ENDBRANCH  16  17
ENDBRANCH  15  16
ENDBRANCH  13  14
ENDBRANCH  12  13
ENDBRANCH   1  11
TORSDOF 14
ENDMDL
MODEL 2
REMARK VINA RESULT:    -4.949      1.524      2.019
REMARK INTER + INTRA:          -9.657
REMARK INTER:                  -9.015
REMARK INTRA:                  -0.641
REMARK UNBOUND:                -0.658
REMARK SMILES CCCCCC=CCC=CCCCCCCCC(=O)[O-]
REMARK SMILES IDX 11 1 12 2 13 3 14 4 15 5 16 6 17 7 18 8 19 9 20 10 10 11
REMARK SMILES IDX 9 12 8 13 7 14 6 15 5 16 4 17 3 18 2 19 1 20
REMARK H PARENT
REMARK Flexibility Score: inf
ROOT
ATOM      1  C   UNL     1     146.472 148.374 156.113  1.00  0.00     0.027 C 
ENDROOT
BRANCH   1   2
ATOM      2  C   UNL     1     146.861 149.538 157.042  1.00  0.00     0.004 C 
BRANCH   2   3
ATOM      3  C   UNL     1     148.302 149.467 157.579  1.00  0.00     0.000 C 
BRANCH   3   4
ATOM      4  C   UNL     1     148.802 150.816 158.125  1.00  0.00     0.000 C 
BRANCH   4   5
ATOM      5  C   UNL     1     147.713 151.901 158.111  1.00  0.00     0.000 C 
BRANCH   5   6
ATOM      6  C   UNL     1     148.278 153.304 157.832  1.00  0.00     0.006 C 
BRANCH   6   7
ATOM      7  C   UNL     1     147.185 154.382 157.836  1.00  0.00     0.053 C 
BRANCH   7   8
ATOM      8  C   UNL     1     147.730 155.727 157.465  1.00  0.00     0.041 C 
ATOM      9  O   UNL     1     148.928 156.017 157.721  1.00  0.00    -0.550 OA
ATOM     10  O   UNL     1     146.931 156.638 156.787  1.00  0.00    -0.550 OA
ENDBRANCH   7   8
ENDBRANCH   6   7
ENDBRANCH   5   6
ENDBRANCH   4   5
ENDBRANCH   3   4
ENDBRANCH   2   3
ENDBRANCH   1   2
BRANCH   1  11
ATOM     11  C   UNL     1     147.682 147.620 155.612  1.00  0.00    -0.031 C 
ATOM     12  C   UNL     1     148.197 146.518 156.189  1.00  0.00    -0.027 C 
BRANCH  12  13
ATOM     13  C   UNL     1     147.617 145.823 157.393  1.00  0.00     0.054 C 
BRANCH  13  14
ATOM     14  C   UNL     1     148.303 144.510 157.635  1.00  0.00    -0.027 C 
ATOM     15  C   UNL     1     147.615 143.373 157.818  1.00  0.00    -0.031 C 
BRANCH  15  16
ATOM     16  C   UNL     1     148.321 142.064 158.037  1.00  0.00     0.027 C 
BRANCH  16  17
ATOM     17  C   UNL     1     147.311 140.910 158.119  1.00  0.00     0.004 C 
BRANCH  17  18
ATOM     18  C   UNL     1     145.935 141.270 157.530  1.00  0.00     0.000 C 
BRANCH  18  19
ATOM     19  C   UNL     1     145.106 140.071 157.039  1.00  0.00    -0.003 C 
ATOM     20  C   UNL     1     145.031 138.935 158.059  1.00  0.00     0.004 C 
ENDBRANCH  18  19
ENDBRANCH  17  18
ENDBRANCH  16  17
ENDBRANCH  15  16
ENDBRANCH  13  14
ENDBRANCH  12  13
ENDBRANCH   1  11
TORSDOF 14
ENDMDL
MODEL 3
REMARK VINA RESULT:    -4.912      1.050      1.622
REMARK INTER + INTRA:          -9.590
REMARK INTER:                  -9.059
REMARK INTRA:                  -0.531
REMARK UNBOUND:                -0.658
REMARK SMILES CCCCCC=CCC=CCCCCCCCC(=O)[O-]
REMARK SMILES IDX 11 1 12 2 13 3 14 4 15 5 16 6 17 7 18 8 19 9 20 10 10 11
REMARK SMILES IDX 9 12 8 13 7 14 6 15 5 16 4 17 3 18 2 19 1 20
REMARK H PARENT
REMARK Flexibility Score: inf
ROOT
ATOM      1  C   UNL     1     146.845 149.382 157.136  1.00  0.00     0.027 C 
ENDROOT
BRANCH   1   2
ATOM      2  C   UNL     1     146.643 150.900 156.988  1.00  0.00     0.004 C 
BRANCH   2   3
ATOM      3  C   UNL     1     147.335 151.741 158.076  1.00  0.00     0.000 C 
BRANCH   3   4
ATOM      4  C   UNL     1     147.243 153.254 157.809  1.00  0.00     0.000 C 
BRANCH   4   5
ATOM      5  C   UNL     1     148.624 153.922 157.708  1.00  0.00     0.000 C 
BRANCH   5   6
ATOM      6  C   UNL     1     148.581 155.261 156.950  1.00  0.00     0.006 C 
BRANCH   6   7
ATOM      7  C   UNL     1     149.708 156.209 157.382  1.00  0.00     0.053 C 
BRANCH   7   8
ATOM      8  C   UNL     1     150.971 155.952 156.619  1.00  0.00     0.041 C 
ATOM      9  O   UNL     1     151.972 156.699 156.781  1.00  0.00    -0.550 OA
ATOM     10  O   UNL     1     151.061 154.856 155.770  1.00  0.00    -0.550 OA
ENDBRANCH   7   8
ENDBRANCH   6   7
ENDBRANCH   5   6
ENDBRANCH   4   5
ENDBRANCH   3   4
ENDBRANCH   2   3
ENDBRANCH   1   2
BRANCH   1  11
ATOM     11  C   UNL     1     147.140 148.717 155.812  1.00  0.00    -0.031 C 
ATOM     12  C   UNL     1     148.120 147.818 155.602  1.00  0.00    -0.027 C 
BRANCH  12  13
ATOM     13  C   UNL     1     149.045 147.286 156.665  1.00  0.00     0.054 C 
BRANCH  13  14
ATOM     14  C   UNL     1     148.347 146.268 157.519  1.00  0.00    -0.027 C 
ATOM     15  C   UNL     1     148.241 144.983 157.148  1.00  0.00    -0.031 C 
BRANCH  15  16
ATOM     16  C   UNL     1     147.557 143.973 158.027  1.00  0.00     0.027 C 
BRANCH  16  17
ATOM     17  C   UNL     1     148.355 142.662 158.069  1.00  0.00     0.004 C 
BRANCH  17  18
ATOM     18  C   UNL     1     147.607 141.480 157.426  1.00  0.00     0.000 C 
BRANCH  18  19
ATOM     19  C   UNL     1     146.294 141.086 158.125  1.00  0.00    -0.003 C 
ATOM     20  C   UNL     1     145.099 141.037 157.173  1.00  0.00     0.004 C 
ENDBRANCH  18  19
ENDBRANCH  17  18
ENDBRANCH  16  17
ENDBRANCH  15  16
ENDBRANCH  13  14
ENDBRANCH  12  13
ENDBRANCH   1  11
TORSDOF 14
ENDMDL
MODEL 4
REMARK VINA RESULT:    -4.849      5.391     11.657
REMARK INTER + INTRA:          -9.475
REMARK INTER:                  -8.880
REMARK INTRA:                  -0.595
REMARK UNBOUND:                -0.658
REMARK SMILES CCCCCC=CCC=CCCCCCCCC(=O)[O-]
REMARK SMILES IDX 11 1 12 2 13 3 14 4 15 5 16 6 17 7 18 8 19 9 20 10 10 11
REMARK SMILES IDX 9 12 8 13 7 14 6 15 5 16 4 17 3 18 2 19 1 20
REMARK H PARENT
REMARK Flexibility Score: inf
ROOT
ATOM      1  C   UNL     1     147.398 146.658 156.238  1.00  0.00     0.027 C 
ENDROOT
BRANCH   1   2
ATOM      2  C   UNL     1     147.523 146.299 157.729  1.00  0.00     0.004 C 
BRANCH   2   3
ATOM      3  C   UNL     1     147.042 144.880 158.082  1.00  0.00     0.000 C 
BRANCH   3   4
ATOM      4  C   UNL     1     147.782 143.786 157.292  1.00  0.00     0.000 C 
BRANCH   4   5
ATOM      5  C   UNL     1     147.996 142.505 158.114  1.00  0.00     0.000 C 
BRANCH   5   6
ATOM      6  C   UNL     1     146.761 141.586 158.111  1.00  0.00     0.006 C 
BRANCH   6   7
ATOM      7  C   UNL     1     147.123 140.129 157.791  1.00  0.00     0.053 C 
BRANCH   7   8
ATOM      8  C   UNL     1     145.937 139.358 157.298  1.00  0.00     0.041 C 
ATOM      9  O   UNL     1     145.057 139.928 156.601  1.00  0.00    -0.550 OA
ATOM     10  O   UNL     1     145.831 137.999 157.563  1.00  0.00    -0.550 OA
ENDBRANCH   7   8
ENDBRANCH   6   7
ENDBRANCH   5   6
ENDBRANCH   4   5
ENDBRANCH   3   4
ENDBRANCH   2   3
ENDBRANCH   1   2
BRANCH   1  11
ATOM     11  C   UNL     1     146.402 147.771 156.004  1.00  0.00    -0.031 C 
ATOM     12  C   UNL     1     146.568 149.048 156.395  1.00  0.00    -0.027 C 
BRANCH  12  13
ATOM     13  C   UNL     1     147.797 149.589 157.078  1.00  0.00     0.054 C 
BRANCH  13  14
ATOM     14  C   UNL     1     147.466 150.813 157.883  1.00  0.00    -0.027 C 
ATOM     15  C   UNL     1     147.229 152.000 157.304  1.00  0.00    -0.031 C 
BRANCH  15  16
ATOM     16  C   UNL     1     146.877 153.209 158.125  1.00  0.00     0.027 C 
BRANCH  16  17
ATOM     17  C   UNL     1     147.794 154.390 157.772  1.00  0.00     0.004 C 
BRANCH  17  18
ATOM     18  C   UNL     1     149.289 154.031 157.834  1.00  0.00     0.000 C 
BRANCH  18  19
ATOM     19  C   UNL     1     150.168 154.733 156.783  1.00  0.00    -0.003 C 
ATOM     20  C   UNL     1     150.394 156.214 157.082  1.00  0.00     0.004 C 
ENDBRANCH  18  19
ENDBRANCH  17  18
ENDBRANCH  16  17
ENDBRANCH  15  16
ENDBRANCH  13  14
ENDBRANCH  12  13
ENDBRANCH   1  11
TORSDOF 14
ENDMDL
MODEL 5
REMARK VINA RESULT:    -4.261      5.096     11.733
REMARK INTER + INTRA:          -8.406
REMARK INTER:                  -7.807
REMARK INTRA:                  -0.598
REMARK UNBOUND:                -0.658
REMARK SMILES CCCCCC=CCC=CCCCCCCCC(=O)[O-]
REMARK SMILES IDX 11 1 12 2 13 3 14 4 15 5 16 6 17 7 18 8 19 9 20 10 10 11
REMARK SMILES IDX 9 12 8 13 7 14 6 15 5 16 4 17 3 18 2 19 1 20
REMARK H PARENT
REMARK Flexibility Score: inf
ROOT
ATOM      1  C   UNL     1     147.300 149.160 156.118  1.00  0.00     0.027 C 
ENDROOT
BRANCH   1   2
ATOM      2  C   UNL     1     147.085 147.744 156.683  1.00  0.00     0.004 C 
BRANCH   2   3
ATOM      3  C   UNL     1     148.367 147.067 157.201  1.00  0.00     0.000 C 
BRANCH   3   4
ATOM      4  C   UNL     1     148.548 145.639 156.656  1.00  0.00     0.000 C 
BRANCH   4   5
ATOM      5  C   UNL     1     147.948 144.571 157.583  1.00  0.00     0.000 C 
BRANCH   5   6
ATOM      6  C   UNL     1     148.334 143.140 157.168  1.00  0.00     0.006 C 
BRANCH   6   7
ATOM      7  C   UNL     1     147.763 142.084 158.125  1.00  0.00     0.053 C 
BRANCH   7   8
ATOM      8  C   UNL     1     146.942 141.064 157.398  1.00  0.00     0.041 C 
ATOM      9  O   UNL     1     147.495 140.250 156.611  1.00  0.00    -0.550 OA
ATOM     10  O   UNL     1     145.576 140.975 157.629  1.00  0.00    -0.550 OA
ENDBRANCH   7   8
ENDBRANCH   6   7
ENDBRANCH   5   6
ENDBRANCH   4   5
ENDBRANCH   3   4
ENDBRANCH   2   3
ENDBRANCH   1   2
BRANCH   1  11
ATOM     11  C   UNL     1     146.191 150.105 156.518  1.00  0.00    -0.031 C 
ATOM     12  C   UNL     1     146.324 151.128 157.384  1.00  0.00    -0.027 C 
BRANCH  12  13
ATOM     13  C   UNL     1     147.614 151.532 158.050  1.00  0.00     0.054 C 
BRANCH  13  14
ATOM     14  C   UNL     1     148.087 152.861 157.534  1.00  0.00    -0.027 C 
ATOM     15  C   UNL     1     147.709 154.017 158.100  1.00  0.00    -0.031 C 
BRANCH  15  16
ATOM     16  C   UNL     1     148.211 155.336 157.583  1.00  0.00     0.027 C 
BRANCH  16  17
ATOM     17  C   UNL     1     149.745 155.387 157.622  1.00  0.00     0.004 C 
BRANCH  17  18
ATOM     18  C   UNL     1     150.331 156.555 156.808  1.00  0.00     0.000 C 
BRANCH  18  19
ATOM     19  C   UNL     1     151.839 156.451 156.518  1.00  0.00    -0.003 C 
ATOM     20  C   UNL     1     152.630 157.658 157.020  1.00  0.00     0.004 C 
ENDBRANCH  18  19
ENDBRANCH  17  18
ENDBRANCH  16  17
ENDBRANCH  15  16
ENDBRANCH  13  14
ENDBRANCH  12  13
ENDBRANCH   1  11
TORSDOF 14
ENDMDL
MODEL 6
REMARK VINA RESULT:    -4.195      1.143      1.711
REMARK INTER + INTRA:          -8.285
REMARK INTER:                  -7.654
REMARK INTRA:                  -0.631
REMARK UNBOUND:                -0.658
REMARK SMILES CCCCCC=CCC=CCCCCCCCC(=O)[O-]
REMARK SMILES IDX 11 1 12 2 13 3 14 4 15 5 16 6 17 7 18 8 19 9 20 10 10 11
REMARK SMILES IDX 9 12 8 13 7 14 6 15 5 16 4 17 3 18 2 19 1 20
REMARK H PARENT
REMARK Flexibility Score: inf
ROOT
ATOM      1  C   UNL     1     147.065 147.917 156.062  1.00  0.00     0.027 C 
ENDROOT
BRANCH   1   2
ATOM      2  C   UNL     1     147.872 149.078 156.670  1.00  0.00     0.004 C 
BRANCH   2   3
ATOM      3  C   UNL     1     147.243 150.466 156.457  1.00  0.00     0.000 C 
BRANCH   3   4
ATOM      4  C   UNL     1     147.009 151.224 157.776  1.00  0.00     0.000 C 
BRANCH   4   5
ATOM      5  C   UNL     1     148.163 152.177 158.124  1.00  0.00     0.000 C 
BRANCH   5   6
ATOM      6  C   UNL     1     148.150 153.458 157.273  1.00  0.00     0.006 C 
BRANCH   6   7
ATOM      7  C   UNL     1     148.915 154.608 157.944  1.00  0.00     0.053 C 
BRANCH   7   8
ATOM      8  C   UNL     1     149.735 155.380 156.956  1.00  0.00     0.041 C 
ATOM      9  O   UNL     1     149.722 156.639 156.968  1.00  0.00    -0.550 OA
ATOM     10  O   UNL     1     150.556 154.710 156.059  1.00  0.00    -0.550 OA
ENDBRANCH   7   8
ENDBRANCH   6   7
ENDBRANCH   5   6
ENDBRANCH   4   5
ENDBRANCH   3   4
ENDBRANCH   2   3
ENDBRANCH   1   2
BRANCH   1  11
ATOM     11  C   UNL     1     147.956 146.783 155.609  1.00  0.00    -0.031 C 
ATOM     12  C   UNL     1     148.392 145.783 156.397  1.00  0.00    -0.027 C 
BRANCH  12  13
ATOM     13  C   UNL     1     148.016 145.598 157.844  1.00  0.00     0.054 C 
BRANCH  13  14
ATOM     14  C   UNL     1     147.135 144.394 158.018  1.00  0.00    -0.027 C 
ATOM     15  C   UNL     1     147.606 143.146 157.880  1.00  0.00    -0.031 C 
BRANCH  15  16
ATOM     16  C   UNL     1     146.713 141.952 158.079  1.00  0.00     0.027 C 
BRANCH  16  17
ATOM     17  C   UNL     1     147.358 140.689 157.490  1.00  0.00     0.004 C 
BRANCH  17  18
ATOM     18  C   UNL     1     146.337 139.577 157.188  1.00  0.00     0.000 C 
BRANCH  18  19
ATOM     19  C   UNL     1     146.845 138.145 157.439  1.00  0.00    -0.003 C 
ATOM     20  C   UNL     1     148.317 137.958 157.073  1.00  0.00     0.004 C 
ENDBRANCH  18  19
ENDBRANCH  17  18
ENDBRANCH  16  17
ENDBRANCH  15  16
ENDBRANCH  13  14
ENDBRANCH  12  13
ENDBRANCH   1  11
TORSDOF 14
ENDMDL
MODEL 7
REMARK VINA RESULT:    -3.616      4.700     11.382
REMARK INTER + INTRA:          -7.233
REMARK INTER:                  -6.571
REMARK INTRA:                  -0.663
REMARK UNBOUND:                -0.658
REMARK SMILES CCCCCC=CCC=CCCCCCCCC(=O)[O-]
REMARK SMILES IDX 11 1 12 2 13 3 14 4 15 5 16 6 17 7 18 8 19 9 20 10 10 11
REMARK SMILES IDX 9 12 8 13 7 14 6 15 5 16 4 17 3 18 2 19 1 20
REMARK H PARENT
REMARK Flexibility Score: inf
ROOT
ATOM      1  C   UNL     1     147.749 148.892 157.759  1.00  0.00     0.027 C 
ENDROOT
BRANCH   1   2
ATOM      2  C   UNL     1     147.257 148.966 156.303  1.00  0.00     0.004 C 
BRANCH   2   3
ATOM      3  C   UNL     1     146.691 147.643 155.756  1.00  0.00     0.000 C 
BRANCH   3   4
ATOM      4  C   UNL     1     146.765 146.495 156.779  1.00  0.00     0.000 C 
BRANCH   4   5
ATOM      5  C   UNL     1     148.041 145.653 156.632  1.00  0.00     0.000 C 
BRANCH   5   6
ATOM      6  C   UNL     1     148.215 144.635 157.774  1.00  0.00     0.006 C 
BRANCH   6   7
ATOM      7  C   UNL     1     148.552 143.231 157.254  1.00  0.00     0.053 C 
BRANCH   7   8
ATOM      8  C   UNL     1     147.573 142.208 157.743  1.00  0.00     0.041 C 
ATOM      9  O   UNL     1     147.920 141.003 157.858  1.00  0.00    -0.550 OA
ATOM     10  O   UNL     1     146.294 142.595 158.123  1.00  0.00    -0.550 OA
ENDBRANCH   7   8
ENDBRANCH   6   7
ENDBRANCH   5   6
ENDBRANCH   4   5
ENDBRANCH   3   4
ENDBRANCH   2   3
ENDBRANCH   1   2
BRANCH   1  11
ATOM     11  C   UNL     1     148.932 149.799 158.005  1.00  0.00    -0.031 C 
ATOM     12  C   UNL     1     148.865 151.138 158.125  1.00  0.00    -0.027 C 
BRANCH  12  13
ATOM     13  C   UNL     1     147.592 151.945 158.092  1.00  0.00     0.054 C 
BRANCH  13  14
ATOM     14  C   UNL     1     147.892 153.416 158.113  1.00  0.00    -0.027 C 
ATOM     15  C   UNL     1     146.924 154.338 158.006  1.00  0.00    -0.031 C 
BRANCH  15  16
ATOM     16  C   UNL     1     147.241 155.807 158.051  1.00  0.00     0.027 C 
BRANCH  16  17
ATOM     17  C   UNL     1     148.329 156.160 157.026  1.00  0.00     0.004 C 
BRANCH  17  18
ATOM     18  C   UNL     1     149.575 156.798 157.666  1.00  0.00     0.000 C 
BRANCH  18  19
ATOM     19  C   UNL     1     150.869 156.656 156.844  1.00  0.00    -0.003 C 
ATOM     20  C   UNL     1     151.989 157.578 157.326  1.00  0.00     0.004 C 
ENDBRANCH  18  19
ENDBRANCH  17  18
ENDBRANCH  16  17
ENDBRANCH  15  16
ENDBRANCH  13  14
ENDBRANCH  12  13
ENDBRANCH   1  11
TORSDOF 14
ENDMDL
