MODEL 1
REMARK VINA RESULT:    -8.348      0.000      0.000
REMARK INTER + INTRA:         -13.481
REMARK INTER:                 -12.009
REMARK INTRA:                  -1.472
REMARK UNBOUND:                -1.472
REMARK SMILES O=c1c(O[C@@H]2O[C@H](CO)[C@@H](O)[C@@H](O)[C@H]2O)c(-c2ccc(O)cc2)oc2cc(O)cc(O)c12
REMARK SMILES IDX 4 1 3 2 16 3 24 4 2 5 25 6 1 7 32 8 26 9 30 10 27 11 29 12
REMARK SMILES IDX 17 13 18 14 19 15 20 16 23 17 22 18 21 19 31 21 28 23 5 25
REMARK SMILES IDX 14 26 6 27 12 28 7 29 10 30 15 31 13 33 8 35 9 36 11 38
REMARK H PARENT 21 20 31 22 28 24 15 32 13 34 9 37 11 39
REMARK Flexibility Score: inf
ROOT
ATOM      1  O   UNL     1     -11.082  40.198  -7.186  1.00  0.00    -0.454 OA
ENDROOT
BRANCH   1   2
ATOM      2  C   UNL     1     -10.558  39.317  -8.132  1.00  0.00     0.214 A 
ATOM      3  C   UNL     1     -10.483  37.966  -7.741  1.00  0.00     0.180 A 
ATOM      4  O   UNL     1     -10.283  37.004  -8.627  1.00  0.00    -0.452 OA
ATOM      5  C   UNL     1     -10.053  39.656  -9.417  1.00  0.00     0.239 A 
ATOM      6  C   UNL     1      -9.874  37.269  -9.865  1.00  0.00     0.146 A 
ATOM      7  O   UNL     1      -9.998  40.867  -9.775  1.00  0.00    -0.285 OA
ATOM      8  C   UNL     1      -9.627  38.606 -10.269  1.00  0.00     0.111 A 
ATOM      9  C   UNL     1      -9.539  36.186 -10.680  1.00  0.00     0.094 A 
ATOM     10  C   UNL     1      -8.807  38.822 -11.432  1.00  0.00     0.134 A 
ATOM     11  C   UNL     1      -8.662  36.397 -11.731  1.00  0.00     0.123 A 
ATOM     12  C   UNL     1      -8.281  37.703 -12.102  1.00  0.00     0.093 A 
BRANCH   3  13
ATOM     13  C   UNL     1     -10.291  37.633  -6.331  1.00  0.00     0.021 A 
ATOM     14  C   UNL     1      -9.145  37.960  -5.619  1.00  0.00     0.016 A 
ATOM     15  C   UNL     1      -9.080  37.743  -4.226  1.00  0.00     0.047 A 
ATOM     16  C   UNL     1     -10.165  37.106  -3.592  1.00  0.00     0.115 A 
ATOM     17  C   UNL     1     -11.389  37.082  -5.667  1.00  0.00     0.016 A 
ATOM     18  C   UNL     1     -11.267  36.706  -4.332  1.00  0.00     0.047 A 
BRANCH  16  19
ATOM     19  O   UNL     1     -10.143  36.870  -2.218  1.00  0.00    -0.508 OA
ATOM     20  H   UNL     1      -9.245  36.831  -1.727  1.00  0.00     0.293 HD
ENDBRANCH  16  19
ENDBRANCH   3  13
BRANCH  10  21
ATOM     21  O   UNL     1      -8.405  40.093 -11.851  1.00  0.00    -0.507 OA
ATOM     22  H   UNL     1      -9.039  40.889 -11.779  1.00  0.00     0.293 HD
ENDBRANCH  10  21
BRANCH  11  23
ATOM     23  O   UNL     1      -8.125  35.296 -12.405  1.00  0.00    -0.508 OA
ATOM     24  H   UNL     1      -7.260  35.356 -12.898  1.00  0.00     0.293 HD
ENDBRANCH  11  23
ENDBRANCH   1   2
BRANCH   1  25
ATOM     25  C   UNL     1     -12.394  40.646  -6.926  1.00  0.00     0.339 C 
ATOM     26  C   UNL     1     -12.572  41.983  -7.769  1.00  0.00     0.214 C 
ATOM     27  O   UNL     1     -13.344  39.647  -7.275  1.00  0.00    -0.332 OA
ATOM     28  C   UNL     1     -13.263  41.600  -9.100  1.00  0.00     0.180 C 
ATOM     29  C   UNL     1     -14.635  40.231  -7.448  1.00  0.00     0.179 C 
ATOM     30  C   UNL     1     -14.700  41.079  -8.748  1.00  0.00     0.177 C 
BRANCH  26  31
ATOM     31  O   UNL     1     -13.350  42.972  -7.101  1.00  0.00    -0.384 OA
ATOM     32  H   UNL     1     -13.137  42.927  -6.110  1.00  0.00     0.211 HD
ENDBRANCH  26  31
BRANCH  28  33
ATOM     33  O   UNL     1     -13.275  42.729  -9.933  1.00  0.00    -0.387 OA
ATOM     34  H   UNL     1     -13.804  43.432  -9.470  1.00  0.00     0.211 HD
ENDBRANCH  28  33
BRANCH  29  35
ATOM     35  C   UNL     1     -15.746  39.178  -7.327  1.00  0.00     0.191 C 
BRANCH  35  36
ATOM     36  O   UNL     1     -16.975  39.712  -7.766  1.00  0.00    -0.394 OA
ATOM     37  H   UNL     1     -17.210  40.422  -7.118  1.00  0.00     0.210 HD
ENDBRANCH  35  36
ENDBRANCH  29  35
BRANCH  30  38
ATOM     38  O   UNL     1     -15.608  42.146  -8.608  1.00  0.00    -0.387 OA
ATOM     39  H   UNL     1     -16.158  41.903  -7.813  1.00  0.00     0.211 HD
ENDBRANCH  30  38
ENDBRANCH   1  25
TORSDOF 11
ENDMDL
MODEL 2
REMARK VINA RESULT:    -8.108      2.094      7.621
REMARK INTER + INTRA:         -13.136
REMARK INTER:                 -11.926
REMARK INTRA:                  -1.209
REMARK UNBOUND:                -1.472
REMARK SMILES O=c1c(O[C@@H]2O[C@H](CO)[C@@H](O)[C@@H](O)[C@H]2O)c(-c2ccc(O)cc2)oc2cc(O)cc(O)c12
REMARK SMILES IDX 4 1 3 2 16 3 24 4 2 5 25 6 1 7 32 8 26 9 30 10 27 11 29 12
REMARK SMILES IDX 17 13 18 14 19 15 20 16 23 17 22 18 21 19 31 21 28 23 5 25
REMARK SMILES IDX 14 26 6 27 12 28 7 29 10 30 15 31 13 33 8 35 9 36 11 38
REMARK H PARENT 21 20 31 22 28 24 15 32 13 34 9 37 11 39
REMARK Flexibility Score: inf
ROOT
ATOM      1  O   UNL     1     -11.776  37.548  -7.018  1.00  0.00    -0.454 OA
ENDROOT
BRANCH   1   2
ATOM      2  C   UNL     1     -11.927  37.931  -5.685  1.00  0.00     0.214 A 
ATOM      3  C   UNL     1     -12.912  38.904  -5.431  1.00  0.00     0.180 A 
ATOM      4  O   UNL     1     -13.348  39.137  -4.204  1.00  0.00    -0.452 OA
ATOM      5  C   UNL     1     -11.157  37.475  -4.581  1.00  0.00     0.239 A 
ATOM      6  C   UNL     1     -12.703  38.679  -3.135  1.00  0.00     0.146 A 
ATOM      7  O   UNL     1     -10.190  36.682  -4.769  1.00  0.00    -0.285 OA
ATOM      8  C   UNL     1     -11.509  37.927  -3.285  1.00  0.00     0.111 A 
ATOM      9  C   UNL     1     -13.146  39.104  -1.881  1.00  0.00     0.094 A 
ATOM     10  C   UNL     1     -10.633  37.813  -2.147  1.00  0.00     0.134 A 
ATOM     11  C   UNL     1     -12.252  39.085  -0.824  1.00  0.00     0.123 A 
ATOM     12  C   UNL     1     -10.996  38.459  -0.952  1.00  0.00     0.093 A 
BRANCH   3  13
ATOM     13  C   UNL     1     -13.226  39.897  -6.457  1.00  0.00     0.021 A 
ATOM     14  C   UNL     1     -14.395  39.880  -7.204  1.00  0.00     0.016 A 
ATOM     15  C   UNL     1     -14.707  40.948  -8.073  1.00  0.00     0.047 A 
ATOM     16  C   UNL     1     -13.765  41.984  -8.233  1.00  0.00     0.115 A 
ATOM     17  C   UNL     1     -12.347  40.977  -6.565  1.00  0.00     0.016 A 
ATOM     18  C   UNL     1     -12.562  41.943  -7.544  1.00  0.00     0.047 A 
BRANCH  16  19
ATOM     19  O   UNL     1     -14.030  43.058  -9.082  1.00  0.00    -0.508 OA
ATOM     20  H   UNL     1     -14.489  43.894  -8.708  1.00  0.00     0.293 HD
ENDBRANCH  16  19
ENDBRANCH   3  13
BRANCH  10  21
ATOM     21  O   UNL     1      -9.381  37.197  -2.214  1.00  0.00    -0.507 OA
ATOM     22  H   UNL     1      -8.811  37.267  -3.058  1.00  0.00     0.293 HD
ENDBRANCH  10  21
BRANCH  11  23
ATOM     23  O   UNL     1     -12.593  39.728   0.371  1.00  0.00    -0.508 OA
ATOM     24  H   UNL     1     -13.140  40.563   0.377  1.00  0.00     0.293 HD
ENDBRANCH  11  23
ENDBRANCH   1   2
BRANCH   1  25
ATOM     25  C   UNL     1     -10.638  37.295  -7.812  1.00  0.00     0.339 C 
ATOM     26  C   UNL     1     -10.963  35.969  -8.628  1.00  0.00     0.214 C 
ATOM     27  O   UNL     1     -10.358  38.404  -8.657  1.00  0.00    -0.332 OA
ATOM     28  C   UNL     1     -11.494  36.401 -10.016  1.00  0.00     0.180 C 
ATOM     29  C   UNL     1      -9.530  37.999  -9.746  1.00  0.00     0.179 C 
ATOM     30  C   UNL     1     -10.320  37.126 -10.761  1.00  0.00     0.177 C 
BRANCH  26  31
ATOM     31  O   UNL     1      -9.832  35.119  -8.798  1.00  0.00    -0.384 OA
ATOM     32  H   UNL     1      -9.196  35.564  -9.451  1.00  0.00     0.211 HD
ENDBRANCH  26  31
BRANCH  28  33
ATOM     33  O   UNL     1     -11.950  35.257 -10.690  1.00  0.00    -0.387 OA
ATOM     34  H   UNL     1     -12.044  35.498 -11.650  1.00  0.00     0.211 HD
ENDBRANCH  28  33
BRANCH  29  35
ATOM     35  C   UNL     1      -8.809  39.200 -10.377  1.00  0.00     0.191 C 
BRANCH  35  36
ATOM     36  O   UNL     1      -8.778  39.069 -11.781  1.00  0.00    -0.394 OA
ATOM     37  H   UNL     1      -7.838  39.222 -12.048  1.00  0.00     0.210 HD
ENDBRANCH  35  36
ENDBRANCH  29  35
BRANCH  30  38
ATOM     38  O   UNL     1      -9.470  36.201 -11.397  1.00  0.00    -0.387 OA
ATOM     39  H   UNL     1     -10.087  35.519 -11.782  1.00  0.00     0.211 HD
ENDBRANCH  30  38
ENDBRANCH   1  25
TORSDOF 11
ENDMDL
MODEL 3
REMARK VINA RESULT:    -8.100      3.722      7.515
REMARK INTER + INTRA:         -13.124
REMARK INTER:                 -11.693
REMARK INTRA:                  -1.431
REMARK UNBOUND:                -1.472
REMARK SMILES O=c1c(O[C@@H]2O[C@H](CO)[C@@H](O)[C@@H](O)[C@H]2O)c(-c2ccc(O)cc2)oc2cc(O)cc(O)c12
REMARK SMILES IDX 4 1 3 2 16 3 24 4 2 5 25 6 1 7 32 8 26 9 30 10 27 11 29 12
REMARK SMILES IDX 17 13 18 14 19 15 20 16 23 17 22 18 21 19 31 21 28 23 5 25
REMARK SMILES IDX 14 26 6 27 12 28 7 29 10 30 15 31 13 33 8 35 9 36 11 38
REMARK H PARENT 21 20 31 22 28 24 15 32 13 34 9 37 11 39
REMARK Flexibility Score: inf
ROOT
ATOM      1  O   UNL     1     -13.736  38.902  -5.672  1.00  0.00    -0.454 OA
ENDROOT
BRANCH   1   2
ATOM      2  C   UNL     1     -14.564  38.864  -4.550  1.00  0.00     0.214 A 
ATOM      3  C   UNL     1     -13.926  39.028  -3.306  1.00  0.00     0.180 A 
ATOM      4  O   UNL     1     -14.615  39.297  -2.210  1.00  0.00    -0.452 OA
ATOM      5  C   UNL     1     -15.966  38.628  -4.541  1.00  0.00     0.239 A 
ATOM      6  C   UNL     1     -15.937  39.158  -2.164  1.00  0.00     0.146 A 
ATOM      7  O   UNL     1     -16.571  38.369  -5.621  1.00  0.00    -0.285 OA
ATOM      8  C   UNL     1     -16.651  38.699  -3.302  1.00  0.00     0.111 A 
ATOM      9  C   UNL     1     -16.561  39.314  -0.925  1.00  0.00     0.094 A 
ATOM     10  C   UNL     1     -17.974  38.169  -3.103  1.00  0.00     0.134 A 
ATOM     11  C   UNL     1     -17.787  38.704  -0.722  1.00  0.00     0.123 A 
ATOM     12  C   UNL     1     -18.489  38.119  -1.795  1.00  0.00     0.093 A 
BRANCH   3  13
ATOM     13  C   UNL     1     -12.546  38.577  -3.139  1.00  0.00     0.021 A 
ATOM     14  C   UNL     1     -11.453  39.431  -3.173  1.00  0.00     0.016 A 
ATOM     15  C   UNL     1     -10.161  38.958  -2.858  1.00  0.00     0.047 A 
ATOM     16  C   UNL     1      -9.992  37.584  -2.599  1.00  0.00     0.115 A 
ATOM     17  C   UNL     1     -12.368  37.235  -2.793  1.00  0.00     0.016 A 
ATOM     18  C   UNL     1     -11.080  36.725  -2.654  1.00  0.00     0.047 A 
BRANCH  16  19
ATOM     19  O   UNL     1      -8.734  37.072  -2.285  1.00  0.00    -0.508 OA
ATOM     20  H   UNL     1      -8.130  37.582  -1.634  1.00  0.00     0.293 HD
ENDBRANCH  16  19
ENDBRANCH   3  13
BRANCH  10  21
ATOM     21  O   UNL     1     -18.719  37.585  -4.131  1.00  0.00    -0.507 OA
ATOM     22  H   UNL     1     -19.041  36.619  -4.055  1.00  0.00     0.293 HD
ENDBRANCH  10  21
BRANCH  11  23
ATOM     23  O   UNL     1     -18.313  38.639   0.573  1.00  0.00    -0.508 OA
ATOM     24  H   UNL     1     -19.072  38.033   0.799  1.00  0.00     0.293 HD
ENDBRANCH  11  23
ENDBRANCH   1   2
BRANCH   1  25
ATOM     25  C   UNL     1     -13.144  39.967  -6.383  1.00  0.00     0.339 C 
ATOM     26  C   UNL     1     -13.628  39.806  -7.889  1.00  0.00     0.214 C 
ATOM     27  O   UNL     1     -13.518  41.217  -5.817  1.00  0.00    -0.332 OA
ATOM     28  C   UNL     1     -14.858  40.726  -8.079  1.00  0.00     0.180 C 
ATOM     29  C   UNL     1     -13.316  42.267  -6.762  1.00  0.00     0.179 C 
ATOM     30  C   UNL     1     -14.365  42.206  -7.907  1.00  0.00     0.177 C 
BRANCH  26  31
ATOM     31  O   UNL     1     -12.627  40.150  -8.844  1.00  0.00    -0.384 OA
ATOM     32  H   UNL     1     -12.010  39.353  -8.956  1.00  0.00     0.211 HD
ENDBRANCH  26  31
BRANCH  28  33
ATOM     33  O   UNL     1     -15.408  40.473  -9.346  1.00  0.00    -0.387 OA
ATOM     34  H   UNL     1     -14.701  40.666 -10.018  1.00  0.00     0.211 HD
ENDBRANCH  28  33
BRANCH  29  35
ATOM     35  C   UNL     1     -13.221  43.634  -6.068  1.00  0.00     0.191 C 
BRANCH  35  36
ATOM     36  O   UNL     1     -13.984  44.591  -6.768  1.00  0.00    -0.394 OA
ATOM     37  H   UNL     1     -14.666  44.080  -7.271  1.00  0.00     0.210 HD
ENDBRANCH  35  36
ENDBRANCH  29  35
BRANCH  30  38
ATOM     38  O   UNL     1     -13.829  42.708  -9.109  1.00  0.00    -0.387 OA
ATOM     39  H   UNL     1     -12.931  42.281  -9.179  1.00  0.00     0.211 HD
ENDBRANCH  30  38
ENDBRANCH   1  25
TORSDOF 11
ENDMDL
MODEL 4
REMARK VINA RESULT:    -8.092      3.103      5.944
REMARK INTER + INTRA:         -13.112
REMARK INTER:                 -12.079
REMARK INTRA:                  -1.032
REMARK UNBOUND:                -1.472
REMARK SMILES O=c1c(O[C@@H]2O[C@H](CO)[C@@H](O)[C@@H](O)[C@H]2O)c(-c2ccc(O)cc2)oc2cc(O)cc(O)c12
REMARK SMILES IDX 4 1 3 2 16 3 24 4 2 5 25 6 1 7 32 8 26 9 30 10 27 11 29 12
REMARK SMILES IDX 17 13 18 14 19 15 20 16 23 17 22 18 21 19 31 21 28 23 5 25
REMARK SMILES IDX 14 26 6 27 12 28 7 29 10 30 15 31 13 33 8 35 9 36 11 38
REMARK H PARENT 21 20 31 22 28 24 15 32 13 34 9 37 11 39
REMARK Flexibility Score: inf
ROOT
ATOM      1  O   UNL     1     -14.142  37.505  -5.376  1.00  0.00    -0.454 OA
ENDROOT
BRANCH   1   2
ATOM      2  C   UNL     1     -13.777  38.401  -6.381  1.00  0.00     0.214 A 
ATOM      3  C   UNL     1     -12.394  38.571  -6.582  1.00  0.00     0.180 A 
ATOM      4  O   UNL     1     -11.925  39.156  -7.672  1.00  0.00    -0.452 OA
ATOM      5  C   UNL     1     -14.656  39.184  -7.177  1.00  0.00     0.239 A 
ATOM      6  C   UNL     1     -12.715  39.847  -8.489  1.00  0.00     0.146 A 
ATOM      7  O   UNL     1     -15.902  39.149  -6.964  1.00  0.00    -0.285 OA
ATOM      8  C   UNL     1     -14.097  39.988  -8.202  1.00  0.00     0.111 A 
ATOM      9  C   UNL     1     -12.108  40.559  -9.526  1.00  0.00     0.094 A 
ATOM     10  C   UNL     1     -14.818  41.055  -8.845  1.00  0.00     0.134 A 
ATOM     11  C   UNL     1     -12.776  41.649 -10.057  1.00  0.00     0.123 A 
ATOM     12  C   UNL     1     -14.118  41.912  -9.713  1.00  0.00     0.093 A 
BRANCH   3  13
ATOM     13  C   UNL     1     -11.477  38.414  -5.455  1.00  0.00     0.021 A 
ATOM     14  C   UNL     1     -11.274  39.392  -4.493  1.00  0.00     0.016 A 
ATOM     15  C   UNL     1     -10.490  39.124  -3.350  1.00  0.00     0.047 A 
ATOM     16  C   UNL     1      -9.844  37.876  -3.254  1.00  0.00     0.115 A 
ATOM     17  C   UNL     1     -10.898  37.153  -5.297  1.00  0.00     0.016 A 
ATOM     18  C   UNL     1      -9.986  36.939  -4.267  1.00  0.00     0.047 A 
BRANCH  16  19
ATOM     19  O   UNL     1      -9.058  37.568  -2.144  1.00  0.00    -0.508 OA
ATOM     20  H   UNL     1      -8.067  37.825  -2.142  1.00  0.00     0.293 HD
ENDBRANCH  16  19
ENDBRANCH   3  13
BRANCH  10  21
ATOM     21  O   UNL     1     -16.150  41.356  -8.550  1.00  0.00    -0.507 OA
ATOM     22  H   UNL     1     -16.617  40.921  -7.753  1.00  0.00     0.293 HD
ENDBRANCH  10  21
BRANCH  11  23
ATOM     23  O   UNL     1     -12.094  42.516 -10.917  1.00  0.00    -0.508 OA
ATOM     24  H   UNL     1     -12.526  42.888 -11.736  1.00  0.00     0.293 HD
ENDBRANCH  11  23
ENDBRANCH   1   2
BRANCH   1  25
ATOM     25  C   UNL     1     -14.414  37.675  -4.002  1.00  0.00     0.339 C 
ATOM     26  C   UNL     1     -15.943  38.103  -3.911  1.00  0.00     0.214 C 
ATOM     27  O   UNL     1     -14.134  36.481  -3.282  1.00  0.00    -0.332 OA
ATOM     28  C   UNL     1     -16.764  36.821  -3.631  1.00  0.00     0.180 C 
ATOM     29  C   UNL     1     -14.813  36.490  -2.027  1.00  0.00     0.179 C 
ATOM     30  C   UNL     1     -16.345  36.298  -2.213  1.00  0.00     0.177 C 
BRANCH  26  31
ATOM     31  O   UNL     1     -16.201  39.063  -2.889  1.00  0.00    -0.384 OA
ATOM     32  H   UNL     1     -15.789  38.725  -2.027  1.00  0.00     0.211 HD
ENDBRANCH  26  31
BRANCH  28  33
ATOM     33  O   UNL     1     -18.127  37.142  -3.718  1.00  0.00    -0.387 OA
ATOM     34  H   UNL     1     -18.205  37.946  -4.297  1.00  0.00     0.211 HD
ENDBRANCH  28  33
BRANCH  29  35
ATOM     35  C   UNL     1     -14.172  35.507  -1.037  1.00  0.00     0.191 C 
BRANCH  35  36
ATOM     36  O   UNL     1     -14.638  35.756   0.270  1.00  0.00    -0.394 OA
ATOM     37  H   UNL     1     -13.934  36.291   0.713  1.00  0.00     0.210 HD
ENDBRANCH  35  36
ENDBRANCH  29  35
BRANCH  30  38
ATOM     38  O   UNL     1     -17.062  36.955  -1.195  1.00  0.00    -0.387 OA
ATOM     39  H   UNL     1     -16.738  37.897  -1.229  1.00  0.00     0.211 HD
ENDBRANCH  30  38
ENDBRANCH   1  25
TORSDOF 11
ENDMDL
MODEL 5
REMARK VINA RESULT:    -8.052      5.607     10.736
REMARK INTER + INTRA:         -13.054
REMARK INTER:                 -11.335
REMARK INTRA:                  -1.719
REMARK UNBOUND:                -1.472
REMARK SMILES O=c1c(O[C@@H]2O[C@H](CO)[C@@H](O)[C@@H](O)[C@H]2O)c(-c2ccc(O)cc2)oc2cc(O)cc(O)c12
REMARK SMILES IDX 4 1 3 2 16 3 24 4 2 5 25 6 1 7 32 8 26 9 30 10 27 11 29 12
REMARK SMILES IDX 17 13 18 14 19 15 20 16 23 17 22 18 21 19 31 21 28 23 5 25
REMARK SMILES IDX 14 26 6 27 12 28 7 29 10 30 15 31 13 33 8 35 9 36 11 38
REMARK H PARENT 21 20 31 22 28 24 15 32 13 34 9 37 11 39
REMARK Flexibility Score: inf
ROOT
ATOM      1  O   UNL     1     -14.800  34.911  -2.295  1.00  0.00    -0.454 OA
ENDROOT
BRANCH   1   2
ATOM      2  C   UNL     1     -15.591  35.516  -1.317  1.00  0.00     0.214 A 
ATOM      3  C   UNL     1     -16.460  36.528  -1.767  1.00  0.00     0.180 A 
ATOM      4  O   UNL     1     -17.450  36.970  -1.009  1.00  0.00    -0.452 OA
ATOM      5  C   UNL     1     -15.566  35.246   0.078  1.00  0.00     0.239 A 
ATOM      6  C   UNL     1     -17.514  36.692   0.290  1.00  0.00     0.146 A 
ATOM      7  O   UNL     1     -14.729  34.423   0.548  1.00  0.00    -0.285 OA
ATOM      8  C   UNL     1     -16.500  35.915   0.908  1.00  0.00     0.111 A 
ATOM      9  C   UNL     1     -18.505  37.328   1.040  1.00  0.00     0.094 A 
ATOM     10  C   UNL     1     -16.370  35.986   2.340  1.00  0.00     0.134 A 
ATOM     11  C   UNL     1     -18.308  37.480   2.401  1.00  0.00     0.123 A 
ATOM     12  C   UNL     1     -17.241  36.828   3.053  1.00  0.00     0.093 A 
BRANCH   3  13
ATOM     13  C   UNL     1     -16.087  37.336  -2.926  1.00  0.00     0.021 A 
ATOM     14  C   UNL     1     -16.596  37.126  -4.199  1.00  0.00     0.016 A 
ATOM     15  C   UNL     1     -16.312  38.031  -5.245  1.00  0.00     0.047 A 
ATOM     16  C   UNL     1     -15.429  39.098  -4.990  1.00  0.00     0.115 A 
ATOM     17  C   UNL     1     -15.284  38.451  -2.674  1.00  0.00     0.016 A 
ATOM     18  C   UNL     1     -14.859  39.246  -3.734  1.00  0.00     0.047 A 
BRANCH  16  19
ATOM     19  O   UNL     1     -15.119  40.016  -5.993  1.00  0.00    -0.508 OA
ATOM     20  H   UNL     1     -14.348  39.816  -6.638  1.00  0.00     0.293 HD
ENDBRANCH  16  19
ENDBRANCH   3  13
BRANCH  10  21
ATOM     21  O   UNL     1     -15.338  35.355   3.040  1.00  0.00    -0.507 OA
ATOM     22  H   UNL     1     -14.744  35.884   3.679  1.00  0.00     0.293 HD
ENDBRANCH  10  21
BRANCH  11  23
ATOM     23  O   UNL     1     -19.160  38.319   3.126  1.00  0.00    -0.508 OA
ATOM     24  H   UNL     1     -20.031  38.629   2.751  1.00  0.00     0.293 HD
ENDBRANCH  11  23
ENDBRANCH   1   2
BRANCH   1  25
ATOM     25  C   UNL     1     -13.412  34.938  -2.546  1.00  0.00     0.339 C 
ATOM     26  C   UNL     1     -13.251  34.758  -4.118  1.00  0.00     0.214 C 
ATOM     27  O   UNL     1     -12.838  36.149  -2.071  1.00  0.00    -0.332 OA
ATOM     28  C   UNL     1     -13.109  36.171  -4.732  1.00  0.00     0.180 C 
ATOM     29  C   UNL     1     -11.581  36.382  -2.706  1.00  0.00     0.179 C 
ATOM     30  C   UNL     1     -11.766  36.780  -4.197  1.00  0.00     0.177 C 
BRANCH  26  31
ATOM     31  O   UNL     1     -12.123  33.967  -4.484  1.00  0.00    -0.384 OA
ATOM     32  H   UNL     1     -11.688  33.625  -3.635  1.00  0.00     0.211 HD
ENDBRANCH  26  31
BRANCH  28  33
ATOM     33  O   UNL     1     -13.140  36.052  -6.130  1.00  0.00    -0.387 OA
ATOM     34  H   UNL     1     -12.654  35.217  -6.366  1.00  0.00     0.211 HD
ENDBRANCH  28  33
BRANCH  29  35
ATOM     35  C   UNL     1     -10.719  37.361  -1.896  1.00  0.00     0.191 C 
BRANCH  35  36
ATOM     36  O   UNL     1      -9.361  37.230  -2.255  1.00  0.00    -0.394 OA
ATOM     37  H   UNL     1      -9.106  36.303  -2.018  1.00  0.00     0.210 HD
ENDBRANCH  35  36
ENDBRANCH  29  35
BRANCH  30  38
ATOM     38  O   UNL     1     -10.670  36.356  -4.971  1.00  0.00    -0.387 OA
ATOM     39  H   UNL     1     -10.594  37.040  -5.692  1.00  0.00     0.211 HD
ENDBRANCH  30  38
ENDBRANCH   1  25
TORSDOF 11
ENDMDL
MODEL 6
REMARK VINA RESULT:    -8.027      5.470      9.807
REMARK INTER + INTRA:         -13.019
REMARK INTER:                 -11.523
REMARK INTRA:                  -1.496
REMARK UNBOUND:                -1.472
REMARK SMILES O=c1c(O[C@@H]2O[C@H](CO)[C@@H](O)[C@@H](O)[C@H]2O)c(-c2ccc(O)cc2)oc2cc(O)cc(O)c12
REMARK SMILES IDX 4 1 3 2 16 3 24 4 2 5 25 6 1 7 32 8 26 9 30 10 27 11 29 12
REMARK SMILES IDX 17 13 18 14 19 15 20 16 23 17 22 18 21 19 31 21 28 23 5 25
REMARK SMILES IDX 14 26 6 27 12 28 7 29 10 30 15 31 13 33 8 35 9 36 11 38
REMARK H PARENT 21 20 31 22 28 24 15 32 13 34 9 37 11 39
REMARK Flexibility Score: inf
ROOT
ATOM      1  O   UNL     1     -14.300  37.432  -2.520  1.00  0.00    -0.454 OA
ENDROOT
BRANCH   1   2
ATOM      2  C   UNL     1     -13.897  37.869  -1.258  1.00  0.00     0.214 A 
ATOM      3  C   UNL     1     -12.713  38.630  -1.218  1.00  0.00     0.180 A 
ATOM      4  O   UNL     1     -12.385  39.335  -0.148  1.00  0.00    -0.452 OA
ATOM      5  C   UNL     1     -14.533  37.582  -0.020  1.00  0.00     0.239 A 
ATOM      6  C   UNL     1     -12.992  39.154   1.021  1.00  0.00     0.146 A 
ATOM      7  O   UNL     1     -15.538  36.815   0.012  1.00  0.00    -0.285 OA
ATOM      8  C   UNL     1     -14.013  38.178   1.156  1.00  0.00     0.111 A 
ATOM      9  C   UNL     1     -12.475  39.829   2.129  1.00  0.00     0.094 A 
ATOM     10  C   UNL     1     -14.343  37.722   2.481  1.00  0.00     0.134 A 
ATOM     11  C   UNL     1     -12.718  39.310   3.390  1.00  0.00     0.123 A 
ATOM     12  C   UNL     1     -13.633  38.253   3.572  1.00  0.00     0.093 A 
BRANCH   3  13
ATOM     13  C   UNL     1     -11.669  38.391  -2.213  1.00  0.00     0.021 A 
ATOM     14  C   UNL     1     -11.535  39.139  -3.374  1.00  0.00     0.016 A 
ATOM     15  C   UNL     1     -10.421  38.957  -4.221  1.00  0.00     0.047 A 
ATOM     16  C   UNL     1      -9.498  37.940  -3.910  1.00  0.00     0.115 A 
ATOM     17  C   UNL     1     -10.695  37.448  -1.878  1.00  0.00     0.016 A 
ATOM     18  C   UNL     1      -9.691  37.141  -2.792  1.00  0.00     0.047 A 
BRANCH  16  19
ATOM     19  O   UNL     1      -8.383  37.723  -4.719  1.00  0.00    -0.508 OA
ATOM     20  H   UNL     1      -8.491  37.212  -5.600  1.00  0.00     0.293 HD
ENDBRANCH  16  19
ENDBRANCH   3  13
BRANCH  10  21
ATOM     21  O   UNL     1     -15.248  36.684   2.722  1.00  0.00    -0.507 OA
ATOM     22  H   UNL     1     -15.887  36.726   3.517  1.00  0.00     0.293 HD
ENDBRANCH  10  21
BRANCH  11  23
ATOM     23  O   UNL     1     -12.015  39.822   4.486  1.00  0.00    -0.508 OA
ATOM     24  H   UNL     1     -11.074  39.551   4.676  1.00  0.00     0.293 HD
ENDBRANCH  11  23
ENDBRANCH   1   2
BRANCH   1  25
ATOM     25  C   UNL     1     -14.486  36.146  -3.067  1.00  0.00     0.339 C 
ATOM     26  C   UNL     1     -13.951  36.228  -4.563  1.00  0.00     0.214 C 
ATOM     27  O   UNL     1     -13.802  35.168  -2.294  1.00  0.00    -0.332 OA
ATOM     28  C   UNL     1     -12.492  35.715  -4.560  1.00  0.00     0.180 C 
ATOM     29  C   UNL     1     -13.603  33.981  -3.062  1.00  0.00     0.179 C 
ATOM     30  C   UNL     1     -12.531  34.197  -4.166  1.00  0.00     0.177 C 
BRANCH  26  31
ATOM     31  O   UNL     1     -14.722  35.458  -5.481  1.00  0.00    -0.384 OA
ATOM     32  H   UNL     1     -15.574  35.969  -5.687  1.00  0.00     0.211 HD
ENDBRANCH  26  31
BRANCH  28  33
ATOM     33  O   UNL     1     -11.942  35.939  -5.832  1.00  0.00    -0.387 OA
ATOM     34  H   UNL     1     -12.693  36.161  -6.444  1.00  0.00     0.211 HD
ENDBRANCH  28  33
BRANCH  29  35
ATOM     35  C   UNL     1     -13.339  32.768  -2.158  1.00  0.00     0.191 C 
BRANCH  35  36
ATOM     36  O   UNL     1     -14.377  32.627  -1.214  1.00  0.00    -0.394 OA
ATOM     37  H   UNL     1     -13.961  32.773  -0.328  1.00  0.00     0.210 HD
ENDBRANCH  35  36
ENDBRANCH  29  35
BRANCH  30  38
ATOM     38  O   UNL     1     -12.792  33.386  -5.287  1.00  0.00    -0.387 OA
ATOM     39  H   UNL     1     -13.777  33.456  -5.422  1.00  0.00     0.211 HD
ENDBRANCH  30  38
ENDBRANCH   1  25
TORSDOF 11
ENDMDL
MODEL 7
REMARK VINA RESULT:    -8.016      3.216      6.911
REMARK INTER + INTRA:         -13.003
REMARK INTER:                 -11.918
REMARK INTRA:                  -1.085
REMARK UNBOUND:                -1.472
REMARK SMILES O=c1c(O[C@@H]2O[C@H](CO)[C@@H](O)[C@@H](O)[C@H]2O)c(-c2ccc(O)cc2)oc2cc(O)cc(O)c12
REMARK SMILES IDX 4 1 3 2 16 3 24 4 2 5 25 6 1 7 32 8 26 9 30 10 27 11 29 12
REMARK SMILES IDX 17 13 18 14 19 15 20 16 23 17 22 18 21 19 31 21 28 23 5 25
REMARK SMILES IDX 14 26 6 27 12 28 7 29 10 30 15 31 13 33 8 35 9 36 11 38
REMARK H PARENT 21 20 31 22 28 24 15 32 13 34 9 37 11 39
REMARK Flexibility Score: inf
ROOT
ATOM      1  O   UNL     1     -13.769  39.537  -6.022  1.00  0.00    -0.454 OA
ENDROOT
BRANCH   1   2
ATOM      2  C   UNL     1     -14.287  38.989  -4.848  1.00  0.00     0.214 A 
ATOM      3  C   UNL     1     -13.360  38.755  -3.815  1.00  0.00     0.180 A 
ATOM      4  O   UNL     1     -13.757  38.516  -2.576  1.00  0.00    -0.452 OA
ATOM      5  C   UNL     1     -15.636  38.603  -4.617  1.00  0.00     0.239 A 
ATOM      6  C   UNL     1     -15.021  38.215  -2.293  1.00  0.00     0.146 A 
ATOM      7  O   UNL     1     -16.487  38.692  -5.548  1.00  0.00    -0.285 OA
ATOM      8  C   UNL     1     -15.987  38.129  -3.329  1.00  0.00     0.111 A 
ATOM      9  C   UNL     1     -15.316  37.826  -0.985  1.00  0.00     0.094 A 
ATOM     10  C   UNL     1     -17.205  37.410  -3.060  1.00  0.00     0.134 A 
ATOM     11  C   UNL     1     -16.437  37.044  -0.766  1.00  0.00     0.123 A 
ATOM     12  C   UNL     1     -17.373  36.819  -1.795  1.00  0.00     0.093 A 
BRANCH   3  13
ATOM     13  C   UNL     1     -11.972  38.441  -4.149  1.00  0.00     0.021 A 
ATOM     14  C   UNL     1     -10.939  39.363  -4.068  1.00  0.00     0.016 A 
ATOM     15  C   UNL     1      -9.600  38.961  -4.261  1.00  0.00     0.047 A 
ATOM     16  C   UNL     1      -9.345  37.625  -4.627  1.00  0.00     0.115 A 
ATOM     17  C   UNL     1     -11.688  37.102  -4.427  1.00  0.00     0.016 A 
ATOM     18  C   UNL     1     -10.395  36.734  -4.790  1.00  0.00     0.047 A 
BRANCH  16  19
ATOM     19  O   UNL     1      -8.038  37.183  -4.830  1.00  0.00    -0.508 OA
ATOM     20  H   UNL     1      -7.857  36.183  -4.951  1.00  0.00     0.293 HD
ENDBRANCH  16  19
ENDBRANCH   3  13
BRANCH  10  21
ATOM     21  O   UNL     1     -18.172  37.165  -4.039  1.00  0.00    -0.507 OA
ATOM     22  H   UNL     1     -18.239  37.761  -4.865  1.00  0.00     0.293 HD
ENDBRANCH  10  21
BRANCH  11  23
ATOM     23  O   UNL     1     -16.617  36.443   0.484  1.00  0.00    -0.508 OA
ATOM     24  H   UNL     1     -16.144  36.776   1.297  1.00  0.00     0.293 HD
ENDBRANCH  11  23
ENDBRANCH   1   2
BRANCH   1  25
ATOM     25  C   UNL     1     -14.058  40.725  -6.725  1.00  0.00     0.339 C 
ATOM     26  C   UNL     1     -12.662  41.257  -7.271  1.00  0.00     0.214 C 
ATOM     27  O   UNL     1     -14.995  40.478  -7.766  1.00  0.00    -0.332 OA
ATOM     28  C   UNL     1     -12.515  40.757  -8.727  1.00  0.00     0.180 C 
ATOM     29  C   UNL     1     -14.944  41.524  -8.735  1.00  0.00     0.179 C 
ATOM     30  C   UNL     1     -13.638  41.452  -9.575  1.00  0.00     0.177 C 
BRANCH  26  31
ATOM     31  O   UNL     1     -12.549  42.678  -7.244  1.00  0.00    -0.384 OA
ATOM     32  H   UNL     1     -13.133  43.027  -6.492  1.00  0.00     0.211 HD
ENDBRANCH  26  31
BRANCH  28  33
ATOM     33  O   UNL     1     -11.220  41.065  -9.172  1.00  0.00    -0.387 OA
ATOM     34  H   UNL     1     -11.086  42.041  -9.039  1.00  0.00     0.211 HD
ENDBRANCH  28  33
BRANCH  29  35
ATOM     35  C   UNL     1     -16.229  41.573  -9.575  1.00  0.00     0.191 C 
BRANCH  35  36
ATOM     36  O   UNL     1     -17.266  40.875  -8.921  1.00  0.00    -0.394 OA
ATOM     37  H   UNL     1     -18.017  41.514  -8.843  1.00  0.00     0.210 HD
ENDBRANCH  35  36
ENDBRANCH  29  35
BRANCH  30  38
ATOM     38  O   UNL     1     -13.238  42.734  -9.997  1.00  0.00    -0.387 OA
ATOM     39  H   UNL     1     -13.199  43.272  -9.158  1.00  0.00     0.211 HD
ENDBRANCH  30  38
ENDBRANCH   1  25
TORSDOF 11
ENDMDL
MODEL 8
REMARK VINA RESULT:    -8.001      3.305      7.073
REMARK INTER + INTRA:         -12.981
REMARK INTER:                 -11.752
REMARK INTRA:                  -1.229
REMARK UNBOUND:                -1.472
REMARK SMILES O=c1c(O[C@@H]2O[C@H](CO)[C@@H](O)[C@@H](O)[C@H]2O)c(-c2ccc(O)cc2)oc2cc(O)cc(O)c12
REMARK SMILES IDX 4 1 3 2 16 3 24 4 2 5 25 6 1 7 32 8 26 9 30 10 27 11 29 12
REMARK SMILES IDX 17 13 18 14 19 15 20 16 23 17 22 18 21 19 31 21 28 23 5 25
REMARK SMILES IDX 14 26 6 27 12 28 7 29 10 30 15 31 13 33 8 35 9 36 11 38
REMARK H PARENT 21 20 31 22 28 24 15 32 13 34 9 37 11 39
REMARK Flexibility Score: inf
ROOT
ATOM      1  O   UNL     1     -13.279  37.271  -4.181  1.00  0.00    -0.454 OA
ENDROOT
BRANCH   1   2
ATOM      2  C   UNL     1     -13.402  38.327  -5.084  1.00  0.00     0.214 A 
ATOM      3  C   UNL     1     -14.116  39.451  -4.625  1.00  0.00     0.180 A 
ATOM      4  O   UNL     1     -14.058  40.609  -5.262  1.00  0.00    -0.452 OA
ATOM      5  C   UNL     1     -12.926  38.356  -6.423  1.00  0.00     0.239 A 
ATOM      6  C   UNL     1     -13.561  40.706  -6.492  1.00  0.00     0.146 A 
ATOM      7  O   UNL     1     -12.373  37.332  -6.919  1.00  0.00    -0.285 OA
ATOM      8  C   UNL     1     -13.085  39.552  -7.167  1.00  0.00     0.111 A 
ATOM      9  C   UNL     1     -13.683  41.934  -7.144  1.00  0.00     0.094 A 
ATOM     10  C   UNL     1     -12.954  39.610  -8.599  1.00  0.00     0.134 A 
ATOM     11  C   UNL     1     -13.661  41.952  -8.528  1.00  0.00     0.123 A 
ATOM     12  C   UNL     1     -13.315  40.798  -9.260  1.00  0.00     0.093 A 
BRANCH   3  13
ATOM     13  C   UNL     1     -15.186  39.275  -3.646  1.00  0.00     0.021 A 
ATOM     14  C   UNL     1     -15.091  39.697  -2.327  1.00  0.00     0.016 A 
ATOM     15  C   UNL     1     -16.211  39.633  -1.471  1.00  0.00     0.047 A 
ATOM     16  C   UNL     1     -17.397  39.047  -1.955  1.00  0.00     0.115 A 
ATOM     17  C   UNL     1     -16.398  38.779  -4.131  1.00  0.00     0.016 A 
ATOM     18  C   UNL     1     -17.450  38.550  -3.249  1.00  0.00     0.047 A 
BRANCH  16  19
ATOM     19  O   UNL     1     -18.528  38.960  -1.144  1.00  0.00    -0.508 OA
ATOM     20  H   UNL     1     -19.326  38.397  -1.450  1.00  0.00     0.293 HD
ENDBRANCH  16  19
ENDBRANCH   3  13
BRANCH  10  21
ATOM     21  O   UNL     1     -12.606  38.501  -9.375  1.00  0.00    -0.507 OA
ATOM     22  H   UNL     1     -13.184  38.220 -10.168  1.00  0.00     0.293 HD
ENDBRANCH  10  21
BRANCH  11  23
ATOM     23  O   UNL     1     -14.023  43.123  -9.203  1.00  0.00    -0.508 OA
ATOM     24  H   UNL     1     -14.052  44.006  -8.738  1.00  0.00     0.293 HD
ENDBRANCH  11  23
ENDBRANCH   1   2
BRANCH   1  25
ATOM     25  C   UNL     1     -12.275  36.927  -3.251  1.00  0.00     0.339 C 
ATOM     26  C   UNL     1     -10.899  37.369  -3.915  1.00  0.00     0.214 C 
ATOM     27  O   UNL     1     -12.509  37.561  -2.000  1.00  0.00    -0.332 OA
ATOM     28  C   UNL     1     -10.547  38.769  -3.357  1.00  0.00     0.180 C 
ATOM     29  C   UNL     1     -11.309  37.593  -1.230  1.00  0.00     0.179 C 
ATOM     30  C   UNL     1     -10.288  38.608  -1.819  1.00  0.00     0.177 C 
BRANCH  26  31
ATOM     31  O   UNL     1      -9.827  36.469  -3.644  1.00  0.00    -0.384 OA
ATOM     32  H   UNL     1      -9.818  35.760  -4.370  1.00  0.00     0.211 HD
ENDBRANCH  26  31
BRANCH  28  33
ATOM     33  O   UNL     1      -9.430  39.255  -4.055  1.00  0.00    -0.387 OA
ATOM     34  H   UNL     1      -9.765  39.678  -4.890  1.00  0.00     0.211 HD
ENDBRANCH  28  33
BRANCH  29  35
ATOM     35  C   UNL     1     -11.607  37.796   0.263  1.00  0.00     0.191 C 
BRANCH  35  36
ATOM     36  O   UNL     1     -10.564  38.521   0.876  1.00  0.00    -0.394 OA
ATOM     37  H   UNL     1     -10.986  39.324   1.270  1.00  0.00     0.210 HD
ENDBRANCH  35  36
ENDBRANCH  29  35
BRANCH  30  38
ATOM     38  O   UNL     1      -8.966  38.197  -1.564  1.00  0.00    -0.387 OA
ATOM     39  H   UNL     1      -8.619  38.864  -0.908  1.00  0.00     0.211 HD
ENDBRANCH  30  38
ENDBRANCH   1  25
TORSDOF 11
ENDMDL
MODEL 9
REMARK VINA RESULT:    -7.975      2.392      6.170
REMARK INTER + INTRA:         -12.944
REMARK INTER:                 -11.681
REMARK INTRA:                  -1.264
REMARK UNBOUND:                -1.472
REMARK SMILES O=c1c(O[C@@H]2O[C@H](CO)[C@@H](O)[C@@H](O)[C@H]2O)c(-c2ccc(O)cc2)oc2cc(O)cc(O)c12
REMARK SMILES IDX 4 1 3 2 16 3 24 4 2 5 25 6 1 7 32 8 26 9 30 10 27 11 29 12
REMARK SMILES IDX 17 13 18 14 19 15 20 16 23 17 22 18 21 19 31 21 28 23 5 25
REMARK SMILES IDX 14 26 6 27 12 28 7 29 10 30 15 31 13 33 8 35 9 36 11 38
REMARK H PARENT 21 20 31 22 28 24 15 32 13 34 9 37 11 39
REMARK Flexibility Score: inf
ROOT
ATOM      1  O   UNL     1     -13.681  39.192  -6.890  1.00  0.00    -0.454 OA
ENDROOT
BRANCH   1   2
ATOM      2  C   UNL     1     -13.083  39.058  -5.636  1.00  0.00     0.214 A 
ATOM      3  C   UNL     1     -11.758  38.584  -5.633  1.00  0.00     0.180 A 
ATOM      4  O   UNL     1     -10.994  38.684  -4.558  1.00  0.00    -0.452 OA
ATOM      5  C   UNL     1     -13.695  39.302  -4.376  1.00  0.00     0.239 A 
ATOM      6  C   UNL     1     -11.503  38.976  -3.364  1.00  0.00     0.146 A 
ATOM      7  O   UNL     1     -14.915  39.626  -4.318  1.00  0.00    -0.285 OA
ATOM      8  C   UNL     1     -12.900  39.178  -3.209  1.00  0.00     0.111 A 
ATOM      9  C   UNL     1     -10.649  38.907  -2.262  1.00  0.00     0.094 A 
ATOM     10  C   UNL     1     -13.457  39.073  -1.886  1.00  0.00     0.134 A 
ATOM     11  C   UNL     1     -11.202  38.699  -1.010  1.00  0.00     0.123 A 
ATOM     12  C   UNL     1     -12.597  38.764  -0.817  1.00  0.00     0.093 A 
BRANCH   3  13
ATOM     13  C   UNL     1     -11.313  37.680  -6.692  1.00  0.00     0.021 A 
ATOM     14  C   UNL     1     -10.470  38.068  -7.723  1.00  0.00     0.016 A 
ATOM     15  C   UNL     1      -9.958  37.114  -8.629  1.00  0.00     0.047 A 
ATOM     16  C   UNL     1     -10.394  35.779  -8.520  1.00  0.00     0.115 A 
ATOM     17  C   UNL     1     -11.662  36.335  -6.548  1.00  0.00     0.016 A 
ATOM     18  C   UNL     1     -11.305  35.422  -7.537  1.00  0.00     0.047 A 
BRANCH  16  19
ATOM     19  O   UNL     1      -9.916  34.804  -9.394  1.00  0.00    -0.508 OA
ATOM     20  H   UNL     1      -9.207  35.053 -10.089  1.00  0.00     0.293 HD
ENDBRANCH  16  19
ENDBRANCH   3  13
BRANCH  10  21
ATOM     21  O   UNL     1     -14.830  39.138  -1.634  1.00  0.00    -0.507 OA
ATOM     22  H   UNL     1     -15.445  39.679  -2.244  1.00  0.00     0.293 HD
ENDBRANCH  10  21
BRANCH  11  23
ATOM     23  O   UNL     1     -10.363  38.384   0.064  1.00  0.00    -0.508 OA
ATOM     24  H   UNL     1     -10.129  39.061   0.759  1.00  0.00     0.293 HD
ENDBRANCH  11  23
ENDBRANCH   1   2
BRANCH   1  25
ATOM     25  C   UNL     1     -14.096  40.319  -7.630  1.00  0.00     0.339 C 
ATOM     26  C   UNL     1     -12.790  41.201  -7.848  1.00  0.00     0.214 C 
ATOM     27  O   UNL     1     -14.701  39.922  -8.854  1.00  0.00    -0.332 OA
ATOM     28  C   UNL     1     -12.219  40.842  -9.240  1.00  0.00     0.180 C 
ATOM     29  C   UNL     1     -14.703  41.009  -9.779  1.00  0.00     0.179 C 
ATOM     30  C   UNL     1     -13.271  41.301 -10.310  1.00  0.00     0.177 C 
BRANCH  26  31
ATOM     31  O   UNL     1     -13.038  42.603  -7.785  1.00  0.00    -0.384 OA
ATOM     32  H   UNL     1     -14.035  42.753  -7.895  1.00  0.00     0.211 HD
ENDBRANCH  26  31
BRANCH  28  33
ATOM     33  O   UNL     1     -10.975  41.475  -9.385  1.00  0.00    -0.387 OA
ATOM     34  H   UNL     1     -11.130  42.317  -9.891  1.00  0.00     0.211 HD
ENDBRANCH  28  33
BRANCH  29  35
ATOM     35  C   UNL     1     -15.752  40.802 -10.881  1.00  0.00     0.191 C 
BRANCH  35  36
ATOM     36  O   UNL     1     -16.573  39.697 -10.574  1.00  0.00    -0.394 OA
ATOM     37  H   UNL     1     -17.429  39.856 -11.044  1.00  0.00     0.210 HD
ENDBRANCH  35  36
ENDBRANCH  29  35
BRANCH  30  38
ATOM     38  O   UNL     1     -13.119  42.665 -10.622  1.00  0.00    -0.387 OA
ATOM     39  H   UNL     1     -13.510  42.758 -11.535  1.00  0.00     0.211 HD
ENDBRANCH  30  38
ENDBRANCH   1  25
TORSDOF 11
ENDMDL
