MODEL 1
REMARK VINA RESULT:    -4.468      0.000      0.000
REMARK INTER + INTRA:          -5.210
REMARK INTER:                  -4.859
REMARK INTRA:                  -0.350
REMARK UNBOUND:                -0.350
REMARK SMILES C=C1C[C@@]2(O)O[C@@]3(C[C@H]2C(C)C)[C@H](C)CC[C@@H]13
REMARK SMILES IDX 14 1 13 2 15 3 16 4 17 5 7 6 8 7 9 8 4 9 6 10 3 11 2 12 1 13
REMARK SMILES IDX 10 14 11 15 12 16 5 17
REMARK H PARENT 5 18
REMARK Flexibility Score: inf
ROOT
ATOM      1  C   UNL     1      11.447  21.891   6.598  1.00  0.00     0.011 C 
ATOM      2  C   UNL     1      11.311  22.448   8.031  1.00  0.00     0.019 C 
ATOM      3  C   UNL     1      12.693  22.562   8.691  1.00  0.00     0.007 C 
ATOM      4  C   UNL     1      12.878  21.317   9.567  1.00  0.00     0.011 C 
ATOM      5  C   UNL     1      11.574  20.517   9.477  1.00  0.00     0.047 C 
ATOM      6  C   UNL     1      10.525  21.531   8.986  1.00  0.00     0.081 C 
ATOM      7  C   UNL     1       9.278  20.844   8.407  1.00  0.00     0.046 C 
ATOM      8  C   UNL     1       8.300  20.845   9.579  1.00  0.00     0.054 C 
ATOM      9  C   UNL     1       9.153  21.431  10.732  1.00  0.00     0.173 C 
ATOM     10  O   UNL     1      10.076  22.284  10.096  1.00  0.00    -0.342 OA
ATOM     11  C   UNL     1       9.968  20.393  11.561  1.00  0.00     0.096 C 
ATOM     12  C   UNL     1      11.174  19.884  10.799  1.00  0.00    -0.066 C 
ATOM     13  C   UNL     1      11.903  18.879  11.306  1.00  0.00     0.008 C 
ENDROOT
BRANCH   8  14
ATOM     14  C   UNL     1       7.584  19.482   9.826  1.00  0.00    -0.009 C 
ATOM     15  C   UNL     1       6.128  19.519   9.327  1.00  0.00     0.008 C 
ATOM     16  C   UNL     1       8.314  18.335   9.103  1.00  0.00     0.008 C 
ENDBRANCH   8  14
BRANCH   9  17
ATOM     17  O   UNL     1       8.324  22.180  11.587  1.00  0.00    -0.365 OA
ATOM     18  H   UNL     1       8.545  23.139  11.452  1.00  0.00     0.214 HD
ENDBRANCH   9  17
TORSDOF 2
ENDMDL
MODEL 2
REMARK VINA RESULT:    -4.393      1.527      3.944
REMARK INTER + INTRA:          -5.129
REMARK INTER:                  -4.974
REMARK INTRA:                  -0.155
REMARK UNBOUND:                -0.350
REMARK SMILES C=C1C[C@@]2(O)O[C@@]3(C[C@H]2C(C)C)[C@H](C)CC[C@@H]13
REMARK SMILES IDX 14 1 13 2 15 3 16 4 17 5 7 6 8 7 9 8 4 9 6 10 3 11 2 12 1 13
REMARK SMILES IDX 10 14 11 15 12 16 5 17
REMARK H PARENT 5 18
REMARK Flexibility Score: inf
ROOT
ATOM      1  C   UNL     1      11.933  19.418  11.039  1.00  0.00     0.011 C 
ATOM      2  C   UNL     1      10.571  20.020  11.444  1.00  0.00     0.019 C 
ATOM      3  C   UNL     1       9.759  19.001  12.257  1.00  0.00     0.007 C 
ATOM      4  C   UNL     1       8.779  18.329  11.286  1.00  0.00     0.011 C 
ATOM      5  C   UNL     1       8.968  19.012   9.927  1.00  0.00     0.047 C 
ATOM      6  C   UNL     1       9.654  20.351  10.253  1.00  0.00     0.081 C 
ATOM      7  C   UNL     1      10.328  20.974   9.020  1.00  0.00     0.046 C 
ATOM      8  C   UNL     1       9.286  21.969   8.514  1.00  0.00     0.054 C 
ATOM      9  C   UNL     1       8.084  21.709   9.456  1.00  0.00     0.173 C 
ATOM     10  O   UNL     1       8.664  21.273  10.664  1.00  0.00    -0.342 OA
ATOM     11  C   UNL     1       7.089  20.602   8.989  1.00  0.00     0.096 C 
ATOM     12  C   UNL     1       7.662  19.213   9.177  1.00  0.00    -0.066 C 
ATOM     13  C   UNL     1       6.999  18.152   8.694  1.00  0.00     0.008 C 
ENDROOT
BRANCH   8  14
ATOM     14  C   UNL     1       9.030  21.912   6.977  1.00  0.00    -0.009 C 
ATOM     15  C   UNL     1       8.207  23.125   6.505  1.00  0.00     0.008 C 
ATOM     16  C   UNL     1      10.356  21.894   6.195  1.00  0.00     0.008 C 
ENDBRANCH   8  14
BRANCH   9  17
ATOM     17  O   UNL     1       7.392  22.915   9.668  1.00  0.00    -0.365 OA
ATOM     18  H   UNL     1       6.493  22.684  10.021  1.00  0.00     0.214 HD
ENDBRANCH   9  17
TORSDOF 2
ENDMDL
MODEL 3
REMARK VINA RESULT:    -4.387      3.537      6.737
REMARK INTER + INTRA:          -5.122
REMARK INTER:                  -4.914
REMARK INTRA:                  -0.209
REMARK UNBOUND:                -0.350
REMARK SMILES C=C1C[C@@]2(O)O[C@@]3(C[C@H]2C(C)C)[C@H](C)CC[C@@H]13
REMARK SMILES IDX 14 1 13 2 15 3 16 4 17 5 7 6 8 7 9 8 4 9 6 10 3 11 2 12 1 13
REMARK SMILES IDX 10 14 11 15 12 16 5 17
REMARK H PARENT 5 18
REMARK Flexibility Score: inf
ROOT
ATOM      1  C   UNL     1       1.932  19.427   7.196  1.00  0.00     0.011 C 
ATOM      2  C   UNL     1       2.444  20.800   7.679  1.00  0.00     0.019 C 
ATOM      3  C   UNL     1       2.053  21.897   6.678  1.00  0.00     0.007 C 
ATOM      4  C   UNL     1       3.275  22.146   5.784  1.00  0.00     0.011 C 
ATOM      5  C   UNL     1       4.399  21.250   6.315  1.00  0.00     0.047 C 
ATOM      6  C   UNL     1       3.978  20.904   7.754  1.00  0.00     0.081 C 
ATOM      7  C   UNL     1       4.724  19.675   8.299  1.00  0.00     0.046 C 
ATOM      8  C   UNL     1       5.873  20.285   9.096  1.00  0.00     0.054 C 
ATOM      9  C   UNL     1       5.715  21.800   8.813  1.00  0.00     0.173 C 
ATOM     10  O   UNL     1       4.335  21.982   8.597  1.00  0.00    -0.342 OA
ATOM     11  C   UNL     1       6.460  22.330   7.550  1.00  0.00     0.096 C 
ATOM     12  C   UNL     1       5.762  21.919   6.269  1.00  0.00    -0.066 C 
ATOM     13  C   UNL     1       6.346  22.167   5.088  1.00  0.00     0.008 C 
ENDROOT
BRANCH   8  14
ATOM     14  C   UNL     1       7.265  19.637   8.825  1.00  0.00    -0.009 C 
ATOM     15  C   UNL     1       8.262  19.967   9.951  1.00  0.00     0.008 C 
ATOM     16  C   UNL     1       7.150  18.105   8.714  1.00  0.00     0.008 C 
ENDBRANCH   8  14
BRANCH   9  17
ATOM     17  O   UNL     1       6.120  22.529   9.947  1.00  0.00    -0.365 OA
ATOM     18  H   UNL     1       6.192  21.888  10.702  1.00  0.00     0.214 HD
ENDBRANCH   9  17
TORSDOF 2
ENDMDL
MODEL 4
REMARK VINA RESULT:    -4.187      1.669      2.697
REMARK INTER + INTRA:          -4.904
REMARK INTER:                  -4.583
REMARK INTRA:                  -0.321
REMARK UNBOUND:                -0.350
REMARK SMILES C=C1C[C@@]2(O)O[C@@]3(C[C@H]2C(C)C)[C@H](C)CC[C@@H]13
REMARK SMILES IDX 14 1 13 2 15 3 16 4 17 5 7 6 8 7 9 8 4 9 6 10 3 11 2 12 1 13
REMARK SMILES IDX 10 14 11 15 12 16 5 17
REMARK H PARENT 5 18
REMARK Flexibility Score: inf
ROOT
ATOM      1  C   UNL     1      12.878  20.210  10.186  1.00  0.00     0.011 C 
ATOM      2  C   UNL     1      12.078  21.242   9.364  1.00  0.00     0.019 C 
ATOM      3  C   UNL     1      12.437  22.668   9.803  1.00  0.00     0.007 C 
ATOM      4  C   UNL     1      11.348  23.125  10.783  1.00  0.00     0.011 C 
ATOM      5  C   UNL     1      10.316  21.995  10.852  1.00  0.00     0.047 C 
ATOM      6  C   UNL     1      10.555  21.166   9.577  1.00  0.00     0.081 C 
ATOM      7  C   UNL     1       9.944  19.759   9.675  1.00  0.00     0.046 C 
ATOM      8  C   UNL     1       8.599  19.909   8.970  1.00  0.00     0.054 C 
ATOM      9  C   UNL     1       8.549  21.426   8.655  1.00  0.00     0.173 C 
ATOM     10  O   UNL     1       9.897  21.803   8.499  1.00  0.00    -0.342 OA
ATOM     11  C   UNL     1       7.937  22.325   9.772  1.00  0.00     0.096 C 
ATOM     12  C   UNL     1       8.887  22.501  10.939  1.00  0.00    -0.066 C 
ATOM     13  C   UNL     1       8.464  23.125  12.048  1.00  0.00     0.008 C 
ENDROOT
BRANCH   8  14
ATOM     14  C   UNL     1       7.393  19.288   9.738  1.00  0.00    -0.009 C 
ATOM     15  C   UNL     1       6.406  18.610   8.770  1.00  0.00     0.008 C 
ATOM     16  C   UNL     1       7.869  18.236  10.758  1.00  0.00     0.008 C 
ENDBRANCH   8  14
BRANCH   9  17
ATOM     17  O   UNL     1       7.857  21.625   7.447  1.00  0.00    -0.365 OA
ATOM     18  H   UNL     1       7.654  20.730   7.068  1.00  0.00     0.214 HD
ENDBRANCH   9  17
TORSDOF 2
ENDMDL
MODEL 5
REMARK VINA RESULT:    -4.119      2.044      4.295
REMARK INTER + INTRA:          -4.831
REMARK INTER:                  -4.529
REMARK INTRA:                  -0.302
REMARK UNBOUND:                -0.350
REMARK SMILES C=C1C[C@@]2(O)O[C@@]3(C[C@H]2C(C)C)[C@H](C)CC[C@@H]13
REMARK SMILES IDX 14 1 13 2 15 3 16 4 17 5 7 6 8 7 9 8 4 9 6 10 3 11 2 12 1 13
REMARK SMILES IDX 10 14 11 15 12 16 5 17
REMARK H PARENT 5 18
REMARK Flexibility Score: inf
ROOT
ATOM      1  C   UNL     1       4.579  20.803   7.364  1.00  0.00     0.011 C 
ATOM      2  C   UNL     1       5.326  21.855   8.212  1.00  0.00     0.019 C 
ATOM      3  C   UNL     1       5.590  23.119   7.380  1.00  0.00     0.007 C 
ATOM      4  C   UNL     1       7.031  23.024   6.863  1.00  0.00     0.011 C 
ATOM      5  C   UNL     1       7.629  21.744   7.457  1.00  0.00     0.047 C 
ATOM      6  C   UNL     1       6.730  21.414   8.662  1.00  0.00     0.081 C 
ATOM      7  C   UNL     1       6.878  19.952   9.115  1.00  0.00     0.046 C 
ATOM      8  C   UNL     1       7.881  20.040  10.263  1.00  0.00     0.054 C 
ATOM      9  C   UNL     1       8.280  21.537  10.251  1.00  0.00     0.173 C 
ATOM     10  O   UNL     1       7.142  22.206   9.759  1.00  0.00    -0.342 OA
ATOM     11  C   UNL     1       9.478  21.907   9.325  1.00  0.00     0.096 C 
ATOM     12  C   UNL     1       9.084  21.901   7.862  1.00  0.00    -0.066 C 
ATOM     13  C   UNL     1      10.027  22.056   6.922  1.00  0.00     0.008 C 
ENDROOT
BRANCH   8  14
ATOM     14  C   UNL     1       9.026  18.983  10.203  1.00  0.00    -0.009 C 
ATOM     15  C   UNL     1       9.452  18.544  11.615  1.00  0.00     0.008 C 
ATOM     16  C   UNL     1       8.584  17.732   9.420  1.00  0.00     0.008 C 
ENDBRANCH   8  14
BRANCH   9  17
ATOM     17  O   UNL     1       8.546  21.955  11.567  1.00  0.00    -0.365 OA
ATOM     18  H   UNL     1       7.829  22.592  11.828  1.00  0.00     0.214 HD
ENDBRANCH   9  17
TORSDOF 2
ENDMDL
MODEL 6
REMARK VINA RESULT:    -4.117      2.437      4.095
REMARK INTER + INTRA:          -4.829
REMARK INTER:                  -4.618
REMARK INTRA:                  -0.211
REMARK UNBOUND:                -0.350
REMARK SMILES C=C1C[C@@]2(O)O[C@@]3(C[C@H]2C(C)C)[C@H](C)CC[C@@H]13
REMARK SMILES IDX 14 1 13 2 15 3 16 4 17 5 7 6 8 7 9 8 4 9 6 10 3 11 2 12 1 13
REMARK SMILES IDX 10 14 11 15 12 16 5 17
REMARK H PARENT 5 18
REMARK Flexibility Score: inf
ROOT
ATOM      1  C   UNL     1       8.251  17.605  10.544  1.00  0.00     0.011 C 
ATOM      2  C   UNL     1       9.041  18.668   9.752  1.00  0.00     0.019 C 
ATOM      3  C   UNL     1      10.265  19.131  10.556  1.00  0.00     0.007 C 
ATOM      4  C   UNL     1       9.876  20.442  11.252  1.00  0.00     0.011 C 
ATOM      5  C   UNL     1       8.455  20.781  10.791  1.00  0.00     0.047 C 
ATOM      6  C   UNL     1       8.258  19.969   9.498  1.00  0.00     0.081 C 
ATOM      7  C   UNL     1       6.773  19.816   9.129  1.00  0.00     0.046 C 
ATOM      8  C   UNL     1       6.547  20.932   8.112  1.00  0.00     0.054 C 
ATOM      9  C   UNL     1       7.909  21.670   8.110  1.00  0.00     0.173 C 
ATOM     10  O   UNL     1       8.854  20.676   8.429  1.00  0.00    -0.342 OA
ATOM     11  C   UNL     1       8.057  22.812   9.161  1.00  0.00     0.096 C 
ATOM     12  C   UNL     1       8.244  22.268  10.563  1.00  0.00    -0.066 C 
ATOM     13  C   UNL     1       8.242  23.111  11.606  1.00  0.00     0.008 C 
ENDROOT
BRANCH   8  14
ATOM     14  C   UNL     1       5.261  21.780   8.358  1.00  0.00    -0.009 C 
ATOM     15  C   UNL     1       4.851  22.548   7.089  1.00  0.00     0.008 C 
ATOM     16  C   UNL     1       4.082  20.886   8.784  1.00  0.00     0.008 C 
ENDBRANCH   8  14
BRANCH   9  17
ATOM     17  O   UNL     1       8.162  22.172   6.821  1.00  0.00    -0.365 OA
ATOM     18  H   UNL     1       9.107  22.476   6.800  1.00  0.00     0.214 HD
ENDBRANCH   9  17
TORSDOF 2
ENDMDL
MODEL 7
REMARK VINA RESULT:    -4.017      1.451      4.797
REMARK INTER + INTRA:          -4.720
REMARK INTER:                  -4.329
REMARK INTRA:                  -0.391
REMARK UNBOUND:                -0.350
REMARK SMILES C=C1C[C@@]2(O)O[C@@]3(C[C@H]2C(C)C)[C@H](C)CC[C@@H]13
REMARK SMILES IDX 14 1 13 2 15 3 16 4 17 5 7 6 8 7 9 8 4 9 6 10 3 11 2 12 1 13
REMARK SMILES IDX 10 14 11 15 12 16 5 17
REMARK H PARENT 5 18
REMARK Flexibility Score: inf
ROOT
ATOM      1  C   UNL     1       7.498  17.765   8.760  1.00  0.00     0.011 C 
ATOM      2  C   UNL     1       7.125  18.992   9.618  1.00  0.00     0.019 C 
ATOM      3  C   UNL     1       5.769  19.560   9.174  1.00  0.00     0.007 C 
ATOM      4  C   UNL     1       6.060  20.740   8.239  1.00  0.00     0.011 C 
ATOM      5  C   UNL     1       7.582  20.907   8.200  1.00  0.00     0.047 C 
ATOM      6  C   UNL     1       8.088  20.182   9.461  1.00  0.00     0.081 C 
ATOM      7  C   UNL     1       9.586  19.847   9.377  1.00  0.00     0.046 C 
ATOM      8  C   UNL     1      10.247  20.997  10.132  1.00  0.00     0.054 C 
ATOM      9  C   UNL     1       9.048  21.922  10.458  1.00  0.00     0.173 C 
ATOM     10  O   UNL     1       7.945  21.053  10.566  1.00  0.00    -0.342 OA
ATOM     11  C   UNL     1       8.702  22.984   9.370  1.00  0.00     0.096 C 
ATOM     12  C   UNL     1       8.020  22.361   8.170  1.00  0.00    -0.066 C 
ATOM     13  C   UNL     1       7.784  23.108   7.081  1.00  0.00     0.008 C 
ENDROOT
BRANCH   8  14
ATOM     14  C   UNL     1      11.474  21.628   9.405  1.00  0.00    -0.009 C 
ATOM     15  C   UNL     1      12.783  21.322  10.156  1.00  0.00     0.008 C 
ATOM     16  C   UNL     1      11.603  21.088   7.968  1.00  0.00     0.008 C 
ENDBRANCH   8  14
BRANCH   9  17
ATOM     17  O   UNL     1       9.275  22.558  11.692  1.00  0.00    -0.365 OA
ATOM     18  H   UNL     1      10.238  22.799  11.730  1.00  0.00     0.214 HD
ENDBRANCH   9  17
TORSDOF 2
ENDMDL
MODEL 8
REMARK VINA RESULT:    -3.925      2.528      4.179
REMARK INTER + INTRA:          -4.619
REMARK INTER:                  -4.663
REMARK INTRA:                   0.044
REMARK UNBOUND:                -0.350
REMARK SMILES C=C1C[C@@]2(O)O[C@@]3(C[C@H]2C(C)C)[C@H](C)CC[C@@H]13
REMARK SMILES IDX 14 1 13 2 15 3 16 4 17 5 7 6 8 7 9 8 4 9 6 10 3 11 2 12 1 13
REMARK SMILES IDX 10 14 11 15 12 16 5 17
REMARK H PARENT 5 18
REMARK Flexibility Score: inf
ROOT
ATOM      1  C   UNL     1       9.985  22.596   9.243  1.00  0.00     0.011 C 
ATOM      2  C   UNL     1       8.751  22.104  10.028  1.00  0.00     0.019 C 
ATOM      3  C   UNL     1       9.169  21.067  11.081  1.00  0.00     0.007 C 
ATOM      4  C   UNL     1       8.903  19.682  10.479  1.00  0.00     0.011 C 
ATOM      5  C   UNL     1       8.260  19.913   9.108  1.00  0.00     0.047 C 
ATOM      6  C   UNL     1       7.720  21.354   9.167  1.00  0.00     0.081 C 
ATOM      7  C   UNL     1       7.445  21.929   7.768  1.00  0.00     0.046 C 
ATOM      8  C   UNL     1       5.949  21.690   7.577  1.00  0.00     0.054 C 
ATOM      9  C   UNL     1       5.568  20.894   8.850  1.00  0.00     0.173 C 
ATOM     10  O   UNL     1       6.473  21.338   9.833  1.00  0.00    -0.342 OA
ATOM     11  C   UNL     1       5.714  19.345   8.744  1.00  0.00     0.096 C 
ATOM     12  C   UNL     1       7.164  18.911   8.789  1.00  0.00    -0.066 C 
ATOM     13  C   UNL     1       7.478  17.626   8.565  1.00  0.00     0.008 C 
ENDROOT
BRANCH   8  14
ATOM     14  C   UNL     1       5.563  21.079   6.195  1.00  0.00    -0.009 C 
ATOM     15  C   UNL     1       4.048  20.823   6.104  1.00  0.00     0.008 C 
ATOM     16  C   UNL     1       5.965  22.019   5.043  1.00  0.00     0.008 C 
ENDBRANCH   8  14
BRANCH   9  17
ATOM     17  O   UNL     1       4.254  21.225   9.227  1.00  0.00    -0.365 OA
ATOM     18  H   UNL     1       4.244  21.327  10.215  1.00  0.00     0.214 HD
ENDBRANCH   9  17
TORSDOF 2
ENDMDL
MODEL 9
REMARK VINA RESULT:    -3.895      2.035      3.886
REMARK INTER + INTRA:          -4.587
REMARK INTER:                  -4.197
REMARK INTRA:                  -0.389
REMARK UNBOUND:                -0.350
REMARK SMILES C=C1C[C@@]2(O)O[C@@]3(C[C@H]2C(C)C)[C@H](C)CC[C@@H]13
REMARK SMILES IDX 14 1 13 2 15 3 16 4 17 5 7 6 8 7 9 8 4 9 6 10 3 11 2 12 1 13
REMARK SMILES IDX 10 14 11 15 12 16 5 17
REMARK H PARENT 5 18
REMARK Flexibility Score: inf
ROOT
ATOM      1  C   UNL     1       8.044  18.233  11.374  1.00  0.00     0.011 C 
ATOM      2  C   UNL     1       9.153  18.628  10.376  1.00  0.00     0.019 C 
ATOM      3  C   UNL     1      10.529  18.555  11.053  1.00  0.00     0.007 C 
ATOM      4  C   UNL     1      10.894  19.980  11.486  1.00  0.00     0.011 C 
ATOM      5  C   UNL     1       9.767  20.893  10.993  1.00  0.00     0.047 C 
ATOM      6  C   UNL     1       9.063  20.085   9.887  1.00  0.00     0.081 C 
ATOM      7  C   UNL     1       7.655  20.622   9.581  1.00  0.00     0.046 C 
ATOM      8  C   UNL     1       7.879  21.524   8.370  1.00  0.00     0.054 C 
ATOM      9  C   UNL     1       9.418  21.489   8.200  1.00  0.00     0.173 C 
ATOM     10  O   UNL     1       9.803  20.226   8.690  1.00  0.00    -0.342 OA
ATOM     11  C   UNL     1      10.209  22.564   9.005  1.00  0.00     0.096 C 
ATOM     12  C   UNL     1      10.268  22.233  10.482  1.00  0.00    -0.066 C 
ATOM     13  C   UNL     1      10.785  23.125  11.341  1.00  0.00     0.008 C 
ENDROOT
BRANCH   8  14
ATOM     14  C   UNL     1       7.191  22.920   8.468  1.00  0.00    -0.009 C 
ATOM     15  C   UNL     1       6.106  23.083   7.388  1.00  0.00     0.008 C 
ATOM     16  C   UNL     1       6.534  23.118   9.847  1.00  0.00     0.008 C 
ENDBRANCH   8  14
BRANCH   9  17
ATOM     17  O   UNL     1       9.736  21.586   6.833  1.00  0.00    -0.365 OA
ATOM     18  H   UNL     1       9.913  20.667   6.502  1.00  0.00     0.214 HD
ENDBRANCH   9  17
TORSDOF 2
ENDMDL
