MODEL 1
REMARK VINA RESULT:    -7.787      0.000      0.000
REMARK INTER + INTRA:         -11.652
REMARK INTER:                 -10.746
REMARK INTRA:                  -0.905
REMARK UNBOUND:                -0.905
REMARK SMILES O=C([O-])[C@H]1O[C@H](Oc2cc3oc(-c4ccccc4)cc(=O)c3c(O)c2O)[C@H](O)[C@H](O)[C@H]1O
REMARK SMILES IDX 7 1 6 2 4 3 31 4 5 5 29 6 27 7 2 8 1 9 3 10 32 11 30 13
REMARK SMILES IDX 28 15 8 17 25 18 9 19 23 20 10 21 22 22 11 23 20 24 12 25
REMARK SMILES IDX 19 26 21 27 26 28 24 30 13 32 14 33 18 34 15 35 17 36 16 37
REMARK H PARENT 32 12 30 14 28 16 26 29 24 31
REMARK Flexibility Score: inf
ROOT
ATOM      1  O   UNL     1     -65.317 -47.238 -41.143  1.00  0.00    -0.458 OA
ENDROOT
BRANCH   1   2
ATOM      2  C   UNL     1     -66.719 -46.989 -40.995  1.00  0.00     0.339 C 
ATOM      3  C   UNL     1     -66.650 -45.034 -42.293  1.00  0.00     0.199 C 
ATOM      4  C   UNL     1     -67.508 -45.632 -43.437  1.00  0.00     0.180 C 
ATOM      5  O   UNL     1     -67.012 -45.600 -41.044  1.00  0.00    -0.328 OA
ATOM      6  C   UNL     1     -67.411 -47.174 -43.459  1.00  0.00     0.181 C 
ATOM      7  C   UNL     1     -67.537 -47.777 -42.042  1.00  0.00     0.214 C 
BRANCH   3   8
ATOM      8  C   UNL     1     -66.813 -43.540 -42.222  1.00  0.00     0.073 C 
ATOM      9  O   UNL     1     -66.765 -42.950 -41.109  1.00  0.00    -0.547 OA
ATOM     10  O   UNL     1     -67.077 -42.804 -43.372  1.00  0.00    -0.547 OA
ENDBRANCH   3   8
BRANCH   4  11
ATOM     11  O   UNL     1     -68.852 -45.221 -43.339  1.00  0.00    -0.387 OA
ATOM     12  H   UNL     1     -69.263 -45.696 -42.572  1.00  0.00     0.211 HD
ENDBRANCH   4  11
BRANCH   6  13
ATOM     13  O   UNL     1     -66.236 -47.607 -44.104  1.00  0.00    -0.387 OA
ATOM     14  H   UNL     1     -66.264 -48.593 -44.178  1.00  0.00     0.211 HD
ENDBRANCH   6  13
BRANCH   7  15
ATOM     15  O   UNL     1     -67.141 -49.125 -42.062  1.00  0.00    -0.384 OA
ATOM     16  H   UNL     1     -67.768 -49.617 -41.470  1.00  0.00     0.211 HD
ENDBRANCH   7  15
ENDBRANCH   1   2
BRANCH   1  17
ATOM     17  C   UNL     1     -64.297 -46.300 -40.923  1.00  0.00     0.172 A 
ATOM     18  C   UNL     1     -63.428 -45.986 -41.982  1.00  0.00     0.201 A 
ATOM     19  C   UNL     1     -64.123 -45.667 -39.679  1.00  0.00     0.098 A 
ATOM     20  C   UNL     1     -62.394 -45.046 -41.805  1.00  0.00     0.176 A 
ATOM     21  C   UNL     1     -63.104 -44.733 -39.492  1.00  0.00     0.146 A 
ATOM     22  C   UNL     1     -62.228 -44.410 -40.552  1.00  0.00     0.111 A 
ATOM     23  O   UNL     1     -62.971 -44.152 -38.303  1.00  0.00    -0.456 OA
ATOM     24  C   UNL     1     -61.223 -43.454 -40.300  1.00  0.00     0.197 A 
ATOM     25  C   UNL     1     -62.029 -43.253 -38.029  1.00  0.00     0.138 A 
ATOM     26  C   UNL     1     -61.125 -42.873 -39.035  1.00  0.00     0.100 A 
ATOM     27  O   UNL     1     -60.407 -43.105 -41.195  1.00  0.00    -0.289 OA
BRANCH  18  28
ATOM     28  O   UNL     1     -63.579 -46.607 -43.223  1.00  0.00    -0.502 OA
ATOM     29  H   UNL     1     -63.294 -47.565 -43.391  1.00  0.00     0.293 HD
ENDBRANCH  18  28
BRANCH  20  30
ATOM     30  O   UNL     1     -61.537 -44.747 -42.866  1.00  0.00    -0.504 OA
ATOM     31  H   UNL     1     -61.545 -45.266 -43.736  1.00  0.00     0.293 HD
ENDBRANCH  20  30
BRANCH  25  32
ATOM     32  C   UNL     1     -61.975 -42.669 -36.666  1.00  0.00     0.017 A 
ATOM     33  C   UNL     1     -63.023 -41.875 -36.158  1.00  0.00     0.012 A 
ATOM     34  C   UNL     1     -60.838 -42.883 -35.864  1.00  0.00     0.012 A 
ATOM     35  C   UNL     1     -62.939 -41.329 -34.873  1.00  0.00     0.001 A 
ATOM     36  C   UNL     1     -60.761 -42.336 -34.581  1.00  0.00     0.001 A 
ATOM     37  C   UNL     1     -61.812 -41.563 -34.084  1.00  0.00     0.000 A 
ENDBRANCH  25  32
ENDBRANCH   1  17
TORSDOF 9
ENDMDL
MODEL 2
REMARK VINA RESULT:    -7.588      4.004      9.441
REMARK INTER + INTRA:         -11.376
REMARK INTER:                 -10.205
REMARK INTRA:                  -1.171
REMARK UNBOUND:                -0.905
REMARK SMILES O=C([O-])[C@H]1O[C@H](Oc2cc3oc(-c4ccccc4)cc(=O)c3c(O)c2O)[C@H](O)[C@H](O)[C@H]1O
REMARK SMILES IDX 7 1 6 2 4 3 31 4 5 5 29 6 27 7 2 8 1 9 3 10 32 11 30 13
REMARK SMILES IDX 28 15 8 17 25 18 9 19 23 20 10 21 22 22 11 23 20 24 12 25
REMARK SMILES IDX 19 26 21 27 26 28 24 30 13 32 14 33 18 34 15 35 17 36 16 37
REMARK H PARENT 32 12 30 14 28 16 26 29 24 31
REMARK Flexibility Score: inf
ROOT
ATOM      1  O   UNL     1     -61.841 -41.883 -34.786  1.00  0.00    -0.458 OA
ENDROOT
BRANCH   1   2
ATOM      2  C   UNL     1     -62.247 -40.805 -33.936  1.00  0.00     0.339 C 
ATOM      3  C   UNL     1     -62.858 -42.237 -32.178  1.00  0.00     0.199 C 
ATOM      4  C   UNL     1     -61.733 -41.738 -31.235  1.00  0.00     0.180 C 
ATOM      5  O   UNL     1     -63.282 -41.200 -33.048  1.00  0.00    -0.328 OA
ATOM      6  C   UNL     1     -60.553 -41.146 -32.038  1.00  0.00     0.181 C 
ATOM      7  C   UNL     1     -61.040 -40.216 -33.172  1.00  0.00     0.214 C 
BRANCH   3   8
ATOM      8  C   UNL     1     -64.039 -42.735 -31.392  1.00  0.00     0.073 C 
ATOM      9  O   UNL     1     -63.897 -43.089 -30.191  1.00  0.00    -0.547 OA
ATOM     10  O   UNL     1     -65.284 -42.867 -31.999  1.00  0.00    -0.547 OA
ENDBRANCH   3   8
BRANCH   4  11
ATOM     11  O   UNL     1     -62.223 -40.798 -30.306  1.00  0.00    -0.387 OA
ATOM     12  H   UNL     1     -63.190 -40.668 -30.483  1.00  0.00     0.211 HD
ENDBRANCH   4  11
BRANCH   6  13
ATOM     13  O   UNL     1     -59.704 -42.158 -32.527  1.00  0.00    -0.387 OA
ATOM     14  H   UNL     1     -60.253 -42.953 -32.740  1.00  0.00     0.211 HD
ENDBRANCH   6  13
BRANCH   7  15
ATOM     15  O   UNL     1     -59.981 -39.950 -34.056  1.00  0.00    -0.384 OA
ATOM     16  H   UNL     1     -59.394 -40.750 -34.051  1.00  0.00     0.211 HD
ENDBRANCH   7  15
ENDBRANCH   1   2
BRANCH   1  17
ATOM     17  C   UNL     1     -62.681 -42.588 -35.663  1.00  0.00     0.172 A 
ATOM     18  C   UNL     1     -62.815 -43.977 -35.498  1.00  0.00     0.201 A 
ATOM     19  C   UNL     1     -63.388 -41.944 -36.693  1.00  0.00     0.098 A 
ATOM     20  C   UNL     1     -63.652 -44.721 -36.353  1.00  0.00     0.176 A 
ATOM     21  C   UNL     1     -64.222 -42.670 -37.544  1.00  0.00     0.146 A 
ATOM     22  C   UNL     1     -64.364 -44.066 -37.384  1.00  0.00     0.111 A 
ATOM     23  O   UNL     1     -64.879 -42.029 -38.507  1.00  0.00    -0.456 OA
ATOM     24  C   UNL     1     -65.227 -44.741 -38.274  1.00  0.00     0.197 A 
ATOM     25  C   UNL     1     -65.692 -42.635 -39.368  1.00  0.00     0.138 A 
ATOM     26  C   UNL     1     -65.893 -44.022 -39.267  1.00  0.00     0.100 A 
ATOM     27  O   UNL     1     -65.414 -45.984 -38.193  1.00  0.00    -0.289 OA
BRANCH  18  28
ATOM     28  O   UNL     1     -62.116 -44.637 -34.485  1.00  0.00    -0.502 OA
ATOM     29  H   UNL     1     -61.538 -45.450 -34.663  1.00  0.00     0.293 HD
ENDBRANCH  18  28
BRANCH  20  30
ATOM     30  O   UNL     1     -63.773 -46.101 -36.178  1.00  0.00    -0.504 OA
ATOM     31  H   UNL     1     -63.122 -46.761 -36.587  1.00  0.00     0.293 HD
ENDBRANCH  20  30
BRANCH  25  32
ATOM     32  C   UNL     1     -66.375 -41.818 -40.401  1.00  0.00     0.017 A 
ATOM     33  C   UNL     1     -66.399 -40.410 -40.336  1.00  0.00     0.012 A 
ATOM     34  C   UNL     1     -67.044 -42.459 -41.461  1.00  0.00     0.012 A 
ATOM     35  C   UNL     1     -67.059 -39.667 -41.320  1.00  0.00     0.001 A 
ATOM     36  C   UNL     1     -67.701 -41.710 -42.441  1.00  0.00     0.001 A 
ATOM     37  C   UNL     1     -67.706 -40.316 -42.374  1.00  0.00     0.000 A 
ENDBRANCH  25  32
ENDBRANCH   1  17
TORSDOF 9
ENDMDL
MODEL 3
REMARK VINA RESULT:    -7.546      2.146      3.245
REMARK INTER + INTRA:         -11.319
REMARK INTER:                 -10.106
REMARK INTRA:                  -1.214
REMARK UNBOUND:                -0.905
REMARK SMILES O=C([O-])[C@H]1O[C@H](Oc2cc3oc(-c4ccccc4)cc(=O)c3c(O)c2O)[C@H](O)[C@H](O)[C@H]1O
REMARK SMILES IDX 7 1 6 2 4 3 31 4 5 5 29 6 27 7 2 8 1 9 3 10 32 11 30 13
REMARK SMILES IDX 28 15 8 17 25 18 9 19 23 20 10 21 22 22 11 23 20 24 12 25
REMARK SMILES IDX 19 26 21 27 26 28 24 30 13 32 14 33 18 34 15 35 17 36 16 37
REMARK H PARENT 32 12 30 14 28 16 26 29 24 31
REMARK Flexibility Score: inf
ROOT
ATOM      1  O   UNL     1     -64.708 -44.054 -39.888  1.00  0.00    -0.458 OA
ENDROOT
BRANCH   1   2
ATOM      2  C   UNL     1     -66.083 -43.900 -39.522  1.00  0.00     0.339 C 
ATOM      3  C   UNL     1     -66.778 -43.552 -41.737  1.00  0.00     0.199 C 
ATOM      4  C   UNL     1     -67.587 -44.872 -41.806  1.00  0.00     0.180 C 
ATOM      5  O   UNL     1     -66.769 -43.036 -40.416  1.00  0.00    -0.328 OA
ATOM      6  C   UNL     1     -67.052 -45.908 -40.792  1.00  0.00     0.181 C 
ATOM      7  C   UNL     1     -66.785 -45.272 -39.410  1.00  0.00     0.214 C 
BRANCH   3   8
ATOM      8  C   UNL     1     -67.353 -42.517 -42.666  1.00  0.00     0.073 C 
ATOM      9  O   UNL     1     -67.621 -42.818 -43.860  1.00  0.00    -0.547 OA
ATOM     10  O   UNL     1     -67.538 -41.209 -42.234  1.00  0.00    -0.547 OA
ENDBRANCH   3   8
BRANCH   4  11
ATOM     11  O   UNL     1     -68.962 -44.642 -41.603  1.00  0.00    -0.387 OA
ATOM     12  H   UNL     1     -69.171 -44.847 -40.655  1.00  0.00     0.211 HD
ENDBRANCH   4  11
BRANCH   6  13
ATOM     13  O   UNL     1     -65.913 -46.572 -41.286  1.00  0.00    -0.387 OA
ATOM     14  H   UNL     1     -65.464 -47.028 -40.532  1.00  0.00     0.211 HD
ENDBRANCH   6  13
BRANCH   7  15
ATOM     15  O   UNL     1     -66.023 -46.150 -38.621  1.00  0.00    -0.384 OA
ATOM     16  H   UNL     1     -65.442 -45.588 -38.045  1.00  0.00     0.211 HD
ENDBRANCH   7  15
ENDBRANCH   1   2
BRANCH   1  17
ATOM     17  C   UNL     1     -63.647 -44.265 -38.992  1.00  0.00     0.172 A 
ATOM     18  C   UNL     1     -62.885 -45.439 -39.114  1.00  0.00     0.201 A 
ATOM     19  C   UNL     1     -63.328 -43.337 -37.986  1.00  0.00     0.098 A 
ATOM     20  C   UNL     1     -61.808 -45.687 -38.239  1.00  0.00     0.176 A 
ATOM     21  C   UNL     1     -62.263 -43.570 -37.115  1.00  0.00     0.146 A 
ATOM     22  C   UNL     1     -61.490 -44.747 -37.232  1.00  0.00     0.111 A 
ATOM     23  O   UNL     1     -61.987 -42.670 -36.176  1.00  0.00    -0.456 OA
ATOM     24  C   UNL     1     -60.423 -44.920 -36.325  1.00  0.00     0.197 A 
ATOM     25  C   UNL     1     -60.995 -42.806 -35.300  1.00  0.00     0.138 A 
ATOM     26  C   UNL     1     -60.176 -43.945 -35.357  1.00  0.00     0.100 A 
ATOM     27  O   UNL     1     -59.682 -45.938 -36.367  1.00  0.00    -0.289 OA
BRANCH  18  28
ATOM     28  O   UNL     1     -63.189 -46.377 -40.102  1.00  0.00    -0.502 OA
ATOM     29  H   UNL     1     -63.595 -46.117 -40.993  1.00  0.00     0.293 HD
ENDBRANCH  18  28
BRANCH  20  30
ATOM     30  O   UNL     1     -61.061 -46.859 -38.371  1.00  0.00    -0.504 OA
ATOM     31  H   UNL     1     -60.811 -47.248 -39.272  1.00  0.00     0.293 HD
ENDBRANCH  20  30
BRANCH  25  32
ATOM     32  C   UNL     1     -60.779 -41.735 -34.295  1.00  0.00     0.017 A 
ATOM     33  C   UNL     1     -60.968 -40.374 -34.610  1.00  0.00     0.012 A 
ATOM     34  C   UNL     1     -60.343 -42.077 -33.001  1.00  0.00     0.012 A 
ATOM     35  C   UNL     1     -60.746 -39.387 -33.644  1.00  0.00     0.001 A 
ATOM     36  C   UNL     1     -60.125 -41.086 -32.040  1.00  0.00     0.001 A 
ATOM     37  C   UNL     1     -60.329 -39.742 -32.360  1.00  0.00     0.000 A 
ENDBRANCH  25  32
ENDBRANCH   1  17
TORSDOF 9
ENDMDL
MODEL 4
REMARK VINA RESULT:    -7.231      3.052      5.706
REMARK INTER + INTRA:         -10.884
REMARK INTER:                  -9.791
REMARK INTRA:                  -1.093
REMARK UNBOUND:                -0.905
REMARK SMILES O=C([O-])[C@H]1O[C@H](Oc2cc3oc(-c4ccccc4)cc(=O)c3c(O)c2O)[C@H](O)[C@H](O)[C@H]1O
REMARK SMILES IDX 7 1 6 2 4 3 31 4 5 5 29 6 27 7 2 8 1 9 3 10 32 11 30 13
REMARK SMILES IDX 28 15 8 17 25 18 9 19 23 20 10 21 22 22 11 23 20 24 12 25
REMARK SMILES IDX 19 26 21 27 26 28 24 30 13 32 14 33 18 34 15 35 17 36 16 37
REMARK H PARENT 32 12 30 14 28 16 26 29 24 31
REMARK Flexibility Score: inf
ROOT
ATOM      1  O   UNL     1     -64.903 -44.741 -38.187  1.00  0.00    -0.458 OA
ENDROOT
BRANCH   1   2
ATOM      2  C   UNL     1     -64.688 -43.941 -39.355  1.00  0.00     0.339 C 
ATOM      3  C   UNL     1     -64.802 -45.782 -40.808  1.00  0.00     0.199 C 
ATOM      4  C   UNL     1     -66.116 -45.308 -41.481  1.00  0.00     0.180 C 
ATOM      5  O   UNL     1     -64.029 -44.673 -40.378  1.00  0.00    -0.328 OA
ATOM      6  C   UNL     1     -66.920 -44.379 -40.543  1.00  0.00     0.181 C 
ATOM      7  C   UNL     1     -66.014 -43.330 -39.860  1.00  0.00     0.214 C 
BRANCH   3   8
ATOM      8  C   UNL     1     -63.983 -46.617 -41.753  1.00  0.00     0.073 C 
ATOM      9  O   UNL     1     -64.448 -46.941 -42.879  1.00  0.00    -0.547 OA
ATOM     10  O   UNL     1     -62.732 -47.089 -41.371  1.00  0.00    -0.547 OA
ENDBRANCH   3   8
BRANCH   4  11
ATOM     11  O   UNL     1     -65.860 -44.671 -42.712  1.00  0.00    -0.387 OA
ATOM     12  H   UNL     1     -66.365 -43.817 -42.725  1.00  0.00     0.211 HD
ENDBRANCH   4  11
BRANCH   6  13
ATOM     13  O   UNL     1     -67.661 -45.117 -39.600  1.00  0.00    -0.387 OA
ATOM     14  H   UNL     1     -67.366 -44.854 -38.694  1.00  0.00     0.211 HD
ENDBRANCH   6  13
BRANCH   7  15
ATOM     15  O   UNL     1     -66.708 -42.719 -38.803  1.00  0.00    -0.384 OA
ATOM     16  H   UNL     1     -67.674 -42.766 -39.028  1.00  0.00     0.211 HD
ENDBRANCH   7  15
ENDBRANCH   1   2
BRANCH   1  17
ATOM     17  C   UNL     1     -64.987 -44.255 -36.873  1.00  0.00     0.172 A 
ATOM     18  C   UNL     1     -66.153 -44.512 -36.132  1.00  0.00     0.201 A 
ATOM     19  C   UNL     1     -63.942 -43.525 -36.282  1.00  0.00     0.098 A 
ATOM     20  C   UNL     1     -66.276 -44.047 -34.808  1.00  0.00     0.176 A 
ATOM     21  C   UNL     1     -64.051 -43.060 -34.970  1.00  0.00     0.146 A 
ATOM     22  C   UNL     1     -65.219 -43.317 -34.218  1.00  0.00     0.111 A 
ATOM     23  O   UNL     1     -63.042 -42.375 -34.441  1.00  0.00    -0.456 OA
ATOM     24  C   UNL     1     -65.264 -42.825 -32.896  1.00  0.00     0.197 A 
ATOM     25  C   UNL     1     -63.056 -41.890 -33.202  1.00  0.00     0.138 A 
ATOM     26  C   UNL     1     -64.179 -42.112 -32.388  1.00  0.00     0.100 A 
ATOM     27  O   UNL     1     -66.266 -43.018 -32.157  1.00  0.00    -0.289 OA
BRANCH  18  28
ATOM     28  O   UNL     1     -67.206 -45.230 -36.703  1.00  0.00    -0.502 OA
ATOM     29  H   UNL     1     -67.058 -45.957 -37.393  1.00  0.00     0.293 HD
ENDBRANCH  18  28
BRANCH  20  30
ATOM     30  O   UNL     1     -67.442 -44.309 -34.085  1.00  0.00    -0.504 OA
ATOM     31  H   UNL     1     -67.680 -45.235 -33.752  1.00  0.00     0.293 HD
ENDBRANCH  20  30
BRANCH  25  32
ATOM     32  C   UNL     1     -61.871 -41.140 -32.716  1.00  0.00     0.017 A 
ATOM     33  C   UNL     1     -61.373 -40.014 -33.402  1.00  0.00     0.012 A 
ATOM     34  C   UNL     1     -61.203 -41.578 -31.557  1.00  0.00     0.012 A 
ATOM     35  C   UNL     1     -60.248 -39.335 -32.924  1.00  0.00     0.001 A 
ATOM     36  C   UNL     1     -60.080 -40.893 -31.084  1.00  0.00     0.001 A 
ATOM     37  C   UNL     1     -59.604 -39.771 -31.765  1.00  0.00     0.000 A 
ENDBRANCH  25  32
ENDBRANCH   1  17
TORSDOF 9
ENDMDL
MODEL 5
REMARK VINA RESULT:    -7.186      3.752      9.032
REMARK INTER + INTRA:         -10.823
REMARK INTER:                  -9.712
REMARK INTRA:                  -1.110
REMARK UNBOUND:                -0.905
REMARK SMILES O=C([O-])[C@H]1O[C@H](Oc2cc3oc(-c4ccccc4)cc(=O)c3c(O)c2O)[C@H](O)[C@H](O)[C@H]1O
REMARK SMILES IDX 7 1 6 2 4 3 31 4 5 5 29 6 27 7 2 8 1 9 3 10 32 11 30 13
REMARK SMILES IDX 28 15 8 17 25 18 9 19 23 20 10 21 22 22 11 23 20 24 12 25
REMARK SMILES IDX 19 26 21 27 26 28 24 30 13 32 14 33 18 34 15 35 17 36 16 37
REMARK H PARENT 32 12 30 14 28 16 26 29 24 31
REMARK Flexibility Score: inf
ROOT
ATOM      1  O   UNL     1     -64.629 -43.401 -34.559  1.00  0.00    -0.458 OA
ENDROOT
BRANCH   1   2
ATOM      2  C   UNL     1     -63.366 -43.753 -33.983  1.00  0.00     0.339 C 
ATOM      3  C   UNL     1     -62.610 -41.531 -33.938  1.00  0.00     0.199 C 
ATOM      4  C   UNL     1     -62.594 -41.453 -32.389  1.00  0.00     0.180 C 
ATOM      5  O   UNL     1     -62.342 -42.853 -34.377  1.00  0.00    -0.328 OA
ATOM      6  C   UNL     1     -63.576 -42.473 -31.770  1.00  0.00     0.181 C 
ATOM      7  C   UNL     1     -63.468 -43.857 -32.445  1.00  0.00     0.214 C 
BRANCH   3   8
ATOM      8  C   UNL     1     -61.593 -40.597 -34.535  1.00  0.00     0.073 C 
ATOM      9  O   UNL     1     -61.488 -39.417 -34.106  1.00  0.00    -0.547 OA
ATOM     10  O   UNL     1     -60.803 -41.006 -35.604  1.00  0.00    -0.547 OA
ENDBRANCH   3   8
BRANCH   4  11
ATOM     11  O   UNL     1     -61.294 -41.643 -31.880  1.00  0.00    -0.387 OA
ATOM     12  H   UNL     1     -61.352 -42.276 -31.119  1.00  0.00     0.211 HD
ENDBRANCH   4  11
BRANCH   6  13
ATOM     13  O   UNL     1     -64.899 -41.990 -31.787  1.00  0.00    -0.387 OA
ATOM     14  H   UNL     1     -65.189 -41.904 -32.729  1.00  0.00     0.211 HD
ENDBRANCH   6  13
BRANCH   7  15
ATOM     15  O   UNL     1     -64.565 -44.653 -32.078  1.00  0.00    -0.384 OA
ATOM     16  H   UNL     1     -65.102 -44.123 -31.433  1.00  0.00     0.211 HD
ENDBRANCH   7  15
ENDBRANCH   1   2
BRANCH   1  17
ATOM     17  C   UNL     1     -65.245 -44.060 -35.634  1.00  0.00     0.172 A 
ATOM     18  C   UNL     1     -65.675 -45.386 -35.455  1.00  0.00     0.201 A 
ATOM     19  C   UNL     1     -65.444 -43.433 -36.876  1.00  0.00     0.098 A 
ATOM     20  C   UNL     1     -66.303 -46.083 -36.507  1.00  0.00     0.176 A 
ATOM     21  C   UNL     1     -66.065 -44.112 -37.925  1.00  0.00     0.146 A 
ATOM     22  C   UNL     1     -66.503 -45.444 -37.753  1.00  0.00     0.111 A 
ATOM     23  O   UNL     1     -66.239 -43.487 -39.086  1.00  0.00    -0.456 OA
ATOM     24  C   UNL     1     -67.130 -46.072 -38.850  1.00  0.00     0.197 A 
ATOM     25  C   UNL     1     -66.818 -44.053 -40.142  1.00  0.00     0.138 A 
ATOM     26  C   UNL     1     -67.288 -45.372 -40.046  1.00  0.00     0.100 A 
ATOM     27  O   UNL     1     -67.555 -47.255 -38.775  1.00  0.00    -0.289 OA
BRANCH  18  28
ATOM     28  O   UNL     1     -65.482 -46.030 -34.232  1.00  0.00    -0.502 OA
ATOM     29  H   UNL     1     -65.479 -45.533 -33.349  1.00  0.00     0.293 HD
ENDBRANCH  18  28
BRANCH  20  30
ATOM     30  O   UNL     1     -66.723 -47.400 -36.315  1.00  0.00    -0.504 OA
ATOM     31  H   UNL     1     -67.417 -47.843 -36.906  1.00  0.00     0.293 HD
ENDBRANCH  20  30
BRANCH  25  32
ATOM     32  C   UNL     1     -66.960 -43.258 -41.388  1.00  0.00     0.017 A 
ATOM     33  C   UNL     1     -67.158 -41.863 -41.359  1.00  0.00     0.012 A 
ATOM     34  C   UNL     1     -66.929 -43.912 -42.634  1.00  0.00     0.012 A 
ATOM     35  C   UNL     1     -67.299 -41.143 -42.550  1.00  0.00     0.001 A 
ATOM     36  C   UNL     1     -67.070 -43.187 -43.820  1.00  0.00     0.001 A 
ATOM     37  C   UNL     1     -67.251 -41.803 -43.779  1.00  0.00     0.000 A 
ENDBRANCH  25  32
ENDBRANCH   1  17
TORSDOF 9
ENDMDL
MODEL 6
REMARK VINA RESULT:    -7.136      3.862      6.476
REMARK INTER + INTRA:         -10.753
REMARK INTER:                  -9.415
REMARK INTRA:                  -1.339
REMARK UNBOUND:                -0.905
REMARK SMILES O=C([O-])[C@H]1O[C@H](Oc2cc3oc(-c4ccccc4)cc(=O)c3c(O)c2O)[C@H](O)[C@H](O)[C@H]1O
REMARK SMILES IDX 7 1 6 2 4 3 31 4 5 5 29 6 27 7 2 8 1 9 3 10 32 11 30 13
REMARK SMILES IDX 28 15 8 17 25 18 9 19 23 20 10 21 22 22 11 23 20 24 12 25
REMARK SMILES IDX 19 26 21 27 26 28 24 30 13 32 14 33 18 34 15 35 17 36 16 37
REMARK H PARENT 32 12 30 14 28 16 26 29 24 31
REMARK Flexibility Score: inf
ROOT
ATOM      1  O   UNL     1     -63.975 -44.392 -37.322  1.00  0.00    -0.458 OA
ENDROOT
BRANCH   1   2
ATOM      2  C   UNL     1     -64.048 -43.652 -38.545  1.00  0.00     0.339 C 
ATOM      3  C   UNL     1     -64.037 -45.585 -39.878  1.00  0.00     0.199 C 
ATOM      4  C   UNL     1     -65.486 -45.374 -40.387  1.00  0.00     0.180 C 
ATOM      5  O   UNL     1     -63.412 -44.340 -39.612  1.00  0.00    -0.328 OA
ATOM      6  C   UNL     1     -66.308 -44.522 -39.394  1.00  0.00     0.181 C 
ATOM      7  C   UNL     1     -65.511 -43.297 -38.893  1.00  0.00     0.214 C 
BRANCH   3   8
ATOM      8  C   UNL     1     -63.217 -46.344 -40.885  1.00  0.00     0.073 C 
ATOM      9  O   UNL     1     -63.020 -47.580 -40.739  1.00  0.00    -0.547 OA
ATOM     10  O   UNL     1     -62.619 -45.680 -41.950  1.00  0.00    -0.547 OA
ENDBRANCH   3   8
BRANCH   4  11
ATOM     11  O   UNL     1     -65.499 -44.792 -41.670  1.00  0.00    -0.387 OA
ATOM     12  H   UNL     1     -64.579 -44.839 -42.036  1.00  0.00     0.211 HD
ENDBRANCH   4  11
BRANCH   6  13
ATOM     13  O   UNL     1     -66.789 -45.300 -38.323  1.00  0.00    -0.387 OA
ATOM     14  H   UNL     1     -66.946 -46.220 -38.649  1.00  0.00     0.211 HD
ENDBRANCH   6  13
BRANCH   7  15
ATOM     15  O   UNL     1     -66.156 -42.731 -37.781  1.00  0.00    -0.384 OA
ATOM     16  H   UNL     1     -65.872 -43.254 -36.986  1.00  0.00     0.211 HD
ENDBRANCH   7  15
ENDBRANCH   1   2
BRANCH   1  17
ATOM     17  C   UNL     1     -62.981 -44.248 -36.341  1.00  0.00     0.172 A 
ATOM     18  C   UNL     1     -63.076 -43.176 -35.437  1.00  0.00     0.201 A 
ATOM     19  C   UNL     1     -61.901 -45.142 -36.240  1.00  0.00     0.098 A 
ATOM     20  C   UNL     1     -62.102 -42.998 -34.434  1.00  0.00     0.176 A 
ATOM     21  C   UNL     1     -60.931 -44.977 -35.250  1.00  0.00     0.146 A 
ATOM     22  C   UNL     1     -61.021 -43.904 -34.335  1.00  0.00     0.111 A 
ATOM     23  O   UNL     1     -59.924 -45.842 -35.181  1.00  0.00    -0.456 OA
ATOM     24  C   UNL     1     -60.012 -43.796 -33.355  1.00  0.00     0.197 A 
ATOM     25  C   UNL     1     -58.953 -45.765 -34.275  1.00  0.00     0.138 A 
ATOM     26  C   UNL     1     -58.977 -44.731 -33.325  1.00  0.00     0.100 A 
ATOM     27  O   UNL     1     -60.024 -42.872 -32.498  1.00  0.00    -0.289 OA
BRANCH  18  28
ATOM     28  O   UNL     1     -64.137 -42.273 -35.524  1.00  0.00    -0.502 OA
ATOM     29  H   UNL     1     -65.098 -42.544 -35.356  1.00  0.00     0.293 HD
ENDBRANCH  18  28
BRANCH  20  30
ATOM     30  O   UNL     1     -62.209 -41.927 -33.545  1.00  0.00    -0.504 OA
ATOM     31  H   UNL     1     -61.428 -41.319 -33.328  1.00  0.00     0.293 HD
ENDBRANCH  20  30
BRANCH  25  32
ATOM     32  C   UNL     1     -57.879 -46.789 -34.292  1.00  0.00     0.017 A 
ATOM     33  C   UNL     1     -56.569 -46.497 -33.862  1.00  0.00     0.012 A 
ATOM     34  C   UNL     1     -58.161 -48.080 -34.776  1.00  0.00     0.012 A 
ATOM     35  C   UNL     1     -55.575 -47.481 -33.899  1.00  0.00     0.001 A 
ATOM     36  C   UNL     1     -57.164 -49.059 -34.809  1.00  0.00     0.001 A 
ATOM     37  C   UNL     1     -55.873 -48.762 -34.368  1.00  0.00     0.000 A 
ENDBRANCH  25  32
ENDBRANCH   1  17
TORSDOF 9
ENDMDL
MODEL 7
REMARK VINA RESULT:    -7.113      3.095      6.075
REMARK INTER + INTRA:         -10.722
REMARK INTER:                  -9.593
REMARK INTRA:                  -1.129
REMARK UNBOUND:                -0.905
REMARK SMILES O=C([O-])[C@H]1O[C@H](Oc2cc3oc(-c4ccccc4)cc(=O)c3c(O)c2O)[C@H](O)[C@H](O)[C@H]1O
REMARK SMILES IDX 7 1 6 2 4 3 31 4 5 5 29 6 27 7 2 8 1 9 3 10 32 11 30 13
REMARK SMILES IDX 28 15 8 17 25 18 9 19 23 20 10 21 22 22 11 23 20 24 12 25
REMARK SMILES IDX 19 26 21 27 26 28 24 30 13 32 14 33 18 34 15 35 17 36 16 37
REMARK H PARENT 32 12 30 14 28 16 26 29 24 31
REMARK Flexibility Score: inf
ROOT
ATOM      1  O   UNL     1     -64.866 -45.227 -37.798  1.00  0.00    -0.458 OA
ENDROOT
BRANCH   1   2
ATOM      2  C   UNL     1     -64.824 -44.540 -39.053  1.00  0.00     0.339 C 
ATOM      3  C   UNL     1     -62.497 -44.768 -39.260  1.00  0.00     0.199 C 
ATOM      4  C   UNL     1     -62.589 -45.713 -40.485  1.00  0.00     0.180 C 
ATOM      5  O   UNL     1     -63.590 -43.864 -39.240  1.00  0.00    -0.328 OA
ATOM      6  C   UNL     1     -63.945 -46.454 -40.517  1.00  0.00     0.181 C 
ATOM      7  C   UNL     1     -65.126 -45.503 -40.223  1.00  0.00     0.214 C 
BRANCH   3   8
ATOM      8  C   UNL     1     -61.212 -43.987 -39.277  1.00  0.00     0.073 C 
ATOM      9  O   UNL     1     -60.257 -44.322 -38.525  1.00  0.00    -0.547 OA
ATOM     10  O   UNL     1     -61.086 -42.856 -40.076  1.00  0.00    -0.547 OA
ENDBRANCH   3   8
BRANCH   4  11
ATOM     11  O   UNL     1     -62.376 -45.014 -41.690  1.00  0.00    -0.387 OA
ATOM     12  H   UNL     1     -63.260 -44.730 -42.039  1.00  0.00     0.211 HD
ENDBRANCH   4  11
BRANCH   6  13
ATOM     13  O   UNL     1     -63.946 -47.565 -39.651  1.00  0.00    -0.387 OA
ATOM     14  H   UNL     1     -64.470 -48.290 -40.072  1.00  0.00     0.211 HD
ENDBRANCH   6  13
BRANCH   7  15
ATOM     15  O   UNL     1     -66.285 -46.250 -39.958  1.00  0.00    -0.384 OA
ATOM     16  H   UNL     1     -66.232 -46.536 -39.009  1.00  0.00     0.211 HD
ENDBRANCH   7  15
ENDBRANCH   1   2
BRANCH   1  17
ATOM     17  C   UNL     1     -64.970 -44.616 -36.538  1.00  0.00     0.172 A 
ATOM     18  C   UNL     1     -66.170 -44.753 -35.819  1.00  0.00     0.201 A 
ATOM     19  C   UNL     1     -63.913 -43.877 -35.980  1.00  0.00     0.098 A 
ATOM     20  C   UNL     1     -66.315 -44.160 -34.550  1.00  0.00     0.176 A 
ATOM     21  C   UNL     1     -64.044 -43.286 -34.723  1.00  0.00     0.146 A 
ATOM     22  C   UNL     1     -65.245 -43.421 -33.992  1.00  0.00     0.111 A 
ATOM     23  O   UNL     1     -63.022 -42.596 -34.224  1.00  0.00    -0.456 OA
ATOM     24  C   UNL     1     -65.311 -42.805 -32.725  1.00  0.00     0.197 A 
ATOM     25  C   UNL     1     -63.055 -41.995 -33.037  1.00  0.00     0.138 A 
ATOM     26  C   UNL     1     -64.212 -42.092 -32.246  1.00  0.00     0.100 A 
ATOM     27  O   UNL     1     -66.344 -42.885 -32.008  1.00  0.00    -0.289 OA
BRANCH  18  28
ATOM     28  O   UNL     1     -67.235 -45.477 -36.358  1.00  0.00    -0.502 OA
ATOM     29  H   UNL     1     -68.094 -45.644 -35.848  1.00  0.00     0.293 HD
ENDBRANCH  18  28
BRANCH  20  30
ATOM     30  O   UNL     1     -67.514 -44.303 -33.848  1.00  0.00    -0.504 OA
ATOM     31  H   UNL     1     -67.625 -44.963 -33.088  1.00  0.00     0.293 HD
ENDBRANCH  20  30
BRANCH  25  32
ATOM     32  C   UNL     1     -61.854 -41.253 -32.580  1.00  0.00     0.017 A 
ATOM     33  C   UNL     1     -61.160 -41.614 -31.407  1.00  0.00     0.012 A 
ATOM     34  C   UNL     1     -61.407 -40.139 -33.315  1.00  0.00     0.012 A 
ATOM     35  C   UNL     1     -60.037 -40.888 -30.997  1.00  0.00     0.001 A 
ATOM     36  C   UNL     1     -60.283 -39.419 -32.900  1.00  0.00     0.001 A 
ATOM     37  C   UNL     1     -59.596 -39.795 -31.745  1.00  0.00     0.000 A 
ENDBRANCH  25  32
ENDBRANCH   1  17
TORSDOF 9
ENDMDL
MODEL 8
REMARK VINA RESULT:    -7.075      2.787      4.188
REMARK INTER + INTRA:         -10.669
REMARK INTER:                  -9.309
REMARK INTRA:                  -1.360
REMARK UNBOUND:                -0.905
REMARK SMILES O=C([O-])[C@H]1O[C@H](Oc2cc3oc(-c4ccccc4)cc(=O)c3c(O)c2O)[C@H](O)[C@H](O)[C@H]1O
REMARK SMILES IDX 7 1 6 2 4 3 31 4 5 5 29 6 27 7 2 8 1 9 3 10 32 11 30 13
REMARK SMILES IDX 28 15 8 17 25 18 9 19 23 20 10 21 22 22 11 23 20 24 12 25
REMARK SMILES IDX 19 26 21 27 26 28 24 30 13 32 14 33 18 34 15 35 17 36 16 37
REMARK H PARENT 32 12 30 14 28 16 26 29 24 31
REMARK Flexibility Score: inf
ROOT
ATOM      1  O   UNL     1     -64.127 -44.998 -40.588  1.00  0.00    -0.458 OA
ENDROOT
BRANCH   1   2
ATOM      2  C   UNL     1     -65.303 -45.796 -40.763  1.00  0.00     0.339 C 
ATOM      3  C   UNL     1     -66.264 -44.293 -42.290  1.00  0.00     0.199 C 
ATOM      4  C   UNL     1     -66.170 -45.278 -43.484  1.00  0.00     0.180 C 
ATOM      5  O   UNL     1     -66.437 -44.998 -41.071  1.00  0.00    -0.328 OA
ATOM      6  C   UNL     1     -65.051 -46.319 -43.262  1.00  0.00     0.181 C 
ATOM      7  C   UNL     1     -65.076 -46.892 -41.828  1.00  0.00     0.214 C 
BRANCH   3   8
ATOM      8  C   UNL     1     -67.408 -43.334 -42.470  1.00  0.00     0.073 C 
ATOM      9  O   UNL     1     -68.588 -43.700 -42.218  1.00  0.00    -0.547 OA
ATOM     10  O   UNL     1     -67.184 -42.057 -42.972  1.00  0.00    -0.547 OA
ENDBRANCH   3   8
BRANCH   4  11
ATOM     11  O   UNL     1     -67.404 -45.917 -43.720  1.00  0.00    -0.387 OA
ATOM     12  H   UNL     1     -67.221 -46.768 -44.194  1.00  0.00     0.211 HD
ENDBRANCH   4  11
BRANCH   6  13
ATOM     13  O   UNL     1     -63.785 -45.792 -43.587  1.00  0.00    -0.387 OA
ATOM     14  H   UNL     1     -63.909 -45.055 -44.234  1.00  0.00     0.211 HD
ENDBRANCH   6  13
BRANCH   7  15
ATOM     15  O   UNL     1     -63.882 -47.587 -41.572  1.00  0.00    -0.384 OA
ATOM     16  H   UNL     1     -63.424 -47.703 -42.445  1.00  0.00     0.211 HD
ENDBRANCH   7  15
ENDBRANCH   1   2
BRANCH   1  17
ATOM     17  C   UNL     1     -63.575 -44.624 -39.352  1.00  0.00     0.172 A 
ATOM     18  C   UNL     1     -64.083 -43.485 -38.704  1.00  0.00     0.201 A 
ATOM     19  C   UNL     1     -62.537 -45.355 -38.750  1.00  0.00     0.098 A 
ATOM     20  C   UNL     1     -63.561 -43.079 -37.460  1.00  0.00     0.176 A 
ATOM     21  C   UNL     1     -62.013 -44.963 -37.517  1.00  0.00     0.146 A 
ATOM     22  C   UNL     1     -62.519 -43.821 -36.857  1.00  0.00     0.111 A 
ATOM     23  O   UNL     1     -61.033 -45.679 -36.975  1.00  0.00    -0.456 OA
ATOM     24  C   UNL     1     -61.951 -43.482 -35.612  1.00  0.00     0.197 A 
ATOM     25  C   UNL     1     -60.469 -45.382 -35.807  1.00  0.00     0.138 A 
ATOM     26  C   UNL     1     -60.924 -44.266 -35.085  1.00  0.00     0.100 A 
ATOM     27  O   UNL     1     -62.351 -42.483 -34.956  1.00  0.00    -0.289 OA
BRANCH  18  28
ATOM     28  O   UNL     1     -65.110 -42.741 -39.288  1.00  0.00    -0.502 OA
ATOM     29  H   UNL     1     -66.052 -43.099 -39.388  1.00  0.00     0.293 HD
ENDBRANCH  18  28
BRANCH  20  30
ATOM     30  O   UNL     1     -64.074 -41.943 -36.829  1.00  0.00    -0.504 OA
ATOM     31  H   UNL     1     -63.970 -41.779 -35.834  1.00  0.00     0.293 HD
ENDBRANCH  20  30
BRANCH  25  32
ATOM     32  C   UNL     1     -59.382 -46.255 -35.297  1.00  0.00     0.017 A 
ATOM     33  C   UNL     1     -59.293 -47.615 -35.656  1.00  0.00     0.012 A 
ATOM     34  C   UNL     1     -58.429 -45.725 -34.406  1.00  0.00     0.012 A 
ATOM     35  C   UNL     1     -58.262 -48.414 -35.151  1.00  0.00     0.001 A 
ATOM     36  C   UNL     1     -57.402 -46.530 -33.905  1.00  0.00     0.001 A 
ATOM     37  C   UNL     1     -57.316 -47.872 -34.280  1.00  0.00     0.000 A 
ENDBRANCH  25  32
ENDBRANCH   1  17
TORSDOF 9
ENDMDL
MODEL 9
REMARK VINA RESULT:    -7.063      3.389      8.927
REMARK INTER + INTRA:         -10.652
REMARK INTER:                  -9.659
REMARK INTRA:                  -0.993
REMARK UNBOUND:                -0.905
REMARK SMILES O=C([O-])[C@H]1O[C@H](Oc2cc3oc(-c4ccccc4)cc(=O)c3c(O)c2O)[C@H](O)[C@H](O)[C@H]1O
REMARK SMILES IDX 7 1 6 2 4 3 31 4 5 5 29 6 27 7 2 8 1 9 3 10 32 11 30 13
REMARK SMILES IDX 28 15 8 17 25 18 9 19 23 20 10 21 22 22 11 23 20 24 12 25
REMARK SMILES IDX 19 26 21 27 26 28 24 30 13 32 14 33 18 34 15 35 17 36 16 37
REMARK H PARENT 32 12 30 14 28 16 26 29 24 31
REMARK Flexibility Score: inf
ROOT
ATOM      1  O   UNL     1     -61.068 -41.747 -35.459  1.00  0.00    -0.458 OA
ENDROOT
BRANCH   1   2
ATOM      2  C   UNL     1     -62.103 -40.865 -35.010  1.00  0.00     0.339 C 
ATOM      3  C   UNL     1     -63.034 -42.468 -33.569  1.00  0.00     0.199 C 
ATOM      4  C   UNL     1     -62.664 -41.685 -32.283  1.00  0.00     0.180 C 
ATOM      5  O   UNL     1     -63.276 -41.577 -34.646  1.00  0.00    -0.328 OA
ATOM      6  C   UNL     1     -61.462 -40.745 -32.528  1.00  0.00     0.181 C 
ATOM      7  C   UNL     1     -61.604 -39.968 -33.855  1.00  0.00     0.214 C 
BRANCH   3   8
ATOM      8  C   UNL     1     -64.255 -43.319 -33.350  1.00  0.00     0.073 C 
ATOM      9  O   UNL     1     -65.073 -43.506 -34.290  1.00  0.00    -0.547 OA
ATOM     10  O   UNL     1     -64.523 -43.857 -32.096  1.00  0.00    -0.547 OA
ENDBRANCH   3   8
BRANCH   4  11
ATOM     11  O   UNL     1     -63.767 -40.963 -31.786  1.00  0.00    -0.387 OA
ATOM     12  H   UNL     1     -64.499 -41.608 -31.608  1.00  0.00     0.211 HD
ENDBRANCH   4  11
BRANCH   6  13
ATOM     13  O   UNL     1     -60.240 -41.443 -32.465  1.00  0.00    -0.387 OA
ATOM     14  H   UNL     1     -60.423 -42.370 -32.173  1.00  0.00     0.211 HD
ENDBRANCH   6  13
BRANCH   7  15
ATOM     15  O   UNL     1     -60.377 -39.371 -34.191  1.00  0.00    -0.384 OA
ATOM     16  H   UNL     1     -60.535 -38.392 -34.230  1.00  0.00     0.211 HD
ENDBRANCH   7  15
ENDBRANCH   1   2
BRANCH   1  17
ATOM     17  C   UNL     1     -61.271 -42.977 -36.104  1.00  0.00     0.172 A 
ATOM     18  C   UNL     1     -60.731 -44.139 -35.525  1.00  0.00     0.201 A 
ATOM     19  C   UNL     1     -61.997 -43.078 -37.303  1.00  0.00     0.098 A 
ATOM     20  C   UNL     1     -60.917 -45.395 -36.136  1.00  0.00     0.176 A 
ATOM     21  C   UNL     1     -62.189 -44.316 -37.917  1.00  0.00     0.146 A 
ATOM     22  C   UNL     1     -61.652 -45.489 -37.340  1.00  0.00     0.111 A 
ATOM     23  O   UNL     1     -62.883 -44.375 -39.049  1.00  0.00    -0.456 OA
ATOM     24  C   UNL     1     -61.887 -46.710 -38.007  1.00  0.00     0.197 A 
ATOM     25  C   UNL     1     -63.115 -45.508 -39.708  1.00  0.00     0.138 A 
ATOM     26  C   UNL     1     -62.622 -46.718 -39.193  1.00  0.00     0.100 A 
ATOM     27  O   UNL     1     -61.449 -47.802 -37.554  1.00  0.00    -0.289 OA
BRANCH  18  28
ATOM     28  O   UNL     1     -60.001 -44.060 -34.337  1.00  0.00    -0.502 OA
ATOM     29  H   UNL     1     -59.935 -44.834 -33.687  1.00  0.00     0.293 HD
ENDBRANCH  18  28
BRANCH  20  30
ATOM     30  O   UNL     1     -60.373 -46.540 -35.551  1.00  0.00    -0.504 OA
ATOM     31  H   UNL     1     -60.560 -46.802 -34.590  1.00  0.00     0.293 HD
ENDBRANCH  20  30
BRANCH  25  32
ATOM     32  C   UNL     1     -63.905 -45.455 -40.963  1.00  0.00     0.017 A 
ATOM     33  C   UNL     1     -63.329 -45.752 -42.215  1.00  0.00     0.012 A 
ATOM     34  C   UNL     1     -65.258 -45.068 -40.914  1.00  0.00     0.012 A 
ATOM     35  C   UNL     1     -64.098 -45.683 -43.382  1.00  0.00     0.001 A 
ATOM     36  C   UNL     1     -66.020 -45.002 -42.083  1.00  0.00     0.001 A 
ATOM     37  C   UNL     1     -65.442 -45.313 -43.316  1.00  0.00     0.000 A 
ENDBRANCH  25  32
ENDBRANCH   1  17
TORSDOF 9
ENDMDL
