MODEL 1
REMARK VINA RESULT:    -6.093      0.000      0.000
REMARK INTER + INTRA:         -11.208
REMARK INTER:                  -9.298
REMARK INTRA:                  -1.910
REMARK UNBOUND:                -1.910
REMARK SMILES CC(=O)CCC=C(C)CCC=C(C)CCC=C(C)C
REMARK SMILES IDX 10 1 11 2 12 3 13 4 14 5 15 6 16 7 18 8 17 9 19 10 9 11 7 12
REMARK SMILES IDX 6 13 8 14 5 15 4 16 2 17 3 18 1 19
REMARK H PARENT
REMARK Flexibility Score: inf
ROOT
ATOM      1  C   UNL     1      14.792 -34.145  20.102  1.00  0.00     0.032 C 
ENDROOT
BRANCH   1   2
ATOM      2  C   UNL     1      15.536 -35.452  19.946  1.00  0.00    -0.028 C 
ATOM      3  C   UNL     1      16.820 -35.579  19.540  1.00  0.00    -0.077 C 
ATOM      4  C   UNL     1      17.423 -36.960  19.505  1.00  0.00     0.039 C 
BRANCH   3   5
ATOM      5  C   UNL     1      17.673 -34.401  19.110  1.00  0.00     0.034 C 
BRANCH   5   6
ATOM      6  C   UNL     1      18.324 -33.726  20.322  1.00  0.00     0.032 C 
BRANCH   6   7
ATOM      7  C   UNL     1      18.010 -32.250  20.359  1.00  0.00    -0.028 C 
ATOM      8  C   UNL     1      18.317 -32.157  22.836  1.00  0.00     0.039 C 
ATOM      9  C   UNL     1      18.020 -31.525  21.499  1.00  0.00    -0.080 C 
ATOM     10  C   UNL     1      17.687 -30.056  21.461  1.00  0.00     0.039 C 
ENDBRANCH   6   7
ENDBRANCH   5   6
ENDBRANCH   3   5
ENDBRANCH   1   2
BRANCH   1  11
ATOM     11  C   UNL     1      14.798 -33.663  21.558  1.00  0.00     0.034 C 
BRANCH  11  12
ATOM     12  C   UNL     1      14.245 -32.260  21.692  1.00  0.00    -0.077 C 
ATOM     13  C   UNL     1      14.615 -31.501  22.747  1.00  0.00    -0.028 C 
ATOM     14  C   UNL     1      13.318 -31.739  20.618  1.00  0.00     0.039 C 
BRANCH  13  15
ATOM     15  C   UNL     1      14.198 -30.062  22.957  1.00  0.00     0.035 C 
BRANCH  15  16
ATOM     16  C   UNL     1      13.013 -29.969  23.926  1.00  0.00     0.079 C 
BRANCH  16  17
ATOM     17  C   UNL     1      12.429 -28.578  23.946  1.00  0.00     0.130 C 
ATOM     18  O   UNL     1      13.003 -27.693  24.562  1.00  0.00    -0.300 OA
ATOM     19  C   UNL     1      11.159 -28.257  23.218  1.00  0.00     0.087 C 
ENDBRANCH  16  17
ENDBRANCH  15  16
ENDBRANCH  13  15
ENDBRANCH  11  12
ENDBRANCH   1  11
TORSDOF 9
ENDMDL
MODEL 2
REMARK VINA RESULT:    -6.020      2.557      6.532
REMARK INTER + INTRA:         -11.097
REMARK INTER:                  -8.608
REMARK INTRA:                  -2.490
REMARK UNBOUND:                -1.910
REMARK SMILES CC(=O)CCC=C(C)CCC=C(C)CCC=C(C)C
REMARK SMILES IDX 10 1 11 2 12 3 13 4 14 5 15 6 16 7 18 8 17 9 19 10 9 11 7 12
REMARK SMILES IDX 6 13 8 14 5 15 4 16 2 17 3 18 1 19
REMARK H PARENT
REMARK Flexibility Score: inf
ROOT
ATOM      1  C   UNL     1      15.685 -30.269  21.549  1.00  0.00     0.032 C 
ENDROOT
BRANCH   1   2
ATOM      2  C   UNL     1      14.674 -29.597  22.449  1.00  0.00    -0.028 C 
ATOM      3  C   UNL     1      13.690 -30.229  23.132  1.00  0.00    -0.077 C 
ATOM      4  C   UNL     1      12.810 -29.407  24.037  1.00  0.00     0.039 C 
BRANCH   3   5
ATOM      5  C   UNL     1      13.430 -31.719  23.018  1.00  0.00     0.034 C 
BRANCH   5   6
ATOM      6  C   UNL     1      14.261 -32.499  24.043  1.00  0.00     0.032 C 
BRANCH   6   7
ATOM      7  C   UNL     1      15.013 -33.631  23.387  1.00  0.00    -0.028 C 
ATOM      8  C   UNL     1      16.993 -33.293  24.871  1.00  0.00     0.039 C 
ATOM      9  C   UNL     1      16.253 -34.009  23.770  1.00  0.00    -0.080 C 
ATOM     10  C   UNL     1      16.947 -35.144  23.061  1.00  0.00     0.039 C 
ENDBRANCH   6   7
ENDBRANCH   5   6
ENDBRANCH   3   5
ENDBRANCH   1   2
BRANCH   1  11
ATOM     11  C   UNL     1      17.047 -30.412  22.240  1.00  0.00     0.034 C 
BRANCH  11  12
ATOM     12  C   UNL     1      17.878 -31.520  21.627  1.00  0.00    -0.077 C 
ATOM     13  C   UNL     1      17.313 -32.343  20.717  1.00  0.00    -0.028 C 
ATOM     14  C   UNL     1      19.328 -31.649  22.031  1.00  0.00     0.039 C 
BRANCH  13  15
ATOM     15  C   UNL     1      18.050 -33.436  19.974  1.00  0.00     0.035 C 
BRANCH  15  16
ATOM     16  C   UNL     1      17.158 -34.071  18.901  1.00  0.00     0.079 C 
BRANCH  16  17
ATOM     17  C   UNL     1      16.431 -35.280  19.436  1.00  0.00     0.130 C 
ATOM     18  O   UNL     1      15.304 -35.155  19.888  1.00  0.00    -0.300 OA
ATOM     19  C   UNL     1      17.064 -36.639  19.415  1.00  0.00     0.087 C 
ENDBRANCH  16  17
ENDBRANCH  15  16
ENDBRANCH  13  15
ENDBRANCH  11  12
ENDBRANCH   1  11
TORSDOF 9
ENDMDL
MODEL 3
REMARK VINA RESULT:    -5.851      2.725      6.262
REMARK INTER + INTRA:         -10.839
REMARK INTER:                  -8.475
REMARK INTRA:                  -2.364
REMARK UNBOUND:                -1.910
REMARK SMILES CC(=O)CCC=C(C)CCC=C(C)CCC=C(C)C
REMARK SMILES IDX 10 1 11 2 12 3 13 4 14 5 15 6 16 7 18 8 17 9 19 10 9 11 7 12
REMARK SMILES IDX 6 13 8 14 5 15 4 16 2 17 3 18 1 19
REMARK H PARENT
REMARK Flexibility Score: inf
ROOT
ATOM      1  C   UNL     1      13.324 -31.856  23.054  1.00  0.00     0.032 C 
ENDROOT
BRANCH   1   2
ATOM      2  C   UNL     1      13.179 -30.428  23.525  1.00  0.00    -0.028 C 
ATOM      3  C   UNL     1      13.768 -29.350  22.955  1.00  0.00    -0.077 C 
ATOM      4  C   UNL     1      13.459 -27.988  23.519  1.00  0.00     0.039 C 
BRANCH   3   5
ATOM      5  C   UNL     1      14.729 -29.455  21.786  1.00  0.00     0.034 C 
BRANCH   5   6
ATOM      6  C   UNL     1      16.180 -29.506  22.275  1.00  0.00     0.032 C 
BRANCH   6   7
ATOM      7  C   UNL     1      17.019 -30.404  21.398  1.00  0.00    -0.028 C 
ATOM      8  C   UNL     1      18.202 -31.375  23.371  1.00  0.00     0.039 C 
ATOM      9  C   UNL     1      17.932 -31.270  21.891  1.00  0.00    -0.080 C 
ATOM     10  C   UNL     1      18.741 -32.128  20.953  1.00  0.00     0.039 C 
ENDBRANCH   6   7
ENDBRANCH   5   6
ENDBRANCH   3   5
ENDBRANCH   1   2
BRANCH   1  11
ATOM     11  C   UNL     1      14.551 -32.534  23.678  1.00  0.00     0.034 C 
BRANCH  11  12
ATOM     12  C   UNL     1      15.125 -33.606  22.776  1.00  0.00    -0.077 C 
ATOM     13  C   UNL     1      14.629 -33.755  21.527  1.00  0.00    -0.028 C 
ATOM     14  C   UNL     1      16.262 -34.457  23.290  1.00  0.00     0.039 C 
BRANCH  13  15
ATOM     15  C   UNL     1      15.163 -34.731  20.502  1.00  0.00     0.035 C 
BRANCH  15  16
ATOM     16  C   UNL     1      16.294 -34.102  19.680  1.00  0.00     0.079 C 
BRANCH  16  17
ATOM     17  C   UNL     1      17.314 -35.134  19.270  1.00  0.00     0.130 C 
ATOM     18  O   UNL     1      18.272 -34.798  18.592  1.00  0.00    -0.300 OA
ATOM     19  C   UNL     1      17.181 -36.568  19.687  1.00  0.00     0.087 C 
ENDBRANCH  16  17
ENDBRANCH  15  16
ENDBRANCH  13  15
ENDBRANCH  11  12
ENDBRANCH   1  11
TORSDOF 9
ENDMDL
MODEL 4
REMARK VINA RESULT:    -5.839      2.917      6.169
REMARK INTER + INTRA:         -10.821
REMARK INTER:                  -7.661
REMARK INTRA:                  -3.160
REMARK UNBOUND:                -1.910
REMARK SMILES CC(=O)CCC=C(C)CCC=C(C)CCC=C(C)C
REMARK SMILES IDX 10 1 11 2 12 3 13 4 14 5 15 6 16 7 18 8 17 9 19 10 9 11 7 12
REMARK SMILES IDX 6 13 8 14 5 15 4 16 2 17 3 18 1 19
REMARK H PARENT
REMARK Flexibility Score: inf
ROOT
ATOM      1  C   UNL     1      16.180 -29.789  21.946  1.00  0.00     0.032 C 
ENDROOT
BRANCH   1   2
ATOM      2  C   UNL     1      14.706 -29.945  21.647  1.00  0.00    -0.028 C 
ATOM      3  C   UNL     1      13.807 -30.571  22.442  1.00  0.00    -0.077 C 
ATOM      4  C   UNL     1      12.362 -30.576  22.017  1.00  0.00     0.039 C 
BRANCH   3   5
ATOM      5  C   UNL     1      14.190 -31.274  23.731  1.00  0.00     0.034 C 
BRANCH   5   6
ATOM      6  C   UNL     1      13.820 -32.760  23.674  1.00  0.00     0.032 C 
BRANCH   6   7
ATOM      7  C   UNL     1      15.036 -33.616  23.415  1.00  0.00    -0.028 C 
ATOM      8  C   UNL     1      14.565 -33.697  20.964  1.00  0.00     0.039 C 
ATOM      9  C   UNL     1      15.391 -34.034  22.180  1.00  0.00    -0.080 C 
ATOM     10  C   UNL     1      16.614 -34.895  21.998  1.00  0.00     0.039 C 
ENDBRANCH   6   7
ENDBRANCH   5   6
ENDBRANCH   3   5
ENDBRANCH   1   2
BRANCH   1  11
ATOM     11  C   UNL     1      17.011 -30.890  21.275  1.00  0.00     0.034 C 
BRANCH  11  12
ATOM     12  C   UNL     1      18.041 -31.475  22.218  1.00  0.00    -0.077 C 
ATOM     13  C   UNL     1      17.889 -31.306  23.550  1.00  0.00    -0.028 C 
ATOM     14  C   UNL     1      19.192 -32.262  21.639  1.00  0.00     0.039 C 
BRANCH  13  15
ATOM     15  C   UNL     1      18.799 -31.902  24.600  1.00  0.00     0.035 C 
BRANCH  15  16
ATOM     16  C   UNL     1      18.031 -32.868  25.510  1.00  0.00     0.079 C 
BRANCH  16  17
ATOM     17  C   UNL     1      18.422 -34.301  25.244  1.00  0.00     0.130 C 
ATOM     18  O   UNL     1      19.525 -34.548  24.783  1.00  0.00    -0.300 OA
ATOM     19  C   UNL     1      17.484 -35.431  25.544  1.00  0.00     0.087 C 
ENDBRANCH  16  17
ENDBRANCH  15  16
ENDBRANCH  13  15
ENDBRANCH  11  12
ENDBRANCH   1  11
TORSDOF 9
ENDMDL
MODEL 5
REMARK VINA RESULT:    -5.826      2.805      5.838
REMARK INTER + INTRA:         -10.801
REMARK INTER:                  -8.097
REMARK INTRA:                  -2.705
REMARK UNBOUND:                -1.910
REMARK SMILES CC(=O)CCC=C(C)CCC=C(C)CCC=C(C)C
REMARK SMILES IDX 10 1 11 2 12 3 13 4 14 5 15 6 16 7 18 8 17 9 19 10 9 11 7 12
REMARK SMILES IDX 6 13 8 14 5 15 4 16 2 17 3 18 1 19
REMARK H PARENT
REMARK Flexibility Score: inf
ROOT
ATOM      1  C   UNL     1      14.616 -33.647  23.773  1.00  0.00     0.032 C 
ENDROOT
BRANCH   1   2
ATOM      2  C   UNL     1      14.063 -32.262  24.015  1.00  0.00    -0.028 C 
ATOM      3  C   UNL     1      14.020 -31.264  23.101  1.00  0.00    -0.077 C 
ATOM      4  C   UNL     1      13.372 -29.963  23.496  1.00  0.00     0.039 C 
BRANCH   3   5
ATOM      5  C   UNL     1      14.604 -31.394  21.707  1.00  0.00     0.034 C 
BRANCH   5   6
ATOM      6  C   UNL     1      15.873 -30.547  21.564  1.00  0.00     0.032 C 
BRANCH   6   7
ATOM      7  C   UNL     1      17.006 -31.357  20.982  1.00  0.00    -0.028 C 
ATOM      8  C   UNL     1      18.239 -31.357  23.154  1.00  0.00     0.039 C 
ATOM      9  C   UNL     1      18.080 -31.743  21.705  1.00  0.00    -0.080 C 
ATOM     10  C   UNL     1      19.179 -32.543  21.053  1.00  0.00     0.039 C 
ENDBRANCH   6   7
ENDBRANCH   5   6
ENDBRANCH   3   5
ENDBRANCH   1   2
BRANCH   1  11
ATOM     11  C   UNL     1      15.974 -33.839  24.461  1.00  0.00     0.034 C 
BRANCH  11  12
ATOM     12  C   UNL     1      16.917 -34.679  23.625  1.00  0.00    -0.077 C 
ATOM     13  C   UNL     1      16.573 -34.996  22.357  1.00  0.00    -0.028 C 
ATOM     14  C   UNL     1      18.234 -35.109  24.227  1.00  0.00     0.039 C 
BRANCH  13  15
ATOM     15  C   UNL     1      17.455 -35.760  21.394  1.00  0.00     0.035 C 
BRANCH  15  16
ATOM     16  C   UNL     1      16.720 -36.038  20.078  1.00  0.00     0.079 C 
BRANCH  16  17
ATOM     17  C   UNL     1      16.260 -34.758  19.424  1.00  0.00     0.130 C 
ATOM     18  O   UNL     1      17.030 -34.140  18.705  1.00  0.00    -0.300 OA
ATOM     19  C   UNL     1      14.872 -34.233  19.633  1.00  0.00     0.087 C 
ENDBRANCH  16  17
ENDBRANCH  15  16
ENDBRANCH  13  15
ENDBRANCH  11  12
ENDBRANCH   1  11
TORSDOF 9
ENDMDL
MODEL 6
REMARK VINA RESULT:    -5.751      1.905      3.130
REMARK INTER + INTRA:         -10.686
REMARK INTER:                  -8.255
REMARK INTRA:                  -2.432
REMARK UNBOUND:                -1.910
REMARK SMILES CC(=O)CCC=C(C)CCC=C(C)CCC=C(C)C
REMARK SMILES IDX 10 1 11 2 12 3 13 4 14 5 15 6 16 7 18 8 17 9 19 10 9 11 7 12
REMARK SMILES IDX 6 13 8 14 5 15 4 16 2 17 3 18 1 19
REMARK H PARENT
REMARK Flexibility Score: inf
ROOT
ATOM      1  C   UNL     1      16.464 -33.810  24.408  1.00  0.00     0.032 C 
ENDROOT
BRANCH   1   2
ATOM      2  C   UNL     1      17.120 -35.060  23.865  1.00  0.00    -0.028 C 
ATOM      3  C   UNL     1      18.090 -35.089  22.921  1.00  0.00    -0.077 C 
ATOM      4  C   UNL     1      18.678 -36.425  22.545  1.00  0.00     0.039 C 
BRANCH   3   5
ATOM      5  C   UNL     1      18.601 -33.845  22.221  1.00  0.00     0.034 C 
BRANCH   5   6
ATOM      6  C   UNL     1      18.245 -33.871  20.731  1.00  0.00     0.032 C 
BRANCH   6   7
ATOM      7  C   UNL     1      16.819 -33.433  20.503  1.00  0.00    -0.028 C 
ATOM      8  C   UNL     1      16.129 -35.735  19.821  1.00  0.00     0.039 C 
ATOM      9  C   UNL     1      15.845 -34.281  20.103  1.00  0.00    -0.080 C 
ATOM     10  C   UNL     1      14.443 -33.770  19.886  1.00  0.00     0.039 C 
ENDBRANCH   6   7
ENDBRANCH   5   6
ENDBRANCH   3   5
ENDBRANCH   1   2
BRANCH   1  11
ATOM     11  C   UNL     1      15.072 -33.596  23.800  1.00  0.00     0.034 C 
BRANCH  11  12
ATOM     12  C   UNL     1      14.890 -32.183  23.289  1.00  0.00    -0.077 C 
ATOM     13  C   UNL     1      13.697 -31.815  22.771  1.00  0.00    -0.028 C 
ATOM     14  C   UNL     1      16.043 -31.213  23.405  1.00  0.00     0.039 C 
BRANCH  13  15
ATOM     15  C   UNL     1      13.360 -30.419  22.298  1.00  0.00     0.035 C 
BRANCH  15  16
ATOM     16  C   UNL     1      11.894 -30.078  22.590  1.00  0.00     0.079 C 
BRANCH  16  17
ATOM     17  C   UNL     1      11.767 -28.734  23.263  1.00  0.00     0.130 C 
ATOM     18  O   UNL     1      10.934 -27.935  22.861  1.00  0.00    -0.300 OA
ATOM     19  C   UNL     1      12.638 -28.360  24.424  1.00  0.00     0.087 C 
ENDBRANCH  16  17
ENDBRANCH  15  16
ENDBRANCH  13  15
ENDBRANCH  11  12
ENDBRANCH   1  11
TORSDOF 9
ENDMDL
MODEL 7
REMARK VINA RESULT:    -5.679      2.577      5.692
REMARK INTER + INTRA:         -10.577
REMARK INTER:                  -7.595
REMARK INTRA:                  -2.983
REMARK UNBOUND:                -1.910
REMARK SMILES CC(=O)CCC=C(C)CCC=C(C)CCC=C(C)C
REMARK SMILES IDX 10 1 11 2 12 3 13 4 14 5 15 6 16 7 18 8 17 9 19 10 9 11 7 12
REMARK SMILES IDX 6 13 8 14 5 15 4 16 2 17 3 18 1 19
REMARK H PARENT
REMARK Flexibility Score: inf
ROOT
ATOM      1  C   UNL     1      14.193 -32.851  19.802  1.00  0.00     0.032 C 
ENDROOT
BRANCH   1   2
ATOM      2  C   UNL     1      13.123 -32.125  20.584  1.00  0.00    -0.028 C 
ATOM      3  C   UNL     1      13.318 -31.019  21.340  1.00  0.00    -0.077 C 
ATOM      4  C   UNL     1      12.120 -30.386  22.000  1.00  0.00     0.039 C 
BRANCH   3   5
ATOM      5  C   UNL     1      14.684 -30.397  21.559  1.00  0.00     0.034 C 
BRANCH   5   6
ATOM      6  C   UNL     1      15.080 -30.454  23.038  1.00  0.00     0.032 C 
BRANCH   6   7
ATOM      7  C   UNL     1      15.881 -31.697  23.341  1.00  0.00    -0.028 C 
ATOM      8  C   UNL     1      13.876 -32.876  24.250  1.00  0.00     0.039 C 
ATOM      9  C   UNL     1      15.336 -32.811  23.878  1.00  0.00    -0.080 C 
ATOM     10  C   UNL     1      16.201 -34.012  24.162  1.00  0.00     0.039 C 
ENDBRANCH   6   7
ENDBRANCH   5   6
ENDBRANCH   3   5
ENDBRANCH   1   2
BRANCH   1  11
ATOM     11  C   UNL     1      14.636 -34.136  20.514  1.00  0.00     0.034 C 
BRANCH  11  12
ATOM     12  C   UNL     1      16.140 -34.312  20.477  1.00  0.00    -0.077 C 
ATOM     13  C   UNL     1      16.930 -33.224  20.344  1.00  0.00    -0.028 C 
ATOM     14  C   UNL     1      16.713 -35.702  20.625  1.00  0.00     0.039 C 
BRANCH  13  15
ATOM     15  C   UNL     1      18.442 -33.253  20.371  1.00  0.00     0.035 C 
BRANCH  15  16
ATOM     16  C   UNL     1      18.985 -32.514  21.600  1.00  0.00     0.079 C 
BRANCH  16  17
ATOM     17  C   UNL     1      19.547 -31.165  21.225  1.00  0.00     0.130 C 
ATOM     18  O   UNL     1      20.718 -31.073  20.889  1.00  0.00    -0.300 OA
ATOM     19  C   UNL     1      18.694 -29.932  21.250  1.00  0.00     0.087 C 
ENDBRANCH  16  17
ENDBRANCH  15  16
ENDBRANCH  13  15
ENDBRANCH  11  12
ENDBRANCH   1  11
TORSDOF 9
ENDMDL
MODEL 8
REMARK VINA RESULT:    -5.602      2.857      6.028
REMARK INTER + INTRA:         -10.460
REMARK INTER:                  -8.072
REMARK INTRA:                  -2.387
REMARK UNBOUND:                -1.910
REMARK SMILES CC(=O)CCC=C(C)CCC=C(C)CCC=C(C)C
REMARK SMILES IDX 10 1 11 2 12 3 13 4 14 5 15 6 16 7 18 8 17 9 19 10 9 11 7 12
REMARK SMILES IDX 6 13 8 14 5 15 4 16 2 17 3 18 1 19
REMARK H PARENT
REMARK Flexibility Score: inf
ROOT
ATOM      1  C   UNL     1      16.288 -30.897  22.698  1.00  0.00     0.032 C 
ENDROOT
BRANCH   1   2
ATOM      2  C   UNL     1      14.938 -30.704  22.047  1.00  0.00    -0.028 C 
ATOM      3  C   UNL     1      14.140 -31.696  21.586  1.00  0.00    -0.077 C 
ATOM      4  C   UNL     1      12.793 -31.323  21.022  1.00  0.00     0.039 C 
BRANCH   3   5
ATOM      5  C   UNL     1      14.545 -33.157  21.601  1.00  0.00     0.034 C 
BRANCH   5   6
ATOM      6  C   UNL     1      14.611 -33.721  20.178  1.00  0.00     0.032 C 
BRANCH   6   7
ATOM      7  C   UNL     1      15.276 -35.076  20.158  1.00  0.00    -0.028 C 
ATOM      8  C   UNL     1      17.213 -34.205  18.845  1.00  0.00     0.039 C 
ATOM      9  C   UNL     1      16.470 -35.301  19.566  1.00  0.00    -0.080 C 
ATOM     10  C   UNL     1      17.069 -36.684  19.578  1.00  0.00     0.039 C 
ENDBRANCH   6   7
ENDBRANCH   5   6
ENDBRANCH   3   5
ENDBRANCH   1   2
BRANCH   1  11
ATOM     11  C   UNL     1      17.427 -30.796  21.676  1.00  0.00     0.034 C 
BRANCH  11  12
ATOM     12  C   UNL     1      18.311 -32.025  21.691  1.00  0.00    -0.077 C 
ATOM     13  C   UNL     1      17.935 -33.101  22.418  1.00  0.00    -0.028 C 
ATOM     14  C   UNL     1      19.574 -32.022  20.864  1.00  0.00     0.039 C 
BRANCH  13  15
ATOM     15  C   UNL     1      18.684 -34.414  22.458  1.00  0.00     0.035 C 
BRANCH  15  16
ATOM     16  C   UNL     1      17.804 -35.533  23.026  1.00  0.00     0.079 C 
BRANCH  16  17
ATOM     17  C   UNL     1      17.664 -35.415  24.524  1.00  0.00     0.130 C 
ATOM     18  O   UNL     1      18.520 -35.899  25.248  1.00  0.00    -0.300 OA
ATOM     19  C   UNL     1      16.497 -34.705  25.142  1.00  0.00     0.087 C 
ENDBRANCH  16  17
ENDBRANCH  15  16
ENDBRANCH  13  15
ENDBRANCH  11  12
ENDBRANCH   1  11
TORSDOF 9
ENDMDL
MODEL 9
REMARK VINA RESULT:    -5.572      1.937      2.768
REMARK INTER + INTRA:         -10.413
REMARK INTER:                  -8.092
REMARK INTRA:                  -2.321
REMARK UNBOUND:                -1.910
REMARK SMILES CC(=O)CCC=C(C)CCC=C(C)CCC=C(C)C
REMARK SMILES IDX 10 1 11 2 12 3 13 4 14 5 15 6 16 7 18 8 17 9 19 10 9 11 7 12
REMARK SMILES IDX 6 13 8 14 5 15 4 16 2 17 3 18 1 19
REMARK H PARENT
REMARK Flexibility Score: inf
ROOT
ATOM      1  C   UNL     1      18.412 -35.088  23.306  1.00  0.00     0.032 C 
ENDROOT
BRANCH   1   2
ATOM      2  C   UNL     1      18.275 -36.249  22.349  1.00  0.00    -0.028 C 
ATOM      3  C   UNL     1      17.589 -36.227  21.182  1.00  0.00    -0.077 C 
ATOM      4  C   UNL     1      17.613 -37.461  20.317  1.00  0.00     0.039 C 
BRANCH   3   5
ATOM      5  C   UNL     1      16.793 -35.024  20.713  1.00  0.00     0.034 C 
BRANCH   5   6
ATOM      6  C   UNL     1      17.681 -34.052  19.929  1.00  0.00     0.032 C 
BRANCH   6   7
ATOM      7  C   UNL     1      17.381 -32.619  20.298  1.00  0.00    -0.028 C 
ATOM      8  C   UNL     1      19.644 -32.314  21.310  1.00  0.00     0.039 C 
ATOM      9  C   UNL     1      18.276 -31.816  20.914  1.00  0.00    -0.080 C 
ATOM     10  C   UNL     1      17.903 -30.398  21.261  1.00  0.00     0.039 C 
ENDBRANCH   6   7
ENDBRANCH   5   6
ENDBRANCH   3   5
ENDBRANCH   1   2
BRANCH   1  11
ATOM     11  C   UNL     1      17.095 -34.804  24.040  1.00  0.00     0.034 C 
BRANCH  11  12
ATOM     12  C   UNL     1      16.733 -33.334  24.003  1.00  0.00    -0.077 C 
ATOM     13  C   UNL     1      15.545 -32.959  23.481  1.00  0.00    -0.028 C 
ATOM     14  C   UNL     1      17.702 -32.332  24.586  1.00  0.00     0.039 C 
BRANCH  13  15
ATOM     15  C   UNL     1      15.030 -31.537  23.454  1.00  0.00     0.035 C 
BRANCH  15  16
ATOM     16  C   UNL     1      13.535 -31.487  23.793  1.00  0.00     0.079 C 
BRANCH  16  17
ATOM     17  C   UNL     1      12.843 -30.364  23.062  1.00  0.00     0.130 C 
ATOM     18  O   UNL     1      12.294 -30.589  21.994  1.00  0.00    -0.300 OA
ATOM     19  C   UNL     1      12.809 -28.974  23.623  1.00  0.00     0.087 C 
ENDBRANCH  16  17
ENDBRANCH  15  16
ENDBRANCH  13  15
ENDBRANCH  11  12
ENDBRANCH   1  11
TORSDOF 9
ENDMDL
