MODEL 1
REMARK VINA RESULT:    -3.593      0.000      0.000
REMARK INTER + INTRA:          -5.393
REMARK INTER:                  -5.063
REMARK INTRA:                  -0.329
REMARK UNBOUND:                -0.329
REMARK SMILES C=CCCCCCCC(=O)[O-]
REMARK SMILES IDX 6 1 7 2 8 3 9 4 10 5 11 6 5 7 4 8 3 9 2 10 1 11
REMARK H PARENT
REMARK Flexibility Score: inf
ROOT
ATOM      1  C   UNL     1      61.354  31.502  60.404  1.00  0.00     0.000 C 
ENDROOT
BRANCH   1   2
ATOM      2  C   UNL     1      61.213  30.595  61.636  1.00  0.00     0.006 C 
BRANCH   2   3
ATOM      3  C   UNL     1      62.477  29.766  61.896  1.00  0.00     0.053 C 
BRANCH   3   4
ATOM      4  C   UNL     1      62.366  28.389  61.316  1.00  0.00     0.041 C 
ATOM      5  O   UNL     1      63.383  27.652  61.230  1.00  0.00    -0.550 OA
ATOM      6  O   UNL     1      61.132  27.908  60.899  1.00  0.00    -0.550 OA
ENDBRANCH   3   4
ENDBRANCH   2   3
ENDBRANCH   1   2
BRANCH   1   7
ATOM      7  C   UNL     1      62.427  32.576  60.634  1.00  0.00     0.000 C 
BRANCH   7   8
ATOM      8  C   UNL     1      61.886  34.003  60.452  1.00  0.00     0.004 C 
BRANCH   8   9
ATOM      9  C   UNL     1      62.830  35.071  61.025  1.00  0.00     0.027 C 
BRANCH   9  10
ATOM     10  C   UNL     1      64.191  34.497  61.309  1.00  0.00    -0.035 C 
ATOM     11  C   UNL     1      65.110  35.176  62.002  1.00  0.00     0.004 C 
ENDBRANCH   9  10
ENDBRANCH   8   9
ENDBRANCH   7   8
ENDBRANCH   1   7
TORSDOF 7
ENDMDL
MODEL 2
REMARK VINA RESULT:    -3.586     11.952     13.511
REMARK INTER + INTRA:          -5.382
REMARK INTER:                  -5.021
REMARK INTRA:                  -0.361
REMARK UNBOUND:                -0.329
REMARK SMILES C=CCCCCCCC(=O)[O-]
REMARK SMILES IDX 6 1 7 2 8 3 9 4 10 5 11 6 5 7 4 8 3 9 2 10 1 11
REMARK H PARENT
REMARK Flexibility Score: inf
ROOT
ATOM      1  C   UNL     1      58.420  28.669  50.781  1.00  0.00     0.000 C 
ENDROOT
BRANCH   1   2
ATOM      2  C   UNL     1      59.385  28.431  49.609  1.00  0.00     0.006 C 
BRANCH   2   3
ATOM      3  C   UNL     1      59.896  26.985  49.562  1.00  0.00     0.053 C 
BRANCH   3   4
ATOM      4  C   UNL     1      61.347  26.898  49.926  1.00  0.00     0.041 C 
ATOM      5  O   UNL     1      62.037  27.945  50.039  1.00  0.00    -0.550 OA
ATOM      6  O   UNL     1      61.929  25.662  50.172  1.00  0.00    -0.550 OA
ENDBRANCH   3   4
ENDBRANCH   2   3
ENDBRANCH   1   2
BRANCH   1   7
ATOM      7  C   UNL     1      57.286  27.633  50.777  1.00  0.00     0.000 C 
BRANCH   7   8
ATOM      8  C   UNL     1      55.892  28.280  50.759  1.00  0.00     0.004 C 
BRANCH   8   9
ATOM      9  C   UNL     1      54.777  27.273  50.437  1.00  0.00     0.027 C 
BRANCH   9  10
ATOM     10  C   UNL     1      55.348  25.957  49.984  1.00  0.00    -0.035 C 
ATOM     11  C   UNL     1      54.568  24.972  49.529  1.00  0.00     0.004 C 
ENDBRANCH   9  10
ENDBRANCH   8   9
ENDBRANCH   7   8
ENDBRANCH   1   7
TORSDOF 7
ENDMDL
MODEL 3
REMARK VINA RESULT:    -3.563     12.032     13.747
REMARK INTER + INTRA:          -5.351
REMARK INTER:                  -5.010
REMARK INTRA:                  -0.340
REMARK UNBOUND:                -0.329
REMARK SMILES C=CCCCCCCC(=O)[O-]
REMARK SMILES IDX 6 1 7 2 8 3 9 4 10 5 11 6 5 7 4 8 3 9 2 10 1 11
REMARK H PARENT
REMARK Flexibility Score: inf
ROOT
ATOM      1  C   UNL     1      57.264  27.739  50.757  1.00  0.00     0.000 C 
ENDROOT
BRANCH   1   2
ATOM      2  C   UNL     1      58.521  28.621  50.723  1.00  0.00     0.006 C 
BRANCH   2   3
ATOM      3  C   UNL     1      59.367  28.379  49.467  1.00  0.00     0.053 C 
BRANCH   3   4
ATOM      4  C   UNL     1      60.381  27.296  49.681  1.00  0.00     0.041 C 
ATOM      5  O   UNL     1      60.055  26.087  49.553  1.00  0.00    -0.550 OA
ATOM      6  O   UNL     1      61.694  27.626  49.992  1.00  0.00    -0.550 OA
ENDBRANCH   3   4
ENDBRANCH   2   3
ENDBRANCH   1   2
BRANCH   1   7
ATOM      7  C   UNL     1      56.041  28.544  51.219  1.00  0.00     0.000 C 
BRANCH   7   8
ATOM      8  C   UNL     1      54.786  27.672  51.387  1.00  0.00     0.004 C 
BRANCH   8   9
ATOM      9  C   UNL     1      54.032  27.460  50.065  1.00  0.00     0.027 C 
BRANCH   9  10
ATOM     10  C   UNL     1      53.807  25.997  49.796  1.00  0.00    -0.035 C 
ATOM     11  C   UNL     1      54.817  25.174  49.496  1.00  0.00     0.004 C 
ENDBRANCH   9  10
ENDBRANCH   8   9
ENDBRANCH   7   8
ENDBRANCH   1   7
TORSDOF 7
ENDMDL
MODEL 4
REMARK VINA RESULT:    -3.400      1.541      1.834
REMARK INTER + INTRA:          -5.121
REMARK INTER:                  -4.639
REMARK INTRA:                  -0.482
REMARK UNBOUND:                -0.329
REMARK SMILES C=CCCCCCCC(=O)[O-]
REMARK SMILES IDX 6 1 7 2 8 3 9 4 10 5 11 6 5 7 4 8 3 9 2 10 1 11
REMARK H PARENT
REMARK Flexibility Score: inf
ROOT
ATOM      1  C   UNL     1      61.448  32.053  60.384  1.00  0.00     0.000 C 
ENDROOT
BRANCH   1   2
ATOM      2  C   UNL     1      62.266  30.861  60.904  1.00  0.00     0.006 C 
BRANCH   2   3
ATOM      3  C   UNL     1      63.768  31.170  60.964  1.00  0.00     0.053 C 
BRANCH   3   4
ATOM      4  C   UNL     1      64.595  29.925  60.854  1.00  0.00     0.041 C 
ATOM      5  O   UNL     1      65.733  29.965  60.319  1.00  0.00    -0.550 OA
ATOM      6  O   UNL     1      64.119  28.727  61.371  1.00  0.00    -0.550 OA
ENDBRANCH   3   4
ENDBRANCH   2   3
ENDBRANCH   1   2
BRANCH   1   7
ATOM      7  C   UNL     1      62.358  33.249  60.070  1.00  0.00     0.000 C 
BRANCH   7   8
ATOM      8  C   UNL     1      61.811  34.573  60.627  1.00  0.00     0.004 C 
BRANCH   8   9
ATOM      9  C   UNL     1      62.918  35.485  61.178  1.00  0.00     0.027 C 
BRANCH   9  10
ATOM     10  C   UNL     1      64.205  34.729  61.358  1.00  0.00    -0.035 C 
ATOM     11  C   UNL     1      65.242  35.252  62.019  1.00  0.00     0.004 C 
ENDBRANCH   9  10
ENDBRANCH   8   9
ENDBRANCH   7   8
ENDBRANCH   1   7
TORSDOF 7
ENDMDL
MODEL 5
REMARK VINA RESULT:    -3.346     11.726     13.404
REMARK INTER + INTRA:          -5.045
REMARK INTER:                  -4.621
REMARK INTRA:                  -0.424
REMARK UNBOUND:                -0.329
REMARK SMILES C=CCCCCCCC(=O)[O-]
REMARK SMILES IDX 6 1 7 2 8 3 9 4 10 5 11 6 5 7 4 8 3 9 2 10 1 11
REMARK H PARENT
REMARK Flexibility Score: inf
ROOT
ATOM      1  C   UNL     1      57.985  28.099  51.694  1.00  0.00     0.000 C 
ENDROOT
BRANCH   1   2
ATOM      2  C   UNL     1      59.165  28.823  51.027  1.00  0.00     0.006 C 
BRANCH   2   3
ATOM      3  C   UNL     1      59.425  28.318  49.602  1.00  0.00     0.053 C 
BRANCH   3   4
ATOM      4  C   UNL     1      60.268  27.080  49.598  1.00  0.00     0.041 C 
ATOM      5  O   UNL     1      59.727  25.944  49.579  1.00  0.00    -0.550 OA
ATOM      6  O   UNL     1      61.653  27.182  49.582  1.00  0.00    -0.550 OA
ENDBRANCH   3   4
ENDBRANCH   2   3
ENDBRANCH   1   2
BRANCH   1   7
ATOM      7  C   UNL     1      56.745  28.121  50.789  1.00  0.00     0.000 C 
BRANCH   7   8
ATOM      8  C   UNL     1      56.149  26.722  50.565  1.00  0.00     0.004 C 
BRANCH   8   9
ATOM      9  C   UNL     1      54.686  26.771  50.095  1.00  0.00     0.027 C 
BRANCH   9  10
ATOM     10  C   UNL     1      53.887  27.752  50.910  1.00  0.00    -0.035 C 
ATOM     11  C   UNL     1      53.074  28.644  50.337  1.00  0.00     0.004 C 
ENDBRANCH   9  10
ENDBRANCH   8   9
ENDBRANCH   7   8
ENDBRANCH   1   7
TORSDOF 7
ENDMDL
MODEL 6
REMARK VINA RESULT:    -3.340     12.805     13.812
REMARK INTER + INTRA:          -5.036
REMARK INTER:                  -4.618
REMARK INTRA:                  -0.417
REMARK UNBOUND:                -0.329
REMARK SMILES C=CCCCCCCC(=O)[O-]
REMARK SMILES IDX 6 1 7 2 8 3 9 4 10 5 11 6 5 7 4 8 3 9 2 10 1 11
REMARK H PARENT
REMARK Flexibility Score: inf
ROOT
ATOM      1  C   UNL     1      57.596  25.271  51.372  1.00  0.00     0.000 C 
ENDROOT
BRANCH   1   2
ATOM      2  C   UNL     1      58.155  25.946  50.110  1.00  0.00     0.006 C 
BRANCH   2   3
ATOM      3  C   UNL     1      59.676  25.789  49.991  1.00  0.00     0.053 C 
BRANCH   3   4
ATOM      4  C   UNL     1      60.341  27.084  49.634  1.00  0.00     0.041 C 
ATOM      5  O   UNL     1      61.597  27.168  49.615  1.00  0.00    -0.550 OA
ATOM      6  O   UNL     1      59.572  28.188  49.293  1.00  0.00    -0.550 OA
ENDBRANCH   3   4
ENDBRANCH   2   3
ENDBRANCH   1   2
BRANCH   1   7
ATOM      7  C   UNL     1      56.066  25.165  51.306  1.00  0.00     0.000 C 
BRANCH   7   8
ATOM      8  C   UNL     1      55.507  25.500  49.914  1.00  0.00     0.004 C 
BRANCH   8   9
ATOM      9  C   UNL     1      54.337  26.493  49.970  1.00  0.00     0.027 C 
BRANCH   9  10
ATOM     10  C   UNL     1      54.757  27.794  50.599  1.00  0.00    -0.035 C 
ATOM     11  C   UNL     1      53.944  28.853  50.635  1.00  0.00     0.004 C 
ENDBRANCH   9  10
ENDBRANCH   8   9
ENDBRANCH   7   8
ENDBRANCH   1   7
TORSDOF 7
ENDMDL
MODEL 7
REMARK VINA RESULT:    -3.332     12.118     13.240
REMARK INTER + INTRA:          -5.024
REMARK INTER:                  -4.631
REMARK INTRA:                  -0.393
REMARK UNBOUND:                -0.329
REMARK SMILES C=CCCCCCCC(=O)[O-]
REMARK SMILES IDX 6 1 7 2 8 3 9 4 10 5 11 6 5 7 4 8 3 9 2 10 1 11
REMARK H PARENT
REMARK Flexibility Score: inf
ROOT
ATOM      1  C   UNL     1      59.027  28.272  49.771  1.00  0.00     0.000 C 
ENDROOT
BRANCH   1   2
ATOM      2  C   UNL     1      60.314  27.461  49.558  1.00  0.00     0.006 C 
BRANCH   2   3
ATOM      3  C   UNL     1      60.713  26.664  50.807  1.00  0.00     0.053 C 
BRANCH   3   4
ATOM      4  C   UNL     1      60.902  25.209  50.498  1.00  0.00     0.041 C 
ATOM      5  O   UNL     1      62.058  24.740  50.337  1.00  0.00    -0.550 OA
ATOM      6  O   UNL     1      59.801  24.367  50.421  1.00  0.00    -0.550 OA
ENDBRANCH   3   4
ENDBRANCH   2   3
ENDBRANCH   1   2
BRANCH   1   7
ATOM      7  C   UNL     1      58.056  27.526  50.699  1.00  0.00     0.000 C 
BRANCH   7   8
ATOM      8  C   UNL     1      56.766  28.317  50.968  1.00  0.00     0.004 C 
BRANCH   8   9
ATOM      9  C   UNL     1      55.499  27.510  50.645  1.00  0.00     0.027 C 
BRANCH   9  10
ATOM     10  C   UNL     1      55.835  26.081  50.316  1.00  0.00    -0.035 C 
ATOM     11  C   UNL     1      54.989  25.298  49.639  1.00  0.00     0.004 C 
ENDBRANCH   9  10
ENDBRANCH   8   9
ENDBRANCH   7   8
ENDBRANCH   1   7
TORSDOF 7
ENDMDL
MODEL 8
REMARK VINA RESULT:    -3.320     12.410     13.759
REMARK INTER + INTRA:          -5.008
REMARK INTER:                  -4.568
REMARK INTRA:                  -0.440
REMARK UNBOUND:                -0.329
REMARK SMILES C=CCCCCCCC(=O)[O-]
REMARK SMILES IDX 6 1 7 2 8 3 9 4 10 5 11 6 5 7 4 8 3 9 2 10 1 11
REMARK H PARENT
REMARK Flexibility Score: inf
ROOT
ATOM      1  C   UNL     1      55.581  28.351  51.062  1.00  0.00     0.000 C 
ENDROOT
BRANCH   1   2
ATOM      2  C   UNL     1      54.517  27.508  50.342  1.00  0.00     0.006 C 
BRANCH   2   3
ATOM      3  C   UNL     1      55.048  26.130  49.928  1.00  0.00     0.053 C 
BRANCH   3   4
ATOM      4  C   UNL     1      53.937  25.193  49.566  1.00  0.00     0.041 C 
ATOM      5  O   UNL     1      52.932  25.613  48.935  1.00  0.00    -0.550 OA
ATOM      6  O   UNL     1      54.026  23.848  49.899  1.00  0.00    -0.550 OA
ENDBRANCH   3   4
ENDBRANCH   2   3
ENDBRANCH   1   2
BRANCH   1   7
ATOM      7  C   UNL     1      56.532  27.457  51.872  1.00  0.00     0.000 C 
BRANCH   7   8
ATOM      8  C   UNL     1      58.013  27.777  51.610  1.00  0.00     0.004 C 
BRANCH   8   9
ATOM      9  C   UNL     1      58.226  28.564  50.308  1.00  0.00     0.027 C 
BRANCH   9  10
ATOM     10  C   UNL     1      59.621  28.369  49.778  1.00  0.00    -0.035 C 
ATOM     11  C   UNL     1      60.086  27.160  49.449  1.00  0.00     0.004 C 
ENDBRANCH   9  10
ENDBRANCH   8   9
ENDBRANCH   7   8
ENDBRANCH   1   7
TORSDOF 7
ENDMDL
MODEL 9
REMARK VINA RESULT:    -3.294     12.008     13.397
REMARK INTER + INTRA:          -4.971
REMARK INTER:                  -4.372
REMARK INTRA:                  -0.599
REMARK UNBOUND:                -0.329
REMARK SMILES C=CCCCCCCC(=O)[O-]
REMARK SMILES IDX 6 1 7 2 8 3 9 4 10 5 11 6 5 7 4 8 3 9 2 10 1 11
REMARK H PARENT
REMARK Flexibility Score: inf
ROOT
ATOM      1  C   UNL     1      57.441  27.812  51.881  1.00  0.00     0.000 C 
ENDROOT
BRANCH   1   2
ATOM      2  C   UNL     1      56.485  27.628  50.694  1.00  0.00     0.006 C 
BRANCH   2   3
ATOM      3  C   UNL     1      55.990  26.182  50.564  1.00  0.00     0.053 C 
BRANCH   3   4
ATOM      4  C   UNL     1      54.673  26.108  49.853  1.00  0.00     0.041 C 
ATOM      5  O   UNL     1      53.898  27.099  49.848  1.00  0.00    -0.550 OA
ATOM      6  O   UNL     1      54.318  24.954  49.167  1.00  0.00    -0.550 OA
ENDBRANCH   3   4
ENDBRANCH   2   3
ENDBRANCH   1   2
BRANCH   1   7
ATOM      7  C   UNL     1      58.722  28.540  51.447  1.00  0.00     0.000 C 
BRANCH   7   8
ATOM      8  C   UNL     1      58.886  28.591  49.920  1.00  0.00     0.004 C 
BRANCH   8   9
ATOM      9  C   UNL     1      60.066  27.741  49.424  1.00  0.00     0.027 C 
BRANCH   9  10
ATOM     10  C   UNL     1      60.272  26.535  50.299  1.00  0.00    -0.035 C 
ATOM     11  C   UNL     1      59.857  25.319  49.931  1.00  0.00     0.004 C 
ENDBRANCH   9  10
ENDBRANCH   8   9
ENDBRANCH   7   8
ENDBRANCH   1   7
TORSDOF 7
ENDMDL
