MODEL 1
REMARK VINA RESULT:    -5.032      0.000      0.000
REMARK INTER + INTRA:         -11.040
REMARK INTER:                  -9.150
REMARK INTRA:                  -1.890
REMARK UNBOUND:                -1.890
REMARK SMILES CCCCCCCCCCCCCC[C@@H](C)C(=O)[O-]
REMARK SMILES IDX 9 1 10 2 11 3 12 4 13 5 14 6 15 7 16 8 17 9 18 10 19 11 8 12
REMARK SMILES IDX 7 13 6 14 5 15 4 16 3 17 2 18 1 19
REMARK H PARENT
REMARK Flexibility Score: inf
ROOT
ATOM      1  C   UNL     1      14.434 -32.886  21.239  1.00  0.00     0.000 C 
ENDROOT
BRANCH   1   2
ATOM      2  C   UNL     1      13.488 -31.838  20.624  1.00  0.00     0.000 C 
BRANCH   2   3
ATOM      3  C   UNL     1      12.816 -30.888  21.638  1.00  0.00     0.000 C 
BRANCH   3   4
ATOM      4  C   UNL     1      13.140 -31.167  23.116  1.00  0.00     0.000 C 
BRANCH   4   5
ATOM      5  C   UNL     1      13.414 -29.885  23.920  1.00  0.00     0.001 C 
BRANCH   5   6
ATOM      6  C   UNL     1      13.604 -28.647  23.023  1.00  0.00     0.009 C 
BRANCH   6   7
ATOM      7  C   UNL     1      12.579 -27.517  23.270  1.00  0.00     0.032 C 
ATOM      8  C   UNL     1      11.369 -28.051  24.044  1.00  0.00     0.014 C 
BRANCH   7   9
ATOM      9  C   UNL     1      13.194 -26.362  24.015  1.00  0.00     0.044 C 
ATOM     10  O   UNL     1      13.478 -26.469  25.238  1.00  0.00    -0.550 OA
ATOM     11  O   UNL     1      13.458 -25.171  23.352  1.00  0.00    -0.550 OA
ENDBRANCH   7   9
ENDBRANCH   6   7
ENDBRANCH   5   6
ENDBRANCH   4   5
ENDBRANCH   3   4
ENDBRANCH   2   3
ENDBRANCH   1   2
BRANCH   1  12
ATOM     12  C   UNL     1      14.753 -34.039  20.278  1.00  0.00     0.000 C 
BRANCH  12  13
ATOM     13  C   UNL     1      16.162 -34.592  20.534  1.00  0.00    -0.000 C 
BRANCH  13  14
ATOM     14  C   UNL     1      17.046 -34.569  19.277  1.00  0.00    -0.000 C 
BRANCH  14  15
ATOM     15  C   UNL     1      18.121 -33.473  19.328  1.00  0.00    -0.000 C 
BRANCH  15  16
ATOM     16  C   UNL     1      18.098 -32.746  20.681  1.00  0.00    -0.000 C 
BRANCH  16  17
ATOM     17  C   UNL     1      17.798 -31.244  20.542  1.00  0.00    -0.000 C 
BRANCH  17  18
ATOM     18  C   UNL     1      17.308 -30.616  21.855  1.00  0.00    -0.003 C 
ATOM     19  C   UNL     1      17.250 -31.653  22.972  1.00  0.00     0.004 C 
ENDBRANCH  17  18
ENDBRANCH  16  17
ENDBRANCH  15  16
ENDBRANCH  14  15
ENDBRANCH  13  14
ENDBRANCH  12  13
ENDBRANCH   1  12
TORSDOF 14
ENDMDL
MODEL 2
REMARK VINA RESULT:    -5.006      2.173      2.797
REMARK INTER + INTRA:         -10.993
REMARK INTER:                  -8.793
REMARK INTRA:                  -2.200
REMARK UNBOUND:                -1.890
REMARK SMILES CCCCCCCCCCCCCC[C@@H](C)C(=O)[O-]
REMARK SMILES IDX 9 1 10 2 11 3 12 4 13 5 14 6 15 7 16 8 17 9 18 10 19 11 8 12
REMARK SMILES IDX 7 13 6 14 5 15 4 16 3 17 2 18 1 19
REMARK H PARENT
REMARK Flexibility Score: inf
ROOT
ATOM      1  C   UNL     1      15.049 -34.025  19.664  1.00  0.00     0.000 C 
ENDROOT
BRANCH   1   2
ATOM      2  C   UNL     1      14.859 -32.946  20.746  1.00  0.00     0.000 C 
BRANCH   2   3
ATOM      3  C   UNL     1      14.996 -33.446  22.199  1.00  0.00     0.000 C 
BRANCH   3   4
ATOM      4  C   UNL     1      14.793 -32.374  23.286  1.00  0.00     0.000 C 
BRANCH   4   5
ATOM      5  C   UNL     1      15.556 -31.072  22.991  1.00  0.00     0.001 C 
BRANCH   5   6
ATOM      6  C   UNL     1      14.619 -29.886  22.692  1.00  0.00     0.009 C 
BRANCH   6   7
ATOM      7  C   UNL     1      13.194 -30.038  23.269  1.00  0.00     0.032 C 
ATOM      8  C   UNL     1      12.892 -28.905  24.256  1.00  0.00     0.014 C 
BRANCH   7   9
ATOM      9  C   UNL     1      12.153 -30.061  22.182  1.00  0.00     0.044 C 
ATOM     10  O   UNL     1      12.274 -30.837  21.197  1.00  0.00    -0.550 OA
ATOM     11  O   UNL     1      11.047 -29.225  22.264  1.00  0.00    -0.550 OA
ENDBRANCH   7   9
ENDBRANCH   6   7
ENDBRANCH   5   6
ENDBRANCH   4   5
ENDBRANCH   3   4
ENDBRANCH   2   3
ENDBRANCH   1   2
BRANCH   1  12
ATOM     12  C   UNL     1      15.628 -35.333  20.221  1.00  0.00     0.000 C 
BRANCH  12  13
ATOM     13  C   UNL     1      16.900 -35.736  19.462  1.00  0.00    -0.000 C 
BRANCH  13  14
ATOM     14  C   UNL     1      18.032 -34.707  19.614  1.00  0.00    -0.000 C 
BRANCH  14  15
ATOM     15  C   UNL     1      18.674 -34.734  21.009  1.00  0.00    -0.000 C 
BRANCH  15  16
ATOM     16  C   UNL     1      18.704 -33.326  21.624  1.00  0.00    -0.000 C 
BRANCH  16  17
ATOM     17  C   UNL     1      18.469 -32.219  20.585  1.00  0.00    -0.000 C 
BRANCH  17  18
ATOM     18  C   UNL     1      19.251 -30.935  20.902  1.00  0.00    -0.003 C 
ATOM     19  C   UNL     1      18.315 -29.735  21.008  1.00  0.00     0.004 C 
ENDBRANCH  17  18
ENDBRANCH  16  17
ENDBRANCH  15  16
ENDBRANCH  14  15
ENDBRANCH  13  14
ENDBRANCH  12  13
ENDBRANCH   1  12
TORSDOF 14
ENDMDL
MODEL 3
REMARK VINA RESULT:    -4.960      2.033      3.587
REMARK INTER + INTRA:         -10.910
REMARK INTER:                  -8.765
REMARK INTRA:                  -2.146
REMARK UNBOUND:                -1.890
REMARK SMILES CCCCCCCCCCCCCC[C@@H](C)C(=O)[O-]
REMARK SMILES IDX 9 1 10 2 11 3 12 4 13 5 14 6 15 7 16 8 17 9 18 10 19 11 8 12
REMARK SMILES IDX 7 13 6 14 5 15 4 16 3 17 2 18 1 19
REMARK H PARENT
REMARK Flexibility Score: inf
ROOT
ATOM      1  C   UNL     1      18.885 -32.079  20.907  1.00  0.00     0.000 C 
ENDROOT
BRANCH   1   2
ATOM      2  C   UNL     1      17.681 -31.167  20.610  1.00  0.00     0.000 C 
BRANCH   2   3
ATOM      3  C   UNL     1      17.176 -30.338  21.809  1.00  0.00     0.000 C 
BRANCH   3   4
ATOM      4  C   UNL     1      16.728 -28.903  21.475  1.00  0.00     0.000 C 
BRANCH   4   5
ATOM      5  C   UNL     1      15.231 -28.669  21.737  1.00  0.00     0.001 C 
BRANCH   5   6
ATOM      6  C   UNL     1      14.624 -29.708  22.699  1.00  0.00     0.009 C 
BRANCH   6   7
ATOM      7  C   UNL     1      13.275 -29.285  23.325  1.00  0.00     0.032 C 
ATOM      8  C   UNL     1      13.219 -27.764  23.500  1.00  0.00     0.014 C 
BRANCH   7   9
ATOM      9  C   UNL     1      12.108 -29.748  22.494  1.00  0.00     0.044 C 
ATOM     10  O   UNL     1      12.161 -30.840  21.868  1.00  0.00    -0.550 OA
ATOM     11  O   UNL     1      10.959 -28.970  22.419  1.00  0.00    -0.550 OA
ENDBRANCH   7   9
ENDBRANCH   6   7
ENDBRANCH   5   6
ENDBRANCH   4   5
ENDBRANCH   3   4
ENDBRANCH   2   3
ENDBRANCH   1   2
BRANCH   1  12
ATOM     12  C   UNL     1      18.587 -33.563  20.655  1.00  0.00     0.000 C 
BRANCH  12  13
ATOM     13  C   UNL     1      17.874 -33.758  19.309  1.00  0.00    -0.000 C 
BRANCH  13  14
ATOM     14  C   UNL     1      17.025 -35.038  19.267  1.00  0.00    -0.000 C 
BRANCH  14  15
ATOM     15  C   UNL     1      16.012 -35.117  20.419  1.00  0.00    -0.000 C 
BRANCH  15  16
ATOM     16  C   UNL     1      14.821 -34.180  20.165  1.00  0.00    -0.000 C 
BRANCH  16  17
ATOM     17  C   UNL     1      14.660 -33.115  21.262  1.00  0.00    -0.000 C 
BRANCH  17  18
ATOM     18  C   UNL     1      15.390 -33.488  22.560  1.00  0.00    -0.003 C 
ATOM     19  C   UNL     1      14.578 -33.076  23.784  1.00  0.00     0.004 C 
ENDBRANCH  17  18
ENDBRANCH  16  17
ENDBRANCH  15  16
ENDBRANCH  14  15
ENDBRANCH  13  14
ENDBRANCH  12  13
ENDBRANCH   1  12
TORSDOF 14
ENDMDL
MODEL 4
REMARK VINA RESULT:    -4.917      2.410      4.577
REMARK INTER + INTRA:         -10.831
REMARK INTER:                  -8.288
REMARK INTRA:                  -2.543
REMARK UNBOUND:                -1.890
REMARK SMILES CCCCCCCCCCCCCC[C@@H](C)C(=O)[O-]
REMARK SMILES IDX 9 1 10 2 11 3 12 4 13 5 14 6 15 7 16 8 17 9 18 10 19 11 8 12
REMARK SMILES IDX 7 13 6 14 5 15 4 16 3 17 2 18 1 19
REMARK H PARENT
REMARK Flexibility Score: inf
ROOT
ATOM      1  C   UNL     1      17.695 -33.463  19.480  1.00  0.00     0.000 C 
ENDROOT
BRANCH   1   2
ATOM      2  C   UNL     1      16.275 -33.993  19.209  1.00  0.00     0.000 C 
BRANCH   2   3
ATOM      3  C   UNL     1      15.556 -34.596  20.433  1.00  0.00     0.000 C 
BRANCH   3   4
ATOM      4  C   UNL     1      14.728 -33.601  21.267  1.00  0.00     0.000 C 
BRANCH   4   5
ATOM      5  C   UNL     1      13.919 -32.623  20.399  1.00  0.00     0.001 C 
BRANCH   5   6
ATOM      6  C   UNL     1      13.450 -31.380  21.178  1.00  0.00     0.009 C 
BRANCH   6   7
ATOM      7  C   UNL     1      14.407 -30.939  22.309  1.00  0.00     0.032 C 
ATOM      8  C   UNL     1      14.950 -29.533  22.033  1.00  0.00     0.014 C 
BRANCH   7   9
ATOM      9  C   UNL     1      13.731 -30.971  23.654  1.00  0.00     0.044 C 
ATOM     10  O   UNL     1      13.215 -29.928  24.136  1.00  0.00    -0.550 OA
ATOM     11  O   UNL     1      13.668 -32.160  24.369  1.00  0.00    -0.550 OA
ENDBRANCH   7   9
ENDBRANCH   6   7
ENDBRANCH   5   6
ENDBRANCH   4   5
ENDBRANCH   3   4
ENDBRANCH   2   3
ENDBRANCH   1   2
BRANCH   1  12
ATOM     12  C   UNL     1      17.698 -32.108  20.202  1.00  0.00     0.000 C 
BRANCH  12  13
ATOM     13  C   UNL     1      18.360 -32.226  21.583  1.00  0.00    -0.000 C 
BRANCH  13  14
ATOM     14  C   UNL     1      18.866 -33.646  21.879  1.00  0.00    -0.000 C 
BRANCH  14  15
ATOM     15  C   UNL     1      18.142 -34.299  23.066  1.00  0.00    -0.000 C 
BRANCH  15  16
ATOM     16  C   UNL     1      18.060 -35.823  22.886  1.00  0.00    -0.000 C 
BRANCH  16  17
ATOM     17  C   UNL     1      18.767 -36.309  21.611  1.00  0.00    -0.000 C 
BRANCH  17  18
ATOM     18  C   UNL     1      18.021 -37.463  20.925  1.00  0.00    -0.003 C 
ATOM     19  C   UNL     1      17.914 -37.230  19.422  1.00  0.00     0.004 C 
ENDBRANCH  17  18
ENDBRANCH  16  17
ENDBRANCH  15  16
ENDBRANCH  14  15
ENDBRANCH  13  14
ENDBRANCH  12  13
ENDBRANCH   1  12
TORSDOF 14
ENDMDL
MODEL 5
REMARK VINA RESULT:    -4.888      2.358      4.073
REMARK INTER + INTRA:         -10.779
REMARK INTER:                  -8.364
REMARK INTRA:                  -2.414
REMARK UNBOUND:                -1.890
REMARK SMILES CCCCCCCCCCCCCC[C@@H](C)C(=O)[O-]
REMARK SMILES IDX 9 1 10 2 11 3 12 4 13 5 14 6 15 7 16 8 17 9 18 10 19 11 8 12
REMARK SMILES IDX 7 13 6 14 5 15 4 16 3 17 2 18 1 19
REMARK H PARENT
REMARK Flexibility Score: inf
ROOT
ATOM      1  C   UNL     1      17.957 -36.395  19.544  1.00  0.00     0.000 C 
ENDROOT
BRANCH   1   2
ATOM      2  C   UNL     1      16.999 -35.245  19.185  1.00  0.00     0.000 C 
BRANCH   2   3
ATOM      3  C   UNL     1      15.732 -35.151  20.059  1.00  0.00     0.000 C 
BRANCH   3   4
ATOM      4  C   UNL     1      14.923 -33.850  19.909  1.00  0.00     0.000 C 
BRANCH   4   5
ATOM      5  C   UNL     1      14.641 -33.163  21.256  1.00  0.00     0.001 C 
BRANCH   5   6
ATOM      6  C   UNL     1      13.823 -31.867  21.104  1.00  0.00     0.009 C 
BRANCH   6   7
ATOM      7  C   UNL     1      13.223 -31.333  22.425  1.00  0.00     0.032 C 
ATOM      8  C   UNL     1      14.308 -30.660  23.273  1.00  0.00     0.014 C 
BRANCH   7   9
ATOM      9  C   UNL     1      12.097 -30.366  22.174  1.00  0.00     0.044 C 
ATOM     10  O   UNL     1      11.954 -29.348  22.902  1.00  0.00    -0.550 OA
ATOM     11  O   UNL     1      11.210 -30.591  21.129  1.00  0.00    -0.550 OA
ENDBRANCH   7   9
ENDBRANCH   6   7
ENDBRANCH   5   6
ENDBRANCH   4   5
ENDBRANCH   3   4
ENDBRANCH   2   3
ENDBRANCH   1   2
BRANCH   1  12
ATOM     12  C   UNL     1      17.695 -36.975  20.941  1.00  0.00     0.000 C 
BRANCH  12  13
ATOM     13  C   UNL     1      18.603 -36.314  21.988  1.00  0.00    -0.000 C 
BRANCH  13  14
ATOM     14  C   UNL     1      17.811 -35.564  23.071  1.00  0.00    -0.000 C 
BRANCH  14  15
ATOM     15  C   UNL     1      17.951 -34.038  22.958  1.00  0.00    -0.000 C 
BRANCH  15  16
ATOM     16  C   UNL     1      19.040 -33.662  21.942  1.00  0.00    -0.000 C 
BRANCH  16  17
ATOM     17  C   UNL     1      18.685 -32.407  21.129  1.00  0.00    -0.000 C 
BRANCH  17  18
ATOM     18  C   UNL     1      17.859 -31.394  21.936  1.00  0.00    -0.003 C 
ATOM     19  C   UNL     1      17.237 -30.342  21.023  1.00  0.00     0.004 C 
ENDBRANCH  17  18
ENDBRANCH  16  17
ENDBRANCH  15  16
ENDBRANCH  14  15
ENDBRANCH  13  14
ENDBRANCH  12  13
ENDBRANCH   1  12
TORSDOF 14
ENDMDL
MODEL 6
REMARK VINA RESULT:    -4.882      1.533      3.411
REMARK INTER + INTRA:         -10.767
REMARK INTER:                  -8.535
REMARK INTRA:                  -2.232
REMARK UNBOUND:                -1.890
REMARK SMILES CCCCCCCCCCCCCC[C@@H](C)C(=O)[O-]
REMARK SMILES IDX 9 1 10 2 11 3 12 4 13 5 14 6 15 7 16 8 17 9 18 10 19 11 8 12
REMARK SMILES IDX 7 13 6 14 5 15 4 16 3 17 2 18 1 19
REMARK H PARENT
REMARK Flexibility Score: inf
ROOT
ATOM      1  C   UNL     1      17.462 -31.460  23.391  1.00  0.00     0.000 C 
ENDROOT
BRANCH   1   2
ATOM      2  C   UNL     1      17.081 -32.761  24.120  1.00  0.00     0.000 C 
BRANCH   2   3
ATOM      3  C   UNL     1      15.793 -33.442  23.612  1.00  0.00     0.000 C 
BRANCH   3   4
ATOM      4  C   UNL     1      14.480 -32.875  24.181  1.00  0.00     0.000 C 
BRANCH   4   5
ATOM      5  C   UNL     1      13.721 -31.997  23.171  1.00  0.00     0.001 C 
BRANCH   5   6
ATOM      6  C   UNL     1      13.388 -30.600  23.728  1.00  0.00     0.009 C 
BRANCH   6   7
ATOM      7  C   UNL     1      12.818 -29.617  22.682  1.00  0.00     0.032 C 
ATOM      8  C   UNL     1      11.756 -30.307  21.819  1.00  0.00     0.014 C 
BRANCH   7   9
ATOM      9  C   UNL     1      12.230 -28.392  23.332  1.00  0.00     0.044 C 
ATOM     10  O   UNL     1      10.991 -28.171  23.278  1.00  0.00    -0.550 OA
ATOM     11  O   UNL     1      13.057 -27.499  24.002  1.00  0.00    -0.550 OA
ENDBRANCH   7   9
ENDBRANCH   6   7
ENDBRANCH   5   6
ENDBRANCH   4   5
ENDBRANCH   3   4
ENDBRANCH   2   3
ENDBRANCH   1   2
BRANCH   1  12
ATOM     12  C   UNL     1      17.067 -31.469  21.908  1.00  0.00     0.000 C 
BRANCH  12  13
ATOM     13  C   UNL     1      18.307 -31.587  21.010  1.00  0.00    -0.000 C 
BRANCH  13  14
ATOM     14  C   UNL     1      18.335 -32.895  20.204  1.00  0.00    -0.000 C 
BRANCH  14  15
ATOM     15  C   UNL     1      18.711 -34.112  21.062  1.00  0.00    -0.000 C 
BRANCH  15  16
ATOM     16  C   UNL     1      17.816 -35.316  20.728  1.00  0.00    -0.000 C 
BRANCH  16  17
ATOM     17  C   UNL     1      16.735 -34.981  19.688  1.00  0.00    -0.000 C 
BRANCH  17  18
ATOM     18  C   UNL     1      15.320 -34.983  20.284  1.00  0.00    -0.003 C 
ATOM     19  C   UNL     1      14.616 -33.654  20.029  1.00  0.00     0.004 C 
ENDBRANCH  17  18
ENDBRANCH  16  17
ENDBRANCH  15  16
ENDBRANCH  14  15
ENDBRANCH  13  14
ENDBRANCH  12  13
ENDBRANCH   1  12
TORSDOF 14
ENDMDL
MODEL 7
REMARK VINA RESULT:    -4.837      1.822      2.783
REMARK INTER + INTRA:         -10.685
REMARK INTER:                  -8.802
REMARK INTRA:                  -1.883
REMARK UNBOUND:                -1.890
REMARK SMILES CCCCCCCCCCCCCC[C@@H](C)C(=O)[O-]
REMARK SMILES IDX 9 1 10 2 11 3 12 4 13 5 14 6 15 7 16 8 17 9 18 10 19 11 8 12
REMARK SMILES IDX 7 13 6 14 5 15 4 16 3 17 2 18 1 19
REMARK H PARENT
REMARK Flexibility Score: inf
ROOT
ATOM      1  C   UNL     1      14.913 -33.832  19.712  1.00  0.00     0.000 C 
ENDROOT
BRANCH   1   2
ATOM      2  C   UNL     1      14.641 -32.860  20.874  1.00  0.00     0.000 C 
BRANCH   2   3
ATOM      3  C   UNL     1      14.987 -33.402  22.276  1.00  0.00     0.000 C 
BRANCH   3   4
ATOM      4  C   UNL     1      15.026 -32.350  23.398  1.00  0.00     0.000 C 
BRANCH   4   5
ATOM      5  C   UNL     1      13.627 -31.976  23.916  1.00  0.00     0.001 C 
BRANCH   5   6
ATOM      6  C   UNL     1      12.987 -30.821  23.123  1.00  0.00     0.009 C 
BRANCH   6   7
ATOM      7  C   UNL     1      13.459 -29.414  23.553  1.00  0.00     0.032 C 
ATOM      8  C   UNL     1      14.308 -28.773  22.450  1.00  0.00     0.014 C 
BRANCH   7   9
ATOM      9  C   UNL     1      12.299 -28.517  23.891  1.00  0.00     0.044 C 
ATOM     10  O   UNL     1      11.223 -28.588  23.239  1.00  0.00    -0.550 OA
ATOM     11  O   UNL     1      12.408 -27.606  24.934  1.00  0.00    -0.550 OA
ENDBRANCH   7   9
ENDBRANCH   6   7
ENDBRANCH   5   6
ENDBRANCH   4   5
ENDBRANCH   3   4
ENDBRANCH   2   3
ENDBRANCH   1   2
BRANCH   1  12
ATOM     12  C   UNL     1      15.311 -35.236  20.189  1.00  0.00     0.000 C 
BRANCH  12  13
ATOM     13  C   UNL     1      16.599 -35.705  19.497  1.00  0.00    -0.000 C 
BRANCH  13  14
ATOM     14  C   UNL     1      17.281 -36.866  20.237  1.00  0.00    -0.000 C 
BRANCH  14  15
ATOM     15  C   UNL     1      18.478 -36.408  21.084  1.00  0.00    -0.000 C 
BRANCH  15  16
ATOM     16  C   UNL     1      18.011 -35.848  22.436  1.00  0.00    -0.000 C 
BRANCH  16  17
ATOM     17  C   UNL     1      18.381 -34.368  22.625  1.00  0.00    -0.000 C 
BRANCH  17  18
ATOM     18  C   UNL     1      19.169 -33.800  21.436  1.00  0.00    -0.003 C 
ATOM     19  C   UNL     1      18.395 -32.677  20.751  1.00  0.00     0.004 C 
ENDBRANCH  17  18
ENDBRANCH  16  17
ENDBRANCH  15  16
ENDBRANCH  14  15
ENDBRANCH  13  14
ENDBRANCH  12  13
ENDBRANCH   1  12
TORSDOF 14
ENDMDL
MODEL 8
REMARK VINA RESULT:    -4.822      4.561      6.521
REMARK INTER + INTRA:         -10.658
REMARK INTER:                  -8.945
REMARK INTRA:                  -1.713
REMARK UNBOUND:                -1.890
REMARK SMILES CCCCCCCCCCCCCC[C@@H](C)C(=O)[O-]
REMARK SMILES IDX 9 1 10 2 11 3 12 4 13 5 14 6 15 7 16 8 17 9 18 10 19 11 8 12
REMARK SMILES IDX 7 13 6 14 5 15 4 16 3 17 2 18 1 19
REMARK H PARENT
REMARK Flexibility Score: inf
ROOT
ATOM      1  C   UNL     1      17.140 -36.025  20.631  1.00  0.00     0.000 C 
ENDROOT
BRANCH   1   2
ATOM      2  C   UNL     1      17.358 -35.504  19.199  1.00  0.00     0.000 C 
BRANCH   2   3
ATOM      3  C   UNL     1      17.967 -34.090  19.102  1.00  0.00     0.000 C 
BRANCH   3   4
ATOM      4  C   UNL     1      18.315 -33.429  20.448  1.00  0.00     0.000 C 
BRANCH   4   5
ATOM      5  C   UNL     1      17.999 -31.925  20.475  1.00  0.00     0.001 C 
BRANCH   5   6
ATOM      6  C   UNL     1      16.777 -31.588  21.351  1.00  0.00     0.009 C 
BRANCH   6   7
ATOM      7  C   UNL     1      15.921 -32.811  21.748  1.00  0.00     0.032 C 
ATOM      8  C   UNL     1      15.682 -32.830  23.262  1.00  0.00     0.014 C 
BRANCH   7   9
ATOM      9  C   UNL     1      14.601 -32.825  21.022  1.00  0.00     0.044 C 
ATOM     10  O   UNL     1      13.648 -32.100  21.414  1.00  0.00    -0.550 OA
ATOM     11  O   UNL     1      14.432 -33.638  19.909  1.00  0.00    -0.550 OA
ENDBRANCH   7   9
ENDBRANCH   6   7
ENDBRANCH   5   6
ENDBRANCH   4   5
ENDBRANCH   3   4
ENDBRANCH   2   3
ENDBRANCH   1   2
BRANCH   1  12
ATOM     12  C   UNL     1      18.134 -37.126  21.024  1.00  0.00     0.000 C 
BRANCH  12  13
ATOM     13  C   UNL     1      18.824 -36.793  22.355  1.00  0.00    -0.000 C 
BRANCH  13  14
ATOM     14  C   UNL     1      17.963 -35.898  23.261  1.00  0.00    -0.000 C 
BRANCH  14  15
ATOM     15  C   UNL     1      18.481 -35.844  24.706  1.00  0.00    -0.000 C 
BRANCH  15  16
ATOM     16  C   UNL     1      17.368 -36.209  25.701  1.00  0.00    -0.000 C 
BRANCH  16  17
ATOM     17  C   UNL     1      17.566 -37.597  26.330  1.00  0.00    -0.000 C 
BRANCH  17  18
ATOM     18  C   UNL     1      16.323 -38.084  27.089  1.00  0.00    -0.003 C 
ATOM     19  C   UNL     1      16.307 -37.547  28.517  1.00  0.00     0.004 C 
ENDBRANCH  17  18
ENDBRANCH  16  17
ENDBRANCH  15  16
ENDBRANCH  14  15
ENDBRANCH  13  14
ENDBRANCH  12  13
ENDBRANCH   1  12
TORSDOF 14
ENDMDL
MODEL 9
REMARK VINA RESULT:    -4.784      2.751      4.046
REMARK INTER + INTRA:         -10.589
REMARK INTER:                  -8.721
REMARK INTRA:                  -1.868
REMARK UNBOUND:                -1.890
REMARK SMILES CCCCCCCCCCCCCC[C@@H](C)C(=O)[O-]
REMARK SMILES IDX 9 1 10 2 11 3 12 4 13 5 14 6 15 7 16 8 17 9 18 10 19 11 8 12
REMARK SMILES IDX 7 13 6 14 5 15 4 16 3 17 2 18 1 19
REMARK H PARENT
REMARK Flexibility Score: inf
ROOT
ATOM      1  C   UNL     1      18.203 -33.003  20.371  1.00  0.00     0.000 C 
ENDROOT
BRANCH   1   2
ATOM      2  C   UNL     1      17.229 -31.910  20.844  1.00  0.00     0.000 C 
BRANCH   2   3
ATOM      3  C   UNL     1      16.830 -31.988  22.333  1.00  0.00     0.000 C 
BRANCH   3   4
ATOM      4  C   UNL     1      15.748 -33.030  22.670  1.00  0.00     0.000 C 
BRANCH   4   5
ATOM      5  C   UNL     1      14.676 -32.488  23.631  1.00  0.00     0.001 C 
BRANCH   5   6
ATOM      6  C   UNL     1      14.486 -30.964  23.515  1.00  0.00     0.009 C 
BRANCH   6   7
ATOM      7  C   UNL     1      13.028 -30.521  23.259  1.00  0.00     0.032 C 
ATOM      8  C   UNL     1      12.802 -29.097  23.778  1.00  0.00     0.014 C 
BRANCH   7   9
ATOM      9  C   UNL     1      12.672 -30.595  21.798  1.00  0.00     0.044 C 
ATOM     10  O   UNL     1      11.466 -30.605  21.433  1.00  0.00    -0.550 OA
ATOM     11  O   UNL     1      13.678 -30.649  20.842  1.00  0.00    -0.550 OA
ENDBRANCH   7   9
ENDBRANCH   6   7
ENDBRANCH   5   6
ENDBRANCH   4   5
ENDBRANCH   3   4
ENDBRANCH   2   3
ENDBRANCH   1   2
BRANCH   1  12
ATOM     12  C   UNL     1      17.755 -33.678  19.067  1.00  0.00     0.000 C 
BRANCH  12  13
ATOM     13  C   UNL     1      16.296 -34.144  19.165  1.00  0.00    -0.000 C 
BRANCH  13  14
ATOM     14  C   UNL     1      16.154 -35.507  19.862  1.00  0.00    -0.000 C 
BRANCH  14  15
ATOM     15  C   UNL     1      17.244 -36.504  19.443  1.00  0.00    -0.000 C 
BRANCH  15  16
ATOM     16  C   UNL     1      17.807 -37.246  20.664  1.00  0.00    -0.000 C 
BRANCH  16  17
ATOM     17  C   UNL     1      18.907 -36.450  21.386  1.00  0.00    -0.000 C 
BRANCH  17  18
ATOM     18  C   UNL     1      18.891 -36.666  22.907  1.00  0.00    -0.003 C 
ATOM     19  C   UNL     1      17.945 -35.684  23.590  1.00  0.00     0.004 C 
ENDBRANCH  17  18
ENDBRANCH  16  17
ENDBRANCH  15  16
ENDBRANCH  14  15
ENDBRANCH  13  14
ENDBRANCH  12  13
ENDBRANCH   1  12
TORSDOF 14
ENDMDL
