MODEL 1
REMARK VINA RESULT:    -3.358      0.000      0.000
REMARK INTER + INTRA:          -3.796
REMARK INTER:                  -3.751
REMARK INTRA:                  -0.045
REMARK UNBOUND:                -0.045
REMARK SMILES CCCC(=O)[O-]
REMARK SMILES IDX 3 1 4 2 5 3 6 4 2 5 1 6
REMARK H PARENT
REMARK Flexibility Score: inf
ROOT
ATOM      1  C   UNL     1      -9.547 -33.381  40.959  1.00  0.00     0.052 C 
ENDROOT
BRANCH   1   2
ATOM      2  C   UNL     1      -8.187 -32.785  41.141  1.00  0.00     0.041 C 
ATOM      3  O   UNL     1      -7.163 -33.517  41.107  1.00  0.00    -0.550 OA
ATOM      4  O   UNL     1      -8.045 -31.412  41.296  1.00  0.00    -0.550 OA
ENDBRANCH   1   2
BRANCH   1   5
ATOM      5  C   UNL     1      -9.915 -34.250  42.164  1.00  0.00     0.003 C 
ATOM      6  C   UNL     1     -10.658 -33.438  43.222  1.00  0.00     0.004 C 
ENDBRANCH   1   5
TORSDOF 2
ENDMDL
MODEL 2
REMARK VINA RESULT:    -3.304     13.284     13.835
REMARK INTER + INTRA:          -3.735
REMARK INTER:                  -3.666
REMARK INTRA:                  -0.068
REMARK UNBOUND:                -0.045
REMARK SMILES CCCC(=O)[O-]
REMARK SMILES IDX 3 1 4 2 5 3 6 4 2 5 1 6
REMARK H PARENT
REMARK Flexibility Score: inf
ROOT
ATOM      1  C   UNL     1      -3.968 -34.072  54.025  1.00  0.00     0.052 C 
ENDROOT
BRANCH   1   2
ATOM      2  C   UNL     1      -2.745 -34.640  53.377  1.00  0.00     0.041 C 
ATOM      3  O   UNL     1      -1.633 -34.065  53.507  1.00  0.00    -0.550 OA
ATOM      4  O   UNL     1      -2.824 -35.834  52.672  1.00  0.00    -0.550 OA
ENDBRANCH   1   2
BRANCH   1   5
ATOM      5  C   UNL     1      -4.710 -35.155  54.812  1.00  0.00     0.003 C 
ATOM      6  C   UNL     1      -3.924 -35.569  56.054  1.00  0.00     0.004 C 
ENDBRANCH   1   5
TORSDOF 2
ENDMDL
MODEL 3
REMARK VINA RESULT:    -3.231     13.187     13.761
REMARK INTER + INTRA:          -3.653
REMARK INTER:                  -3.605
REMARK INTRA:                  -0.049
REMARK UNBOUND:                -0.045
REMARK SMILES CCCC(=O)[O-]
REMARK SMILES IDX 3 1 4 2 5 3 6 4 2 5 1 6
REMARK H PARENT
REMARK Flexibility Score: inf
ROOT
ATOM      1  C   UNL     1      -3.853 -34.469  54.544  1.00  0.00     0.052 C 
ENDROOT
BRANCH   1   2
ATOM      2  C   UNL     1      -2.422 -34.801  54.261  1.00  0.00     0.041 C 
ATOM      3  O   UNL     1      -1.735 -34.059  53.510  1.00  0.00    -0.550 OA
ATOM      4  O   UNL     1      -1.832 -35.902  54.867  1.00  0.00    -0.550 OA
ENDBRANCH   1   2
BRANCH   1   5
ATOM      5  C   UNL     1      -4.783 -35.451  53.827  1.00  0.00     0.003 C 
ATOM      6  C   UNL     1      -5.020 -35.028  52.379  1.00  0.00     0.004 C 
ENDBRANCH   1   5
TORSDOF 2
ENDMDL
MODEL 4
REMARK VINA RESULT:    -3.115      2.289      2.745
REMARK INTER + INTRA:          -3.523
REMARK INTER:                  -3.485
REMARK INTRA:                  -0.038
REMARK UNBOUND:                -0.045
REMARK SMILES CCCC(=O)[O-]
REMARK SMILES IDX 3 1 4 2 5 3 6 4 2 5 1 6
REMARK H PARENT
REMARK Flexibility Score: inf
ROOT
ATOM      1  C   UNL     1      -7.874 -32.114  41.930  1.00  0.00     0.052 C 
ENDROOT
BRANCH   1   2
ATOM      2  C   UNL     1      -7.630 -32.494  43.355  1.00  0.00     0.041 C 
ATOM      3  O   UNL     1      -6.643 -32.021  43.978  1.00  0.00    -0.550 OA
ATOM      4  O   UNL     1      -8.521 -33.331  44.014  1.00  0.00    -0.550 OA
ENDBRANCH   1   2
BRANCH   1   5
ATOM      5  C   UNL     1      -8.239 -33.348  41.101  1.00  0.00     0.003 C 
ATOM      6  C   UNL     1      -9.686 -33.281  40.619  1.00  0.00     0.004 C 
ENDBRANCH   1   5
TORSDOF 2
ENDMDL
MODEL 5
REMARK VINA RESULT:    -3.057      2.255      2.944
REMARK INTER + INTRA:          -3.459
REMARK INTER:                  -3.402
REMARK INTRA:                  -0.056
REMARK UNBOUND:                -0.045
REMARK SMILES CCCC(=O)[O-]
REMARK SMILES IDX 3 1 4 2 5 3 6 4 2 5 1 6
REMARK H PARENT
REMARK Flexibility Score: inf
ROOT
ATOM      1  C   UNL     1     -10.157 -33.462  42.464  1.00  0.00     0.052 C 
ENDROOT
BRANCH   1   2
ATOM      2  C   UNL     1      -9.334 -34.095  43.541  1.00  0.00     0.041 C 
ATOM      3  O   UNL     1      -9.073 -35.327  43.499  1.00  0.00    -0.550 OA
ATOM      4  O   UNL     1      -8.812 -33.316  44.566  1.00  0.00    -0.550 OA
ENDBRANCH   1   2
BRANCH   1   5
ATOM      5  C   UNL     1      -9.452 -33.585  41.111  1.00  0.00     0.003 C 
ATOM      6  C   UNL     1      -8.072 -32.932  41.147  1.00  0.00     0.004 C 
ENDBRANCH   1   5
TORSDOF 2
ENDMDL
MODEL 6
REMARK VINA RESULT:    -3.056     12.152     12.723
REMARK INTER + INTRA:          -3.458
REMARK INTER:                  -3.421
REMARK INTRA:                  -0.037
REMARK UNBOUND:                -0.045
REMARK SMILES CCCC(=O)[O-]
REMARK SMILES IDX 3 1 4 2 5 3 6 4 2 5 1 6
REMARK H PARENT
REMARK Flexibility Score: inf
ROOT
ATOM      1  C   UNL     1      -4.803 -35.645  53.295  1.00  0.00     0.052 C 
ENDROOT
BRANCH   1   2
ATOM      2  C   UNL     1      -4.862 -34.422  52.437  1.00  0.00     0.041 C 
ATOM      3  O   UNL     1      -4.430 -33.321  52.871  1.00  0.00    -0.550 OA
ATOM      4  O   UNL     1      -5.346 -34.507  51.138  1.00  0.00    -0.550 OA
ENDBRANCH   1   2
BRANCH   1   5
ATOM      5  C   UNL     1      -4.911 -35.267  54.774  1.00  0.00     0.003 C 
ATOM      6  C   UNL     1      -3.606 -35.554  55.513  1.00  0.00     0.004 C 
ENDBRANCH   1   5
TORSDOF 2
ENDMDL
MODEL 7
REMARK VINA RESULT:    -3.015     13.202     13.684
REMARK INTER + INTRA:          -3.413
REMARK INTER:                  -3.406
REMARK INTRA:                  -0.006
REMARK UNBOUND:                -0.045
REMARK SMILES CCCC(=O)[O-]
REMARK SMILES IDX 3 1 4 2 5 3 6 4 2 5 1 6
REMARK H PARENT
REMARK Flexibility Score: inf
ROOT
ATOM      1  C   UNL     1      -2.704 -34.622  53.510  1.00  0.00     0.052 C 
ENDROOT
BRANCH   1   2
ATOM      2  C   UNL     1      -4.055 -34.093  53.146  1.00  0.00     0.041 C 
ATOM      3  O   UNL     1      -4.197 -32.882  52.829  1.00  0.00    -0.550 OA
ATOM      4  O   UNL     1      -5.149 -34.947  53.108  1.00  0.00    -0.550 OA
ENDBRANCH   1   2
BRANCH   1   5
ATOM      5  C   UNL     1      -2.788 -35.479  54.775  1.00  0.00     0.003 C 
ATOM      6  C   UNL     1      -1.399 -35.900  55.249  1.00  0.00     0.004 C 
ENDBRANCH   1   5
TORSDOF 2
ENDMDL
MODEL 8
REMARK VINA RESULT:    -2.964     14.463     15.143
REMARK INTER + INTRA:          -3.355
REMARK INTER:                  -3.288
REMARK INTRA:                  -0.067
REMARK UNBOUND:                -0.045
REMARK SMILES CCCC(=O)[O-]
REMARK SMILES IDX 3 1 4 2 5 3 6 4 2 5 1 6
REMARK H PARENT
REMARK Flexibility Score: inf
ROOT
ATOM      1  C   UNL     1       4.130 -34.611  49.391  1.00  0.00     0.052 C 
ENDROOT
BRANCH   1   2
ATOM      2  C   UNL     1       3.341 -35.851  49.669  1.00  0.00     0.041 C 
ATOM      3  O   UNL     1       2.104 -35.883  49.432  1.00  0.00    -0.550 OA
ATOM      4  O   UNL     1       3.980 -36.990  50.141  1.00  0.00    -0.550 OA
ENDBRANCH   1   2
BRANCH   1   5
ATOM      5  C   UNL     1       4.113 -34.290  47.894  1.00  0.00     0.003 C 
ATOM      6  C   UNL     1       4.768 -35.406  47.084  1.00  0.00     0.004 C 
ENDBRANCH   1   5
TORSDOF 2
ENDMDL
MODEL 9
REMARK VINA RESULT:    -2.905     14.016     14.485
REMARK INTER + INTRA:          -3.290
REMARK INTER:                  -3.272
REMARK INTRA:                  -0.018
REMARK UNBOUND:                -0.045
REMARK SMILES CCCC(=O)[O-]
REMARK SMILES IDX 3 1 4 2 5 3 6 4 2 5 1 6
REMARK H PARENT
REMARK Flexibility Score: inf
ROOT
ATOM      1  C   UNL     1       4.106 -34.975  49.303  1.00  0.00     0.052 C 
ENDROOT
BRANCH   1   2
ATOM      2  C   UNL     1       4.257 -33.991  48.187  1.00  0.00     0.041 C 
ATOM      3  O   UNL     1       4.683 -34.368  47.062  1.00  0.00    -0.550 OA
ATOM      4  O   UNL     1       3.881 -32.667  48.371  1.00  0.00    -0.550 OA
ENDBRANCH   1   2
BRANCH   1   5
ATOM      5  C   UNL     1       2.688 -35.551  49.320  1.00  0.00     0.003 C 
ATOM      6  C   UNL     1       2.566 -36.741  48.371  1.00  0.00     0.004 C 
ENDBRANCH   1   5
TORSDOF 2
ENDMDL
