MODEL 1
REMARK VINA RESULT:    -4.950      0.000      0.000
REMARK INTER + INTRA:          -7.131
REMARK INTER:                  -6.686
REMARK INTRA:                  -0.445
REMARK UNBOUND:                -0.445
REMARK SMILES O=C[C@@H](O)[C@@H](O)[C@H](O)CO
REMARK SMILES IDX 7 1 9 2 10 3 5 5 3 6 2 7 1 8 4 9 6 11 8 13
REMARK H PARENT 10 4 4 10 6 12 8 14
REMARK Flexibility Score: inf
ROOT
ATOM      1  C   UNL     1    -143.283 102.359  32.780  1.00  0.00     0.171 C 
ENDROOT
BRANCH   1   2
ATOM      2  C   UNL     1    -143.225 100.817  32.829  1.00  0.00     0.190 C 
BRANCH   2   3
ATOM      3  O   UNL     1    -144.025 100.312  33.864  1.00  0.00    -0.394 OA
ATOM      4  H   UNL     1    -144.948 100.242  33.505  1.00  0.00     0.210 HD
ENDBRANCH   2   3
ENDBRANCH   1   2
BRANCH   1   5
ATOM      5  C   UNL     1    -142.929 103.076  34.118  1.00  0.00     0.181 C 
BRANCH   5   6
ATOM      6  C   UNL     1    -142.775 104.625  34.038  1.00  0.00     0.209 C 
BRANCH   6   7
ATOM      7  C   UNL     1    -141.764 105.192  35.002  1.00  0.00     0.258 C 
ATOM      8  O   UNL     1    -142.109 105.988  35.862  1.00  0.00    -0.300 OA
ENDBRANCH   6   7
BRANCH   6   9
ATOM      9  O   UNL     1    -142.458 105.020  32.727  1.00  0.00    -0.383 OA
ATOM     10  H   UNL     1    -142.795 104.320  32.107  1.00  0.00     0.211 HD
ENDBRANCH   6   9
ENDBRANCH   5   6
BRANCH   5  11
ATOM     11  O   UNL     1    -143.775 102.671  35.168  1.00  0.00    -0.387 OA
ATOM     12  H   UNL     1    -144.317 101.906  34.849  1.00  0.00     0.211 HD
ENDBRANCH   5  11
ENDBRANCH   1   5
BRANCH   1  13
ATOM     13  O   UNL     1    -144.554 102.771  32.345  1.00  0.00    -0.388 OA
ATOM     14  H   UNL     1    -145.047 101.955  32.067  1.00  0.00     0.211 HD
ENDBRANCH   1  13
TORSDOF 8
ENDMDL
MODEL 2
REMARK VINA RESULT:    -4.701      1.332      4.443
REMARK INTER + INTRA:          -6.795
REMARK INTER:                  -6.228
REMARK INTRA:                  -0.567
REMARK UNBOUND:                -0.445
REMARK SMILES O=C[C@@H](O)[C@@H](O)[C@H](O)CO
REMARK SMILES IDX 7 1 9 2 10 3 5 5 3 6 2 7 1 8 4 9 6 11 8 13
REMARK H PARENT 10 4 4 10 6 12 8 14
REMARK Flexibility Score: inf
ROOT
ATOM      1  C   UNL     1    -142.756 103.133  34.091  1.00  0.00     0.171 C 
ENDROOT
BRANCH   1   2
ATOM      2  C   UNL     1    -142.558 104.624  33.741  1.00  0.00     0.190 C 
BRANCH   2   3
ATOM      3  O   UNL     1    -142.865 104.874  32.396  1.00  0.00    -0.394 OA
ATOM      4  H   UNL     1    -142.081 105.343  32.006  1.00  0.00     0.210 HD
ENDBRANCH   2   3
ENDBRANCH   1   2
BRANCH   1   5
ATOM      5  C   UNL     1    -143.253 102.239  32.916  1.00  0.00     0.181 C 
BRANCH   5   6
ATOM      6  C   UNL     1    -143.271 100.704  33.191  1.00  0.00     0.209 C 
BRANCH   6   7
ATOM      7  C   UNL     1    -142.927  99.862  31.988  1.00  0.00     0.258 C 
ATOM      8  O   UNL     1    -142.705 100.388  30.908  1.00  0.00    -0.300 OA
ENDBRANCH   6   7
BRANCH   6   9
ATOM      9  O   UNL     1    -142.413 100.386  34.257  1.00  0.00    -0.383 OA
ATOM     10  H   UNL     1    -141.707 101.084  34.301  1.00  0.00     0.211 HD
ENDBRANCH   6   9
ENDBRANCH   5   6
BRANCH   5  11
ATOM     11  O   UNL     1    -144.468 102.706  32.381  1.00  0.00    -0.387 OA
ATOM     12  H   UNL     1    -144.259 103.354  31.661  1.00  0.00     0.211 HD
ENDBRANCH   5  11
ENDBRANCH   1   5
BRANCH   1  13
ATOM     13  O   UNL     1    -143.638 103.015  35.180  1.00  0.00    -0.388 OA
ATOM     14  H   UNL     1    -143.134 102.585  35.919  1.00  0.00     0.211 HD
ENDBRANCH   1  13
TORSDOF 8
ENDMDL
MODEL 3
REMARK VINA RESULT:    -4.681      2.083      4.190
REMARK INTER + INTRA:          -6.767
REMARK INTER:                  -6.271
REMARK INTRA:                  -0.496
REMARK UNBOUND:                -0.445
REMARK SMILES O=C[C@@H](O)[C@@H](O)[C@H](O)CO
REMARK SMILES IDX 7 1 9 2 10 3 5 5 3 6 2 7 1 8 4 9 6 11 8 13
REMARK H PARENT 10 4 4 10 6 12 8 14
REMARK Flexibility Score: inf
ROOT
ATOM      1  C   UNL     1    -143.811 102.475  32.368  1.00  0.00     0.171 C 
ENDROOT
BRANCH   1   2
ATOM      2  C   UNL     1    -143.080 103.789  32.718  1.00  0.00     0.190 C 
BRANCH   2   3
ATOM      3  O   UNL     1    -143.550 104.854  31.936  1.00  0.00    -0.394 OA
ATOM      4  H   UNL     1    -144.171 104.466  31.267  1.00  0.00     0.210 HD
ENDBRANCH   2   3
ENDBRANCH   1   2
BRANCH   1   5
ATOM      5  C   UNL     1    -143.913 101.444  33.532  1.00  0.00     0.181 C 
BRANCH   5   6
ATOM      6  C   UNL     1    -142.942 100.227  33.448  1.00  0.00     0.209 C 
BRANCH   6   7
ATOM      7  C   UNL     1    -142.662  99.573  34.778  1.00  0.00     0.258 C 
ATOM      8  O   UNL     1    -143.580  99.289  35.532  1.00  0.00    -0.300 OA
ENDBRANCH   6   7
BRANCH   6   9
ATOM      9  O   UNL     1    -143.429  99.272  32.539  1.00  0.00    -0.383 OA
ATOM     10  H   UNL     1    -143.538  99.717  31.657  1.00  0.00     0.211 HD
ENDBRANCH   6   9
ENDBRANCH   5   6
BRANCH   5  11
ATOM     11  O   UNL     1    -143.884 102.072  34.791  1.00  0.00    -0.387 OA
ATOM     12  H   UNL     1    -143.716 103.038  34.650  1.00  0.00     0.211 HD
ENDBRANCH   5  11
ENDBRANCH   1   5
BRANCH   1  13
ATOM     13  O   UNL     1    -143.195 101.873  31.257  1.00  0.00    -0.388 OA
ATOM     14  H   UNL     1    -143.084 100.909  31.471  1.00  0.00     0.211 HD
ENDBRANCH   1  13
TORSDOF 8
ENDMDL
MODEL 4
REMARK VINA RESULT:    -4.605     19.068     21.287
REMARK INTER + INTRA:          -6.666
REMARK INTER:                  -6.041
REMARK INTRA:                  -0.625
REMARK UNBOUND:                -0.445
REMARK SMILES O=C[C@@H](O)[C@@H](O)[C@H](O)CO
REMARK SMILES IDX 7 1 9 2 10 3 5 5 3 6 2 7 1 8 4 9 6 11 8 13
REMARK H PARENT 10 4 4 10 6 12 8 14
REMARK Flexibility Score: inf
ROOT
ATOM      1  C   UNL     1    -129.409 117.065  44.379  1.00  0.00     0.171 C 
ENDROOT
BRANCH   1   2
ATOM      2  C   UNL     1    -128.971 118.353  43.650  1.00  0.00     0.190 C 
BRANCH   2   3
ATOM      3  O   UNL     1    -128.317 118.057  42.445  1.00  0.00    -0.394 OA
ATOM      4  H   UNL     1    -127.443 118.526  42.470  1.00  0.00     0.210 HD
ENDBRANCH   2   3
ENDBRANCH   1   2
BRANCH   1   5
ATOM      5  C   UNL     1    -129.632 115.827  43.458  1.00  0.00     0.181 C 
BRANCH   5   6
ATOM      6  C   UNL     1    -129.838 114.466  44.188  1.00  0.00     0.209 C 
BRANCH   6   7
ATOM      7  C   UNL     1    -129.468 113.262  43.358  1.00  0.00     0.258 C 
ATOM      8  O   UNL     1    -129.873 113.155  42.211  1.00  0.00    -0.300 OA
ENDBRANCH   6   7
BRANCH   6   9
ATOM      9  O   UNL     1    -129.129 114.446  45.401  1.00  0.00    -0.383 OA
ATOM     10  H   UNL     1    -129.740 114.105  46.107  1.00  0.00     0.211 HD
ENDBRANCH   6   9
ENDBRANCH   5   6
BRANCH   5  11
ATOM     11  O   UNL     1    -130.616 116.072  42.482  1.00  0.00    -0.387 OA
ATOM     12  H   UNL     1    -130.303 115.686  41.625  1.00  0.00     0.211 HD
ENDBRANCH   5  11
ENDBRANCH   1   5
BRANCH   1  13
ATOM     13  O   UNL     1    -130.576 117.315  45.123  1.00  0.00    -0.388 OA
ATOM     14  H   UNL     1    -130.288 117.592  46.033  1.00  0.00     0.211 HD
ENDBRANCH   1  13
TORSDOF 8
ENDMDL
MODEL 5
REMARK VINA RESULT:    -4.590      1.425      2.617
REMARK INTER + INTRA:          -6.644
REMARK INTER:                  -6.440
REMARK INTRA:                  -0.205
REMARK UNBOUND:                -0.445
REMARK SMILES O=C[C@@H](O)[C@@H](O)[C@H](O)CO
REMARK SMILES IDX 7 1 9 2 10 3 5 5 3 6 2 7 1 8 4 9 6 11 8 13
REMARK H PARENT 10 4 4 10 6 12 8 14
REMARK Flexibility Score: inf
ROOT
ATOM      1  C   UNL     1    -142.904 100.171  32.510  1.00  0.00     0.171 C 
ENDROOT
BRANCH   1   2
ATOM      2  C   UNL     1    -142.898  99.188  33.701  1.00  0.00     0.190 C 
BRANCH   2   3
ATOM      3  O   UNL     1    -144.192  98.995  34.205  1.00  0.00    -0.394 OA
ATOM      4  H   UNL     1    -144.331  98.014  34.270  1.00  0.00     0.210 HD
ENDBRANCH   2   3
ENDBRANCH   1   2
BRANCH   1   5
ATOM      5  C   UNL     1    -143.489 101.582  32.821  1.00  0.00     0.181 C 
BRANCH   5   6
ATOM      6  C   UNL     1    -143.037 102.223  34.168  1.00  0.00     0.209 C 
BRANCH   6   7
ATOM      7  C   UNL     1    -142.584 103.656  34.045  1.00  0.00     0.258 C 
ATOM      8  O   UNL     1    -142.624 104.401  35.012  1.00  0.00    -0.300 OA
ENDBRANCH   6   7
BRANCH   6   9
ATOM      9  O   UNL     1    -144.061 102.126  35.126  1.00  0.00    -0.383 OA
ATOM     10  H   UNL     1    -143.654 101.821  35.979  1.00  0.00     0.211 HD
ENDBRANCH   6   9
ENDBRANCH   5   6
BRANCH   5  11
ATOM     11  O   UNL     1    -143.345 102.460  31.730  1.00  0.00    -0.387 OA
ATOM     12  H   UNL     1    -144.132 102.350  31.140  1.00  0.00     0.211 HD
ENDBRANCH   5  11
ENDBRANCH   1   5
BRANCH   1  13
ATOM     13  O   UNL     1    -143.598  99.601  31.429  1.00  0.00    -0.388 OA
ATOM     14  H   UNL     1    -142.967  98.987  30.968  1.00  0.00     0.211 HD
ENDBRANCH   1  13
TORSDOF 8
ENDMDL
MODEL 6
REMARK VINA RESULT:    -4.575     19.019     21.140
REMARK INTER + INTRA:          -6.625
REMARK INTER:                  -6.008
REMARK INTRA:                  -0.617
REMARK UNBOUND:                -0.445
REMARK SMILES O=C[C@@H](O)[C@@H](O)[C@H](O)CO
REMARK SMILES IDX 7 1 9 2 10 3 5 5 3 6 2 7 1 8 4 9 6 11 8 13
REMARK H PARENT 10 4 4 10 6 12 8 14
REMARK Flexibility Score: inf
ROOT
ATOM      1  C   UNL     1    -129.995 116.681  44.922  1.00  0.00     0.171 C 
ENDROOT
BRANCH   1   2
ATOM      2  C   UNL     1    -130.405 116.915  46.393  1.00  0.00     0.190 C 
BRANCH   2   3
ATOM      3  O   UNL     1    -131.146 115.832  46.890  1.00  0.00    -0.394 OA
ATOM      4  H   UNL     1    -130.567 115.367  47.548  1.00  0.00     0.210 HD
ENDBRANCH   2   3
ENDBRANCH   1   2
BRANCH   1   5
ATOM      5  C   UNL     1    -129.739 115.193  44.536  1.00  0.00     0.181 C 
BRANCH   5   6
ATOM      6  C   UNL     1    -129.539 114.912  43.016  1.00  0.00     0.209 C 
BRANCH   6   7
ATOM      7  C   UNL     1    -129.902 113.509  42.599  1.00  0.00     0.258 C 
ATOM      8  O   UNL     1    -129.506 112.551  43.245  1.00  0.00    -0.300 OA
ENDBRANCH   6   7
BRANCH   6   9
ATOM      9  O   UNL     1    -130.259 115.840  42.245  1.00  0.00    -0.383 OA
ATOM     10  H   UNL     1    -130.953 115.343  41.737  1.00  0.00     0.211 HD
ENDBRANCH   6   9
ENDBRANCH   5   6
BRANCH   5  11
ATOM     11  O   UNL     1    -128.733 114.612  45.330  1.00  0.00    -0.387 OA
ATOM     12  H   UNL     1    -128.595 113.682  45.019  1.00  0.00     0.211 HD
ENDBRANCH   5  11
ENDBRANCH   1   5
BRANCH   1  13
ATOM     13  O   UNL     1    -128.857 117.450  44.621  1.00  0.00    -0.388 OA
ATOM     14  H   UNL     1    -128.914 117.691  43.659  1.00  0.00     0.211 HD
ENDBRANCH   1  13
TORSDOF 8
ENDMDL
MODEL 7
REMARK VINA RESULT:    -4.533      1.173      4.129
REMARK INTER + INTRA:          -6.567
REMARK INTER:                  -6.085
REMARK INTRA:                  -0.482
REMARK UNBOUND:                -0.445
REMARK SMILES O=C[C@@H](O)[C@@H](O)[C@H](O)CO
REMARK SMILES IDX 7 1 9 2 10 3 5 5 3 6 2 7 1 8 4 9 6 11 8 13
REMARK H PARENT 10 4 4 10 6 12 8 14
REMARK Flexibility Score: inf
ROOT
ATOM      1  C   UNL     1    -143.365 104.171  33.188  1.00  0.00     0.171 C 
ENDROOT
BRANCH   1   2
ATOM      2  C   UNL     1    -142.252 104.868  34.001  1.00  0.00     0.190 C 
BRANCH   2   3
ATOM      3  O   UNL     1    -142.553 104.873  35.371  1.00  0.00    -0.394 OA
ATOM      4  H   UNL     1    -142.036 105.618  35.775  1.00  0.00     0.210 HD
ENDBRANCH   2   3
ENDBRANCH   1   2
BRANCH   1   5
ATOM      5  C   UNL     1    -143.128 102.657  32.905  1.00  0.00     0.181 C 
BRANCH   5   6
ATOM      6  C   UNL     1    -143.875 101.665  33.847  1.00  0.00     0.209 C 
BRANCH   6   7
ATOM      7  C   UNL     1    -143.229 100.307  33.945  1.00  0.00     0.258 C 
ATOM      8  O   UNL     1    -142.971  99.671  32.934  1.00  0.00    -0.300 OA
ENDBRANCH   6   7
BRANCH   6   9
ATOM      9  O   UNL     1    -144.019 102.220  35.130  1.00  0.00    -0.383 OA
ATOM     10  H   UNL     1    -144.742 101.725  35.598  1.00  0.00     0.211 HD
ENDBRANCH   6   9
ENDBRANCH   5   6
BRANCH   5  11
ATOM     11  O   UNL     1    -143.304 102.345  31.543  1.00  0.00    -0.387 OA
ATOM     12  H   UNL     1    -143.985 102.961  31.172  1.00  0.00     0.211 HD
ENDBRANCH   5  11
ENDBRANCH   1   5
BRANCH   1  13
ATOM     13  O   UNL     1    -143.562 104.853  31.974  1.00  0.00    -0.388 OA
ATOM     14  H   UNL     1    -144.541 104.878  31.809  1.00  0.00     0.211 HD
ENDBRANCH   1  13
TORSDOF 8
ENDMDL
MODEL 8
REMARK VINA RESULT:    -4.508     18.880     20.267
REMARK INTER + INTRA:          -6.534
REMARK INTER:                  -6.081
REMARK INTRA:                  -0.452
REMARK UNBOUND:                -0.445
REMARK SMILES O=C[C@@H](O)[C@@H](O)[C@H](O)CO
REMARK SMILES IDX 7 1 9 2 10 3 5 5 3 6 2 7 1 8 4 9 6 11 8 13
REMARK H PARENT 10 4 4 10 6 12 8 14
REMARK Flexibility Score: inf
ROOT
ATOM      1  C   UNL     1    -129.432 113.752  43.120  1.00  0.00     0.171 C 
ENDROOT
BRANCH   1   2
ATOM      2  C   UNL     1    -129.285 112.362  43.778  1.00  0.00     0.190 C 
BRANCH   2   3
ATOM      3  O   UNL     1    -129.397 111.337  42.827  1.00  0.00    -0.394 OA
ATOM      4  H   UNL     1    -129.461 110.485  43.331  1.00  0.00     0.210 HD
ENDBRANCH   2   3
ENDBRANCH   1   2
BRANCH   1   5
ATOM      5  C   UNL     1    -129.547 114.946  44.115  1.00  0.00     0.181 C 
BRANCH   5   6
ATOM      6  C   UNL     1    -129.785 116.345  43.472  1.00  0.00     0.209 C 
BRANCH   6   7
ATOM      7  C   UNL     1    -129.537 117.501  44.408  1.00  0.00     0.258 C 
ATOM      8  O   UNL     1    -130.131 117.572  45.473  1.00  0.00    -0.300 OA
ENDBRANCH   6   7
BRANCH   6   9
ATOM      9  O   UNL     1    -129.004 116.493  42.313  1.00  0.00    -0.383 OA
ATOM     10  H   UNL     1    -128.956 117.462  42.098  1.00  0.00     0.211 HD
ENDBRANCH   6   9
ENDBRANCH   5   6
BRANCH   5  11
ATOM     11  O   UNL     1    -130.449 114.671  45.161  1.00  0.00    -0.387 OA
ATOM     12  H   UNL     1    -130.865 113.789  44.984  1.00  0.00     0.211 HD
ENDBRANCH   5  11
ENDBRANCH   1   5
BRANCH   1  13
ATOM     13  O   UNL     1    -130.540 113.751  42.255  1.00  0.00    -0.388 OA
ATOM     14  H   UNL     1    -131.248 114.299  42.686  1.00  0.00     0.211 HD
ENDBRANCH   1  13
TORSDOF 8
ENDMDL
MODEL 9
REMARK VINA RESULT:    -4.500     18.527     21.002
REMARK INTER + INTRA:          -6.524
REMARK INTER:                  -5.908
REMARK INTRA:                  -0.616
REMARK UNBOUND:                -0.445
REMARK SMILES O=C[C@@H](O)[C@@H](O)[C@H](O)CO
REMARK SMILES IDX 7 1 9 2 10 3 5 5 3 6 2 7 1 8 4 9 6 11 8 13
REMARK H PARENT 10 4 4 10 6 12 8 14
REMARK Flexibility Score: inf
ROOT
ATOM      1  C   UNL     1    -129.931 114.293  43.954  1.00  0.00     0.171 C 
ENDROOT
BRANCH   1   2
ATOM      2  C   UNL     1    -129.759 113.338  42.753  1.00  0.00     0.190 C 
BRANCH   2   3
ATOM      3  O   UNL     1    -130.794 113.505  41.821  1.00  0.00    -0.394 OA
ATOM      4  H   UNL     1    -130.475 114.168  41.154  1.00  0.00     0.210 HD
ENDBRANCH   2   3
ENDBRANCH   1   2
BRANCH   1   5
ATOM      5  C   UNL     1    -129.797 115.809  43.618  1.00  0.00     0.181 C 
BRANCH   5   6
ATOM      6  C   UNL     1    -129.482 116.746  44.823  1.00  0.00     0.209 C 
BRANCH   6   7
ATOM      7  C   UNL     1    -129.364 118.203  44.452  1.00  0.00     0.258 C 
ATOM      8  O   UNL     1    -128.390 118.607  43.835  1.00  0.00    -0.300 OA
ENDBRANCH   6   7
BRANCH   6   9
ATOM      9  O   UNL     1    -130.444 116.587  45.834  1.00  0.00    -0.383 OA
ATOM     10  H   UNL     1    -131.223 117.161  45.608  1.00  0.00     0.211 HD
ENDBRANCH   6   9
ENDBRANCH   5   6
BRANCH   5  11
ATOM     11  O   UNL     1    -128.940 116.028  42.523  1.00  0.00    -0.387 OA
ATOM     12  H   UNL     1    -129.460 115.889  41.692  1.00  0.00     0.211 HD
ENDBRANCH   5  11
ENDBRANCH   1   5
BRANCH   1  13
ATOM     13  O   UNL     1    -129.015 113.951  44.965  1.00  0.00    -0.388 OA
ATOM     14  H   UNL     1    -129.427 113.220  45.497  1.00  0.00     0.211 HD
ENDBRANCH   1  13
TORSDOF 8
ENDMDL
