MODEL 1
REMARK VINA RESULT:    -5.084      0.000      0.000
REMARK INTER + INTRA:          -5.232
REMARK INTER:                  -5.232
REMARK INTRA:                   0.000
REMARK UNBOUND:                 0.000
REMARK SMILES Oc1ccc2[nH]ccc2c1
REMARK SMILES IDX 3 1 4 2 5 3 9 4 8 5 7 6 6 7 10 8 2 9 1 11
REMARK H PARENT 6 10 1 12
REMARK Flexibility Score: inf
ROOT
ATOM      1  C   UNL     1       7.188   8.743  12.670  1.00  0.00     0.048 A 
ATOM      2  C   UNL     1       5.883   8.336  12.339  1.00  0.00     0.030 A 
ATOM      3  C   UNL     1       5.549   6.997  12.534  1.00  0.00     0.046 A 
ATOM      4  C   UNL     1       6.453   6.096  13.034  1.00  0.00     0.003 A 
ATOM      5  C   UNL     1       5.819   4.875  13.105  1.00  0.00     0.028 A 
ATOM      6  C   UNL     1       4.530   5.106  12.633  1.00  0.00     0.083 A 
ATOM      7  N   UNL     1       4.371   6.403  12.287  1.00  0.00    -0.361 N 
ATOM      8  C   UNL     1       7.753   6.467  13.371  1.00  0.00     0.056 A 
ATOM      9  C   UNL     1       8.123   7.815  13.185  1.00  0.00     0.116 A 
ATOM     10  H   UNL     1       3.507   6.849  11.904  1.00  0.00     0.166 HD
ENDROOT
BRANCH   9  11
ATOM     11  O   UNL     1       9.408   8.245  13.505  1.00  0.00    -0.508 OA
ATOM     12  H   UNL     1       9.717   8.316  14.469  1.00  0.00     0.293 HD
ENDBRANCH   9  11
TORSDOF 1
ENDMDL
MODEL 2
REMARK VINA RESULT:    -4.609      0.972      1.924
REMARK INTER + INTRA:          -4.744
REMARK INTER:                  -4.744
REMARK INTRA:                   0.000
REMARK UNBOUND:                 0.000
REMARK SMILES Oc1ccc2[nH]ccc2c1
REMARK SMILES IDX 3 1 4 2 5 3 9 4 8 5 7 6 6 7 10 8 2 9 1 11
REMARK H PARENT 6 10 1 12
REMARK Flexibility Score: inf
ROOT
ATOM      1  C   UNL     1       8.360   6.610  12.925  1.00  0.00     0.048 A 
ATOM      2  C   UNL     1       7.497   5.512  12.758  1.00  0.00     0.030 A 
ATOM      3  C   UNL     1       6.132   5.769  12.638  1.00  0.00     0.046 A 
ATOM      4  C   UNL     1       5.634   7.045  12.677  1.00  0.00     0.003 A 
ATOM      5  C   UNL     1       4.267   6.957  12.531  1.00  0.00     0.028 A 
ATOM      6  C   UNL     1       4.001   5.597  12.408  1.00  0.00     0.083 A 
ATOM      7  N   UNL     1       5.143   4.876  12.473  1.00  0.00    -0.361 N 
ATOM      8  C   UNL     1       6.462   8.153  12.841  1.00  0.00     0.056 A 
ATOM      9  C   UNL     1       7.848   7.928  12.966  1.00  0.00     0.116 A 
ATOM     10  H   UNL     1       5.233   3.837  12.409  1.00  0.00     0.166 HD
ENDROOT
BRANCH   9  11
ATOM     11  O   UNL     1       8.726   8.997  13.131  1.00  0.00    -0.508 OA
ATOM     12  H   UNL     1       9.524   8.934  13.754  1.00  0.00     0.293 HD
ENDBRANCH   9  11
TORSDOF 1
ENDMDL
MODEL 3
REMARK VINA RESULT:    -4.281      2.599      3.608
REMARK INTER + INTRA:          -4.407
REMARK INTER:                  -4.407
REMARK INTRA:                   0.000
REMARK UNBOUND:                 0.000
REMARK SMILES Oc1ccc2[nH]ccc2c1
REMARK SMILES IDX 3 1 4 2 5 3 9 4 8 5 7 6 6 7 10 8 2 9 1 11
REMARK H PARENT 6 10 1 12
REMARK Flexibility Score: inf
ROOT
ATOM      1  C   UNL     1       4.304   7.172  11.874  1.00  0.00     0.048 A 
ATOM      2  C   UNL     1       5.275   8.185  11.973  1.00  0.00     0.030 A 
ATOM      3  C   UNL     1       6.476   7.876  12.610  1.00  0.00     0.046 A 
ATOM      4  C   UNL     1       6.716   6.629  13.125  1.00  0.00     0.003 A 
ATOM      5  C   UNL     1       7.978   6.651  13.680  1.00  0.00     0.028 A 
ATOM      6  C   UNL     1       8.447   7.943  13.466  1.00  0.00     0.083 A 
ATOM      7  N   UNL     1       7.527   8.687  12.812  1.00  0.00    -0.361 N 
ATOM      8  C   UNL     1       5.776   5.605  13.043  1.00  0.00     0.056 A 
ATOM      9  C   UNL     1       4.551   5.884  12.405  1.00  0.00     0.116 A 
ATOM     10  H   UNL     1       7.618   9.687  12.525  1.00  0.00     0.166 HD
ENDROOT
BRANCH   9  11
ATOM     11  O   UNL     1       3.572   4.899  12.292  1.00  0.00    -0.508 OA
ATOM     12  H   UNL     1       2.585   5.126  12.351  1.00  0.00     0.293 HD
ENDBRANCH   9  11
TORSDOF 1
ENDMDL
MODEL 4
REMARK VINA RESULT:    -4.150      0.926      2.219
REMARK INTER + INTRA:          -4.271
REMARK INTER:                  -4.271
REMARK INTRA:                   0.000
REMARK UNBOUND:                 0.000
REMARK SMILES Oc1ccc2[nH]ccc2c1
REMARK SMILES IDX 3 1 4 2 5 3 9 4 8 5 7 6 6 7 10 8 2 9 1 11
REMARK H PARENT 6 10 1 12
REMARK Flexibility Score: inf
ROOT
ATOM      1  C   UNL     1       7.789   6.606  13.958  1.00  0.00     0.048 A 
ATOM      2  C   UNL     1       6.489   6.158  13.663  1.00  0.00     0.030 A 
ATOM      3  C   UNL     1       5.701   6.948  12.828  1.00  0.00     0.046 A 
ATOM      4  C   UNL     1       6.166   8.125  12.302  1.00  0.00     0.003 A 
ATOM      5  C   UNL     1       5.158   8.657  11.529  1.00  0.00     0.028 A 
ATOM      6  C   UNL     1       4.106   7.751  11.629  1.00  0.00     0.083 A 
ATOM      7  N   UNL     1       4.443   6.710  12.423  1.00  0.00    -0.361 N 
ATOM      8  C   UNL     1       7.449   8.596  12.574  1.00  0.00     0.056 A 
ATOM      9  C   UNL     1       8.271   7.820  13.417  1.00  0.00     0.116 A 
ATOM     10  H   UNL     1       3.845   5.889  12.668  1.00  0.00     0.166 HD
ENDROOT
BRANCH   9  11
ATOM     11  O   UNL     1       9.563   8.240  13.724  1.00  0.00    -0.508 OA
ATOM     12  H   UNL     1      10.207   7.641  14.229  1.00  0.00     0.293 HD
ENDBRANCH   9  11
TORSDOF 1
ENDMDL
MODEL 5
REMARK VINA RESULT:    -4.006      2.572      3.097
REMARK INTER + INTRA:          -4.123
REMARK INTER:                  -4.123
REMARK INTRA:                   0.000
REMARK UNBOUND:                 0.000
REMARK SMILES Oc1ccc2[nH]ccc2c1
REMARK SMILES IDX 3 1 4 2 5 3 9 4 8 5 7 6 6 7 10 8 2 9 1 11
REMARK H PARENT 6 10 1 12
REMARK Flexibility Score: inf
ROOT
ATOM      1  C   UNL     1       5.331   8.623  11.995  1.00  0.00     0.048 A 
ATOM      2  C   UNL     1       6.605   8.158  11.625  1.00  0.00     0.030 A 
ATOM      3  C   UNL     1       6.967   6.869  12.015  1.00  0.00     0.046 A 
ATOM      4  C   UNL     1       6.117   6.071  12.734  1.00  0.00     0.003 A 
ATOM      5  C   UNL     1       6.766   4.875  12.955  1.00  0.00     0.028 A 
ATOM      6  C   UNL     1       8.007   5.016  12.342  1.00  0.00     0.083 A 
ATOM      7  N   UNL     1       8.124   6.235  11.769  1.00  0.00    -0.361 N 
ATOM      8  C   UNL     1       4.849   6.501  13.116  1.00  0.00     0.056 A 
ATOM      9  C   UNL     1       4.452   7.801  12.738  1.00  0.00     0.116 A 
ATOM     10  H   UNL     1       8.949   6.604  11.244  1.00  0.00     0.166 HD
ENDROOT
BRANCH   9  11
ATOM     11  O   UNL     1       3.195   8.286  13.091  1.00  0.00    -0.508 OA
ATOM     12  H   UNL     1       2.448   8.363  12.410  1.00  0.00     0.293 HD
ENDBRANCH   9  11
TORSDOF 1
ENDMDL
MODEL 6
REMARK VINA RESULT:    -3.305      1.953      2.811
REMARK INTER + INTRA:          -3.402
REMARK INTER:                  -3.402
REMARK INTRA:                   0.000
REMARK UNBOUND:                 0.000
REMARK SMILES Oc1ccc2[nH]ccc2c1
REMARK SMILES IDX 3 1 4 2 5 3 9 4 8 5 7 6 6 7 10 8 2 9 1 11
REMARK H PARENT 6 10 1 12
REMARK Flexibility Score: inf
ROOT
ATOM      1  C   UNL     1       7.742   6.965  13.858  1.00  0.00     0.048 A 
ATOM      2  C   UNL     1       7.532   8.056  12.995  1.00  0.00     0.030 A 
ATOM      3  C   UNL     1       6.345   8.091  12.265  1.00  0.00     0.046 A 
ATOM      4  C   UNL     1       5.403   7.102  12.377  1.00  0.00     0.003 A 
ATOM      5  C   UNL     1       4.362   7.430  11.536  1.00  0.00     0.028 A 
ATOM      6  C   UNL     1       4.737   8.631  10.943  1.00  0.00     0.083 A 
ATOM      7  N   UNL     1       5.949   9.031  11.392  1.00  0.00    -0.361 N 
ATOM      8  C   UNL     1       5.580   6.009  13.223  1.00  0.00     0.056 A 
ATOM      9  C   UNL     1       6.771   5.944  13.975  1.00  0.00     0.116 A 
ATOM     10  H   UNL     1       6.467   9.894  11.114  1.00  0.00     0.166 HD
ENDROOT
BRANCH   9  11
ATOM     11  O   UNL     1       7.003   4.875  14.838  1.00  0.00    -0.508 OA
ATOM     12  H   UNL     1       7.196   3.944  14.486  1.00  0.00     0.293 HD
ENDBRANCH   9  11
TORSDOF 1
ENDMDL
