MODEL 1
REMARK VINA RESULT:    -4.865      0.000      0.000
REMARK INTER + INTRA:          -7.337
REMARK INTER:                  -6.571
REMARK INTRA:                  -0.766
REMARK UNBOUND:                -0.766
REMARK SMILES CC(=O)CCC=C(C)CCC=C(C)C
REMARK SMILES IDX 7 1 6 2 8 3 9 4 10 5 11 6 13 7 12 8 14 9 5 10 4 11 2 12 3 13
REMARK SMILES IDX 1 14
REMARK H PARENT
REMARK Flexibility Score: inf
ROOT
ATOM      1  C   UNL     1      20.470  25.266  27.688  1.00  0.00    -0.077 C 
ATOM      2  C   UNL     1      21.715  25.755  27.897  1.00  0.00    -0.028 C 
ATOM      3  C   UNL     1      20.310  24.115  26.728  1.00  0.00     0.039 C 
ENDROOT
BRANCH   1   4
ATOM      4  C   UNL     1      19.233  25.794  28.393  1.00  0.00     0.034 C 
BRANCH   4   5
ATOM      5  C   UNL     1      18.433  26.758  27.505  1.00  0.00     0.032 C 
BRANCH   5   6
ATOM      6  C   UNL     1      18.777  28.197  27.802  1.00  0.00    -0.028 C 
ATOM      7  C   UNL     1      17.007  28.461  29.555  1.00  0.00     0.039 C 
ATOM      8  C   UNL     1      18.172  28.962  28.737  1.00  0.00    -0.080 C 
ATOM      9  C   UNL     1      18.687  30.360  28.961  1.00  0.00     0.039 C 
ENDBRANCH   5   6
ENDBRANCH   4   5
ENDBRANCH   1   4
BRANCH   2  10
ATOM     10  C   UNL     1      22.050  26.925  28.787  1.00  0.00     0.035 C 
BRANCH  10  11
ATOM     11  C   UNL     1      23.054  27.863  28.100  1.00  0.00     0.079 C 
BRANCH  11  12
ATOM     12  C   UNL     1      24.451  27.811  28.679  1.00  0.00     0.130 C 
ATOM     13  O   UNL     1      25.026  26.733  28.707  1.00  0.00    -0.300 OA
ATOM     14  C   UNL     1      25.164  29.024  29.207  1.00  0.00     0.087 C 
ENDBRANCH  11  12
ENDBRANCH  10  11
ENDBRANCH   2  10
TORSDOF 6
ENDMDL
MODEL 2
REMARK VINA RESULT:    -4.836      3.888      7.219
REMARK INTER + INTRA:          -7.299
REMARK INTER:                  -5.861
REMARK INTRA:                  -1.437
REMARK UNBOUND:                -0.766
REMARK SMILES CC(=O)CCC=C(C)CCC=C(C)C
REMARK SMILES IDX 7 1 6 2 8 3 9 4 10 5 11 6 13 7 12 8 14 9 5 10 4 11 2 12 3 13
REMARK SMILES IDX 1 14
REMARK H PARENT
REMARK Flexibility Score: inf
ROOT
ATOM      1  C   UNL     1      17.443  32.328  29.727  1.00  0.00    -0.077 C 
ATOM      2  C   UNL     1      16.094  32.250  29.800  1.00  0.00    -0.028 C 
ATOM      3  C   UNL     1      18.050  33.512  29.019  1.00  0.00     0.039 C 
ENDROOT
BRANCH   1   4
ATOM      4  C   UNL     1      18.376  31.305  30.351  1.00  0.00     0.034 C 
BRANCH   4   5
ATOM      5  C   UNL     1      19.352  30.715  29.322  1.00  0.00     0.032 C 
BRANCH   5   6
ATOM      6  C   UNL     1      18.665  29.723  28.416  1.00  0.00    -0.028 C 
ATOM      7  C   UNL     1      20.037  27.775  29.190  1.00  0.00     0.039 C 
ATOM      8  C   UNL     1      18.938  28.400  28.367  1.00  0.00    -0.080 C 
ATOM      9  C   UNL     1      18.107  27.531  27.458  1.00  0.00     0.039 C 
ENDBRANCH   5   6
ENDBRANCH   4   5
ENDBRANCH   1   4
BRANCH   2  10
ATOM     10  C   UNL     1      15.321  31.119  30.431  1.00  0.00     0.035 C 
BRANCH  10  11
ATOM     11  C   UNL     1      14.931  30.071  29.378  1.00  0.00     0.079 C 
BRANCH  11  12
ATOM     12  C   UNL     1      15.308  28.652  29.744  1.00  0.00     0.130 C 
ATOM     13  O   UNL     1      14.881  27.741  29.050  1.00  0.00    -0.300 OA
ATOM     14  C   UNL     1      16.193  28.315  30.912  1.00  0.00     0.087 C 
ENDBRANCH  11  12
ENDBRANCH  10  11
ENDBRANCH   2  10
TORSDOF 6
ENDMDL
MODEL 3
REMARK VINA RESULT:    -4.713      3.544      6.500
REMARK INTER + INTRA:          -7.132
REMARK INTER:                  -6.187
REMARK INTRA:                  -0.945
REMARK UNBOUND:                -0.766
REMARK SMILES CC(=O)CCC=C(C)CCC=C(C)C
REMARK SMILES IDX 7 1 6 2 8 3 9 4 10 5 11 6 13 7 12 8 14 9 5 10 4 11 2 12 3 13
REMARK SMILES IDX 1 14
REMARK H PARENT
REMARK Flexibility Score: inf
ROOT
ATOM      1  C   UNL     1      17.891  28.485  28.476  1.00  0.00    -0.077 C 
ATOM      2  C   UNL     1      16.737  28.562  29.179  1.00  0.00    -0.028 C 
ATOM      3  C   UNL     1      18.071  27.326  27.530  1.00  0.00     0.039 C 
ENDROOT
BRANCH   1   4
ATOM      4  C   UNL     1      18.997  29.521  28.566  1.00  0.00     0.034 C 
BRANCH   4   5
ATOM      5  C   UNL     1      20.094  29.106  29.557  1.00  0.00     0.032 C 
BRANCH   5   6
ATOM      6  C   UNL     1      21.436  28.985  28.877  1.00  0.00    -0.028 C 
ATOM      7  C   UNL     1      21.441  26.480  28.906  1.00  0.00     0.039 C 
ATOM      8  C   UNL     1      22.038  27.820  28.550  1.00  0.00    -0.080 C 
ATOM      9  C   UNL     1      23.346  27.874  27.804  1.00  0.00     0.039 C 
ENDBRANCH   5   6
ENDBRANCH   4   5
ENDBRANCH   1   4
BRANCH   2  10
ATOM     10  C   UNL     1      16.409  29.625  30.197  1.00  0.00     0.035 C 
BRANCH  10  11
ATOM     11  C   UNL     1      15.410  30.641  29.623  1.00  0.00     0.079 C 
BRANCH  11  12
ATOM     12  C   UNL     1      15.852  32.083  29.742  1.00  0.00     0.130 C 
ATOM     13  O   UNL     1      15.330  32.780  30.600  1.00  0.00    -0.300 OA
ATOM     14  C   UNL     1      16.909  32.691  28.863  1.00  0.00     0.087 C 
ENDBRANCH  11  12
ENDBRANCH  10  11
ENDBRANCH   2  10
TORSDOF 6
ENDMDL
MODEL 4
REMARK VINA RESULT:    -4.712      4.237      6.764
REMARK INTER + INTRA:          -7.131
REMARK INTER:                  -5.791
REMARK INTRA:                  -1.340
REMARK UNBOUND:                -0.766
REMARK SMILES CC(=O)CCC=C(C)CCC=C(C)C
REMARK SMILES IDX 7 1 6 2 8 3 9 4 10 5 11 6 13 7 12 8 14 9 5 10 4 11 2 12 3 13
REMARK SMILES IDX 1 14
REMARK H PARENT
REMARK Flexibility Score: inf
ROOT
ATOM      1  C   UNL     1      18.572  32.533  29.676  1.00  0.00    -0.077 C 
ATOM      2  C   UNL     1      19.209  31.341  29.737  1.00  0.00    -0.028 C 
ATOM      3  C   UNL     1      18.949  33.592  30.680  1.00  0.00     0.039 C 
ENDROOT
BRANCH   1   4
ATOM      4  C   UNL     1      17.524  32.871  28.631  1.00  0.00     0.034 C 
BRANCH   4   5
ATOM      5  C   UNL     1      16.133  33.067  29.254  1.00  0.00     0.032 C 
BRANCH   5   6
ATOM      6  C   UNL     1      15.553  31.758  29.730  1.00  0.00    -0.028 C 
ATOM      7  C   UNL     1      15.580  32.406  32.150  1.00  0.00     0.039 C 
ATOM      8  C   UNL     1      15.269  31.458  31.017  1.00  0.00    -0.080 C 
ATOM      9  C   UNL     1      14.620  30.132  31.318  1.00  0.00     0.039 C 
ENDBRANCH   5   6
ENDBRANCH   4   5
ENDBRANCH   1   4
BRANCH   2  10
ATOM     10  C   UNL     1      18.928  30.159  28.842  1.00  0.00     0.035 C 
BRANCH  10  11
ATOM     11  C   UNL     1      18.096  29.101  29.580  1.00  0.00     0.079 C 
BRANCH  11  12
ATOM     12  C   UNL     1      17.324  28.170  28.670  1.00  0.00     0.130 C 
ATOM     13  O   UNL     1      16.116  28.076  28.828  1.00  0.00    -0.300 OA
ATOM     14  C   UNL     1      17.973  27.370  27.576  1.00  0.00     0.087 C 
ENDBRANCH  11  12
ENDBRANCH  10  11
ENDBRANCH   2  10
TORSDOF 6
ENDMDL
MODEL 5
REMARK VINA RESULT:    -4.712      4.489      6.646
REMARK INTER + INTRA:          -7.131
REMARK INTER:                  -5.408
REMARK INTRA:                  -1.723
REMARK UNBOUND:                -0.766
REMARK SMILES CC(=O)CCC=C(C)CCC=C(C)C
REMARK SMILES IDX 7 1 6 2 8 3 9 4 10 5 11 6 13 7 12 8 14 9 5 10 4 11 2 12 3 13
REMARK SMILES IDX 1 14
REMARK H PARENT
REMARK Flexibility Score: inf
ROOT
ATOM      1  C   UNL     1      15.804  29.726  30.225  1.00  0.00    -0.077 C 
ATOM      2  C   UNL     1      15.413  30.821  29.533  1.00  0.00    -0.028 C 
ATOM      3  C   UNL     1      15.328  28.377  29.749  1.00  0.00     0.039 C 
ENDROOT
BRANCH   1   4
ATOM      4  C   UNL     1      16.724  29.780  31.431  1.00  0.00     0.034 C 
BRANCH   4   5
ATOM      5  C   UNL     1      17.990  28.934  31.228  1.00  0.00     0.032 C 
BRANCH   5   6
ATOM      6  C   UNL     1      19.179  29.795  30.879  1.00  0.00    -0.028 C 
ATOM      7  C   UNL     1      18.907  29.505  28.405  1.00  0.00     0.039 C 
ATOM      8  C   UNL     1      19.583  30.086  29.622  1.00  0.00    -0.080 C 
ATOM      9  C   UNL     1      20.749  31.025  29.445  1.00  0.00     0.039 C 
ENDBRANCH   5   6
ENDBRANCH   4   5
ENDBRANCH   1   4
BRANCH   2  10
ATOM     10  C   UNL     1      15.760  32.245  29.892  1.00  0.00     0.035 C 
BRANCH  10  11
ATOM     11  C   UNL     1      16.832  32.801  28.944  1.00  0.00     0.079 C 
BRANCH  11  12
ATOM     12  C   UNL     1      17.990  33.477  29.644  1.00  0.00     0.130 C 
ATOM     13  O   UNL     1      18.777  34.125  28.968  1.00  0.00    -0.300 OA
ATOM     14  C   UNL     1      18.209  33.399  31.129  1.00  0.00     0.087 C 
ENDBRANCH  11  12
ENDBRANCH  10  11
ENDBRANCH   2  10
TORSDOF 6
ENDMDL
MODEL 6
REMARK VINA RESULT:    -4.689      1.900      4.644
REMARK INTER + INTRA:          -7.100
REMARK INTER:                  -6.176
REMARK INTRA:                  -0.924
REMARK UNBOUND:                -0.766
REMARK SMILES CC(=O)CCC=C(C)CCC=C(C)C
REMARK SMILES IDX 7 1 6 2 8 3 9 4 10 5 11 6 13 7 12 8 14 9 5 10 4 11 2 12 3 13
REMARK SMILES IDX 1 14
REMARK H PARENT
REMARK Flexibility Score: inf
ROOT
ATOM      1  C   UNL     1      20.157  25.140  27.593  1.00  0.00    -0.077 C 
ATOM      2  C   UNL     1      18.898  25.627  27.498  1.00  0.00    -0.028 C 
ATOM      3  C   UNL     1      20.622  24.162  26.544  1.00  0.00     0.039 C 
ENDROOT
BRANCH   1   4
ATOM      4  C   UNL     1      21.136  25.553  28.678  1.00  0.00     0.034 C 
BRANCH   4   5
ATOM      5  C   UNL     1      22.369  26.263  28.099  1.00  0.00     0.032 C 
BRANCH   5   6
ATOM      6  C   UNL     1      22.621  27.581  28.790  1.00  0.00    -0.028 C 
ATOM      7  C   UNL     1      25.116  27.400  28.643  1.00  0.00     0.039 C 
ATOM      8  C   UNL     1      23.841  28.119  29.013  1.00  0.00    -0.080 C 
ATOM      9  C   UNL     1      23.917  29.482  29.650  1.00  0.00     0.039 C 
ENDBRANCH   5   6
ENDBRANCH   4   5
ENDBRANCH   1   4
BRANCH   2  10
ATOM     10  C   UNL     1      18.258  26.577  28.480  1.00  0.00     0.035 C 
BRANCH  10  11
ATOM     11  C   UNL     1      18.580  28.034  28.119  1.00  0.00     0.079 C 
BRANCH  11  12
ATOM     12  C   UNL     1      19.294  28.802  29.209  1.00  0.00     0.130 C 
ATOM     13  O   UNL     1      19.450  28.259  30.293  1.00  0.00    -0.300 OA
ATOM     14  C   UNL     1      19.831  30.193  29.015  1.00  0.00     0.087 C 
ENDBRANCH  11  12
ENDBRANCH  10  11
ENDBRANCH   2  10
TORSDOF 6
ENDMDL
MODEL 7
REMARK VINA RESULT:    -4.666      3.274      6.385
REMARK INTER + INTRA:          -7.068
REMARK INTER:                  -5.934
REMARK INTRA:                  -1.134
REMARK UNBOUND:                -0.766
REMARK SMILES CC(=O)CCC=C(C)CCC=C(C)C
REMARK SMILES IDX 7 1 6 2 8 3 9 4 10 5 11 6 13 7 12 8 14 9 5 10 4 11 2 12 3 13
REMARK SMILES IDX 1 14
REMARK H PARENT
REMARK Flexibility Score: inf
ROOT
ATOM      1  C   UNL     1      16.754  31.792  29.415  1.00  0.00    -0.077 C 
ATOM      2  C   UNL     1      17.437  30.626  29.486  1.00  0.00    -0.028 C 
ATOM      3  C   UNL     1      15.442  31.893  30.151  1.00  0.00     0.039 C 
ENDROOT
BRANCH   1   4
ATOM      4  C   UNL     1      17.254  33.012  28.662  1.00  0.00     0.034 C 
BRANCH   4   5
ATOM      5  C   UNL     1      17.917  34.032  29.599  1.00  0.00     0.032 C 
BRANCH   5   6
ATOM      6  C   UNL     1      19.403  34.123  29.352  1.00  0.00    -0.028 C 
ATOM      7  C   UNL     1      20.012  32.695  31.319  1.00  0.00     0.039 C 
ATOM      8  C   UNL     1      20.351  33.506  30.092  1.00  0.00    -0.080 C 
ATOM      9  C   UNL     1      21.790  33.639  29.667  1.00  0.00     0.039 C 
ENDBRANCH   5   6
ENDBRANCH   4   5
ENDBRANCH   1   4
BRANCH   2  10
ATOM     10  C   UNL     1      18.738  30.337  28.780  1.00  0.00     0.035 C 
BRANCH  10  11
ATOM     11  C   UNL     1      19.359  29.029  29.292  1.00  0.00     0.079 C 
BRANCH  11  12
ATOM     12  C   UNL     1      19.380  27.910  28.274  1.00  0.00     0.130 C 
ATOM     13  O   UNL     1      20.440  27.340  28.062  1.00  0.00    -0.300 OA
ATOM     14  C   UNL     1      18.157  27.462  27.523  1.00  0.00     0.087 C 
ENDBRANCH  11  12
ENDBRANCH  10  11
ENDBRANCH   2  10
TORSDOF 6
ENDMDL
MODEL 8
REMARK VINA RESULT:    -4.631      1.685      2.726
REMARK INTER + INTRA:          -7.021
REMARK INTER:                  -6.323
REMARK INTRA:                  -0.698
REMARK UNBOUND:                -0.766
REMARK SMILES CC(=O)CCC=C(C)CCC=C(C)C
REMARK SMILES IDX 7 1 6 2 8 3 9 4 10 5 11 6 13 7 12 8 14 9 5 10 4 11 2 12 3 13
REMARK SMILES IDX 1 14
REMARK H PARENT
REMARK Flexibility Score: inf
ROOT
ATOM      1  C   UNL     1      19.185  27.616  28.262  1.00  0.00    -0.077 C 
ATOM      2  C   UNL     1      19.980  26.548  28.506  1.00  0.00    -0.028 C 
ATOM      3  C   UNL     1      17.909  27.392  27.493  1.00  0.00     0.039 C 
ENDROOT
BRANCH   1   4
ATOM      4  C   UNL     1      19.495  29.020  28.752  1.00  0.00     0.034 C 
BRANCH   4   5
ATOM      5  C   UNL     1      18.387  29.566  29.665  1.00  0.00     0.032 C 
BRANCH   5   6
ATOM      6  C   UNL     1      18.008  30.978  29.289  1.00  0.00    -0.028 C 
ATOM      7  C   UNL     1      15.557  30.627  29.674  1.00  0.00     0.039 C 
ATOM      8  C   UNL     1      16.752  31.477  29.318  1.00  0.00    -0.080 C 
ATOM      9  C   UNL     1      16.552  32.933  28.984  1.00  0.00     0.039 C 
ENDBRANCH   5   6
ENDBRANCH   4   5
ENDBRANCH   1   4
BRANCH   2  10
ATOM     10  C   UNL     1      21.307  26.598  29.221  1.00  0.00     0.035 C 
BRANCH  10  11
ATOM     11  C   UNL     1      22.465  26.373  28.237  1.00  0.00     0.079 C 
BRANCH  11  12
ATOM     12  C   UNL     1      23.250  27.623  27.905  1.00  0.00     0.130 C 
ATOM     13  O   UNL     1      23.631  27.779  26.754  1.00  0.00    -0.300 OA
ATOM     14  C   UNL     1      23.570  28.684  28.921  1.00  0.00     0.087 C 
ENDBRANCH  11  12
ENDBRANCH  10  11
ENDBRANCH   2  10
TORSDOF 6
ENDMDL
MODEL 9
REMARK VINA RESULT:    -4.585      2.040      3.690
REMARK INTER + INTRA:          -6.959
REMARK INTER:                  -6.034
REMARK INTRA:                  -0.925
REMARK UNBOUND:                -0.766
REMARK SMILES CC(=O)CCC=C(C)CCC=C(C)C
REMARK SMILES IDX 7 1 6 2 8 3 9 4 10 5 11 6 13 7 12 8 14 9 5 10 4 11 2 12 3 13
REMARK SMILES IDX 1 14
REMARK H PARENT
REMARK Flexibility Score: inf
ROOT
ATOM      1  C   UNL     1      17.366  27.145  28.737  1.00  0.00    -0.077 C 
ATOM      2  C   UNL     1      17.949  25.968  28.411  1.00  0.00    -0.028 C 
ATOM      3  C   UNL     1      16.028  27.108  29.430  1.00  0.00     0.039 C 
ENDROOT
BRANCH   1   4
ATOM      4  C   UNL     1      18.003  28.497  28.472  1.00  0.00     0.034 C 
BRANCH   4   5
ATOM      5  C   UNL     1      17.970  29.401  29.714  1.00  0.00     0.032 C 
BRANCH   5   6
ATOM      6  C   UNL     1      17.715  30.841  29.342  1.00  0.00    -0.028 C 
ATOM      7  C   UNL     1      15.240  30.698  29.705  1.00  0.00     0.039 C 
ATOM      8  C   UNL     1      16.506  31.446  29.363  1.00  0.00    -0.080 C 
ATOM      9  C   UNL     1      16.434  32.914  29.035  1.00  0.00     0.039 C 
ENDBRANCH   5   6
ENDBRANCH   4   5
ENDBRANCH   1   4
BRANCH   2  10
ATOM     10  C   UNL     1      19.260  25.821  27.680  1.00  0.00     0.035 C 
BRANCH  10  11
ATOM     11  C   UNL     1      20.396  25.487  28.658  1.00  0.00     0.079 C 
BRANCH  11  12
ATOM     12  C   UNL     1      21.193  26.687  29.119  1.00  0.00     0.130 C 
ATOM     13  O   UNL     1      20.843  27.257  30.142  1.00  0.00    -0.300 OA
ATOM     14  C   UNL     1      22.401  27.200  28.384  1.00  0.00     0.087 C 
ENDBRANCH  11  12
ENDBRANCH  10  11
ENDBRANCH   2  10
TORSDOF 6
ENDMDL
