MODEL 1
REMARK VINA RESULT:    -3.344      0.000      0.000
REMARK INTER + INTRA:          -3.344
REMARK INTER:                  -3.344
REMARK INTRA:                   0.000
REMARK UNBOUND:                 0.000
REMARK SMILES c1cc[nH]c1
REMARK SMILES IDX 1 1 5 2 4 3 3 4 2 5
REMARK H PARENT 4 6
REMARK Flexibility Score: inf
ROOT
ATOM      1  C   UNL     1      -1.769   0.245  14.434  1.00  0.00     0.019 A 
ATOM      2  C   UNL     1      -1.679  -1.062  13.997  1.00  0.00     0.082 A 
ATOM      3  N   UNL     1      -1.309  -1.088  12.704  1.00  0.00    -0.368 N 
ATOM      4  C   UNL     1      -1.162   0.189  12.308  1.00  0.00     0.082 A 
ATOM      5  C   UNL     1      -1.439   1.042  13.357  1.00  0.00     0.019 A 
ATOM      6  H   UNL     1      -1.165  -1.939  12.119  1.00  0.00     0.165 HD
ENDROOT
TORSDOF 0
ENDMDL
MODEL 2
REMARK VINA RESULT:    -2.919      1.935      2.381
REMARK INTER + INTRA:          -2.919
REMARK INTER:                  -2.919
REMARK INTRA:                   0.000
REMARK UNBOUND:                 0.000
REMARK SMILES c1cc[nH]c1
REMARK SMILES IDX 1 1 5 2 4 3 3 4 2 5
REMARK H PARENT 4 6
REMARK Flexibility Score: inf
ROOT
ATOM      1  C   UNL     1      -1.418   0.710  13.736  1.00  0.00     0.019 A 
ATOM      2  C   UNL     1      -2.484  -0.067  14.142  1.00  0.00     0.082 A 
ATOM      3  N   UNL     1      -3.380   0.691  14.798  1.00  0.00    -0.368 N 
ATOM      4  C   UNL     1      -2.898   1.947  14.817  1.00  0.00     0.082 A 
ATOM      5  C   UNL     1      -1.682   1.995  14.166  1.00  0.00     0.019 A 
ATOM      6  H   UNL     1      -4.279   0.366  15.216  1.00  0.00     0.165 HD
ENDROOT
TORSDOF 0
ENDMDL
MODEL 3
REMARK VINA RESULT:    -2.914      1.456      2.313
REMARK INTER + INTRA:          -2.914
REMARK INTER:                  -2.914
REMARK INTRA:                   0.000
REMARK UNBOUND:                 0.000
REMARK SMILES c1cc[nH]c1
REMARK SMILES IDX 1 1 5 2 4 3 3 4 2 5
REMARK H PARENT 4 6
REMARK Flexibility Score: inf
ROOT
ATOM      1  C   UNL     1      -1.292  -0.454  12.899  1.00  0.00     0.019 A 
ATOM      2  C   UNL     1      -0.966   0.863  12.641  1.00  0.00     0.082 A 
ATOM      3  N   UNL     1      -1.378   1.644  13.655  1.00  0.00    -0.368 N 
ATOM      4  C   UNL     1      -1.965   0.841  14.560  1.00  0.00     0.082 A 
ATOM      5  C   UNL     1      -1.929  -0.468  14.123  1.00  0.00     0.019 A 
ATOM      6  H   UNL     1      -1.264   2.679  13.726  1.00  0.00     0.165 HD
ENDROOT
TORSDOF 0
ENDMDL
MODEL 4
REMARK VINA RESULT:    -2.886      1.120      1.768
REMARK INTER + INTRA:          -2.886
REMARK INTER:                  -2.886
REMARK INTRA:                   0.000
REMARK UNBOUND:                 0.000
REMARK SMILES c1cc[nH]c1
REMARK SMILES IDX 1 1 5 2 4 3 3 4 2 5
REMARK H PARENT 4 6
REMARK Flexibility Score: inf
ROOT
ATOM      1  C   UNL     1      -1.786   0.893  14.644  1.00  0.00     0.019 A 
ATOM      2  C   UNL     1      -1.103   1.626  13.695  1.00  0.00     0.082 A 
ATOM      3  N   UNL     1      -0.853   0.862  12.617  1.00  0.00    -0.368 N 
ATOM      4  C   UNL     1      -1.369  -0.355  12.866  1.00  0.00     0.082 A 
ATOM      5  C   UNL     1      -1.957  -0.371  14.116  1.00  0.00     0.019 A 
ATOM      6  H   UNL     1      -0.352   1.158  11.751  1.00  0.00     0.165 HD
ENDROOT
TORSDOF 0
ENDMDL
MODEL 5
REMARK VINA RESULT:    -2.871      1.751      2.171
REMARK INTER + INTRA:          -2.871
REMARK INTER:                  -2.871
REMARK INTRA:                   0.000
REMARK UNBOUND:                 0.000
REMARK SMILES c1cc[nH]c1
REMARK SMILES IDX 1 1 5 2 4 3 3 4 2 5
REMARK H PARENT 4 6
REMARK Flexibility Score: inf
ROOT
ATOM      1  C   UNL     1      -1.143   0.605  13.166  1.00  0.00     0.019 A 
ATOM      2  C   UNL     1      -1.307   0.274  11.835  1.00  0.00     0.082 A 
ATOM      3  N   UNL     1      -0.779   1.234  11.056  1.00  0.00    -0.368 N 
ATOM      4  C   UNL     1      -0.279   2.178  11.873  1.00  0.00     0.082 A 
ATOM      5  C   UNL     1      -0.487   1.819  13.190  1.00  0.00     0.019 A 
ATOM      6  H   UNL     1      -0.762   1.245  10.013  1.00  0.00     0.165 HD
ENDROOT
TORSDOF 0
ENDMDL
MODEL 6
REMARK VINA RESULT:    -2.769      2.975      3.474
REMARK INTER + INTRA:          -2.769
REMARK INTER:                  -2.769
REMARK INTRA:                   0.000
REMARK UNBOUND:                 0.000
REMARK SMILES c1cc[nH]c1
REMARK SMILES IDX 1 1 5 2 4 3 3 4 2 5
REMARK H PARENT 4 6
REMARK Flexibility Score: inf
ROOT
ATOM      1  C   UNL     1      -1.471   1.365  14.948  1.00  0.00     0.019 A 
ATOM      2  C   UNL     1      -2.765   1.805  14.759  1.00  0.00     0.082 A 
ATOM      3  N   UNL     1      -2.799   3.149  14.772  1.00  0.00    -0.368 N 
ATOM      4  C   UNL     1      -1.538   3.575  14.968  1.00  0.00     0.082 A 
ATOM      5  C   UNL     1      -0.688   2.493  15.081  1.00  0.00     0.019 A 
ATOM      6  H   UNL     1      -3.644   3.750  14.654  1.00  0.00     0.165 HD
ENDROOT
TORSDOF 0
ENDMDL
MODEL 7
REMARK VINA RESULT:    -2.727      9.347      9.526
REMARK INTER + INTRA:          -2.727
REMARK INTER:                  -2.727
REMARK INTRA:                   0.000
REMARK UNBOUND:                 0.000
REMARK SMILES c1cc[nH]c1
REMARK SMILES IDX 1 1 5 2 4 3 3 4 2 5
REMARK H PARENT 4 6
REMARK Flexibility Score: inf
ROOT
ATOM      1  C   UNL     1      -9.827   1.628  10.292  1.00  0.00     0.019 A 
ATOM      2  C   UNL     1      -9.851   2.084   8.989  1.00  0.00     0.082 A 
ATOM      3  N   UNL     1      -9.885   1.043   8.139  1.00  0.00    -0.368 N 
ATOM      4  C   UNL     1      -9.883  -0.077   8.885  1.00  0.00     0.082 A 
ATOM      5  C   UNL     1      -9.848   0.250  10.226  1.00  0.00     0.019 A 
ATOM      6  H   UNL     1      -9.908   1.094   7.098  1.00  0.00     0.165 HD
ENDROOT
TORSDOF 0
ENDMDL
MODEL 8
REMARK VINA RESULT:    -2.682      3.141      3.737
REMARK INTER + INTRA:          -2.682
REMARK INTER:                  -2.682
REMARK INTRA:                   0.000
REMARK UNBOUND:                 0.000
REMARK SMILES c1cc[nH]c1
REMARK SMILES IDX 1 1 5 2 4 3 3 4 2 5
REMARK H PARENT 4 6
REMARK Flexibility Score: inf
ROOT
ATOM      1  C   UNL     1      -1.000   1.500  11.767  1.00  0.00     0.019 A 
ATOM      2  C   UNL     1      -0.048   2.219  12.461  1.00  0.00     0.082 A 
ATOM      3  N   UNL     1       0.101   3.436  11.909  1.00  0.00    -0.368 N 
ATOM      4  C   UNL     1      -0.747   3.504  10.867  1.00  0.00     0.082 A 
ATOM      5  C   UNL     1      -1.447   2.319  10.750  1.00  0.00     0.019 A 
ATOM      6  H   UNL     1       0.752   4.186  12.228  1.00  0.00     0.165 HD
ENDROOT
TORSDOF 0
ENDMDL
MODEL 9
REMARK VINA RESULT:    -2.667      3.325      4.193
REMARK INTER + INTRA:          -2.667
REMARK INTER:                  -2.667
REMARK INTRA:                   0.000
REMARK UNBOUND:                 0.000
REMARK SMILES c1cc[nH]c1
REMARK SMILES IDX 1 1 5 2 4 3 3 4 2 5
REMARK H PARENT 4 6
REMARK Flexibility Score: inf
ROOT
ATOM      1  C   UNL     1      -1.420   2.432  10.767  1.00  0.00     0.019 A 
ATOM      2  C   UNL     1      -0.825   3.677  10.803  1.00  0.00     0.082 A 
ATOM      3  N   UNL     1       0.079   3.726  11.796  1.00  0.00    -0.368 N 
ATOM      4  C   UNL     1       0.069   2.523  12.399  1.00  0.00     0.082 A 
ATOM      5  C   UNL     1      -0.850   1.696  11.785  1.00  0.00     0.019 A 
ATOM      6  H   UNL     1       0.676   4.542  12.053  1.00  0.00     0.165 HD
ENDROOT
TORSDOF 0
ENDMDL
