MODEL 1
REMARK VINA RESULT:    -4.240      0.000      0.000
REMARK INTER + INTRA:          -4.812
REMARK INTER:                  -4.612
REMARK INTRA:                  -0.200
REMARK UNBOUND:                -0.200
REMARK SMILES Cc1ccc(C(C)C)c(O)c1
REMARK SMILES IDX 1 1 2 2 11 3 9 4 5 5 4 6 3 7 10 8 6 10 7 11 8 12
REMARK H PARENT 10 9
REMARK Flexibility Score: inf
ROOT
ATOM      1  C   UNL     1      -2.640  80.822  -6.130  1.00  0.00     0.044 C 
ATOM      2  C   UNL     1      -3.467  81.600  -7.110  1.00  0.00    -0.047 A 
ATOM      3  C   UNL     1      -3.108  81.638  -8.464  1.00  0.00     0.049 A 
ATOM      4  C   UNL     1      -3.855  82.394  -9.380  1.00  0.00     0.119 A 
ATOM      5  C   UNL     1      -4.974  83.136  -8.940  1.00  0.00    -0.004 A 
ATOM      6  C   UNL     1      -5.313  83.105  -7.573  1.00  0.00     0.008 A 
ATOM      7  C   UNL     1      -4.563  82.350  -6.668  1.00  0.00     0.004 A 
ENDROOT
BRANCH   4   8
ATOM      8  O   UNL     1      -3.481  82.407 -10.724  1.00  0.00    -0.508 OA
ATOM      9  H   UNL     1      -2.749  83.018 -11.067  1.00  0.00     0.293 HD
ENDBRANCH   4   8
BRANCH   5  10
ATOM     10  C   UNL     1      -5.800  83.963  -9.914  1.00  0.00     0.017 C 
ATOM     11  C   UNL     1      -7.294  83.891  -9.574  1.00  0.00     0.012 C 
ATOM     12  C   UNL     1      -5.313  85.417  -9.955  1.00  0.00     0.012 C 
ENDBRANCH   5  10
TORSDOF 2
ENDMDL
MODEL 2
REMARK VINA RESULT:    -4.236      1.020      4.025
REMARK INTER + INTRA:          -4.808
REMARK INTER:                  -4.611
REMARK INTRA:                  -0.197
REMARK UNBOUND:                -0.200
REMARK SMILES Cc1ccc(C(C)C)c(O)c1
REMARK SMILES IDX 1 1 2 2 11 3 9 4 5 5 4 6 3 7 10 8 6 10 7 11 8 12
REMARK H PARENT 10 9
REMARK Flexibility Score: inf
ROOT
ATOM      1  C   UNL     1      -7.798  84.087  -9.522  1.00  0.00     0.044 C 
ATOM      2  C   UNL     1      -6.485  83.521  -9.066  1.00  0.00    -0.047 A 
ATOM      3  C   UNL     1      -5.524  83.122 -10.004  1.00  0.00     0.049 A 
ATOM      4  C   UNL     1      -4.309  82.558  -9.587  1.00  0.00     0.119 A 
ATOM      5  C   UNL     1      -4.049  82.375  -8.211  1.00  0.00    -0.004 A 
ATOM      6  C   UNL     1      -5.031  82.762  -7.278  1.00  0.00     0.008 A 
ATOM      7  C   UNL     1      -6.238  83.323  -7.702  1.00  0.00     0.004 A 
ENDROOT
BRANCH   4   8
ATOM      8  O   UNL     1      -3.365  82.178 -10.542  1.00  0.00    -0.508 OA
ATOM      9  H   UNL     1      -2.373  82.180 -10.339  1.00  0.00     0.293 HD
ENDBRANCH   4   8
BRANCH   5  10
ATOM     10  C   UNL     1      -2.739  81.766  -7.733  1.00  0.00     0.017 C 
ATOM     11  C   UNL     1      -1.902  82.790  -6.956  1.00  0.00     0.012 C 
ATOM     12  C   UNL     1      -2.990  80.508  -6.892  1.00  0.00     0.012 C 
ENDBRANCH   5  10
TORSDOF 2
ENDMDL
MODEL 3
REMARK VINA RESULT:    -3.962      1.671      4.403
REMARK INTER + INTRA:          -4.509
REMARK INTER:                  -4.312
REMARK INTRA:                  -0.197
REMARK UNBOUND:                -0.200
REMARK SMILES Cc1ccc(C(C)C)c(O)c1
REMARK SMILES IDX 1 1 2 2 11 3 9 4 5 5 4 6 3 7 10 8 6 10 7 11 8 12
REMARK H PARENT 10 9
REMARK Flexibility Score: inf
ROOT
ATOM      1  C   UNL     1      -6.074  86.448 -10.352  1.00  0.00     0.044 C 
ATOM      2  C   UNL     1      -5.326  85.358  -9.642  1.00  0.00    -0.047 A 
ATOM      3  C   UNL     1      -4.156  85.652  -8.929  1.00  0.00     0.049 A 
ATOM      4  C   UNL     1      -3.431  84.634  -8.294  1.00  0.00     0.119 A 
ATOM      5  C   UNL     1      -3.870  83.294  -8.380  1.00  0.00    -0.004 A 
ATOM      6  C   UNL     1      -5.036  83.007  -9.116  1.00  0.00     0.008 A 
ATOM      7  C   UNL     1      -5.751  84.028  -9.745  1.00  0.00     0.004 A 
ENDROOT
BRANCH   4   8
ATOM      8  O   UNL     1      -2.275  84.955  -7.582  1.00  0.00    -0.508 OA
ATOM      9  H   UNL     1      -2.291  85.104  -6.580  1.00  0.00     0.293 HD
ENDBRANCH   4   8
BRANCH   5  10
ATOM     10  C   UNL     1      -3.101  82.170  -7.699  1.00  0.00     0.017 C 
ATOM     11  C   UNL     1      -3.905  81.571  -6.539  1.00  0.00     0.012 C 
ATOM     12  C   UNL     1      -2.698  81.088  -8.708  1.00  0.00     0.012 C 
ENDBRANCH   5  10
TORSDOF 2
ENDMDL
MODEL 4
REMARK VINA RESULT:    -3.943      8.693     11.705
REMARK INTER + INTRA:          -4.488
REMARK INTER:                  -4.293
REMARK INTRA:                  -0.196
REMARK UNBOUND:                -0.200
REMARK SMILES Cc1ccc(C(C)C)c(O)c1
REMARK SMILES IDX 1 1 2 2 11 3 9 4 5 5 4 6 3 7 10 8 6 10 7 11 8 12
REMARK H PARENT 10 9
REMARK Flexibility Score: inf
ROOT
ATOM      1  C   UNL     1      -4.687  92.074 -19.464  1.00  0.00     0.044 C 
ATOM      2  C   UNL     1      -4.558  91.607 -18.044  1.00  0.00    -0.047 A 
ATOM      3  C   UNL     1      -3.292  91.450 -17.465  1.00  0.00     0.049 A 
ATOM      4  C   UNL     1      -3.161  90.978 -16.150  1.00  0.00     0.119 A 
ATOM      5  C   UNL     1      -4.311  90.645 -15.400  1.00  0.00    -0.004 A 
ATOM      6  C   UNL     1      -5.577  90.789 -16.000  1.00  0.00     0.008 A 
ATOM      7  C   UNL     1      -5.697  91.259 -17.310  1.00  0.00     0.004 A 
ENDROOT
BRANCH   4   8
ATOM      8  O   UNL     1      -1.889  90.840 -15.594  1.00  0.00    -0.508 OA
ATOM      9  H   UNL     1      -1.158  90.316 -16.062  1.00  0.00     0.293 HD
ENDBRANCH   4   8
BRANCH   5  10
ATOM     10  C   UNL     1      -4.196  90.133 -13.972  1.00  0.00     0.017 C 
ATOM     11  C   UNL     1      -4.217  91.289 -12.965  1.00  0.00     0.012 C 
ATOM     12  C   UNL     1      -5.297  89.111 -13.662  1.00  0.00     0.012 C 
ENDBRANCH   5  10
TORSDOF 2
ENDMDL
MODEL 5
REMARK VINA RESULT:    -3.859      2.921      4.200
REMARK INTER + INTRA:          -4.398
REMARK INTER:                  -4.293
REMARK INTRA:                  -0.104
REMARK UNBOUND:                -0.200
REMARK SMILES Cc1ccc(C(C)C)c(O)c1
REMARK SMILES IDX 1 1 2 2 11 3 9 4 5 5 4 6 3 7 10 8 6 10 7 11 8 12
REMARK H PARENT 10 9
REMARK Flexibility Score: inf
ROOT
ATOM      1  C   UNL     1      -1.876  87.615  -6.627  1.00  0.00     0.044 C 
ATOM      2  C   UNL     1      -2.331  86.251  -7.057  1.00  0.00    -0.047 A 
ATOM      3  C   UNL     1      -3.197  86.107  -8.148  1.00  0.00     0.049 A 
ATOM      4  C   UNL     1      -3.657  84.839  -8.533  1.00  0.00     0.119 A 
ATOM      5  C   UNL     1      -3.257  83.692  -7.812  1.00  0.00    -0.004 A 
ATOM      6  C   UNL     1      -2.402  83.852  -6.704  1.00  0.00     0.008 A 
ATOM      7  C   UNL     1      -1.950  85.118  -6.328  1.00  0.00     0.004 A 
ENDROOT
BRANCH   4   8
ATOM      8  O   UNL     1      -4.512  84.722  -9.630  1.00  0.00    -0.508 OA
ATOM      9  H   UNL     1      -5.303  84.090  -9.623  1.00  0.00     0.293 HD
ENDBRANCH   4   8
BRANCH   5  10
ATOM     10  C   UNL     1      -3.742  82.305  -8.210  1.00  0.00     0.017 C 
ATOM     11  C   UNL     1      -3.015  81.804  -9.464  1.00  0.00     0.012 C 
ATOM     12  C   UNL     1      -3.588  81.314  -7.050  1.00  0.00     0.012 C 
ENDBRANCH   5  10
TORSDOF 2
ENDMDL
MODEL 6
REMARK VINA RESULT:    -3.748      2.418      4.602
REMARK INTER + INTRA:          -4.276
REMARK INTER:                  -4.146
REMARK INTRA:                  -0.130
REMARK UNBOUND:                -0.200
REMARK SMILES Cc1ccc(C(C)C)c(O)c1
REMARK SMILES IDX 1 1 2 2 11 3 9 4 5 5 4 6 3 7 10 8 6 10 7 11 8 12
REMARK H PARENT 10 9
REMARK Flexibility Score: inf
ROOT
ATOM      1  C   UNL     1      -5.363  88.490  -8.210  1.00  0.00     0.044 C 
ATOM      2  C   UNL     1      -4.859  87.082  -8.338  1.00  0.00    -0.047 A 
ATOM      3  C   UNL     1      -3.613  86.727  -7.805  1.00  0.00     0.049 A 
ATOM      4  C   UNL     1      -3.119  85.423  -7.953  1.00  0.00     0.119 A 
ATOM      5  C   UNL     1      -3.871  84.455  -8.656  1.00  0.00    -0.004 A 
ATOM      6  C   UNL     1      -5.114  84.830  -9.204  1.00  0.00     0.008 A 
ATOM      7  C   UNL     1      -5.598  86.131  -9.052  1.00  0.00     0.004 A 
ENDROOT
BRANCH   4   8
ATOM      8  O   UNL     1      -1.879  85.092  -7.405  1.00  0.00    -0.508 OA
ATOM      9  H   UNL     1      -1.045  85.629  -7.611  1.00  0.00     0.293 HD
ENDBRANCH   4   8
BRANCH   5  10
ATOM     10  C   UNL     1      -3.357  83.034  -8.829  1.00  0.00     0.017 C 
ATOM     11  C   UNL     1      -3.552  82.214  -7.549  1.00  0.00     0.012 C 
ATOM     12  C   UNL     1      -4.023  82.349 -10.030  1.00  0.00     0.012 C 
ENDBRANCH   5  10
TORSDOF 2
ENDMDL
MODEL 7
REMARK VINA RESULT:    -3.739      8.302     10.460
REMARK INTER + INTRA:          -4.266
REMARK INTER:                  -4.070
REMARK INTRA:                  -0.196
REMARK UNBOUND:                -0.200
REMARK SMILES Cc1ccc(C(C)C)c(O)c1
REMARK SMILES IDX 1 1 2 2 11 3 9 4 5 5 4 6 3 7 10 8 6 10 7 11 8 12
REMARK H PARENT 10 9
REMARK Flexibility Score: inf
ROOT
ATOM      1  C   UNL     1      -7.114  88.812 -12.670  1.00  0.00     0.044 C 
ATOM      2  C   UNL     1      -6.094  89.611 -13.426  1.00  0.00    -0.047 A 
ATOM      3  C   UNL     1      -5.313  90.567 -12.763  1.00  0.00     0.049 A 
ATOM      4  C   UNL     1      -4.383  91.344 -13.469  1.00  0.00     0.119 A 
ATOM      5  C   UNL     1      -4.234  91.177 -14.863  1.00  0.00    -0.004 A 
ATOM      6  C   UNL     1      -5.039  90.227 -15.522  1.00  0.00     0.008 A 
ATOM      7  C   UNL     1      -5.962  89.458 -14.811  1.00  0.00     0.004 A 
ENDROOT
BRANCH   4   8
ATOM      8  O   UNL     1      -3.611  92.283 -12.782  1.00  0.00    -0.508 OA
ATOM      9  H   UNL     1      -4.024  92.931 -12.122  1.00  0.00     0.293 HD
ENDBRANCH   4   8
BRANCH   5  10
ATOM     10  C   UNL     1      -3.232  92.008 -15.651  1.00  0.00     0.017 C 
ATOM     11  C   UNL     1      -2.154  91.121 -16.285  1.00  0.00     0.012 C 
ATOM     12  C   UNL     1      -3.937  92.862 -16.712  1.00  0.00     0.012 C 
ENDBRANCH   5  10
TORSDOF 2
ENDMDL
MODEL 8
REMARK VINA RESULT:    -3.727      8.880     10.394
REMARK INTER + INTRA:          -4.254
REMARK INTER:                  -4.054
REMARK INTRA:                  -0.199
REMARK UNBOUND:                -0.200
REMARK SMILES Cc1ccc(C(C)C)c(O)c1
REMARK SMILES IDX 1 1 2 2 11 3 9 4 5 5 4 6 3 7 10 8 6 10 7 11 8 12
REMARK H PARENT 10 9
REMARK Flexibility Score: inf
ROOT
ATOM      1  C   UNL     1      -4.885  91.515 -10.928  1.00  0.00     0.044 C 
ATOM      2  C   UNL     1      -4.742  91.316 -12.408  1.00  0.00    -0.047 A 
ATOM      3  C   UNL     1      -5.207  90.140 -13.011  1.00  0.00     0.049 A 
ATOM      4  C   UNL     1      -5.044  89.930 -14.388  1.00  0.00     0.119 A 
ATOM      5  C   UNL     1      -4.395  90.903 -15.180  1.00  0.00    -0.004 A 
ATOM      6  C   UNL     1      -3.914  92.072 -14.560  1.00  0.00     0.008 A 
ATOM      7  C   UNL     1      -4.081  92.273 -13.188  1.00  0.00     0.004 A 
ENDROOT
BRANCH   4   8
ATOM      8  O   UNL     1      -5.525  88.754 -14.965  1.00  0.00    -0.508 OA
ATOM      9  H   UNL     1      -5.672  87.914 -14.418  1.00  0.00     0.293 HD
ENDBRANCH   4   8
BRANCH   5  10
ATOM     10  C   UNL     1      -4.206  90.699 -16.677  1.00  0.00     0.017 C 
ATOM     11  C   UNL     1      -5.359  91.324 -17.471  1.00  0.00     0.012 C 
ATOM     12  C   UNL     1      -2.852  91.251 -17.142  1.00  0.00     0.012 C 
ENDBRANCH   5  10
TORSDOF 2
ENDMDL
