MODEL 1
REMARK VINA RESULT:    -6.565      0.000      0.000
REMARK INTER + INTRA:          -9.430
REMARK INTER:                  -8.868
REMARK INTRA:                  -0.563
REMARK UNBOUND:                -0.563
REMARK SMILES COc1ccc(-c2cc(=O)c3c(OC)c(OC)c(OC)c(OC)c3o2)cc1
REMARK SMILES IDX 7 1 8 2 9 3 10 4 11 5 24 6 25 7 21 8 18 9 15 10 12 11 6 12
REMARK SMILES IDX 3 13 4 14 27 15 5 16 26 17 2 18 1 19 22 20 23 21 13 22 14 23
REMARK SMILES IDX 19 24 20 25 16 26 17 27
REMARK H PARENT
REMARK Flexibility Score: inf
ROOT
ATOM      1  C   UNL     1     169.932 144.919 152.034  1.00  0.00     0.138 A 
ATOM      2  C   UNL     1     168.683 144.537 152.528  1.00  0.00     0.100 A 
ATOM      3  C   UNL     1     168.488 144.465 153.903  1.00  0.00     0.197 A 
ATOM      4  O   UNL     1     167.357 144.106 154.330  1.00  0.00    -0.289 OA
ATOM      5  C   UNL     1     169.551 144.786 154.786  1.00  0.00     0.115 A 
ATOM      6  C   UNL     1     170.775 145.195 154.209  1.00  0.00     0.188 A 
ATOM      7  O   UNL     1     170.906 145.225 152.885  1.00  0.00    -0.452 OA
ATOM      8  C   UNL     1     171.867 145.553 155.025  1.00  0.00     0.209 A 
ATOM      9  C   UNL     1     171.761 145.431 156.434  1.00  0.00     0.211 A 
ATOM     10  C   UNL     1     170.536 145.010 157.019  1.00  0.00     0.208 A 
ATOM     11  C   UNL     1     169.425 144.695 156.191  1.00  0.00     0.179 A 
ENDROOT
BRANCH   1  12
ATOM     12  C   UNL     1     170.206 144.974 150.578  1.00  0.00     0.018 A 
ATOM     13  C   UNL     1     170.759 145.118 147.814  1.00  0.00     0.118 A 
ATOM     14  C   UNL     1     169.737 144.275 148.292  1.00  0.00     0.047 A 
ATOM     15  C   UNL     1     171.494 145.883 148.726  1.00  0.00     0.047 A 
ATOM     16  C   UNL     1     169.461 144.206 149.661  1.00  0.00     0.016 A 
ATOM     17  C   UNL     1     171.221 145.814 150.095  1.00  0.00     0.016 A 
BRANCH  13  18
ATOM     18  O   UNL     1     171.072 145.223 146.450  1.00  0.00    -0.497 OA
ATOM     19  C   UNL     1     172.356 145.576 145.945  1.00  0.00     0.278 C 
ENDBRANCH  13  18
ENDBRANCH   1  12
BRANCH   8  20
ATOM     20  O   UNL     1     173.070 146.030 154.475  1.00  0.00    -0.490 OA
ATOM     21  C   UNL     1     174.208 145.244 154.131  1.00  0.00     0.278 C 
ENDBRANCH   8  20
BRANCH  11  22
ATOM     22  O   UNL     1     168.180 144.273 156.711  1.00  0.00    -0.492 OA
ATOM     23  C   UNL     1     167.869 143.035 157.344  1.00  0.00     0.278 C 
ENDBRANCH  11  22
BRANCH   9  24
ATOM     24  O   UNL     1     172.837 145.728 157.295  1.00  0.00    -0.490 OA
ATOM     25  C   UNL     1     173.883 144.861 157.723  1.00  0.00     0.279 C 
ENDBRANCH   9  24
BRANCH  10  26
ATOM     26  O   UNL     1     170.371 144.882 158.413  1.00  0.00    -0.490 OA
ATOM     27  C   UNL     1     170.811 143.823 159.257  1.00  0.00     0.278 C 
ENDBRANCH  10  26
TORSDOF 6
ENDMDL
MODEL 2
REMARK VINA RESULT:    -6.246      1.204      1.263
REMARK INTER + INTRA:          -8.999
REMARK INTER:                  -8.483
REMARK INTRA:                  -0.516
REMARK UNBOUND:                -0.563
REMARK SMILES COc1ccc(-c2cc(=O)c3c(OC)c(OC)c(OC)c(OC)c3o2)cc1
REMARK SMILES IDX 7 1 8 2 9 3 10 4 11 5 24 6 25 7 21 8 18 9 15 10 12 11 6 12
REMARK SMILES IDX 3 13 4 14 27 15 5 16 26 17 2 18 1 19 22 20 23 21 13 22 14 23
REMARK SMILES IDX 19 24 20 25 16 26 17 27
REMARK H PARENT
REMARK Flexibility Score: inf
ROOT
ATOM      1  C   UNL     1     170.055 144.196 152.814  1.00  0.00     0.138 A 
ATOM      2  C   UNL     1     168.778 144.017 153.349  1.00  0.00     0.100 A 
ATOM      3  C   UNL     1     168.615 143.993 154.731  1.00  0.00     0.197 A 
ATOM      4  O   UNL     1     167.456 143.817 155.195  1.00  0.00    -0.289 OA
ATOM      5  C   UNL     1     169.741 144.155 155.577  1.00  0.00     0.115 A 
ATOM      6  C   UNL     1     170.996 144.363 154.960  1.00  0.00     0.188 A 
ATOM      7  O   UNL     1     171.089 144.357 153.632  1.00  0.00    -0.452 OA
ATOM      8  C   UNL     1     172.155 144.557 155.739  1.00  0.00     0.209 A 
ATOM      9  C   UNL     1     172.074 144.469 157.152  1.00  0.00     0.211 A 
ATOM     10  C   UNL     1     170.817 144.249 157.778  1.00  0.00     0.208 A 
ATOM     11  C   UNL     1     169.646 144.101 156.987  1.00  0.00     0.179 A 
ENDROOT
BRANCH   1  12
ATOM     12  C   UNL     1     170.289 144.192 151.350  1.00  0.00     0.018 A 
ATOM     13  C   UNL     1     170.737 144.234 148.564  1.00  0.00     0.118 A 
ATOM     14  C   UNL     1     170.392 143.032 149.210  1.00  0.00     0.047 A 
ATOM     15  C   UNL     1     170.855 145.406 149.320  1.00  0.00     0.047 A 
ATOM     16  C   UNL     1     170.166 143.011 150.590  1.00  0.00     0.016 A 
ATOM     17  C   UNL     1     170.632 145.386 150.699  1.00  0.00     0.016 A 
BRANCH  13  18
ATOM     18  O   UNL     1     170.972 144.306 147.183  1.00  0.00    -0.497 OA
ATOM     19  C   UNL     1     170.071 144.883 146.243  1.00  0.00     0.278 C 
ENDBRANCH  13  18
ENDBRANCH   1  12
BRANCH   8  20
ATOM     20  O   UNL     1     173.399 144.836 155.147  1.00  0.00    -0.490 OA
ATOM     21  C   UNL     1     173.932 146.131 154.880  1.00  0.00     0.278 C 
ENDBRANCH   8  20
BRANCH  11  22
ATOM     22  O   UNL     1     168.368 143.883 157.549  1.00  0.00    -0.492 OA
ATOM     23  C   UNL     1     167.899 142.728 158.239  1.00  0.00     0.278 C 
ENDBRANCH  11  22
BRANCH   9  24
ATOM     24  O   UNL     1     173.209 144.606 157.977  1.00  0.00    -0.490 OA
ATOM     25  C   UNL     1     174.172 143.613 158.315  1.00  0.00     0.279 C 
ENDBRANCH   9  24
BRANCH  10  26
ATOM     26  O   UNL     1     170.677 144.164 159.177  1.00  0.00    -0.490 OA
ATOM     27  C   UNL     1     170.878 145.188 160.146  1.00  0.00     0.278 C 
ENDBRANCH  10  26
TORSDOF 6
ENDMDL
MODEL 3
REMARK VINA RESULT:    -5.997      1.516      3.736
REMARK INTER + INTRA:          -8.663
REMARK INTER:                  -8.109
REMARK INTRA:                  -0.554
REMARK UNBOUND:                -0.563
REMARK SMILES COc1ccc(-c2cc(=O)c3c(OC)c(OC)c(OC)c(OC)c3o2)cc1
REMARK SMILES IDX 7 1 8 2 9 3 10 4 11 5 24 6 25 7 21 8 18 9 15 10 12 11 6 12
REMARK SMILES IDX 3 13 4 14 27 15 5 16 26 17 2 18 1 19 22 20 23 21 13 22 14 23
REMARK SMILES IDX 19 24 20 25 16 26 17 27
REMARK H PARENT
REMARK Flexibility Score: inf
ROOT
ATOM      1  C   UNL     1     171.538 144.268 152.614  1.00  0.00     0.138 A 
ATOM      2  C   UNL     1     172.815 144.707 152.971  1.00  0.00     0.100 A 
ATOM      3  C   UNL     1     173.117 144.904 154.314  1.00  0.00     0.197 A 
ATOM      4  O   UNL     1     174.271 145.314 154.615  1.00  0.00    -0.289 OA
ATOM      5  C   UNL     1     172.133 144.652 155.304  1.00  0.00     0.115 A 
ATOM      6  C   UNL     1     170.875 144.179 154.867  1.00  0.00     0.188 A 
ATOM      7  O   UNL     1     170.640 144.028 153.565  1.00  0.00    -0.452 OA
ATOM      8  C   UNL     1     169.858 143.883 155.796  1.00  0.00     0.209 A 
ATOM      9  C   UNL     1     170.073 144.132 157.176  1.00  0.00     0.211 A 
ATOM     10  C   UNL     1     171.332 144.618 157.620  1.00  0.00     0.208 A 
ATOM     11  C   UNL     1     172.368 144.870 156.682  1.00  0.00     0.179 A 
ENDROOT
BRANCH   1  12
ATOM     12  C   UNL     1     171.151 144.079 151.196  1.00  0.00     0.018 A 
ATOM     13  C   UNL     1     170.373 143.750 148.503  1.00  0.00     0.118 A 
ATOM     14  C   UNL     1     171.446 143.006 149.029  1.00  0.00     0.047 A 
ATOM     15  C   UNL     1     169.698 144.652 149.332  1.00  0.00     0.047 A 
ATOM     16  C   UNL     1     171.830 143.166 150.364  1.00  0.00     0.016 A 
ATOM     17  C   UNL     1     170.081 144.816 150.665  1.00  0.00     0.016 A 
BRANCH  13  18
ATOM     18  O   UNL     1     169.950 143.622 147.171  1.00  0.00    -0.497 OA
ATOM     19  C   UNL     1     169.478 144.701 146.371  1.00  0.00     0.278 C 
ENDBRANCH  13  18
ENDBRANCH   1  12
BRANCH   8  20
ATOM     20  O   UNL     1     168.624 143.344 155.389  1.00  0.00    -0.490 OA
ATOM     21  C   UNL     1     167.510 144.079 154.888  1.00  0.00     0.278 C 
ENDBRANCH   8  20
BRANCH  11  22
ATOM     22  O   UNL     1     173.642 145.351 157.061  1.00  0.00    -0.492 OA
ATOM     23  C   UNL     1     174.631 144.690 157.844  1.00  0.00     0.278 C 
ENDBRANCH  11  22
BRANCH   9  24
ATOM     24  O   UNL     1     169.073 143.901 158.143  1.00  0.00    -0.490 OA
ATOM     25  C   UNL     1     168.585 142.651 158.620  1.00  0.00     0.279 C 
ENDBRANCH   9  24
BRANCH  10  26
ATOM     26  O   UNL     1     171.604 144.873 158.979  1.00  0.00    -0.490 OA
ATOM     27  C   UNL     1     171.426 146.087 159.699  1.00  0.00     0.278 C 
ENDBRANCH  10  26
TORSDOF 6
ENDMDL
MODEL 4
REMARK VINA RESULT:    -5.742      2.354      2.379
REMARK INTER + INTRA:          -8.318
REMARK INTER:                  -7.663
REMARK INTRA:                  -0.655
REMARK UNBOUND:                -0.563
REMARK SMILES COc1ccc(-c2cc(=O)c3c(OC)c(OC)c(OC)c(OC)c3o2)cc1
REMARK SMILES IDX 7 1 8 2 9 3 10 4 11 5 24 6 25 7 21 8 18 9 15 10 12 11 6 12
REMARK SMILES IDX 3 13 4 14 27 15 5 16 26 17 2 18 1 19 22 20 23 21 13 22 14 23
REMARK SMILES IDX 19 24 20 25 16 26 17 27
REMARK H PARENT
REMARK Flexibility Score: inf
ROOT
ATOM      1  C   UNL     1     170.198 144.106 151.561  1.00  0.00     0.138 A 
ATOM      2  C   UNL     1     169.001 144.384 152.225  1.00  0.00     0.100 A 
ATOM      3  C   UNL     1     168.829 143.940 153.532  1.00  0.00     0.197 A 
ATOM      4  O   UNL     1     167.737 144.190 154.111  1.00  0.00    -0.289 OA
ATOM      5  C   UNL     1     169.867 143.221 154.177  1.00  0.00     0.115 A 
ATOM      6  C   UNL     1     171.060 143.007 153.450  1.00  0.00     0.188 A 
ATOM      7  O   UNL     1     171.157 143.440 152.194  1.00  0.00    -0.452 OA
ATOM      8  C   UNL     1     172.144 142.322 154.035  1.00  0.00     0.209 A 
ATOM      9  C   UNL     1     172.009 141.778 155.338  1.00  0.00     0.211 A 
ATOM     10  C   UNL     1     170.808 141.980 156.070  1.00  0.00     0.208 A 
ATOM     11  C   UNL     1     169.738 142.712 155.490  1.00  0.00     0.179 A 
ENDROOT
BRANCH   1  12
ATOM     12  C   UNL     1     170.418 144.521 150.155  1.00  0.00     0.018 A 
ATOM     13  C   UNL     1     170.853 145.357 147.494  1.00  0.00     0.118 A 
ATOM     14  C   UNL     1     170.214 144.131 147.759  1.00  0.00     0.047 A 
ATOM     15  C   UNL     1     171.268 146.154 148.566  1.00  0.00     0.047 A 
ATOM     16  C   UNL     1     169.995 143.718 149.076  1.00  0.00     0.016 A 
ATOM     17  C   UNL     1     171.053 145.743 149.884  1.00  0.00     0.016 A 
BRANCH  13  18
ATOM     18  O   UNL     1     171.093 145.815 146.190  1.00  0.00    -0.497 OA
ATOM     19  C   UNL     1     171.767 147.029 145.875  1.00  0.00     0.278 C 
ENDBRANCH  13  18
ENDBRANCH   1  12
BRANCH   8  20
ATOM     20  O   UNL     1     173.365 142.160 153.357  1.00  0.00    -0.490 OA
ATOM     21  C   UNL     1     173.718 141.070 152.510  1.00  0.00     0.278 C 
ENDBRANCH   8  20
BRANCH  11  22
ATOM     22  O   UNL     1     168.519 142.949 156.166  1.00  0.00    -0.492 OA
ATOM     23  C   UNL     1     167.512 142.004 156.517  1.00  0.00     0.278 C 
ENDBRANCH  11  22
BRANCH   9  24
ATOM     24  O   UNL     1     173.042 141.041 155.953  1.00  0.00    -0.490 OA
ATOM     25  C   UNL     1     174.148 141.536 156.700  1.00  0.00     0.279 C 
ENDBRANCH   9  24
BRANCH  10  26
ATOM     26  O   UNL     1     170.623 141.471 157.371  1.00  0.00    -0.490 OA
ATOM     27  C   UNL     1     170.953 142.087 158.611  1.00  0.00     0.278 C 
ENDBRANCH  10  26
TORSDOF 6
ENDMDL
MODEL 5
REMARK VINA RESULT:    -5.664      2.062      3.938
REMARK INTER + INTRA:          -8.214
REMARK INTER:                  -7.524
REMARK INTRA:                  -0.690
REMARK UNBOUND:                -0.563
REMARK SMILES COc1ccc(-c2cc(=O)c3c(OC)c(OC)c(OC)c(OC)c3o2)cc1
REMARK SMILES IDX 7 1 8 2 9 3 10 4 11 5 24 6 25 7 21 8 18 9 15 10 12 11 6 12
REMARK SMILES IDX 3 13 4 14 27 15 5 16 26 17 2 18 1 19 22 20 23 21 13 22 14 23
REMARK SMILES IDX 19 24 20 25 16 26 17 27
REMARK H PARENT
REMARK Flexibility Score: inf
ROOT
ATOM      1  C   UNL     1     171.570 143.481 151.965  1.00  0.00     0.138 A 
ATOM      2  C   UNL     1     172.930 143.205 152.115  1.00  0.00     0.100 A 
ATOM      3  C   UNL     1     173.504 143.278 153.381  1.00  0.00     0.197 A 
ATOM      4  O   UNL     1     174.737 143.038 153.495  1.00  0.00    -0.289 OA
ATOM      5  C   UNL     1     172.705 143.624 154.500  1.00  0.00     0.115 A 
ATOM      6  C   UNL     1     171.330 143.858 154.271  1.00  0.00     0.188 A 
ATOM      7  O   UNL     1     170.844 143.791 153.033  1.00  0.00    -0.452 OA
ATOM      8  C   UNL     1     170.470 144.181 155.340  1.00  0.00     0.209 A 
ATOM      9  C   UNL     1     171.002 144.346 156.644  1.00  0.00     0.211 A 
ATOM     10  C   UNL     1     172.386 144.123 156.878  1.00  0.00     0.208 A 
ATOM     11  C   UNL     1     173.237 143.752 155.804  1.00  0.00     0.179 A 
ENDROOT
BRANCH   1  12
ATOM     12  C   UNL     1     170.917 143.455 150.634  1.00  0.00     0.018 A 
ATOM     13  C   UNL     1     169.649 143.450 148.112  1.00  0.00     0.118 A 
ATOM     14  C   UNL     1     170.389 142.331 148.539  1.00  0.00     0.047 A 
ATOM     15  C   UNL     1     169.551 144.563 148.955  1.00  0.00     0.047 A 
ATOM     16  C   UNL     1     171.014 142.331 149.789  1.00  0.00     0.016 A 
ATOM     17  C   UNL     1     170.176 144.567 150.204  1.00  0.00     0.016 A 
BRANCH  13  18
ATOM     18  O   UNL     1     169.004 143.496 146.868  1.00  0.00    -0.497 OA
ATOM     19  C   UNL     1     168.164 142.465 146.359  1.00  0.00     0.278 C 
ENDBRANCH  13  18
ENDBRANCH   1  12
BRANCH   8  20
ATOM     20  O   UNL     1     169.087 144.348 155.147  1.00  0.00    -0.490 OA
ATOM     21  C   UNL     1     168.101 143.320 155.200  1.00  0.00     0.278 C 
ENDBRANCH   8  20
BRANCH  11  22
ATOM     22  O   UNL     1     174.621 143.514 155.972  1.00  0.00    -0.492 OA
ATOM     23  C   UNL     1     175.640 144.456 156.295  1.00  0.00     0.278 C 
ENDBRANCH  11  22
BRANCH   9  24
ATOM     24  O   UNL     1     170.198 144.718 157.740  1.00  0.00    -0.490 OA
ATOM     25  C   UNL     1     169.493 143.868 158.640  1.00  0.00     0.279 C 
ENDBRANCH   9  24
BRANCH  10  26
ATOM     26  O   UNL     1     172.966 144.262 158.155  1.00  0.00    -0.490 OA
ATOM     27  C   UNL     1     173.145 143.264 159.154  1.00  0.00     0.278 C 
ENDBRANCH  10  26
TORSDOF 6
ENDMDL
MODEL 6
REMARK VINA RESULT:    -5.634      2.198      3.133
REMARK INTER + INTRA:          -8.173
REMARK INTER:                  -7.635
REMARK INTRA:                  -0.538
REMARK UNBOUND:                -0.563
REMARK SMILES COc1ccc(-c2cc(=O)c3c(OC)c(OC)c(OC)c(OC)c3o2)cc1
REMARK SMILES IDX 7 1 8 2 9 3 10 4 11 5 24 6 25 7 21 8 18 9 15 10 12 11 6 12
REMARK SMILES IDX 3 13 4 14 27 15 5 16 26 17 2 18 1 19 22 20 23 21 13 22 14 23
REMARK SMILES IDX 19 24 20 25 16 26 17 27
REMARK H PARENT
REMARK Flexibility Score: inf
ROOT
ATOM      1  C   UNL     1     171.292 144.712 153.457  1.00  0.00     0.138 A 
ATOM      2  C   UNL     1     170.562 145.723 154.086  1.00  0.00     0.100 A 
ATOM      3  C   UNL     1     170.790 145.992 155.432  1.00  0.00     0.197 A 
ATOM      4  O   UNL     1     170.112 146.900 155.985  1.00  0.00    -0.289 OA
ATOM      5  C   UNL     1     171.762 145.247 156.146  1.00  0.00     0.115 A 
ATOM      6  C   UNL     1     172.482 144.262 155.432  1.00  0.00     0.188 A 
ATOM      7  O   UNL     1     172.204 144.038 154.149  1.00  0.00    -0.452 OA
ATOM      8  C   UNL     1     173.481 143.500 156.071  1.00  0.00     0.209 A 
ATOM      9  C   UNL     1     173.714 143.670 157.459  1.00  0.00     0.211 A 
ATOM     10  C   UNL     1     172.985 144.651 158.185  1.00  0.00     0.208 A 
ATOM     11  C   UNL     1     172.013 145.447 157.523  1.00  0.00     0.179 A 
ENDROOT
BRANCH   1  12
ATOM     12  C   UNL     1     171.060 144.358 152.037  1.00  0.00     0.018 A 
ATOM     13  C   UNL     1     170.574 143.710 149.333  1.00  0.00     0.118 A 
ATOM     14  C   UNL     1     171.653 143.124 150.022  1.00  0.00     0.047 A 
ATOM     15  C   UNL     1     169.747 144.616 150.006  1.00  0.00     0.047 A 
ATOM     16  C   UNL     1     171.892 143.442 151.362  1.00  0.00     0.016 A 
ATOM     17  C   UNL     1     169.986 144.937 151.344  1.00  0.00     0.016 A 
BRANCH  13  18
ATOM     18  O   UNL     1     170.293 143.422 147.989  1.00  0.00    -0.497 OA
ATOM     19  C   UNL     1     169.741 144.353 147.064  1.00  0.00     0.278 C 
ENDBRANCH  13  18
ENDBRANCH   1  12
BRANCH   8  20
ATOM     20  O   UNL     1     174.258 142.566 155.363  1.00  0.00    -0.490 OA
ATOM     21  C   UNL     1     175.492 142.829 154.699  1.00  0.00     0.278 C 
ENDBRANCH   8  20
BRANCH  11  22
ATOM     22  O   UNL     1     171.258 146.440 158.188  1.00  0.00    -0.492 OA
ATOM     23  C   UNL     1     171.738 147.577 158.901  1.00  0.00     0.278 C 
ENDBRANCH  11  22
BRANCH   9  24
ATOM     24  O   UNL     1     174.665 142.900 158.159  1.00  0.00    -0.490 OA
ATOM     25  C   UNL     1     174.474 141.646 158.806  1.00  0.00     0.279 C 
ENDBRANCH   9  24
BRANCH  10  26
ATOM     26  O   UNL     1     173.184 144.870 159.563  1.00  0.00    -0.490 OA
ATOM     27  C   UNL     1     174.330 145.408 160.212  1.00  0.00     0.278 C 
ENDBRANCH  10  26
TORSDOF 6
ENDMDL
MODEL 7
REMARK VINA RESULT:    -5.331      2.668      7.757
REMARK INTER + INTRA:          -7.764
REMARK INTER:                  -7.192
REMARK INTRA:                  -0.571
REMARK UNBOUND:                -0.563
REMARK SMILES COc1ccc(-c2cc(=O)c3c(OC)c(OC)c(OC)c(OC)c3o2)cc1
REMARK SMILES IDX 7 1 8 2 9 3 10 4 11 5 24 6 25 7 21 8 18 9 15 10 12 11 6 12
REMARK SMILES IDX 3 13 4 14 27 15 5 16 26 17 2 18 1 19 22 20 23 21 13 22 14 23
REMARK SMILES IDX 19 24 20 25 16 26 17 27
REMARK H PARENT
REMARK Flexibility Score: inf
ROOT
ATOM      1  C   UNL     1     170.721 144.393 154.220  1.00  0.00     0.138 A 
ATOM      2  C   UNL     1     169.958 145.235 153.408  1.00  0.00     0.100 A 
ATOM      3  C   UNL     1     170.078 145.141 152.025  1.00  0.00     0.197 A 
ATOM      4  O   UNL     1     169.391 145.918 151.309  1.00  0.00    -0.289 OA
ATOM      5  C   UNL     1     170.964 144.191 151.457  1.00  0.00     0.115 A 
ATOM      6  C   UNL     1     171.678 143.353 152.344  1.00  0.00     0.188 A 
ATOM      7  O   UNL     1     171.534 143.505 153.659  1.00  0.00    -0.452 OA
ATOM      8  C   UNL     1     172.558 142.369 151.849  1.00  0.00     0.209 A 
ATOM      9  C   UNL     1     172.785 142.268 150.453  1.00  0.00     0.211 A 
ATOM     10  C   UNL     1     172.079 143.115 149.557  1.00  0.00     0.208 A 
ATOM     11  C   UNL     1     171.159 144.073 150.061  1.00  0.00     0.179 A 
ENDROOT
BRANCH   1  12
ATOM     12  C   UNL     1     170.660 144.479 155.698  1.00  0.00     0.018 A 
ATOM     13  C   UNL     1     170.575 144.683 158.512  1.00  0.00     0.118 A 
ATOM     14  C   UNL     1     170.016 143.566 157.863  1.00  0.00     0.047 A 
ATOM     15  C   UNL     1     171.173 145.688 157.745  1.00  0.00     0.047 A 
ATOM     16  C   UNL     1     170.061 143.462 156.470  1.00  0.00     0.016 A 
ATOM     17  C   UNL     1     171.217 145.588 156.352  1.00  0.00     0.016 A 
BRANCH  13  18
ATOM     18  O   UNL     1     170.555 144.831 159.907  1.00  0.00    -0.497 OA
ATOM     19  C   UNL     1     171.618 145.391 160.672  1.00  0.00     0.278 C 
ENDBRANCH  13  18
ENDBRANCH   1  12
BRANCH   8  20
ATOM     20  O   UNL     1     173.223 141.478 152.710  1.00  0.00    -0.490 OA
ATOM     21  C   UNL     1     174.486 141.696 153.334  1.00  0.00     0.278 C 
ENDBRANCH   8  20
BRANCH  11  22
ATOM     22  O   UNL     1     170.425 144.942 149.222  1.00  0.00    -0.492 OA
ATOM     23  C   UNL     1     169.382 144.607 148.311  1.00  0.00     0.278 C 
ENDBRANCH  11  22
BRANCH   9  24
ATOM     24  O   UNL     1     173.691 141.336 149.907  1.00  0.00    -0.490 OA
ATOM     25  C   UNL     1     175.070 141.526 149.604  1.00  0.00     0.279 C 
ENDBRANCH   9  24
BRANCH  10  26
ATOM     26  O   UNL     1     172.258 143.051 148.160  1.00  0.00    -0.490 OA
ATOM     27  C   UNL     1     172.897 143.997 147.311  1.00  0.00     0.278 C 
ENDBRANCH  10  26
TORSDOF 6
ENDMDL
MODEL 8
REMARK VINA RESULT:    -5.318      1.992      4.089
REMARK INTER + INTRA:          -7.745
REMARK INTER:                  -7.115
REMARK INTRA:                  -0.630
REMARK UNBOUND:                -0.563
REMARK SMILES COc1ccc(-c2cc(=O)c3c(OC)c(OC)c(OC)c(OC)c3o2)cc1
REMARK SMILES IDX 7 1 8 2 9 3 10 4 11 5 24 6 25 7 21 8 18 9 15 10 12 11 6 12
REMARK SMILES IDX 3 13 4 14 27 15 5 16 26 17 2 18 1 19 22 20 23 21 13 22 14 23
REMARK SMILES IDX 19 24 20 25 16 26 17 27
REMARK H PARENT
REMARK Flexibility Score: inf
ROOT
ATOM      1  C   UNL     1     172.197 143.794 152.653  1.00  0.00     0.138 A 
ATOM      2  C   UNL     1     173.535 143.401 152.732  1.00  0.00     0.100 A 
ATOM      3  C   UNL     1     174.199 143.486 153.951  1.00  0.00     0.197 A 
ATOM      4  O   UNL     1     175.410 143.138 154.000  1.00  0.00    -0.289 OA
ATOM      5  C   UNL     1     173.513 143.962 155.097  1.00  0.00     0.115 A 
ATOM      6  C   UNL     1     172.152 144.311 154.944  1.00  0.00     0.188 A 
ATOM      7  O   UNL     1     171.577 144.225 153.746  1.00  0.00    -0.452 OA
ATOM      8  C   UNL     1     171.400 144.768 156.045  1.00  0.00     0.209 A 
ATOM      9  C   UNL     1     172.034 144.950 157.301  1.00  0.00     0.211 A 
ATOM     10  C   UNL     1     173.405 144.611 157.459  1.00  0.00     0.208 A 
ATOM     11  C   UNL     1     174.143 144.107 156.355  1.00  0.00     0.179 A 
ENDROOT
BRANCH   1  12
ATOM     12  C   UNL     1     171.454 143.761 151.370  1.00  0.00     0.018 A 
ATOM     13  C   UNL     1     170.077 143.666 148.909  1.00  0.00     0.118 A 
ATOM     14  C   UNL     1     169.660 144.549 149.924  1.00  0.00     0.047 A 
ATOM     15  C   UNL     1     171.182 142.839 149.136  1.00  0.00     0.047 A 
ATOM     16  C   UNL     1     170.344 144.598 151.142  1.00  0.00     0.016 A 
ATOM     17  C   UNL     1     171.866 142.885 150.354  1.00  0.00     0.016 A 
BRANCH  13  18
ATOM     18  O   UNL     1     169.424 143.581 147.670  1.00  0.00    -0.497 OA
ATOM     19  C   UNL     1     168.585 144.599 147.131  1.00  0.00     0.278 C 
ENDBRANCH  13  18
ENDBRANCH   1  12
BRANCH   8  20
ATOM     20  O   UNL     1     170.028 145.053 155.931  1.00  0.00    -0.490 OA
ATOM     21  C   UNL     1     168.961 144.118 156.071  1.00  0.00     0.278 C 
ENDBRANCH   8  20
BRANCH  11  22
ATOM     22  O   UNL     1     175.508 143.750 156.448  1.00  0.00    -0.492 OA
ATOM     23  C   UNL     1     176.072 142.592 157.057  1.00  0.00     0.278 C 
ENDBRANCH  11  22
BRANCH   9  24
ATOM     24  O   UNL     1     171.343 145.451 158.423  1.00  0.00    -0.490 OA
ATOM     25  C   UNL     1     170.583 144.724 159.383  1.00  0.00     0.279 C 
ENDBRANCH   9  24
BRANCH  10  26
ATOM     26  O   UNL     1     174.082 144.761 158.685  1.00  0.00    -0.490 OA
ATOM     27  C   UNL     1     174.123 143.857 159.784  1.00  0.00     0.278 C 
ENDBRANCH  10  26
TORSDOF 6
ENDMDL
MODEL 9
REMARK VINA RESULT:    -5.204      3.296      8.399
REMARK INTER + INTRA:          -7.592
REMARK INTER:                  -7.008
REMARK INTRA:                  -0.584
REMARK UNBOUND:                -0.563
REMARK SMILES COc1ccc(-c2cc(=O)c3c(OC)c(OC)c(OC)c(OC)c3o2)cc1
REMARK SMILES IDX 7 1 8 2 9 3 10 4 11 5 24 6 25 7 21 8 18 9 15 10 12 11 6 12
REMARK SMILES IDX 3 13 4 14 27 15 5 16 26 17 2 18 1 19 22 20 23 21 13 22 14 23
REMARK SMILES IDX 19 24 20 25 16 26 17 27
REMARK H PARENT
REMARK Flexibility Score: inf
ROOT
ATOM      1  C   UNL     1     174.340 144.570 154.912  1.00  0.00     0.138 A 
ATOM      2  C   UNL     1     175.350 143.645 154.641  1.00  0.00     0.100 A 
ATOM      3  C   UNL     1     175.207 142.776 153.564  1.00  0.00     0.197 A 
ATOM      4  O   UNL     1     176.124 141.939 153.343  1.00  0.00    -0.289 OA
ATOM      5  C   UNL     1     174.047 142.843 152.752  1.00  0.00     0.115 A 
ATOM      6  C   UNL     1     173.084 143.827 153.071  1.00  0.00     0.188 A 
ATOM      7  O   UNL     1     173.269 144.617 154.126  1.00  0.00    -0.452 OA
ATOM      8  C   UNL     1     171.918 143.968 152.292  1.00  0.00     0.209 A 
ATOM      9  C   UNL     1     171.672 143.067 151.225  1.00  0.00     0.211 A 
ATOM     10  C   UNL     1     172.632 142.068 150.906  1.00  0.00     0.208 A 
ATOM     11  C   UNL     1     173.826 141.962 151.667  1.00  0.00     0.179 A 
ENDROOT
BRANCH   1  12
ATOM     12  C   UNL     1     174.424 145.492 156.069  1.00  0.00     0.018 A 
ATOM     13  C   UNL     1     174.537 147.232 158.289  1.00  0.00     0.118 A 
ATOM     14  C   UNL     1     175.526 147.290 157.289  1.00  0.00     0.047 A 
ATOM     15  C   UNL     1     173.498 146.303 158.167  1.00  0.00     0.047 A 
ATOM     16  C   UNL     1     175.469 146.431 156.187  1.00  0.00     0.016 A 
ATOM     17  C   UNL     1     173.440 145.441 157.069  1.00  0.00     0.016 A 
BRANCH  13  18
ATOM     18  O   UNL     1     174.551 148.074 159.411  1.00  0.00    -0.497 OA
ATOM     19  C   UNL     1     175.080 149.396 159.418  1.00  0.00     0.278 C 
ENDBRANCH  13  18
ENDBRANCH   1  12
BRANCH   8  20
ATOM     20  O   UNL     1     170.982 144.987 152.548  1.00  0.00    -0.490 OA
ATOM     21  C   UNL     1     169.840 144.886 153.394  1.00  0.00     0.278 C 
ENDBRANCH   8  20
BRANCH  11  22
ATOM     22  O   UNL     1     174.819 140.992 151.399  1.00  0.00    -0.492 OA
ATOM     23  C   UNL     1     175.782 140.990 150.349  1.00  0.00     0.278 C 
ENDBRANCH  11  22
BRANCH   9  24
ATOM     24  O   UNL     1     170.500 143.131 150.445  1.00  0.00    -0.490 OA
ATOM     25  C   UNL     1     170.239 143.962 149.319  1.00  0.00     0.279 C 
ENDBRANCH   9  24
BRANCH  10  26
ATOM     26  O   UNL     1     172.445 141.153 149.851  1.00  0.00    -0.490 OA
ATOM     27  C   UNL     1     172.774 141.317 148.476  1.00  0.00     0.278 C 
ENDBRANCH  10  26
TORSDOF 6
ENDMDL
