MODEL 1
REMARK VINA RESULT:    -3.391      0.000      0.000
REMARK INTER + INTRA:          -4.158
REMARK INTER:                  -3.986
REMARK INTRA:                  -0.172
REMARK UNBOUND:                -0.172
REMARK SMILES O=C([O-])CCC(=O)[O-]
REMARK SMILES IDX 4 1 2 2 1 3 3 4 5 5 6 6 7 7 8 8
REMARK H PARENT
REMARK Flexibility Score: inf
ROOT
ATOM      1  C   UNL     1      -9.400 -11.232  14.480  1.00  0.00     0.059 C 
ENDROOT
BRANCH   1   2
ATOM      2  C   UNL     1      -9.385 -12.727  14.439  1.00  0.00     0.042 C 
ATOM      3  O   UNL     1      -9.469 -13.332  13.337  1.00  0.00    -0.550 OA
ATOM      4  O   UNL     1      -9.327 -13.456  15.621  1.00  0.00    -0.550 OA
ENDBRANCH   1   2
BRANCH   1   5
ATOM      5  C   UNL     1      -8.169 -10.666  13.767  1.00  0.00     0.059 C 
BRANCH   5   6
ATOM      6  C   UNL     1      -6.917 -11.111  14.454  1.00  0.00     0.042 C 
ATOM      7  O   UNL     1      -6.751 -10.879  15.681  1.00  0.00    -0.550 OA
ATOM      8  O   UNL     1      -5.953 -11.824  13.752  1.00  0.00    -0.550 OA
ENDBRANCH   5   6
ENDBRANCH   1   5
TORSDOF 3
ENDMDL
MODEL 2
REMARK VINA RESULT:    -3.382      0.116      3.290
REMARK INTER + INTRA:          -4.147
REMARK INTER:                  -3.962
REMARK INTRA:                  -0.185
REMARK UNBOUND:                -0.172
REMARK SMILES O=C([O-])CCC(=O)[O-]
REMARK SMILES IDX 4 1 2 2 1 3 3 4 5 5 6 6 7 7 8 8
REMARK H PARENT
REMARK Flexibility Score: inf
ROOT
ATOM      1  C   UNL     1      -8.190 -10.714  13.746  1.00  0.00     0.059 C 
ENDROOT
BRANCH   1   2
ATOM      2  C   UNL     1      -6.963 -11.155  14.480  1.00  0.00     0.042 C 
ATOM      3  O   UNL     1      -6.045 -11.764  13.870  1.00  0.00    -0.550 OA
ATOM      4  O   UNL     1      -6.854 -10.935  15.847  1.00  0.00    -0.550 OA
ENDBRANCH   1   2
BRANCH   1   5
ATOM      5  C   UNL     1      -9.447 -11.253  14.434  1.00  0.00     0.059 C 
BRANCH   5   6
ATOM      6  C   UNL     1      -9.467 -12.748  14.387  1.00  0.00     0.042 C 
ATOM      7  O   UNL     1      -9.478 -13.347  13.279  1.00  0.00    -0.550 OA
ATOM      8  O   UNL     1      -9.426 -13.482  15.566  1.00  0.00    -0.550 OA
ENDBRANCH   5   6
ENDBRANCH   1   5
TORSDOF 3
ENDMDL
MODEL 3
REMARK VINA RESULT:    -3.373      1.370      2.034
REMARK INTER + INTRA:          -4.137
REMARK INTER:                  -4.101
REMARK INTRA:                  -0.036
REMARK UNBOUND:                -0.172
REMARK SMILES O=C([O-])CCC(=O)[O-]
REMARK SMILES IDX 4 1 2 2 1 3 3 4 5 5 6 6 7 7 8 8
REMARK H PARENT
REMARK Flexibility Score: inf
ROOT
ATOM      1  C   UNL     1      -9.735 -11.890  14.358  1.00  0.00     0.059 C 
ENDROOT
BRANCH   1   2
ATOM      2  C   UNL     1      -9.776 -12.532  15.709  1.00  0.00     0.042 C 
ATOM      3  O   UNL     1     -10.869 -12.640  16.326  1.00  0.00    -0.550 OA
ATOM      4  O   UNL     1      -8.601 -12.969  16.308  1.00  0.00    -0.550 OA
ENDBRANCH   1   2
BRANCH   1   5
ATOM      5  C   UNL     1      -8.409 -11.153  14.157  1.00  0.00     0.059 C 
BRANCH   5   6
ATOM      6  C   UNL     1      -7.463 -11.989  13.355  1.00  0.00     0.042 C 
ATOM      7  O   UNL     1      -7.888 -12.673  12.387  1.00  0.00    -0.550 OA
ATOM      8  O   UNL     1      -6.104 -11.975  13.645  1.00  0.00    -0.550 OA
ENDBRANCH   5   6
ENDBRANCH   1   5
TORSDOF 3
ENDMDL
MODEL 4
REMARK VINA RESULT:    -3.369      1.468      3.441
REMARK INTER + INTRA:          -4.132
REMARK INTER:                  -4.012
REMARK INTRA:                  -0.120
REMARK UNBOUND:                -0.172
REMARK SMILES O=C([O-])CCC(=O)[O-]
REMARK SMILES IDX 4 1 2 2 1 3 3 4 5 5 6 6 7 7 8 8
REMARK H PARENT
REMARK Flexibility Score: inf
ROOT
ATOM      1  C   UNL     1      -8.106 -10.592  14.634  1.00  0.00     0.059 C 
ENDROOT
BRANCH   1   2
ATOM      2  C   UNL     1      -6.756 -10.786  14.020  1.00  0.00     0.042 C 
ATOM      3  O   UNL     1      -6.059  -9.789  13.694  1.00  0.00    -0.550 OA
ATOM      4  O   UNL     1      -6.286 -12.068  13.762  1.00  0.00    -0.550 OA
ENDBRANCH   1   2
BRANCH   1   5
ATOM      5  C   UNL     1      -9.033 -11.752  14.264  1.00  0.00     0.059 C 
BRANCH   5   6
ATOM      6  C   UNL     1      -9.414 -12.526  15.486  1.00  0.00     0.042 C 
ATOM      7  O   UNL     1     -10.565 -12.398  15.983  1.00  0.00    -0.550 OA
ATOM      8  O   UNL     1      -8.517 -13.424  16.050  1.00  0.00    -0.550 OA
ENDBRANCH   5   6
ENDBRANCH   1   5
TORSDOF 3
ENDMDL
MODEL 5
REMARK VINA RESULT:    -3.325      6.285      7.389
REMARK INTER + INTRA:          -4.081
REMARK INTER:                  -4.052
REMARK INTRA:                  -0.028
REMARK UNBOUND:                -0.172
REMARK SMILES O=C([O-])CCC(=O)[O-]
REMARK SMILES IDX 4 1 2 2 1 3 3 4 5 5 6 6 7 7 8 8
REMARK H PARENT
REMARK Flexibility Score: inf
ROOT
ATOM      1  C   UNL     1     -16.120 -12.643  14.033  1.00  0.00     0.059 C 
ENDROOT
BRANCH   1   2
ATOM      2  C   UNL     1     -16.655 -13.773  14.855  1.00  0.00     0.042 C 
ATOM      3  O   UNL     1     -17.365 -14.665  14.319  1.00  0.00    -0.550 OA
ATOM      4  O   UNL     1     -16.412 -13.816  16.222  1.00  0.00    -0.550 OA
ENDBRANCH   1   2
BRANCH   1   5
ATOM      5  C   UNL     1     -14.854 -13.077  13.290  1.00  0.00     0.059 C 
BRANCH   5   6
ATOM      6  C   UNL     1     -13.993 -11.891  12.989  1.00  0.00     0.042 C 
ATOM      7  O   UNL     1     -13.058 -11.573  13.771  1.00  0.00    -0.550 OA
ATOM      8  O   UNL     1     -14.192 -11.164  11.822  1.00  0.00    -0.550 OA
ENDBRANCH   5   6
ENDBRANCH   1   5
TORSDOF 3
ENDMDL
MODEL 6
REMARK VINA RESULT:    -3.309      1.934      3.965
REMARK INTER + INTRA:          -4.061
REMARK INTER:                  -3.882
REMARK INTRA:                  -0.179
REMARK UNBOUND:                -0.172
REMARK SMILES O=C([O-])CCC(=O)[O-]
REMARK SMILES IDX 4 1 2 2 1 3 3 4 5 5 6 6 7 7 8 8
REMARK H PARENT
REMARK Flexibility Score: inf
ROOT
ATOM      1  C   UNL     1      -8.960 -12.717  15.971  1.00  0.00     0.059 C 
ENDROOT
BRANCH   1   2
ATOM      2  C   UNL     1      -8.441 -11.998  14.767  1.00  0.00     0.042 C 
ATOM      3  O   UNL     1      -8.763 -10.798  14.558  1.00  0.00    -0.550 OA
ATOM      4  O   UNL     1      -7.640 -12.666  13.848  1.00  0.00    -0.550 OA
ENDBRANCH   1   2
BRANCH   1   5
ATOM      5  C   UNL     1     -10.490 -12.733  15.966  1.00  0.00     0.059 C 
BRANCH   5   6
ATOM      6  C   UNL     1     -11.000 -13.581  14.844  1.00  0.00     0.042 C 
ATOM      7  O   UNL     1     -10.871 -14.833  14.888  1.00  0.00    -0.550 OA
ATOM      8  O   UNL     1     -11.660 -12.994  13.772  1.00  0.00    -0.550 OA
ENDBRANCH   5   6
ENDBRANCH   1   5
TORSDOF 3
ENDMDL
MODEL 7
REMARK VINA RESULT:    -3.307      6.273      8.174
REMARK INTER + INTRA:          -4.059
REMARK INTER:                  -4.032
REMARK INTRA:                  -0.027
REMARK UNBOUND:                -0.172
REMARK SMILES O=C([O-])CCC(=O)[O-]
REMARK SMILES IDX 4 1 2 2 1 3 3 4 5 5 6 6 7 7 8 8
REMARK H PARENT
REMARK Flexibility Score: inf
ROOT
ATOM      1  C   UNL     1     -14.737 -13.139  13.496  1.00  0.00     0.059 C 
ENDROOT
BRANCH   1   2
ATOM      2  C   UNL     1     -13.886 -11.969  13.113  1.00  0.00     0.042 C 
ATOM      3  O   UNL     1     -12.935 -11.607  13.855  1.00  0.00    -0.550 OA
ATOM      4  O   UNL     1     -14.173 -11.249  11.960  1.00  0.00    -0.550 OA
ENDBRANCH   1   2
BRANCH   1   5
ATOM      5  C   UNL     1     -16.108 -12.665  13.982  1.00  0.00     0.059 C 
BRANCH   5   6
ATOM      6  C   UNL     1     -16.738 -13.701  14.859  1.00  0.00     0.042 C 
ATOM      7  O   UNL     1     -17.372 -14.663  14.348  1.00  0.00    -0.550 OA
ATOM      8  O   UNL     1     -16.585 -13.632  16.238  1.00  0.00    -0.550 OA
ENDBRANCH   5   6
ENDBRANCH   1   5
TORSDOF 3
ENDMDL
MODEL 8
REMARK VINA RESULT:    -3.250      6.130      7.993
REMARK INTER + INTRA:          -3.992
REMARK INTER:                  -3.871
REMARK INTRA:                  -0.121
REMARK UNBOUND:                -0.172
REMARK SMILES O=C([O-])CCC(=O)[O-]
REMARK SMILES IDX 4 1 2 2 1 3 3 4 5 5 6 6 7 7 8 8
REMARK H PARENT
REMARK Flexibility Score: inf
ROOT
ATOM      1  C   UNL     1     -14.502 -12.647  12.969  1.00  0.00     0.059 C 
ENDROOT
BRANCH   1   2
ATOM      2  C   UNL     1     -13.575 -12.193  14.051  1.00  0.00     0.042 C 
ATOM      3  O   UNL     1     -14.008 -12.001  15.218  1.00  0.00    -0.550 OA
ATOM      4  O   UNL     1     -12.240 -11.934  13.762  1.00  0.00    -0.550 OA
ENDBRANCH   1   2
BRANCH   1   5
ATOM      5  C   UNL     1     -15.233 -13.923  13.393  1.00  0.00     0.059 C 
BRANCH   5   6
ATOM      6  C   UNL     1     -16.713 -13.704  13.386  1.00  0.00     0.042 C 
ATOM      7  O   UNL     1     -17.222 -12.793  14.092  1.00  0.00    -0.550 OA
ATOM      8  O   UNL     1     -17.527 -14.473  12.564  1.00  0.00    -0.550 OA
ENDBRANCH   5   6
ENDBRANCH   1   5
TORSDOF 3
ENDMDL
MODEL 9
REMARK VINA RESULT:    -3.245      2.682      4.815
REMARK INTER + INTRA:          -3.987
REMARK INTER:                  -3.881
REMARK INTRA:                  -0.106
REMARK UNBOUND:                -0.172
REMARK SMILES O=C([O-])CCC(=O)[O-]
REMARK SMILES IDX 4 1 2 2 1 3 3 4 5 5 6 6 7 7 8 8
REMARK H PARENT
REMARK Flexibility Score: inf
ROOT
ATOM      1  C   UNL     1     -11.029 -12.829  15.971  1.00  0.00     0.059 C 
ENDROOT
BRANCH   1   2
ATOM      2  C   UNL     1      -9.604 -12.531  15.627  1.00  0.00     0.042 C 
ATOM      3  O   UNL     1      -8.679 -13.258  16.077  1.00  0.00    -0.550 OA
ATOM      4  O   UNL     1      -9.292 -11.422  14.850  1.00  0.00    -0.550 OA
ENDBRANCH   1   2
BRANCH   1   5
ATOM      5  C   UNL     1     -11.584 -13.917  15.049  1.00  0.00     0.059 C 
BRANCH   5   6
ATOM      6  C   UNL     1     -12.587 -13.338  14.102  1.00  0.00     0.042 C 
ATOM      7  O   UNL     1     -13.583 -14.019  13.739  1.00  0.00    -0.550 OA
ATOM      8  O   UNL     1     -12.449 -12.029  13.657  1.00  0.00    -0.550 OA
ENDBRANCH   5   6
ENDBRANCH   1   5
TORSDOF 3
ENDMDL
