MODEL 1
REMARK VINA RESULT:    -2.988      0.000      0.000
REMARK INTER + INTRA:          -2.988
REMARK INTER:                  -2.988
REMARK INTRA:                   0.000
REMARK UNBOUND:                 0.000
REMARK SMILES CC(=O)[O-]
REMARK SMILES IDX 1 1 2 2 3 3 4 4
REMARK H PARENT
REMARK Flexibility Score: inf
ROOT
ATOM      1  C   UNL     1       5.782  -7.092  -4.960  1.00  0.00     0.063 C 
ATOM      2  C   UNL     1       4.845  -7.413  -3.845  1.00  0.00     0.038 C 
ATOM      3  O   UNL     1       4.267  -6.487  -3.219  1.00  0.00    -0.550 OA
ATOM      4  O   UNL     1       4.567  -8.737  -3.529  1.00  0.00    -0.550 OA
ENDROOT
TORSDOF 0
ENDMDL
MODEL 2
REMARK VINA RESULT:    -2.892      1.458      1.896
REMARK INTER + INTRA:          -2.892
REMARK INTER:                  -2.892
REMARK INTRA:                   0.000
REMARK UNBOUND:                 0.000
REMARK SMILES CC(=O)[O-]
REMARK SMILES IDX 1 1 2 2 3 3 4 4
REMARK H PARENT
REMARK Flexibility Score: inf
ROOT
ATOM      1  C   UNL     1       4.977  -6.575  -3.827  1.00  0.00     0.063 C 
ATOM      2  C   UNL     1       5.160  -7.993  -4.250  1.00  0.00     0.038 C 
ATOM      3  O   UNL     1       4.528  -8.913  -3.669  1.00  0.00    -0.550 OA
ATOM      4  O   UNL     1       5.990  -8.297  -5.322  1.00  0.00    -0.550 OA
ENDROOT
TORSDOF 0
ENDMDL
MODEL 3
REMARK VINA RESULT:    -2.838      2.000      2.315
REMARK INTER + INTRA:          -2.838
REMARK INTER:                  -2.838
REMARK INTRA:                   0.000
REMARK UNBOUND:                 0.000
REMARK SMILES CC(=O)[O-]
REMARK SMILES IDX 1 1 2 2 3 3 4 4
REMARK H PARENT
REMARK Flexibility Score: inf
ROOT
ATOM      1  C   UNL     1       4.983 -10.276  -4.644  1.00  0.00     0.063 C 
ATOM      2  C   UNL     1       5.091  -8.828  -4.304  1.00  0.00     0.038 C 
ATOM      3  O   UNL     1       4.500  -8.371  -3.291  1.00  0.00    -0.550 OA
ATOM      4  O   UNL     1       5.888  -7.990  -5.074  1.00  0.00    -0.550 OA
ENDROOT
TORSDOF 0
ENDMDL
MODEL 4
REMARK VINA RESULT:    -2.723      2.252      2.976
REMARK INTER + INTRA:          -2.723
REMARK INTER:                  -2.723
REMARK INTRA:                   0.000
REMARK UNBOUND:                 0.000
REMARK SMILES CC(=O)[O-]
REMARK SMILES IDX 1 1 2 2 3 3 4 4
REMARK H PARENT
REMARK Flexibility Score: inf
ROOT
ATOM      1  C   UNL     1       5.820 -10.008  -5.315  1.00  0.00     0.063 C 
ATOM      2  C   UNL     1       4.773  -9.916  -4.258  1.00  0.00     0.038 C 
ATOM      3  O   UNL     1       4.135 -10.943  -3.910  1.00  0.00    -0.550 OA
ATOM      4  O   UNL     1       4.535  -8.707  -3.618  1.00  0.00    -0.550 OA
ENDROOT
TORSDOF 0
ENDMDL
MODEL 5
REMARK VINA RESULT:    -2.634     11.311     11.452
REMARK INTER + INTRA:          -2.634
REMARK INTER:                  -2.634
REMARK INTRA:                   0.000
REMARK UNBOUND:                 0.000
REMARK SMILES CC(=O)[O-]
REMARK SMILES IDX 1 1 2 2 3 3 4 4
REMARK H PARENT
REMARK Flexibility Score: inf
ROOT
ATOM      1  C   UNL     1       0.166 -11.317   5.927  1.00  0.00     0.063 C 
ATOM      2  C   UNL     1      -0.019  -9.842   6.049  1.00  0.00     0.038 C 
ATOM      3  O   UNL     1       0.806  -9.153   6.705  1.00  0.00    -0.550 OA
ATOM      4  O   UNL     1      -1.073  -9.217   5.397  1.00  0.00    -0.550 OA
ENDROOT
TORSDOF 0
ENDMDL
MODEL 6
REMARK VINA RESULT:    -2.541     11.315     11.374
REMARK INTER + INTRA:          -2.541
REMARK INTER:                  -2.541
REMARK INTRA:                   0.000
REMARK UNBOUND:                 0.000
REMARK SMILES CC(=O)[O-]
REMARK SMILES IDX 1 1 2 2 3 3 4 4
REMARK H PARENT
REMARK Flexibility Score: inf
ROOT
ATOM      1  C   UNL     1      -0.956  -9.133   5.486  1.00  0.00     0.063 C 
ATOM      2  C   UNL     1       0.257  -9.654   6.180  1.00  0.00     0.038 C 
ATOM      3  O   UNL     1       0.906  -8.910   6.962  1.00  0.00    -0.550 OA
ATOM      4  O   UNL     1       0.644 -10.976   6.008  1.00  0.00    -0.550 OA
ENDROOT
TORSDOF 0
ENDMDL
MODEL 7
REMARK VINA RESULT:    -2.408     13.832     14.218
REMARK INTER + INTRA:          -2.408
REMARK INTER:                  -2.408
REMARK INTRA:                   0.000
REMARK UNBOUND:                 0.000
REMARK SMILES CC(=O)[O-]
REMARK SMILES IDX 1 1 2 2 3 3 4 4
REMARK H PARENT
REMARK Flexibility Score: inf
ROOT
ATOM      1  C   UNL     1       5.547   3.383   3.837  1.00  0.00     0.063 C 
ATOM      2  C   UNL     1       5.411   3.342   5.321  1.00  0.00     0.038 C 
ATOM      3  O   UNL     1       4.295   3.096   5.848  1.00  0.00    -0.550 OA
ATOM      4  O   UNL     1       6.528   3.524   6.127  1.00  0.00    -0.550 OA
ENDROOT
TORSDOF 0
ENDMDL
MODEL 8
REMARK VINA RESULT:    -2.395     16.665     17.257
REMARK INTER + INTRA:          -2.395
REMARK INTER:                  -2.395
REMARK INTRA:                   0.000
REMARK UNBOUND:                 0.000
REMARK SMILES CC(=O)[O-]
REMARK SMILES IDX 1 1 2 2 3 3 4 4
REMARK H PARENT
REMARK Flexibility Score: inf
ROOT
ATOM      1  C   UNL     1      -3.979  -0.205   8.129  1.00  0.00     0.063 C 
ATOM      2  C   UNL     1      -5.348  -0.792   8.197  1.00  0.00     0.038 C 
ATOM      3  O   UNL     1      -5.512  -2.033   8.064  1.00  0.00    -0.550 OA
ATOM      4  O   UNL     1      -6.441   0.023   8.461  1.00  0.00    -0.550 OA
ENDROOT
TORSDOF 0
ENDMDL
MODEL 9
REMARK VINA RESULT:    -2.274     16.795     17.252
REMARK INTER + INTRA:          -2.274
REMARK INTER:                  -2.274
REMARK INTRA:                   0.000
REMARK UNBOUND:                 0.000
REMARK SMILES CC(=O)[O-]
REMARK SMILES IDX 1 1 2 2 3 3 4 4
REMARK H PARENT
REMARK Flexibility Score: inf
ROOT
ATOM      1  C   UNL     1      -3.602  -1.709   8.973  1.00  0.00     0.063 C 
ATOM      2  C   UNL     1      -2.818  -1.110  10.091  1.00  0.00     0.038 C 
ATOM      3  O   UNL     1      -1.976  -1.805  10.717  1.00  0.00    -0.550 OA
ATOM      4  O   UNL     1      -2.975   0.233  10.409  1.00  0.00    -0.550 OA
ENDROOT
TORSDOF 0
ENDMDL
