MODEL 1
REMARK VINA RESULT:    -3.672      0.000      0.000
REMARK INTER + INTRA:         -11.927
REMARK INTER:                  -7.966
REMARK INTRA:                  -3.961
REMARK UNBOUND:                -3.961
REMARK SMILES CCCCCCCCCCCCCCCCCCCCCC(=O)[O-]
REMARK SMILES IDX 12 1 11 2 10 3 9 4 8 5 7 6 6 7 5 8 4 9 3 10 2 11 1 12 13 13
REMARK SMILES IDX 14 14 15 15 16 16 17 17 18 18 19 19 20 20 21 21 22 22 23 23
REMARK SMILES IDX 24 24
REMARK H PARENT
REMARK Flexibility Score: inf
ROOT
ATOM      1  C   UNL     1      39.428 -49.186 -17.602  1.00  0.00     0.000 C 
ENDROOT
BRANCH   1   2
ATOM      2  C   UNL     1      38.621 -50.256 -18.361  1.00  0.00     0.000 C 
BRANCH   2   3
ATOM      3  C   UNL     1      38.265 -51.509 -17.539  1.00  0.00     0.000 C 
BRANCH   3   4
ATOM      4  C   UNL     1      36.766 -51.690 -17.229  1.00  0.00    -0.000 C 
BRANCH   4   5
ATOM      5  C   UNL     1      36.418 -51.580 -15.729  1.00  0.00    -0.000 C 
BRANCH   5   6
ATOM      6  C   UNL     1      35.325 -50.533 -15.452  1.00  0.00    -0.000 C 
BRANCH   6   7
ATOM      7  C   UNL     1      34.950 -49.723 -16.704  1.00  0.00    -0.000 C 
BRANCH   7   8
ATOM      8  C   UNL     1      35.308 -48.235 -16.575  1.00  0.00    -0.000 C 
BRANCH   8   9
ATOM      9  C   UNL     1      35.969 -47.719 -17.862  1.00  0.00    -0.000 C 
BRANCH   9  10
ATOM     10  C   UNL     1      36.739 -46.406 -17.647  1.00  0.00    -0.000 C 
BRANCH  10  11
ATOM     11  C   UNL     1      37.708 -46.093 -18.799  1.00  0.00    -0.003 C 
ATOM     12  C   UNL     1      37.263 -46.777 -20.089  1.00  0.00     0.004 C 
ENDBRANCH  10  11
ENDBRANCH   9  10
ENDBRANCH   8   9
ENDBRANCH   7   8
ENDBRANCH   6   7
ENDBRANCH   5   6
ENDBRANCH   4   5
ENDBRANCH   3   4
ENDBRANCH   2   3
ENDBRANCH   1   2
BRANCH   1  13
ATOM     13  C   UNL     1      39.489 -49.446 -16.087  1.00  0.00     0.000 C 
BRANCH  13  14
ATOM     14  C   UNL     1      39.408 -48.151 -15.262  1.00  0.00     0.000 C 
BRANCH  14  15
ATOM     15  C   UNL     1      38.192 -48.120 -14.320  1.00  0.00     0.000 C 
BRANCH  15  16
ATOM     16  C   UNL     1      38.160 -49.316 -13.352  1.00  0.00     0.000 C 
BRANCH  16  17
ATOM     17  C   UNL     1      39.172 -49.245 -12.190  1.00  0.00     0.000 C 
BRANCH  17  18
ATOM     18  C   UNL     1      39.288 -47.868 -11.505  1.00  0.00     0.000 C 
BRANCH  18  19
ATOM     19  C   UNL     1      40.726 -47.342 -11.342  1.00  0.00     0.000 C 
BRANCH  19  20
ATOM     20  C   UNL     1      41.788 -48.353 -11.806  1.00  0.00     0.006 C 
BRANCH  20  21
ATOM     21  C   UNL     1      42.595 -47.836 -13.004  1.00  0.00     0.053 C 
BRANCH  21  22
ATOM     22  C   UNL     1      42.665 -48.846 -14.107  1.00  0.00     0.041 C 
ATOM     23  O   UNL     1      42.389 -50.053 -13.879  1.00  0.00    -0.550 OA
ATOM     24  O   UNL     1      43.028 -48.453 -15.391  1.00  0.00    -0.550 OA
ENDBRANCH  21  22
ENDBRANCH  20  21
ENDBRANCH  19  20
ENDBRANCH  18  19
ENDBRANCH  17  18
ENDBRANCH  16  17
ENDBRANCH  15  16
ENDBRANCH  14  15
ENDBRANCH  13  14
ENDBRANCH   1  13
TORSDOF 20
ENDMDL
MODEL 2
REMARK VINA RESULT:    -3.527      2.284      3.449
REMARK INTER + INTRA:         -11.612
REMARK INTER:                  -8.576
REMARK INTRA:                  -3.036
REMARK UNBOUND:                -3.961
REMARK SMILES CCCCCCCCCCCCCCCCCCCCCC(=O)[O-]
REMARK SMILES IDX 12 1 11 2 10 3 9 4 8 5 7 6 6 7 5 8 4 9 3 10 2 11 1 12 13 13
REMARK SMILES IDX 14 14 15 15 16 16 17 17 18 18 19 19 20 20 21 21 22 22 23 23
REMARK SMILES IDX 24 24
REMARK H PARENT
REMARK Flexibility Score: inf
ROOT
ATOM      1  C   UNL     1      38.236 -51.488 -17.258  1.00  0.00     0.000 C 
ENDROOT
BRANCH   1   2
ATOM      2  C   UNL     1      36.751 -51.325 -16.881  1.00  0.00     0.000 C 
BRANCH   2   3
ATOM      3  C   UNL     1      36.450 -51.389 -15.371  1.00  0.00     0.000 C 
BRANCH   3   4
ATOM      4  C   UNL     1      35.695 -50.174 -14.799  1.00  0.00    -0.000 C 
BRANCH   4   5
ATOM      5  C   UNL     1      34.898 -49.378 -15.854  1.00  0.00    -0.000 C 
BRANCH   5   6
ATOM      6  C   UNL     1      35.531 -48.010 -16.163  1.00  0.00    -0.000 C 
BRANCH   6   7
ATOM      7  C   UNL     1      35.934 -47.865 -17.640  1.00  0.00    -0.000 C 
BRANCH   7   8
ATOM      8  C   UNL     1      36.598 -46.513 -17.942  1.00  0.00    -0.000 C 
BRANCH   8   9
ATOM      9  C   UNL     1      36.745 -46.304 -19.457  1.00  0.00    -0.000 C 
BRANCH   9  10
ATOM     10  C   UNL     1      38.214 -46.267 -19.909  1.00  0.00    -0.000 C 
BRANCH  10  11
ATOM     11  C   UNL     1      38.662 -47.579 -20.573  1.00  0.00    -0.003 C 
ATOM     12  C   UNL     1      38.104 -47.694 -21.990  1.00  0.00     0.004 C 
ENDBRANCH  10  11
ENDBRANCH   9  10
ENDBRANCH   8   9
ENDBRANCH   7   8
ENDBRANCH   6   7
ENDBRANCH   5   6
ENDBRANCH   4   5
ENDBRANCH   3   4
ENDBRANCH   2   3
ENDBRANCH   1   2
BRANCH   1  13
ATOM     13  C   UNL     1      38.776 -50.305 -18.081  1.00  0.00     0.000 C 
BRANCH  13  14
ATOM     14  C   UNL     1      39.966 -49.608 -17.402  1.00  0.00     0.000 C 
BRANCH  14  15
ATOM     15  C   UNL     1      39.638 -48.174 -16.952  1.00  0.00     0.000 C 
BRANCH  15  16
ATOM     16  C   UNL     1      38.984 -48.123 -15.560  1.00  0.00     0.000 C 
BRANCH  16  17
ATOM     17  C   UNL     1      39.688 -48.964 -14.475  1.00  0.00     0.000 C 
BRANCH  17  18
ATOM     18  C   UNL     1      39.004 -48.960 -13.093  1.00  0.00     0.000 C 
BRANCH  18  19
ATOM     19  C   UNL     1      39.952 -49.159 -11.897  1.00  0.00     0.000 C 
BRANCH  19  20
ATOM     20  C   UNL     1      40.338 -47.836 -11.214  1.00  0.00     0.006 C 
BRANCH  20  21
ATOM     21  C   UNL     1      39.112 -47.072 -10.698  1.00  0.00     0.053 C 
BRANCH  21  22
ATOM     22  C   UNL     1      39.498 -45.822  -9.971  1.00  0.00     0.041 C 
ATOM     23  O   UNL     1      40.681 -45.662  -9.570  1.00  0.00    -0.550 OA
ATOM     24  O   UNL     1      38.554 -44.827  -9.744  1.00  0.00    -0.550 OA
ENDBRANCH  21  22
ENDBRANCH  20  21
ENDBRANCH  19  20
ENDBRANCH  18  19
ENDBRANCH  17  18
ENDBRANCH  16  17
ENDBRANCH  15  16
ENDBRANCH  14  15
ENDBRANCH  13  14
ENDBRANCH   1  13
TORSDOF 20
ENDMDL
MODEL 3
REMARK VINA RESULT:    -3.470      1.885      5.152
REMARK INTER + INTRA:         -11.489
REMARK INTER:                  -8.079
REMARK INTRA:                  -3.410
REMARK UNBOUND:                -3.961
REMARK SMILES CCCCCCCCCCCCCCCCCCCCCC(=O)[O-]
REMARK SMILES IDX 12 1 11 2 10 3 9 4 8 5 7 6 6 7 5 8 4 9 3 10 2 11 1 12 13 13
REMARK SMILES IDX 14 14 15 15 16 16 17 17 18 18 19 19 20 20 21 21 22 22 23 23
REMARK SMILES IDX 24 24
REMARK H PARENT
REMARK Flexibility Score: inf
ROOT
ATOM      1  C   UNL     1      35.002 -48.139 -16.156  1.00  0.00     0.000 C 
ENDROOT
BRANCH   1   2
ATOM      2  C   UNL     1      36.329 -47.517 -15.681  1.00  0.00     0.000 C 
BRANCH   2   3
ATOM      3  C   UNL     1      37.066 -46.668 -16.735  1.00  0.00     0.000 C 
BRANCH   3   4
ATOM      4  C   UNL     1      36.672 -46.948 -18.198  1.00  0.00    -0.000 C 
BRANCH   4   5
ATOM      5  C   UNL     1      37.184 -45.891 -19.199  1.00  0.00    -0.000 C 
BRANCH   5   6
ATOM      6  C   UNL     1      38.343 -46.411 -20.066  1.00  0.00    -0.000 C 
BRANCH   6   7
ATOM      7  C   UNL     1      37.863 -47.006 -21.400  1.00  0.00    -0.000 C 
BRANCH   7   8
ATOM      8  C   UNL     1      38.596 -48.305 -21.767  1.00  0.00    -0.000 C 
BRANCH   8   9
ATOM      9  C   UNL     1      39.247 -48.934 -20.525  1.00  0.00    -0.000 C 
BRANCH   9  10
ATOM     10  C   UNL     1      40.541 -49.694 -20.855  1.00  0.00    -0.000 C 
BRANCH  10  11
ATOM     11  C   UNL     1      40.281 -51.141 -21.303  1.00  0.00    -0.003 C 
ATOM     12  C   UNL     1      41.121 -52.125 -20.493  1.00  0.00     0.004 C 
ENDBRANCH  10  11
ENDBRANCH   9  10
ENDBRANCH   8   9
ENDBRANCH   7   8
ENDBRANCH   6   7
ENDBRANCH   5   6
ENDBRANCH   4   5
ENDBRANCH   3   4
ENDBRANCH   2   3
ENDBRANCH   1   2
BRANCH   1  13
ATOM     13  C   UNL     1      34.875 -49.628 -15.791  1.00  0.00     0.000 C 
BRANCH  13  14
ATOM     14  C   UNL     1      36.198 -50.228 -15.287  1.00  0.00     0.000 C 
BRANCH  14  15
ATOM     15  C   UNL     1      36.730 -51.347 -16.199  1.00  0.00     0.000 C 
BRANCH  15  16
ATOM     16  C   UNL     1      37.526 -50.807 -17.400  1.00  0.00     0.000 C 
BRANCH  16  17
ATOM     17  C   UNL     1      38.923 -51.432 -17.593  1.00  0.00     0.000 C 
BRANCH  17  18
ATOM     18  C   UNL     1      40.109 -50.509 -17.246  1.00  0.00     0.000 C 
BRANCH  18  19
ATOM     19  C   UNL     1      39.718 -49.083 -16.814  1.00  0.00     0.000 C 
BRANCH  19  20
ATOM     20  C   UNL     1      40.457 -48.621 -15.547  1.00  0.00     0.006 C 
BRANCH  20  21
ATOM     21  C   UNL     1      39.527 -48.546 -14.330  1.00  0.00     0.053 C 
BRANCH  21  22
ATOM     22  C   UNL     1      40.231 -48.929 -13.065  1.00  0.00     0.041 C 
ATOM     23  O   UNL     1      41.365 -49.474 -13.112  1.00  0.00    -0.550 OA
ATOM     24  O   UNL     1      39.638 -48.677 -11.833  1.00  0.00    -0.550 OA
ENDBRANCH  21  22
ENDBRANCH  20  21
ENDBRANCH  19  20
ENDBRANCH  18  19
ENDBRANCH  17  18
ENDBRANCH  16  17
ENDBRANCH  15  16
ENDBRANCH  14  15
ENDBRANCH  13  14
ENDBRANCH   1  13
TORSDOF 20
ENDMDL
MODEL 4
REMARK VINA RESULT:    -3.425      2.036      4.572
REMARK INTER + INTRA:         -11.390
REMARK INTER:                  -7.824
REMARK INTRA:                  -3.566
REMARK UNBOUND:                -3.961
REMARK SMILES CCCCCCCCCCCCCCCCCCCCCC(=O)[O-]
REMARK SMILES IDX 12 1 11 2 10 3 9 4 8 5 7 6 6 7 5 8 4 9 3 10 2 11 1 12 13 13
REMARK SMILES IDX 14 14 15 15 16 16 17 17 18 18 19 19 20 20 21 21 22 22 23 23
REMARK SMILES IDX 24 24
REMARK H PARENT
REMARK Flexibility Score: inf
ROOT
ATOM      1  C   UNL     1      39.544 -48.823 -21.221  1.00  0.00     0.000 C 
ENDROOT
BRANCH   1   2
ATOM      2  C   UNL     1      38.368 -47.883 -21.546  1.00  0.00     0.000 C 
BRANCH   2   3
ATOM      3  C   UNL     1      38.150 -46.739 -20.536  1.00  0.00     0.000 C 
BRANCH   3   4
ATOM      4  C   UNL     1      36.749 -46.683 -19.897  1.00  0.00    -0.000 C 
BRANCH   4   5
ATOM      5  C   UNL     1      36.617 -47.512 -18.602  1.00  0.00    -0.000 C 
BRANCH   5   6
ATOM      6  C   UNL     1      36.559 -46.632 -17.341  1.00  0.00    -0.000 C 
BRANCH   6   7
ATOM      7  C   UNL     1      37.954 -46.258 -16.815  1.00  0.00    -0.000 C 
BRANCH   7   8
ATOM      8  C   UNL     1      38.099 -44.754 -16.539  1.00  0.00    -0.000 C 
BRANCH   8   9
ATOM      9  C   UNL     1      36.749 -44.038 -16.695  1.00  0.00    -0.000 C 
BRANCH   9  10
ATOM     10  C   UNL     1      36.857 -42.742 -17.514  1.00  0.00    -0.000 C 
BRANCH  10  11
ATOM     11  C   UNL     1      36.748 -42.988 -19.028  1.00  0.00    -0.003 C 
ATOM     12  C   UNL     1      38.131 -43.076 -19.669  1.00  0.00     0.004 C 
ENDBRANCH  10  11
ENDBRANCH   9  10
ENDBRANCH   8   9
ENDBRANCH   7   8
ENDBRANCH   6   7
ENDBRANCH   5   6
ENDBRANCH   4   5
ENDBRANCH   3   4
ENDBRANCH   2   3
ENDBRANCH   1   2
BRANCH   1  13
ATOM     13  C   UNL     1      39.232 -49.797 -20.071  1.00  0.00     0.000 C 
BRANCH  13  14
ATOM     14  C   UNL     1      39.913 -49.392 -18.753  1.00  0.00     0.000 C 
BRANCH  14  15
ATOM     15  C   UNL     1      39.186 -49.943 -17.514  1.00  0.00     0.000 C 
BRANCH  15  16
ATOM     16  C   UNL     1      38.077 -50.948 -17.874  1.00  0.00     0.000 C 
BRANCH  16  17
ATOM     17  C   UNL     1      37.175 -51.374 -16.697  1.00  0.00     0.000 C 
BRANCH  17  18
ATOM     18  C   UNL     1      35.954 -50.467 -16.444  1.00  0.00     0.000 C 
BRANCH  18  19
ATOM     19  C   UNL     1      36.107 -49.484 -15.268  1.00  0.00     0.000 C 
BRANCH  19  20
ATOM     20  C   UNL     1      37.234 -49.882 -14.301  1.00  0.00     0.006 C 
BRANCH  20  21
ATOM     21  C   UNL     1      38.231 -48.738 -14.072  1.00  0.00     0.053 C 
BRANCH  21  22
ATOM     22  C   UNL     1      39.300 -49.116 -13.095  1.00  0.00     0.041 C 
ATOM     23  O   UNL     1      38.996 -49.431 -11.914  1.00  0.00    -0.550 OA
ATOM     24  O   UNL     1      40.634 -49.128 -13.489  1.00  0.00    -0.550 OA
ENDBRANCH  21  22
ENDBRANCH  20  21
ENDBRANCH  19  20
ENDBRANCH  18  19
ENDBRANCH  17  18
ENDBRANCH  16  17
ENDBRANCH  15  16
ENDBRANCH  14  15
ENDBRANCH  13  14
ENDBRANCH   1  13
TORSDOF 20
ENDMDL
MODEL 5
REMARK VINA RESULT:    -3.407      1.672      4.636
REMARK INTER + INTRA:         -11.352
REMARK INTER:                  -8.401
REMARK INTRA:                  -2.951
REMARK UNBOUND:                -3.961
REMARK SMILES CCCCCCCCCCCCCCCCCCCCCC(=O)[O-]
REMARK SMILES IDX 12 1 11 2 10 3 9 4 8 5 7 6 6 7 5 8 4 9 3 10 2 11 1 12 13 13
REMARK SMILES IDX 14 14 15 15 16 16 17 17 18 18 19 19 20 20 21 21 22 22 23 23
REMARK SMILES IDX 24 24
REMARK H PARENT
REMARK Flexibility Score: inf
ROOT
ATOM      1  C   UNL     1      34.875 -49.837 -17.124  1.00  0.00     0.000 C 
ENDROOT
BRANCH   1   2
ATOM      2  C   UNL     1      34.879 -48.331 -17.448  1.00  0.00     0.000 C 
BRANCH   2   3
ATOM      3  C   UNL     1      36.238 -47.628 -17.266  1.00  0.00     0.000 C 
BRANCH   3   4
ATOM      4  C   UNL     1      36.309 -46.626 -16.098  1.00  0.00    -0.000 C 
BRANCH   4   5
ATOM      5  C   UNL     1      36.676 -45.189 -16.527  1.00  0.00    -0.000 C 
BRANCH   5   6
ATOM      6  C   UNL     1      36.928 -45.070 -18.040  1.00  0.00    -0.000 C 
BRANCH   6   7
ATOM      7  C   UNL     1      38.179 -44.239 -18.368  1.00  0.00    -0.000 C 
BRANCH   7   8
ATOM      8  C   UNL     1      39.191 -45.009 -19.230  1.00  0.00    -0.000 C 
BRANCH   8   9
ATOM      9  C   UNL     1      38.475 -46.009 -20.151  1.00  0.00    -0.000 C 
BRANCH   9  10
ATOM     10  C   UNL     1      38.880 -47.466 -19.873  1.00  0.00    -0.000 C 
BRANCH  10  11
ATOM     11  C   UNL     1      38.827 -48.346 -21.132  1.00  0.00    -0.003 C 
ATOM     12  C   UNL     1      38.046 -47.657 -22.249  1.00  0.00     0.004 C 
ENDBRANCH  10  11
ENDBRANCH   9  10
ENDBRANCH   8   9
ENDBRANCH   7   8
ENDBRANCH   6   7
ENDBRANCH   5   6
ENDBRANCH   4   5
ENDBRANCH   3   4
ENDBRANCH   2   3
ENDBRANCH   1   2
BRANCH   1  13
ATOM     13  C   UNL     1      35.456 -50.150 -15.733  1.00  0.00     0.000 C 
BRANCH  13  14
ATOM     14  C   UNL     1      36.368 -51.388 -15.740  1.00  0.00     0.000 C 
BRANCH  14  15
ATOM     15  C   UNL     1      36.659 -51.906 -17.159  1.00  0.00     0.000 C 
BRANCH  15  16
ATOM     16  C   UNL     1      38.138 -51.755 -17.556  1.00  0.00     0.000 C 
BRANCH  16  17
ATOM     17  C   UNL     1      38.664 -50.305 -17.575  1.00  0.00     0.000 C 
BRANCH  17  18
ATOM     18  C   UNL     1      39.463 -49.880 -16.326  1.00  0.00     0.000 C 
BRANCH  18  19
ATOM     19  C   UNL     1      39.631 -48.360 -16.147  1.00  0.00     0.000 C 
BRANCH  19  20
ATOM     20  C   UNL     1      39.681 -47.936 -14.669  1.00  0.00     0.006 C 
BRANCH  20  21
ATOM     21  C   UNL     1      40.739 -48.717 -13.879  1.00  0.00     0.053 C 
BRANCH  21  22
ATOM     22  C   UNL     1      40.318 -48.949 -12.461  1.00  0.00     0.041 C 
ATOM     23  O   UNL     1      41.137 -48.778 -11.521  1.00  0.00    -0.550 OA
ATOM     24  O   UNL     1      39.016 -49.348 -12.176  1.00  0.00    -0.550 OA
ENDBRANCH  21  22
ENDBRANCH  20  21
ENDBRANCH  19  20
ENDBRANCH  18  19
ENDBRANCH  17  18
ENDBRANCH  16  17
ENDBRANCH  15  16
ENDBRANCH  14  15
ENDBRANCH  13  14
ENDBRANCH   1  13
TORSDOF 20
ENDMDL
MODEL 6
REMARK VINA RESULT:    -3.403      3.041      6.098
REMARK INTER + INTRA:         -11.344
REMARK INTER:                  -7.563
REMARK INTRA:                  -3.781
REMARK UNBOUND:                -3.961
REMARK SMILES CCCCCCCCCCCCCCCCCCCCCC(=O)[O-]
REMARK SMILES IDX 12 1 11 2 10 3 9 4 8 5 7 6 6 7 5 8 4 9 3 10 2 11 1 12 13 13
REMARK SMILES IDX 14 14 15 15 16 16 17 17 18 18 19 19 20 20 21 21 22 22 23 23
REMARK SMILES IDX 24 24
REMARK H PARENT
REMARK Flexibility Score: inf
ROOT
ATOM      1  C   UNL     1      38.982 -50.705 -17.184  1.00  0.00     0.000 C 
ENDROOT
BRANCH   1   2
ATOM      2  C   UNL     1      38.090 -51.783 -17.829  1.00  0.00     0.000 C 
BRANCH   2   3
ATOM      3  C   UNL     1      36.745 -52.028 -17.118  1.00  0.00     0.000 C 
BRANCH   3   4
ATOM      4  C   UNL     1      36.543 -51.247 -15.805  1.00  0.00    -0.000 C 
BRANCH   4   5
ATOM      5  C   UNL     1      35.324 -50.301 -15.820  1.00  0.00    -0.000 C 
BRANCH   5   6
ATOM      6  C   UNL     1      35.200 -49.518 -17.139  1.00  0.00    -0.000 C 
BRANCH   6   7
ATOM      7  C   UNL     1      36.037 -48.228 -17.142  1.00  0.00    -0.000 C 
BRANCH   7   8
ATOM      8  C   UNL     1      35.665 -47.279 -15.992  1.00  0.00    -0.000 C 
BRANCH   8   9
ATOM      9  C   UNL     1      36.926 -46.727 -15.310  1.00  0.00    -0.000 C 
BRANCH   9  10
ATOM     10  C   UNL     1      38.131 -47.672 -15.440  1.00  0.00    -0.000 C 
BRANCH  10  11
ATOM     11  C   UNL     1      38.366 -48.510 -14.173  1.00  0.00    -0.003 C 
ATOM     12  C   UNL     1      39.847 -48.843 -14.004  1.00  0.00     0.004 C 
ENDBRANCH  10  11
ENDBRANCH   9  10
ENDBRANCH   8   9
ENDBRANCH   7   8
ENDBRANCH   6   7
ENDBRANCH   5   6
ENDBRANCH   4   5
ENDBRANCH   3   4
ENDBRANCH   2   3
ENDBRANCH   1   2
BRANCH   1  13
ATOM     13  C   UNL     1      39.493 -49.667 -18.198  1.00  0.00     0.000 C 
BRANCH  13  14
ATOM     14  C   UNL     1      38.983 -49.934 -19.624  1.00  0.00     0.000 C 
BRANCH  14  15
ATOM     15  C   UNL     1      39.555 -48.946 -20.655  1.00  0.00     0.000 C 
BRANCH  15  16
ATOM     16  C   UNL     1      38.460 -48.150 -21.387  1.00  0.00     0.000 C 
BRANCH  16  17
ATOM     17  C   UNL     1      37.908 -46.935 -20.614  1.00  0.00     0.000 C 
BRANCH  17  18
ATOM     18  C   UNL     1      38.947 -46.162 -19.776  1.00  0.00     0.000 C 
BRANCH  18  19
ATOM     19  C   UNL     1      38.401 -45.533 -18.481  1.00  0.00     0.000 C 
BRANCH  19  20
ATOM     20  C   UNL     1      36.968 -44.994 -18.638  1.00  0.00     0.006 C 
BRANCH  20  21
ATOM     21  C   UNL     1      36.938 -43.469 -18.803  1.00  0.00     0.053 C 
BRANCH  21  22
ATOM     22  C   UNL     1      36.617 -42.776 -17.515  1.00  0.00     0.041 C 
ATOM     23  O   UNL     1      36.320 -43.446 -16.492  1.00  0.00    -0.550 OA
ATOM     24  O   UNL     1      36.653 -41.387 -17.443  1.00  0.00    -0.550 OA
ENDBRANCH  21  22
ENDBRANCH  20  21
ENDBRANCH  19  20
ENDBRANCH  18  19
ENDBRANCH  17  18
ENDBRANCH  16  17
ENDBRANCH  15  16
ENDBRANCH  14  15
ENDBRANCH  13  14
ENDBRANCH   1  13
TORSDOF 20
ENDMDL
MODEL 7
REMARK VINA RESULT:    -3.400      2.433      4.840
REMARK INTER + INTRA:         -11.338
REMARK INTER:                  -7.373
REMARK INTRA:                  -3.965
REMARK UNBOUND:                -3.961
REMARK SMILES CCCCCCCCCCCCCCCCCCCCCC(=O)[O-]
REMARK SMILES IDX 12 1 11 2 10 3 9 4 8 5 7 6 6 7 5 8 4 9 3 10 2 11 1 12 13 13
REMARK SMILES IDX 14 14 15 15 16 16 17 17 18 18 19 19 20 20 21 21 22 22 23 23
REMARK SMILES IDX 24 24
REMARK H PARENT
REMARK Flexibility Score: inf
ROOT
ATOM      1  C   UNL     1      35.571 -49.893 -15.787  1.00  0.00     0.000 C 
ENDROOT
BRANCH   1   2
ATOM      2  C   UNL     1      36.253 -48.578 -15.362  1.00  0.00     0.000 C 
BRANCH   2   3
ATOM      3  C   UNL     1      36.383 -47.521 -16.476  1.00  0.00     0.000 C 
BRANCH   3   4
ATOM      4  C   UNL     1      35.640 -47.851 -17.785  1.00  0.00    -0.000 C 
BRANCH   4   5
ATOM      5  C   UNL     1      36.324 -47.293 -19.051  1.00  0.00    -0.000 C 
BRANCH   5   6
ATOM      6  C   UNL     1      37.620 -46.527 -18.733  1.00  0.00    -0.000 C 
BRANCH   6   7
ATOM      7  C   UNL     1      38.636 -46.578 -19.886  1.00  0.00    -0.000 C 
BRANCH   7   8
ATOM      8  C   UNL     1      37.981 -46.905 -21.237  1.00  0.00    -0.000 C 
BRANCH   8   9
ATOM      9  C   UNL     1      38.662 -48.113 -21.896  1.00  0.00    -0.000 C 
BRANCH   9  10
ATOM     10  C   UNL     1      39.074 -49.189 -20.878  1.00  0.00    -0.000 C 
BRANCH  10  11
ATOM     11  C   UNL     1      40.292 -50.006 -21.340  1.00  0.00    -0.003 C 
ATOM     12  C   UNL     1      40.309 -51.383 -20.681  1.00  0.00     0.004 C 
ENDBRANCH  10  11
ENDBRANCH   9  10
ENDBRANCH   8   9
ENDBRANCH   7   8
ENDBRANCH   6   7
ENDBRANCH   5   6
ENDBRANCH   4   5
ENDBRANCH   3   4
ENDBRANCH   2   3
ENDBRANCH   1   2
BRANCH   1  13
ATOM     13  C   UNL     1      36.521 -51.102 -15.736  1.00  0.00     0.000 C 
BRANCH  13  14
ATOM     14  C   UNL     1      36.784 -51.706 -17.126  1.00  0.00     0.000 C 
BRANCH  14  15
ATOM     15  C   UNL     1      37.845 -50.928 -17.922  1.00  0.00     0.000 C 
BRANCH  15  16
ATOM     16  C   UNL     1      39.073 -50.557 -17.071  1.00  0.00     0.000 C 
BRANCH  16  17
ATOM     17  C   UNL     1      39.629 -49.138 -17.309  1.00  0.00     0.000 C 
BRANCH  17  18
ATOM     18  C   UNL     1      40.028 -48.368 -16.035  1.00  0.00     0.000 C 
BRANCH  18  19
ATOM     19  C   UNL     1      39.658 -49.063 -14.711  1.00  0.00     0.000 C 
BRANCH  19  20
ATOM     20  C   UNL     1      39.738 -48.119 -13.499  1.00  0.00     0.006 C 
BRANCH  20  21
ATOM     21  C   UNL     1      39.855 -46.648 -13.918  1.00  0.00     0.053 C 
BRANCH  21  22
ATOM     22  C   UNL     1      38.782 -45.805 -13.302  1.00  0.00     0.041 C 
ATOM     23  O   UNL     1      37.729 -45.552 -13.944  1.00  0.00    -0.550 OA
ATOM     24  O   UNL     1      38.941 -45.305 -12.014  1.00  0.00    -0.550 OA
ENDBRANCH  21  22
ENDBRANCH  20  21
ENDBRANCH  19  20
ENDBRANCH  18  19
ENDBRANCH  17  18
ENDBRANCH  16  17
ENDBRANCH  15  16
ENDBRANCH  14  15
ENDBRANCH  13  14
ENDBRANCH   1  13
TORSDOF 20
ENDMDL
MODEL 8
REMARK VINA RESULT:    -3.397      2.197      4.207
REMARK INTER + INTRA:         -11.330
REMARK INTER:                  -8.042
REMARK INTRA:                  -3.288
REMARK UNBOUND:                -3.961
REMARK SMILES CCCCCCCCCCCCCCCCCCCCCC(=O)[O-]
REMARK SMILES IDX 12 1 11 2 10 3 9 4 8 5 7 6 6 7 5 8 4 9 3 10 2 11 1 12 13 13
REMARK SMILES IDX 14 14 15 15 16 16 17 17 18 18 19 19 20 20 21 21 22 22 23 23
REMARK SMILES IDX 24 24
REMARK H PARENT
REMARK Flexibility Score: inf
ROOT
ATOM      1  C   UNL     1      37.187 -52.123 -17.135  1.00  0.00     0.000 C 
ENDROOT
BRANCH   1   2
ATOM      2  C   UNL     1      38.514 -51.762 -17.830  1.00  0.00     0.000 C 
BRANCH   2   3
ATOM      3  C   UNL     1      38.529 -50.392 -18.534  1.00  0.00     0.000 C 
BRANCH   3   4
ATOM      4  C   UNL     1      39.913 -49.721 -18.639  1.00  0.00    -0.000 C 
BRANCH   4   5
ATOM      5  C   UNL     1      40.021 -48.682 -19.775  1.00  0.00    -0.000 C 
BRANCH   5   6
ATOM      6  C   UNL     1      39.177 -49.060 -21.004  1.00  0.00    -0.000 C 
BRANCH   6   7
ATOM      7  C   UNL     1      38.395 -47.866 -21.576  1.00  0.00    -0.000 C 
BRANCH   7   8
ATOM      8  C   UNL     1      38.322 -46.684 -20.597  1.00  0.00    -0.000 C 
BRANCH   8   9
ATOM      9  C   UNL     1      36.951 -46.632 -19.905  1.00  0.00    -0.000 C 
BRANCH   9  10
ATOM     10  C   UNL     1      37.028 -46.061 -18.480  1.00  0.00    -0.000 C 
BRANCH  10  11
ATOM     11  C   UNL     1      38.401 -46.282 -17.827  1.00  0.00    -0.003 C 
ATOM     12  C   UNL     1      38.574 -45.389 -16.601  1.00  0.00     0.004 C 
ENDBRANCH  10  11
ENDBRANCH   9  10
ENDBRANCH   8   9
ENDBRANCH   7   8
ENDBRANCH   6   7
ENDBRANCH   5   6
ENDBRANCH   4   5
ENDBRANCH   3   4
ENDBRANCH   2   3
ENDBRANCH   1   2
BRANCH   1  13
ATOM     13  C   UNL     1      36.026 -51.201 -17.548  1.00  0.00     0.000 C 
BRANCH  13  14
ATOM     14  C   UNL     1      35.434 -50.428 -16.358  1.00  0.00     0.000 C 
BRANCH  14  15
ATOM     15  C   UNL     1      35.539 -48.902 -16.528  1.00  0.00     0.000 C 
BRANCH  15  16
ATOM     16  C   UNL     1      36.462 -48.250 -15.482  1.00  0.00     0.000 C 
BRANCH  16  17
ATOM     17  C   UNL     1      37.421 -49.220 -14.762  1.00  0.00     0.000 C 
BRANCH  17  18
ATOM     18  C   UNL     1      38.916 -49.023 -15.084  1.00  0.00     0.000 C 
BRANCH  18  19
ATOM     19  C   UNL     1      39.830 -48.850 -13.856  1.00  0.00     0.000 C 
BRANCH  19  20
ATOM     20  C   UNL     1      39.055 -48.887 -12.528  1.00  0.00     0.006 C 
BRANCH  20  21
ATOM     21  C   UNL     1      39.794 -48.143 -11.407  1.00  0.00     0.053 C 
BRANCH  21  22
ATOM     22  C   UNL     1      39.133 -46.842 -11.072  1.00  0.00     0.041 C 
ATOM     23  O   UNL     1      38.696 -46.635  -9.909  1.00  0.00    -0.550 OA
ATOM     24  O   UNL     1      39.006 -45.853 -12.041  1.00  0.00    -0.550 OA
ENDBRANCH  21  22
ENDBRANCH  20  21
ENDBRANCH  19  20
ENDBRANCH  18  19
ENDBRANCH  17  18
ENDBRANCH  16  17
ENDBRANCH  15  16
ENDBRANCH  14  15
ENDBRANCH  13  14
ENDBRANCH   1  13
TORSDOF 20
ENDMDL
MODEL 9
REMARK VINA RESULT:    -3.357      2.488      6.391
REMARK INTER + INTRA:         -11.242
REMARK INTER:                  -7.507
REMARK INTRA:                  -3.736
REMARK UNBOUND:                -3.961
REMARK SMILES CCCCCCCCCCCCCCCCCCCCCC(=O)[O-]
REMARK SMILES IDX 12 1 11 2 10 3 9 4 8 5 7 6 6 7 5 8 4 9 3 10 2 11 1 12 13 13
REMARK SMILES IDX 14 14 15 15 16 16 17 17 18 18 19 19 20 20 21 21 22 22 23 23
REMARK SMILES IDX 24 24
REMARK H PARENT
REMARK Flexibility Score: inf
ROOT
ATOM      1  C   UNL     1      39.393 -49.762 -17.936  1.00  0.00     0.000 C 
ENDROOT
BRANCH   1   2
ATOM      2  C   UNL     1      39.641 -49.643 -16.420  1.00  0.00     0.000 C 
BRANCH   2   3
ATOM      3  C   UNL     1      39.339 -48.257 -15.817  1.00  0.00     0.000 C 
BRANCH   3   4
ATOM      4  C   UNL     1      38.582 -48.274 -14.475  1.00  0.00    -0.000 C 
BRANCH   4   5
ATOM      5  C   UNL     1      38.759 -46.989 -13.639  1.00  0.00    -0.000 C 
BRANCH   5   6
ATOM      6  C   UNL     1      39.071 -47.284 -12.162  1.00  0.00    -0.000 C 
BRANCH   6   7
ATOM      7  C   UNL     1      39.477 -48.748 -11.924  1.00  0.00    -0.000 C 
BRANCH   7   8
ATOM      8  C   UNL     1      40.984 -48.911 -11.675  1.00  0.00    -0.000 C 
BRANCH   8   9
ATOM      9  C   UNL     1      41.732 -49.155 -12.994  1.00  0.00    -0.000 C 
BRANCH   9  10
ATOM     10  C   UNL     1      43.053 -48.374 -13.079  1.00  0.00    -0.000 C 
BRANCH  10  11
ATOM     11  C   UNL     1      42.836 -46.858 -13.217  1.00  0.00    -0.003 C 
ATOM     12  C   UNL     1      42.307 -46.505 -14.605  1.00  0.00     0.004 C 
ENDBRANCH  10  11
ENDBRANCH   9  10
ENDBRANCH   8   9
ENDBRANCH   7   8
ENDBRANCH   6   7
ENDBRANCH   5   6
ENDBRANCH   4   5
ENDBRANCH   3   4
ENDBRANCH   2   3
ENDBRANCH   1   2
BRANCH   1  13
ATOM     13  C   UNL     1      38.383 -50.868 -18.291  1.00  0.00     0.000 C 
BRANCH  13  14
ATOM     14  C   UNL     1      37.572 -51.340 -17.073  1.00  0.00     0.000 C 
BRANCH  14  15
ATOM     15  C   UNL     1      36.111 -50.861 -17.109  1.00  0.00     0.000 C 
BRANCH  15  16
ATOM     16  C   UNL     1      35.688 -50.146 -15.814  1.00  0.00     0.000 C 
BRANCH  16  17
ATOM     17  C   UNL     1      35.092 -48.737 -16.009  1.00  0.00     0.000 C 
BRANCH  17  18
ATOM     18  C   UNL     1      35.567 -47.993 -17.274  1.00  0.00     0.000 C 
BRANCH  18  19
ATOM     19  C   UNL     1      36.345 -46.691 -17.009  1.00  0.00     0.000 C 
BRANCH  19  20
ATOM     20  C   UNL     1      37.059 -46.157 -18.262  1.00  0.00     0.006 C 
BRANCH  20  21
ATOM     21  C   UNL     1      37.113 -47.200 -19.386  1.00  0.00     0.053 C 
BRANCH  21  22
ATOM     22  C   UNL     1      38.029 -46.781 -20.493  1.00  0.00     0.041 C 
ATOM     23  O   UNL     1      38.634 -45.679 -20.431  1.00  0.00    -0.550 OA
ATOM     24  O   UNL     1      38.222 -47.612 -21.592  1.00  0.00    -0.550 OA
ENDBRANCH  21  22
ENDBRANCH  20  21
ENDBRANCH  19  20
ENDBRANCH  18  19
ENDBRANCH  17  18
ENDBRANCH  16  17
ENDBRANCH  15  16
ENDBRANCH  14  15
ENDBRANCH  13  14
ENDBRANCH   1  13
TORSDOF 20
ENDMDL
