MODEL 1
REMARK VINA RESULT:    -2.906      0.000      0.000
REMARK INTER + INTRA:          -5.001
REMARK INTER:                  -4.434
REMARK INTRA:                  -0.567
REMARK UNBOUND:                -0.567
REMARK SMILES CCCCCCCCCCC(=O)[O-]
REMARK SMILES IDX 7 1 8 2 9 3 10 4 11 5 12 6 13 7 6 8 5 9 4 10 3 11 2 12 1 13
REMARK H PARENT
REMARK Flexibility Score: inf
ROOT
ATOM      1  C   UNL     1       3.581 -51.536   9.470  1.00  0.00     0.000 C 
ENDROOT
BRANCH   1   2
ATOM      2  C   UNL     1       3.829 -52.317  10.772  1.00  0.00     0.000 C 
BRANCH   2   3
ATOM      3  C   UNL     1       5.322 -52.416  11.125  1.00  0.00     0.006 C 
BRANCH   3   4
ATOM      4  C   UNL     1       6.090 -53.363  10.192  1.00  0.00     0.053 C 
BRANCH   4   5
ATOM      5  C   UNL     1       7.557 -53.298  10.475  1.00  0.00     0.041 C 
ATOM      6  O   UNL     1       8.257 -54.344  10.437  1.00  0.00    -0.550 OA
ATOM      7  O   UNL     1       8.163 -52.074  10.731  1.00  0.00    -0.550 OA
ENDBRANCH   4   5
ENDBRANCH   3   4
ENDBRANCH   2   3
ENDBRANCH   1   2
BRANCH   1   8
ATOM      8  C   UNL     1       2.607 -50.362   9.662  1.00  0.00     0.000 C 
BRANCH   8   9
ATOM      9  C   UNL     1       2.080 -50.256  11.100  1.00  0.00    -0.000 C 
BRANCH   9  10
ATOM     10  C   UNL     1       0.584 -49.919  11.114  1.00  0.00    -0.000 C 
BRANCH  10  11
ATOM     11  C   UNL     1      -0.014 -50.013   9.705  1.00  0.00    -0.000 C 
BRANCH  11  12
ATOM     12  C   UNL     1      -1.046 -51.143   9.620  1.00  0.00    -0.003 C 
ATOM     13  C   UNL     1      -0.828 -52.171  10.725  1.00  0.00     0.004 C 
ENDBRANCH  11  12
ENDBRANCH  10  11
ENDBRANCH   9  10
ENDBRANCH   8   9
ENDBRANCH   1   8
TORSDOF 9
ENDMDL
