MODEL 1
REMARK VINA RESULT:    -3.939      0.000      0.000
REMARK INTER + INTRA:          -5.751
REMARK INTER:                  -6.012
REMARK INTRA:                   0.261
REMARK UNBOUND:                 0.261
REMARK SMILES CC1=CCC[C@@H](C)C(=O)C[C@H](C(C)C)C(=O)C1
REMARK SMILES IDX 8 1 9 2 6 3 7 4 5 5 4 6 3 7 2 8 1 9 10 11 11 12 15 13 16 14
REMARK SMILES IDX 17 15 12 17 13 18 14 19
REMARK H PARENT
REMARK Flexibility Score: 70.00
ROOT
ATOM      1  C   UNL     1       8.415 -27.257 -12.680  1.00  0.00     0.136 C 
ATOM      2  O   UNL     1       8.095 -26.259 -13.312  1.00  0.00    -0.299 OA
ENDROOT
BRANCH   1   3
ATOM      3  C   UNL     1       8.657 -28.541 -13.464  1.00  0.00     0.053 C 
ATOM      4  C   UNL     1       9.145 -28.227 -14.890  1.00  0.00     0.016 C 
BRANCH   3   5
ATOM      5  C   UNL     1       7.559 -29.646 -13.424  1.00  0.00     0.015 C 
BRANCH   5   6
ATOM      6  C   UNL     1       6.745 -29.881 -12.130  1.00  0.00     0.028 C 
BRANCH   6   7
ATOM      7  C   UNL     1       5.387 -29.233 -12.114  1.00  0.00    -0.028 C 
ATOM      8  C   UNL     1       4.974 -28.297 -11.226  1.00  0.00    -0.070 CG0
ATOM      9  C   UNL     1       3.573 -27.756 -11.373  1.00  0.00     0.039 C 
ATOM     10  G   UNL     1       5.855 -27.741 -10.122  1.00  0.00     0.000 G0
ENDBRANCH   6   7
ENDBRANCH   5   6
ENDBRANCH   3   5
ENDBRANCH   1   3
BRANCH   1  11
ATOM     11  C   UNL     1       8.604 -27.097 -11.189  1.00  0.00     0.087 C 
BRANCH  11  12
ATOM     12  C   UNL     1       7.775 -25.919 -10.611  1.00  0.00     0.066 C 
BRANCH  12  13
ATOM     13  C   UNL     1       6.312 -26.307 -10.418  1.00  0.00     0.140 C 
ATOM     14  O   UNL     1       5.464 -25.429 -10.491  1.00  0.00    -0.299 OA
BRANCH  13  15
ATOM     15  C   UNL     1       5.859 -27.717 -10.116  1.00  0.00     0.106 CG0
ATOM     16  G   UNL     1       4.999 -28.273 -11.237  1.00  0.00     0.000 G0
ENDBRANCH  13  15
ENDBRANCH  12  13
BRANCH  12  17
ATOM     17  C   UNL     1       8.413 -25.305  -9.323  1.00  0.00    -0.006 C 
ATOM     18  C   UNL     1       8.574 -23.779  -9.452  1.00  0.00     0.008 C 
ATOM     19  C   UNL     1       9.787 -25.922  -9.009  1.00  0.00     0.008 C 
ENDBRANCH  12  17
ENDBRANCH  11  12
ENDBRANCH   1  11
TORSDOF 1
ENDMDL
MODEL 2
REMARK VINA RESULT:    -3.895      6.619      9.097
REMARK INTER + INTRA:          -5.684
REMARK INTER:                  -5.847
REMARK INTRA:                   0.164
REMARK UNBOUND:                 0.261
REMARK SMILES CC1=CCC[C@@H](C)C(=O)C[C@H](C(C)C)C(=O)C1
REMARK SMILES IDX 8 1 9 2 6 3 7 4 5 5 4 6 3 7 2 8 1 9 10 11 11 12 15 13 16 14
REMARK SMILES IDX 17 15 12 17 13 18 14 19
REMARK H PARENT
REMARK Flexibility Score: 70.00
ROOT
ATOM      1  C   UNL     1      -1.247 -22.075 -12.090  1.00  0.00     0.136 C 
ATOM      2  O   UNL     1      -1.733 -20.956 -12.196  1.00  0.00    -0.299 OA
ENDROOT
BRANCH   1   3
ATOM      3  C   UNL     1      -1.147 -22.923 -13.352  1.00  0.00     0.053 C 
ATOM      4  C   UNL     1      -2.424 -22.790 -14.201  1.00  0.00     0.016 C 
BRANCH   3   5
ATOM      5  C   UNL     1      -0.657 -24.395 -13.214  1.00  0.00     0.015 C 
BRANCH   5   6
ATOM      6  C   UNL     1       0.836 -24.689 -12.934  1.00  0.00     0.028 C 
BRANCH   6   7
ATOM      7  C   UNL     1       1.095 -25.957 -12.165  1.00  0.00    -0.028 C 
ATOM      8  C   UNL     1       1.249 -26.043 -10.822  1.00  0.00    -0.070 CG0
ATOM      9  C   UNL     1       1.496 -27.407 -10.227  1.00  0.00     0.039 C 
ATOM     10  G   UNL     1       1.149 -24.851  -9.888  1.00  0.00     0.000 G0
ENDBRANCH   6   7
ENDBRANCH   5   6
ENDBRANCH   3   5
ENDBRANCH   1   3
BRANCH   1  11
ATOM     11  C   UNL     1      -0.732 -22.476 -10.727  1.00  0.00     0.087 C 
BRANCH  11  12
ATOM     12  C   UNL     1      -1.309 -23.837 -10.254  1.00  0.00     0.066 C 
BRANCH  12  13
ATOM     13  C   UNL     1      -0.291 -24.622  -9.433  1.00  0.00     0.140 C 
ATOM     14  O   UNL     1      -0.641 -25.074  -8.352  1.00  0.00    -0.299 OA
BRANCH  13  15
ATOM     15  C   UNL     1       1.137 -24.848  -9.876  1.00  0.00     0.106 CG0
ATOM     16  G   UNL     1       1.243 -26.040 -10.811  1.00  0.00     0.000 G0
ENDBRANCH  13  15
ENDBRANCH  12  13
BRANCH  12  17
ATOM     17  C   UNL     1      -2.687 -23.691  -9.530  1.00  0.00    -0.006 C 
ATOM     18  C   UNL     1      -3.843 -24.171 -10.425  1.00  0.00     0.008 C 
ATOM     19  C   UNL     1      -2.963 -22.238  -9.102  1.00  0.00     0.008 C 
ENDBRANCH  12  17
ENDBRANCH  11  12
ENDBRANCH   1  11
TORSDOF 1
ENDMDL
MODEL 3
REMARK VINA RESULT:    -3.603      4.584      7.499
REMARK INTER + INTRA:          -5.238
REMARK INTER:                  -5.807
REMARK INTRA:                   0.569
REMARK UNBOUND:                 0.261
REMARK SMILES CC1=CCC[C@@H](C)C(=O)C[C@H](C(C)C)C(=O)C1
REMARK SMILES IDX 8 1 9 2 6 3 7 4 5 5 4 6 3 7 2 8 1 9 10 11 11 12 15 13 16 14
REMARK SMILES IDX 17 15 12 17 13 18 14 19
REMARK H PARENT
REMARK Flexibility Score: 70.00
ROOT
ATOM      1  C   UNL     1       0.338 -25.139 -12.449  1.00  0.00     0.136 C 
ATOM      2  O   UNL     1       1.181 -24.489 -13.053  1.00  0.00    -0.299 OA
ENDROOT
BRANCH   1   3
ATOM      3  C   UNL     1      -0.895 -24.400 -11.944  1.00  0.00     0.053 C 
ATOM      4  C   UNL     1      -1.178 -23.157 -12.806  1.00  0.00     0.016 C 
BRANCH   3   5
ATOM      5  C   UNL     1      -1.012 -24.122 -10.415  1.00  0.00     0.015 C 
BRANCH   5   6
ATOM      6  C   UNL     1      -0.002 -24.762  -9.434  1.00  0.00     0.028 C 
BRANCH   6   7
ATOM      7  C   UNL     1       1.417 -24.284  -9.588  1.00  0.00    -0.028 C 
ATOM      8  C   UNL     1       2.488 -25.073  -9.842  1.00  0.00    -0.070 CG0
ATOM      9  C   UNL     1       3.837 -24.411  -9.972  1.00  0.00     0.039 C 
ATOM     10  G   UNL     1       2.395 -26.576 -10.040  1.00  0.00     0.000 G0
ENDBRANCH   6   7
ENDBRANCH   5   6
ENDBRANCH   3   5
ENDBRANCH   1   3
BRANCH   1  11
ATOM     11  C   UNL     1       0.576 -26.627 -12.325  1.00  0.00     0.087 C 
BRANCH  11  12
ATOM     12  C   UNL     1       2.043 -27.020 -12.642  1.00  0.00     0.066 C 
BRANCH  12  13
ATOM     13  C   UNL     1       2.909 -27.010 -11.385  1.00  0.00     0.140 C 
ATOM     14  O   UNL     1       4.068 -27.387 -11.476  1.00  0.00    -0.299 OA
BRANCH  13  15
ATOM     15  C   UNL     1       2.399 -26.579 -10.029  1.00  0.00     0.106 CG0
ATOM     16  G   UNL     1       2.505 -25.075  -9.850  1.00  0.00     0.000 G0
ENDBRANCH  13  15
ENDBRANCH  12  13
BRANCH  12  17
ATOM     17  C   UNL     1       2.151 -28.360 -13.439  1.00  0.00    -0.006 C 
ATOM     18  C   UNL     1       2.200 -28.106 -14.956  1.00  0.00     0.008 C 
ATOM     19  C   UNL     1       0.978 -29.310 -13.134  1.00  0.00     0.008 C 
ENDBRANCH  12  17
ENDBRANCH  11  12
ENDBRANCH   1  11
TORSDOF 1
ENDMDL
MODEL 4
REMARK VINA RESULT:    -3.524      3.533      6.018
REMARK INTER + INTRA:          -5.118
REMARK INTER:                  -5.079
REMARK INTRA:                  -0.039
REMARK UNBOUND:                 0.261
REMARK SMILES CC1=CCC[C@@H](C)C(=O)C[C@H](C(C)C)C(=O)C1
REMARK SMILES IDX 8 1 9 2 6 3 7 4 5 5 4 6 3 7 2 8 1 9 10 11 11 12 15 13 16 14
REMARK SMILES IDX 17 15 12 17 13 18 14 19
REMARK H PARENT
REMARK Flexibility Score: 70.00
ROOT
ATOM      1  C   UNL     1       1.340 -26.155 -13.829  1.00  0.00     0.136 C 
ATOM      2  O   UNL     1       0.724 -25.875 -14.849  1.00  0.00    -0.299 OA
ENDROOT
BRANCH   1   3
ATOM      3  C   UNL     1       1.887 -27.572 -13.702  1.00  0.00     0.053 C 
ATOM      4  C   UNL     1       2.263 -28.138 -15.083  1.00  0.00     0.016 C 
BRANCH   3   5
ATOM      5  C   UNL     1       1.101 -28.588 -12.820  1.00  0.00     0.015 C 
BRANCH   5   6
ATOM      6  C   UNL     1       1.791 -29.251 -11.605  1.00  0.00     0.028 C 
BRANCH   6   7
ATOM      7  C   UNL     1       3.256 -28.937 -11.463  1.00  0.00    -0.028 C 
ATOM      8  C   UNL     1       3.775 -27.942 -10.704  1.00  0.00    -0.070 CG0
ATOM      9  C   UNL     1       5.275 -27.783 -10.681  1.00  0.00     0.039 C 
ATOM     10  G   UNL     1       2.933 -27.008  -9.853  1.00  0.00     0.000 G0
ENDBRANCH   6   7
ENDBRANCH   5   6
ENDBRANCH   3   5
ENDBRANCH   1   3
BRANCH   1  11
ATOM     11  C   UNL     1       1.554 -25.044 -12.826  1.00  0.00     0.087 C 
BRANCH  11  12
ATOM     12  C   UNL     1       1.300 -25.508 -11.367  1.00  0.00     0.066 C 
BRANCH  12  13
ATOM     13  C   UNL     1       2.609 -25.729 -10.614  1.00  0.00     0.140 C 
ATOM     14  O   UNL     1       3.448 -24.839 -10.635  1.00  0.00    -0.299 OA
BRANCH  13  15
ATOM     15  C   UNL     1       2.932 -27.001  -9.865  1.00  0.00     0.106 CG0
ATOM     16  G   UNL     1       3.779 -27.939 -10.706  1.00  0.00     0.000 G0
ENDBRANCH  13  15
ENDBRANCH  12  13
BRANCH  12  17
ATOM     17  C   UNL     1       0.311 -24.573 -10.599  1.00  0.00    -0.006 C 
ATOM     18  C   UNL     1      -0.002 -25.124  -9.196  1.00  0.00     0.008 C 
ATOM     19  C   UNL     1      -1.012 -24.381 -11.362  1.00  0.00     0.008 C 
ENDBRANCH  12  17
ENDBRANCH  11  12
ENDBRANCH   1  11
TORSDOF 1
ENDMDL
MODEL 5
REMARK VINA RESULT:    -3.511      7.679     10.195
REMARK INTER + INTRA:          -5.098
REMARK INTER:                  -5.119
REMARK INTRA:                   0.022
REMARK UNBOUND:                 0.261
REMARK SMILES CC1=CCC[C@@H](C)C(=O)C[C@H](C(C)C)C(=O)C1
REMARK SMILES IDX 8 1 9 2 6 3 7 4 5 5 4 6 3 7 2 8 1 9 10 11 11 12 15 13 16 14
REMARK SMILES IDX 17 15 12 17 13 18 14 19
REMARK H PARENT
REMARK Flexibility Score: 70.00
ROOT
ATOM      1  C   UNL     1      -1.390 -23.369 -13.182  1.00  0.00     0.136 C 
ATOM      2  O   UNL     1      -0.406 -23.275 -13.904  1.00  0.00    -0.299 OA
ENDROOT
BRANCH   1   3
ATOM      3  C   UNL     1      -2.599 -22.505 -13.522  1.00  0.00     0.053 C 
ATOM      4  C   UNL     1      -3.000 -22.685 -14.998  1.00  0.00     0.016 C 
BRANCH   3   5
ATOM      5  C   UNL     1      -2.590 -21.014 -13.069  1.00  0.00     0.015 C 
BRANCH   5   6
ATOM      6  C   UNL     1      -3.215 -20.616 -11.711  1.00  0.00     0.028 C 
BRANCH   6   7
ATOM      7  C   UNL     1      -3.852 -21.750 -10.953  1.00  0.00    -0.028 C 
ATOM      8  C   UNL     1      -3.239 -22.508 -10.014  1.00  0.00    -0.070 CG0
ATOM      9  C   UNL     1      -4.044 -23.600  -9.354  1.00  0.00     0.039 C 
ATOM     10  G   UNL     1      -1.804 -22.293  -9.566  1.00  0.00     0.000 G0
ENDBRANCH   6   7
ENDBRANCH   5   6
ENDBRANCH   3   5
ENDBRANCH   1   3
BRANCH   1  11
ATOM     11  C   UNL     1      -1.331 -24.383 -12.063  1.00  0.00     0.087 C 
BRANCH  11  12
ATOM     12  C   UNL     1      -0.302 -23.996 -10.968  1.00  0.00     0.066 C 
BRANCH  12  13
ATOM     13  C   UNL     1      -0.993 -23.567  -9.677  1.00  0.00     0.140 C 
ATOM     14  O   UNL     1      -0.900 -24.295  -8.699  1.00  0.00    -0.299 OA
BRANCH  13  15
ATOM     15  C   UNL     1      -1.807 -22.299  -9.553  1.00  0.00     0.106 CG0
ATOM     16  G   UNL     1      -3.239 -22.515 -10.010  1.00  0.00     0.000 G0
ENDBRANCH  13  15
ENDBRANCH  12  13
BRANCH  12  17
ATOM     17  C   UNL     1       0.780 -25.101 -10.736  1.00  0.00    -0.006 C 
ATOM     18  C   UNL     1       2.175 -24.483 -10.530  1.00  0.00     0.008 C 
ATOM     19  C   UNL     1       0.848 -26.097 -11.908  1.00  0.00     0.008 C 
ENDBRANCH  12  17
ENDBRANCH  11  12
ENDBRANCH   1  11
TORSDOF 1
ENDMDL
MODEL 6
REMARK VINA RESULT:    -3.500      4.829      7.139
REMARK INTER + INTRA:          -5.080
REMARK INTER:                  -5.414
REMARK INTRA:                   0.334
REMARK UNBOUND:                 0.261
REMARK SMILES CC1=CCC[C@@H](C)C(=O)C[C@H](C(C)C)C(=O)C1
REMARK SMILES IDX 8 1 9 2 6 3 7 4 5 5 4 6 3 7 2 8 1 9 10 11 11 12 15 13 16 14
REMARK SMILES IDX 17 15 12 17 13 18 14 19
REMARK H PARENT
REMARK Flexibility Score: 70.00
ROOT
ATOM      1  C   UNL     1       0.873 -26.662 -12.772  1.00  0.00     0.136 C 
ATOM      2  O   UNL     1      -0.037 -27.411 -12.442  1.00  0.00    -0.299 OA
ENDROOT
BRANCH   1   3
ATOM      3  C   UNL     1       2.157 -27.298 -13.291  1.00  0.00     0.053 C 
ATOM      4  C   UNL     1       1.917 -27.984 -14.648  1.00  0.00     0.016 C 
BRANCH   3   5
ATOM      5  C   UNL     1       2.998 -28.168 -12.308  1.00  0.00     0.015 C 
BRANCH   5   6
ATOM      6  C   UNL     1       3.100 -27.769 -10.817  1.00  0.00     0.028 C 
BRANCH   6   7
ATOM      7  C   UNL     1       3.553 -26.355 -10.573  1.00  0.00    -0.028 C 
ATOM      8  C   UNL     1       2.789 -25.365 -10.053  1.00  0.00    -0.070 CG0
ATOM      9  C   UNL     1       3.421 -24.007  -9.874  1.00  0.00     0.039 C 
ATOM     10  G   UNL     1       1.350 -25.559  -9.610  1.00  0.00     0.000 G0
ENDBRANCH   6   7
ENDBRANCH   5   6
ENDBRANCH   3   5
ENDBRANCH   1   3
BRANCH   1  11
ATOM     11  C   UNL     1       0.605 -25.176 -12.695  1.00  0.00     0.087 C 
BRANCH  11  12
ATOM     12  C   UNL     1      -0.351 -24.808 -11.530  1.00  0.00     0.066 C 
BRANCH  12  13
ATOM     13  C   UNL     1       0.417 -24.553 -10.236  1.00  0.00     0.140 C 
ATOM     14  O   UNL     1       0.285 -23.469  -9.686  1.00  0.00    -0.299 OA
BRANCH  13  15
ATOM     15  C   UNL     1       1.351 -25.564  -9.611  1.00  0.00     0.106 CG0
ATOM     16  G   UNL     1       2.784 -25.344 -10.061  1.00  0.00     0.000 G0
ENDBRANCH  13  15
ENDBRANCH  12  13
BRANCH  12  17
ATOM     17  C   UNL     1      -1.327 -23.642 -11.893  1.00  0.00    -0.006 C 
ATOM     18  C   UNL     1      -2.788 -24.021 -11.590  1.00  0.00     0.008 C 
ATOM     19  C   UNL     1      -1.218 -23.239 -13.375  1.00  0.00     0.008 C 
ENDBRANCH  12  17
ENDBRANCH  11  12
ENDBRANCH   1  11
TORSDOF 1
ENDMDL
MODEL 7
REMARK VINA RESULT:    -3.400      1.794      4.869
REMARK INTER + INTRA:          -4.928
REMARK INTER:                  -4.965
REMARK INTRA:                   0.037
REMARK UNBOUND:                 0.261
REMARK SMILES CC1=CCC[C@@H](C)C(=O)C[C@H](C(C)C)C(=O)C1
REMARK SMILES IDX 8 1 9 2 6 3 7 4 5 5 4 6 3 7 2 8 1 9 10 11 11 12 15 13 16 14
REMARK SMILES IDX 17 15 12 17 13 18 14 19
REMARK H PARENT
REMARK Flexibility Score: 70.00
ROOT
ATOM      1  C   UNL     1       6.428 -26.518 -10.254  1.00  0.00     0.136 C 
ATOM      2  O   UNL     1       5.707 -25.536 -10.370  1.00  0.00    -0.299 OA
ENDROOT
BRANCH   1   3
ATOM      3  C   UNL     1       7.911 -26.278  -9.998  1.00  0.00     0.053 C 
ATOM      4  C   UNL     1       8.173 -24.801  -9.651  1.00  0.00     0.016 C 
BRANCH   3   5
ATOM      5  C   UNL     1       8.938 -26.858 -11.016  1.00  0.00     0.015 C 
BRANCH   5   6
ATOM      6  C   UNL     1       8.565 -26.965 -12.513  1.00  0.00     0.028 C 
BRANCH   6   7
ATOM      7  C   UNL     1       8.973 -28.255 -13.174  1.00  0.00    -0.028 C 
ATOM      8  C   UNL     1       8.127 -29.154 -13.729  1.00  0.00    -0.070 CG0
ATOM      9  C   UNL     1       8.723 -30.391 -14.353  1.00  0.00     0.039 C 
ATOM     10  G   UNL     1       6.622 -28.965 -13.788  1.00  0.00     0.000 G0
ENDBRANCH   6   7
ENDBRANCH   5   6
ENDBRANCH   3   5
ENDBRANCH   1   3
BRANCH   1  11
ATOM     11  C   UNL     1       5.761 -27.873 -10.311  1.00  0.00     0.087 C 
BRANCH  11  12
ATOM     12  C   UNL     1       5.149 -28.172 -11.705  1.00  0.00     0.066 C 
BRANCH  12  13
ATOM     13  C   UNL     1       5.958 -29.225 -12.458  1.00  0.00     0.140 C 
ATOM     14  O   UNL     1       6.103 -30.324 -11.942  1.00  0.00    -0.299 OA
BRANCH  13  15
ATOM     15  C   UNL     1       6.609 -28.970 -13.798  1.00  0.00     0.106 CG0
ATOM     16  G   UNL     1       8.115 -29.153 -13.725  1.00  0.00     0.000 G0
ENDBRANCH  13  15
ENDBRANCH  12  13
BRANCH  12  17
ATOM     17  C   UNL     1       3.626 -28.517 -11.635  1.00  0.00    -0.006 C 
ATOM     18  C   UNL     1       2.929 -28.247 -12.981  1.00  0.00     0.008 C 
ATOM     19  C   UNL     1       2.903 -27.718 -10.536  1.00  0.00     0.008 C 
ENDBRANCH  12  17
ENDBRANCH  11  12
ENDBRANCH   1  11
TORSDOF 1
ENDMDL
MODEL 8
REMARK VINA RESULT:    -3.329      1.742      3.720
REMARK INTER + INTRA:          -4.819
REMARK INTER:                  -5.263
REMARK INTRA:                   0.443
REMARK UNBOUND:                 0.261
REMARK SMILES CC1=CCC[C@@H](C)C(=O)C[C@H](C(C)C)C(=O)C1
REMARK SMILES IDX 8 1 9 2 6 3 7 4 5 5 4 6 3 7 2 8 1 9 10 11 11 12 15 13 16 14
REMARK SMILES IDX 17 15 12 17 13 18 14 19
REMARK H PARENT
REMARK Flexibility Score: 70.00
ROOT
ATOM      1  C   UNL     1       5.776 -27.216 -10.726  1.00  0.00     0.136 C 
ATOM      2  O   UNL     1       4.785 -26.716 -10.212  1.00  0.00    -0.299 OA
ENDROOT
BRANCH   1   3
ATOM      3  C   UNL     1       5.577 -28.476 -11.561  1.00  0.00     0.053 C 
ATOM      4  C   UNL     1       4.087 -28.684 -11.888  1.00  0.00     0.016 C 
BRANCH   3   5
ATOM      5  C   UNL     1       6.289 -29.784 -11.102  1.00  0.00     0.015 C 
BRANCH   5   6
ATOM      6  C   UNL     1       7.224 -30.538 -12.077  1.00  0.00     0.028 C 
BRANCH   6   7
ATOM      7  C   UNL     1       7.140 -30.082 -13.509  1.00  0.00    -0.028 C 
ATOM      8  C   UNL     1       7.922 -29.133 -14.078  1.00  0.00    -0.070 CG0
ATOM      9  C   UNL     1       7.695 -28.813 -15.534  1.00  0.00     0.039 C 
ATOM     10  G   UNL     1       9.032 -28.406 -13.339  1.00  0.00     0.000 G0
ENDBRANCH   6   7
ENDBRANCH   5   6
ENDBRANCH   3   5
ENDBRANCH   1   3
BRANCH   1  11
ATOM     11  C   UNL     1       7.090 -26.495 -10.537  1.00  0.00     0.087 C 
BRANCH  11  12
ATOM     12  C   UNL     1       8.304 -27.346 -10.996  1.00  0.00     0.066 C 
BRANCH  12  13
ATOM     13  C   UNL     1       8.503 -27.265 -12.507  1.00  0.00     0.140 C 
ATOM     14  O   UNL     1       8.194 -26.230 -13.080  1.00  0.00    -0.299 OA
BRANCH  13  15
ATOM     15  C   UNL     1       9.041 -28.409 -13.336  1.00  0.00     0.106 CG0
ATOM     16  G   UNL     1       7.928 -29.124 -14.081  1.00  0.00     0.000 G0
ENDBRANCH  13  15
ENDBRANCH  12  13
BRANCH  12  17
ATOM     17  C   UNL     1       9.607 -27.022 -10.197  1.00  0.00    -0.006 C 
ATOM     18  C   UNL     1      10.064 -28.231  -9.360  1.00  0.00     0.008 C 
ATOM     19  C   UNL     1       9.425 -25.813  -9.261  1.00  0.00     0.008 C 
ENDBRANCH  12  17
ENDBRANCH  11  12
ENDBRANCH   1  11
TORSDOF 1
ENDMDL
MODEL 9
REMARK VINA RESULT:    -3.320      1.906      4.397
REMARK INTER + INTRA:          -4.805
REMARK INTER:                  -5.377
REMARK INTRA:                   0.572
REMARK UNBOUND:                 0.261
REMARK SMILES CC1=CCC[C@@H](C)C(=O)C[C@H](C(C)C)C(=O)C1
REMARK SMILES IDX 8 1 9 2 6 3 7 4 5 5 4 6 3 7 2 8 1 9 10 11 11 12 15 13 16 14
REMARK SMILES IDX 17 15 12 17 13 18 14 19
REMARK H PARENT
REMARK Flexibility Score: 70.00
ROOT
ATOM      1  C   UNL     1       9.638 -27.467  -9.885  1.00  0.00     0.136 C 
ATOM      2  O   UNL     1       9.720 -28.461  -9.176  1.00  0.00    -0.299 OA
ENDROOT
BRANCH   1   3
ATOM      3  C   UNL     1       9.529 -26.114  -9.192  1.00  0.00     0.053 C 
ATOM      4  C   UNL     1      10.087 -26.188  -7.759  1.00  0.00     0.016 C 
BRANCH   3   5
ATOM      5  C   UNL     1       8.175 -25.348  -9.281  1.00  0.00     0.015 C 
BRANCH   5   6
ATOM      6  C   UNL     1       7.262 -25.533 -10.516  1.00  0.00     0.028 C 
BRANCH   6   7
ATOM      7  C   UNL     1       6.041 -26.379 -10.275  1.00  0.00    -0.028 C 
ATOM      8  C   UNL     1       5.729 -27.515 -10.943  1.00  0.00    -0.070 CG0
ATOM      9  C   UNL     1       4.460 -28.234 -10.557  1.00  0.00     0.039 C 
ATOM     10  G   UNL     1       6.605 -28.119 -12.026  1.00  0.00     0.000 G0
ENDBRANCH   6   7
ENDBRANCH   5   6
ENDBRANCH   3   5
ENDBRANCH   1   3
BRANCH   1  11
ATOM     11  C   UNL     1       9.722 -27.677 -11.380  1.00  0.00     0.087 C 
BRANCH  11  12
ATOM     12  C   UNL     1       9.102 -29.029 -11.822  1.00  0.00     0.066 C 
BRANCH  12  13
ATOM     13  C   UNL     1       7.615 -29.098 -11.487  1.00  0.00     0.140 C 
ATOM     14  O   UNL     1       7.226 -29.996 -10.755  1.00  0.00    -0.299 OA
BRANCH  13  15
ATOM     15  C   UNL     1       6.594 -28.127 -12.035  1.00  0.00     0.106 CG0
ATOM     16  G   UNL     1       5.749 -27.528 -10.925  1.00  0.00     0.000 G0
ENDBRANCH  13  15
ENDBRANCH  12  13
BRANCH  12  17
ATOM     17  C   UNL     1       9.401 -29.370 -13.318  1.00  0.00    -0.006 C 
ATOM     18  C   UNL     1       9.454 -28.098 -14.182  1.00  0.00     0.008 C 
ATOM     19  C   UNL     1       8.352 -30.328 -13.912  1.00  0.00     0.008 C 
ENDBRANCH  12  17
ENDBRANCH  11  12
ENDBRANCH   1  11
TORSDOF 1
ENDMDL
