MODEL 1
REMARK VINA RESULT:    -4.802      0.000      0.000
REMARK INTER + INTRA:          -5.663
REMARK INTER:                  -5.645
REMARK INTRA:                  -0.018
REMARK UNBOUND:                -0.018
REMARK SMILES CCCCC(=O)[O-]
REMARK SMILES IDX 4 1 5 2 6 3 7 4 3 5 2 6 1 7
REMARK H PARENT
REMARK Flexibility Score: inf
ROOT
ATOM      1  C   UNL     1       1.873  -2.676  -1.747  1.00  0.00     0.053 C 
ENDROOT
BRANCH   1   2
ATOM      2  C   UNL     1       1.424  -2.554  -0.325  1.00  0.00     0.041 C 
ATOM      3  O   UNL     1       0.417  -1.856  -0.035  1.00  0.00    -0.550 OA
ATOM      4  O   UNL     1       2.087  -3.253   0.676  1.00  0.00    -0.550 OA
ENDBRANCH   1   2
BRANCH   1   5
ATOM      5  C   UNL     1       3.402  -2.592  -1.834  1.00  0.00     0.006 C 
BRANCH   5   6
ATOM      6  C   UNL     1       3.906  -2.508  -3.283  1.00  0.00    -0.003 C 
ATOM      7  C   UNL     1       3.895  -1.081  -3.831  1.00  0.00     0.004 C 
ENDBRANCH   5   6
ENDBRANCH   1   5
TORSDOF 3
ENDMDL
MODEL 2
REMARK VINA RESULT:    -4.284      2.878      4.079
REMARK INTER + INTRA:          -5.054
REMARK INTER:                  -5.018
REMARK INTRA:                  -0.036
REMARK UNBOUND:                -0.018
REMARK SMILES CCCCC(=O)[O-]
REMARK SMILES IDX 4 1 5 2 6 3 7 4 3 5 2 6 1 7
REMARK H PARENT
REMARK Flexibility Score: inf
ROOT
ATOM      1  C   UNL     1       2.688  -1.847  -2.247  1.00  0.00     0.053 C 
ENDROOT
BRANCH   1   2
ATOM      2  C   UNL     1       3.574  -1.831  -3.452  1.00  0.00     0.041 C 
ATOM      3  O   UNL     1       4.195  -2.870  -3.797  1.00  0.00    -0.550 OA
ATOM      4  O   UNL     1       3.674  -0.681  -4.226  1.00  0.00    -0.550 OA
ENDBRANCH   1   2
BRANCH   1   5
ATOM      5  C   UNL     1       3.114  -2.962  -1.283  1.00  0.00     0.006 C 
BRANCH   5   6
ATOM      6  C   UNL     1       2.178  -3.084  -0.072  1.00  0.00    -0.003 C 
ATOM      7  C   UNL     1       0.966  -2.157  -0.166  1.00  0.00     0.004 C 
ENDBRANCH   5   6
ENDBRANCH   1   5
TORSDOF 3
ENDMDL
MODEL 3
REMARK VINA RESULT:    -4.110      2.726      3.998
REMARK INTER + INTRA:          -4.849
REMARK INTER:                  -4.817
REMARK INTRA:                  -0.032
REMARK UNBOUND:                -0.018
REMARK SMILES CCCCC(=O)[O-]
REMARK SMILES IDX 4 1 5 2 6 3 7 4 3 5 2 6 1 7
REMARK H PARENT
REMARK Flexibility Score: inf
ROOT
ATOM      1  C   UNL     1       3.218  -2.672  -1.794  1.00  0.00     0.053 C 
ENDROOT
BRANCH   1   2
ATOM      2  C   UNL     1       3.697  -2.044  -3.065  1.00  0.00     0.041 C 
ATOM      3  O   UNL     1       3.787  -0.793  -3.159  1.00  0.00    -0.550 OA
ATOM      4  O   UNL     1       4.095  -2.845  -4.128  1.00  0.00    -0.550 OA
ENDBRANCH   1   2
BRANCH   1   5
ATOM      5  C   UNL     1       1.685  -2.655  -1.733  1.00  0.00     0.006 C 
BRANCH   5   6
ATOM      6  C   UNL     1       1.153  -2.629  -0.292  1.00  0.00    -0.003 C 
ATOM      7  C   UNL     1       2.161  -3.173   0.720  1.00  0.00     0.004 C 
ENDBRANCH   5   6
ENDBRANCH   1   5
TORSDOF 3
ENDMDL
MODEL 4
REMARK VINA RESULT:    -3.456     12.280     13.211
REMARK INTER + INTRA:          -4.080
REMARK INTER:                  -3.988
REMARK INTRA:                  -0.092
REMARK UNBOUND:                -0.018
REMARK SMILES CCCCC(=O)[O-]
REMARK SMILES IDX 4 1 5 2 6 3 7 4 3 5 2 6 1 7
REMARK H PARENT
REMARK Flexibility Score: inf
ROOT
ATOM      1  C   UNL     1      -1.847   9.539  -4.295  1.00  0.00     0.053 C 
ENDROOT
BRANCH   1   2
ATOM      2  C   UNL     1      -1.391   8.387  -5.135  1.00  0.00     0.041 C 
ATOM      3  O   UNL     1      -0.189   8.017  -5.105  1.00  0.00    -0.550 OA
ATOM      4  O   UNL     1      -2.307   7.689  -5.913  1.00  0.00    -0.550 OA
ENDBRANCH   1   2
BRANCH   1   5
ATOM      5  C   UNL     1      -2.907   9.079  -3.286  1.00  0.00     0.006 C 
BRANCH   5   6
ATOM      6  C   UNL     1      -4.152   9.979  -3.287  1.00  0.00    -0.003 C 
ATOM      7  C   UNL     1      -5.144   9.614  -4.391  1.00  0.00     0.004 C 
ENDBRANCH   5   6
ENDBRANCH   1   5
TORSDOF 3
ENDMDL
MODEL 5
REMARK VINA RESULT:    -3.145      9.170     10.678
REMARK INTER + INTRA:          -3.715
REMARK INTER:                  -3.647
REMARK INTRA:                  -0.069
REMARK UNBOUND:                -0.018
REMARK SMILES CCCCC(=O)[O-]
REMARK SMILES IDX 4 1 5 2 6 3 7 4 3 5 2 6 1 7
REMARK H PARENT
REMARK Flexibility Score: inf
ROOT
ATOM      1  C   UNL     1      -2.556  -7.433   5.992  1.00  0.00     0.053 C 
ENDROOT
BRANCH   1   2
ATOM      2  C   UNL     1      -2.046  -7.555   4.590  1.00  0.00     0.041 C 
ATOM      3  O   UNL     1      -1.460  -8.604   4.218  1.00  0.00    -0.550 OA
ATOM      4  O   UNL     1      -2.266  -6.529   3.680  1.00  0.00    -0.550 OA
ENDBRANCH   1   2
BRANCH   1   5
ATOM      5  C   UNL     1      -1.967  -8.541   6.874  1.00  0.00     0.006 C 
BRANCH   5   6
ATOM      6  C   UNL     1      -0.949  -8.005   7.893  1.00  0.00    -0.003 C 
ATOM      7  C   UNL     1      -1.356  -6.653   8.479  1.00  0.00     0.004 C 
ENDBRANCH   5   6
ENDBRANCH   1   5
TORSDOF 3
ENDMDL
MODEL 6
REMARK VINA RESULT:    -3.143     11.109     12.225
REMARK INTER + INTRA:          -3.713
REMARK INTER:                  -3.680
REMARK INTRA:                  -0.033
REMARK UNBOUND:                -0.018
REMARK SMILES CCCCC(=O)[O-]
REMARK SMILES IDX 4 1 5 2 6 3 7 4 3 5 2 6 1 7
REMARK H PARENT
REMARK Flexibility Score: inf
ROOT
ATOM      1  C   UNL     1       0.946   8.204  -6.461  1.00  0.00     0.053 C 
ENDROOT
BRANCH   1   2
ATOM      2  C   UNL     1      -0.466   8.625  -6.200  1.00  0.00     0.041 C 
ATOM      3  O   UNL     1      -1.255   7.855  -5.594  1.00  0.00    -0.550 OA
ATOM      4  O   UNL     1      -0.895   9.891  -6.581  1.00  0.00    -0.550 OA
ENDBRANCH   1   2
BRANCH   1   5
ATOM      5  C   UNL     1       1.393   8.662  -7.855  1.00  0.00     0.006 C 
BRANCH   5   6
ATOM      6  C   UNL     1       2.703   7.998  -8.303  1.00  0.00    -0.003 C 
ATOM      7  C   UNL     1       3.020   6.727  -7.515  1.00  0.00     0.004 C 
ENDBRANCH   5   6
ENDBRANCH   1   5
TORSDOF 3
ENDMDL
MODEL 7
REMARK VINA RESULT:    -3.100     13.100     13.805
REMARK INTER + INTRA:          -3.663
REMARK INTER:                  -3.550
REMARK INTRA:                  -0.113
REMARK UNBOUND:                -0.018
REMARK SMILES CCCCC(=O)[O-]
REMARK SMILES IDX 4 1 5 2 6 3 7 4 3 5 2 6 1 7
REMARK H PARENT
REMARK Flexibility Score: inf
ROOT
ATOM      1  C   UNL     1      -6.290   8.687  -4.833  1.00  0.00     0.053 C 
ENDROOT
BRANCH   1   2
ATOM      2  C   UNL     1      -5.751   7.355  -5.249  1.00  0.00     0.041 C 
ATOM      3  O   UNL     1      -4.679   7.281  -5.904  1.00  0.00    -0.550 OA
ATOM      4  O   UNL     1      -6.407   6.191  -4.869  1.00  0.00    -0.550 OA
ENDBRANCH   1   2
BRANCH   1   5
ATOM      5  C   UNL     1      -5.174   9.740  -4.834  1.00  0.00     0.006 C 
BRANCH   5   6
ATOM      6  C   UNL     1      -4.550   9.940  -3.445  1.00  0.00    -0.003 C 
ATOM      7  C   UNL     1      -3.175   9.283  -3.315  1.00  0.00     0.004 C 
ENDBRANCH   5   6
ENDBRANCH   1   5
TORSDOF 3
ENDMDL
MODEL 8
REMARK VINA RESULT:    -3.027     11.488     12.518
REMARK INTER + INTRA:          -3.576
REMARK INTER:                  -3.557
REMARK INTRA:                  -0.020
REMARK UNBOUND:                -0.018
REMARK SMILES CCCCC(=O)[O-]
REMARK SMILES IDX 4 1 5 2 6 3 7 4 3 5 2 6 1 7
REMARK H PARENT
REMARK Flexibility Score: inf
ROOT
ATOM      1  C   UNL     1       2.150   8.347  -8.121  1.00  0.00     0.053 C 
ENDROOT
BRANCH   1   2
ATOM      2  C   UNL     1       3.215   7.295  -8.105  1.00  0.00     0.041 C 
ATOM      3  O   UNL     1       4.237   7.417  -8.828  1.00  0.00    -0.550 OA
ATOM      4  O   UNL     1       3.101   6.204  -7.253  1.00  0.00    -0.550 OA
ENDBRANCH   1   2
BRANCH   1   5
ATOM      5  C   UNL     1       1.221   8.186  -6.911  1.00  0.00     0.006 C 
BRANCH   5   6
ATOM      6  C   UNL     1       0.195   9.324  -6.801  1.00  0.00    -0.003 C 
ATOM      7  C   UNL     1      -0.676   9.215  -5.549  1.00  0.00     0.004 C 
ENDBRANCH   5   6
ENDBRANCH   1   5
TORSDOF 3
ENDMDL
MODEL 9
REMARK VINA RESULT:    -2.975     13.122     13.882
REMARK INTER + INTRA:          -3.515
REMARK INTER:                  -3.402
REMARK INTRA:                  -0.113
REMARK UNBOUND:                -0.018
REMARK SMILES CCCCC(=O)[O-]
REMARK SMILES IDX 4 1 5 2 6 3 7 4 3 5 2 6 1 7
REMARK H PARENT
REMARK Flexibility Score: inf
ROOT
ATOM      1  C   UNL     1      -4.829   9.693  -4.003  1.00  0.00     0.053 C 
ENDROOT
BRANCH   1   2
ATOM      2  C   UNL     1      -3.506   9.003  -4.115  1.00  0.00     0.041 C 
ATOM      3  O   UNL     1      -2.732   8.950  -3.123  1.00  0.00    -0.550 OA
ATOM      4  O   UNL     1      -3.149   8.373  -5.301  1.00  0.00    -0.550 OA
ENDBRANCH   1   2
BRANCH   1   5
ATOM      5  C   UNL     1      -5.735   9.308  -5.179  1.00  0.00     0.006 C 
BRANCH   5   6
ATOM      6  C   UNL     1      -6.783   8.253  -4.796  1.00  0.00    -0.003 C 
ATOM      7  C   UNL     1      -6.392   6.843  -5.238  1.00  0.00     0.004 C 
ENDBRANCH   5   6
ENDBRANCH   1   5
TORSDOF 3
ENDMDL
