MODEL 1
REMARK VINA RESULT:    -2.400      0.000      0.000
REMARK INTER + INTRA:          -2.933
REMARK INTER:                  -2.821
REMARK INTRA:                  -0.112
REMARK UNBOUND:                -0.112
REMARK SMILES O=c1c(O)c(-c2ccc(O)cc2)oc2cc(O)cc(O)c12
REMARK SMILES IDX 5 1 3 2 2 3 1 4 21 5 19 6 18 7 16 8 15 9 14 10 13 11 6 12
REMARK SMILES IDX 7 13 8 14 9 15 12 16 11 17 10 18 4 20 20 22 17 24
REMARK H PARENT 10 19 4 21 20 23 17 25
REMARK Flexibility Score: inf
ROOT
ATOM      1  C   UNL     1     -19.095   9.324  26.327  1.00  0.00     0.180 A 
ATOM      2  C   UNL     1     -17.710   9.386  26.576  1.00  0.00     0.208 A 
ATOM      3  C   UNL     1     -16.837   9.611  25.500  1.00  0.00     0.238 A 
ATOM      4  O   UNL     1     -15.596   9.680  25.712  1.00  0.00    -0.285 OA
ATOM      5  C   UNL     1     -17.358   9.752  24.197  1.00  0.00     0.111 A 
ATOM      6  C   UNL     1     -16.548   9.978  23.059  1.00  0.00     0.134 A 
ATOM      7  C   UNL     1     -17.142  10.097  21.794  1.00  0.00     0.093 A 
ATOM      8  C   UNL     1     -18.526   9.995  21.645  1.00  0.00     0.123 A 
ATOM      9  C   UNL     1     -19.333   9.773  22.766  1.00  0.00     0.094 A 
ATOM     10  C   UNL     1     -18.760   9.652  24.036  1.00  0.00     0.146 A 
ATOM     11  O   UNL     1     -19.549   9.447  25.084  1.00  0.00    -0.452 OA
ENDROOT
BRANCH   1  12
ATOM     12  C   UNL     1     -20.080   9.109  27.412  1.00  0.00     0.021 A 
ATOM     13  C   UNL     1     -20.998  10.125  27.724  1.00  0.00     0.016 A 
ATOM     14  C   UNL     1     -21.922   9.952  28.758  1.00  0.00     0.047 A 
ATOM     15  C   UNL     1     -21.930   8.765  29.503  1.00  0.00     0.115 A 
ATOM     16  C   UNL     1     -20.081   7.928  28.178  1.00  0.00     0.016 A 
ATOM     17  C   UNL     1     -21.006   7.758  29.212  1.00  0.00     0.047 A 
BRANCH  15  18
ATOM     18  O   UNL     1     -22.847   8.581  30.536  1.00  0.00    -0.508 OA
ATOM     19  H   UNL     1     -22.824   7.757  31.124  1.00  0.00     0.293 HD
ENDBRANCH  15  18
ENDBRANCH   1  12
BRANCH   2  20
ATOM     20  O   UNL     1     -17.215   9.194  27.868  1.00  0.00    -0.502 OA
ATOM     21  H   UNL     1     -17.022   8.273  28.245  1.00  0.00     0.293 HD
ENDBRANCH   2  20
BRANCH   6  22
ATOM     22  O   UNL     1     -15.160  10.084  23.174  1.00  0.00    -0.507 OA
ATOM     23  H   UNL     1     -14.559   9.270  23.134  1.00  0.00     0.293 HD
ENDBRANCH   6  22
BRANCH   8  24
ATOM     24  O   UNL     1     -19.091  10.117  20.378  1.00  0.00    -0.508 OA
ATOM     25  H   UNL     1     -18.528  10.055  19.537  1.00  0.00     0.293 HD
ENDBRANCH   8  24
TORSDOF 5
ENDMDL
MODEL 2
REMARK VINA RESULT:    -2.168      0.074      1.057
REMARK INTER + INTRA:          -2.660
REMARK INTER:                  -2.628
REMARK INTRA:                  -0.032
REMARK UNBOUND:                -0.112
REMARK SMILES O=c1c(O)c(-c2ccc(O)cc2)oc2cc(O)cc(O)c12
REMARK SMILES IDX 5 1 3 2 2 3 1 4 21 5 19 6 18 7 16 8 15 9 14 10 13 11 6 12
REMARK SMILES IDX 7 13 8 14 9 15 12 16 11 17 10 18 4 20 20 22 17 24
REMARK H PARENT 10 19 4 21 20 23 17 25
REMARK Flexibility Score: inf
ROOT
ATOM      1  C   UNL     1     -19.069   9.364  26.362  1.00  0.00     0.180 A 
ATOM      2  C   UNL     1     -17.681   9.381  26.598  1.00  0.00     0.208 A 
ATOM      3  C   UNL     1     -16.811   9.572  25.513  1.00  0.00     0.238 A 
ATOM      4  O   UNL     1     -15.566   9.601  25.714  1.00  0.00    -0.285 OA
ATOM      5  C   UNL     1     -17.338   9.723  24.214  1.00  0.00     0.111 A 
ATOM      6  C   UNL     1     -16.531   9.916  23.067  1.00  0.00     0.134 A 
ATOM      7  C   UNL     1     -17.132  10.048  21.807  1.00  0.00     0.093 A 
ATOM      8  C   UNL     1     -18.520   9.990  21.671  1.00  0.00     0.123 A 
ATOM      9  C   UNL     1     -19.324   9.800  22.799  1.00  0.00     0.094 A 
ATOM     10  C   UNL     1     -18.744   9.668  24.065  1.00  0.00     0.146 A 
ATOM     11  O   UNL     1     -19.530   9.495  25.122  1.00  0.00    -0.452 OA
ENDROOT
BRANCH   1  12
ATOM     12  C   UNL     1     -20.051   9.187  27.456  1.00  0.00     0.021 A 
ATOM     13  C   UNL     1     -19.995   8.033  28.254  1.00  0.00     0.016 A 
ATOM     14  C   UNL     1     -20.925   7.833  29.278  1.00  0.00     0.047 A 
ATOM     15  C   UNL     1     -21.933   8.779  29.507  1.00  0.00     0.115 A 
ATOM     16  C   UNL     1     -21.078  10.123  27.679  1.00  0.00     0.016 A 
ATOM     17  C   UNL     1     -22.008   9.920  28.703  1.00  0.00     0.047 A 
BRANCH  15  18
ATOM     18  O   UNL     1     -22.865   8.592  30.525  1.00  0.00    -0.508 OA
ATOM     19  H   UNL     1     -23.539   9.309  30.764  1.00  0.00     0.293 HD
ENDBRANCH  15  18
ENDBRANCH   1  12
BRANCH   2  20
ATOM     20  O   UNL     1     -17.181   9.181  27.886  1.00  0.00    -0.502 OA
ATOM     21  H   UNL     1     -17.754   9.294  28.715  1.00  0.00     0.293 HD
ENDBRANCH   2  20
BRANCH   6  22
ATOM     22  O   UNL     1     -15.140   9.977  23.170  1.00  0.00    -0.507 OA
ATOM     23  H   UNL     1     -14.682  10.542  23.876  1.00  0.00     0.293 HD
ENDBRANCH   6  22
BRANCH   8  24
ATOM     24  O   UNL     1     -19.092  10.124  20.408  1.00  0.00    -0.508 OA
ATOM     25  H   UNL     1     -19.784  10.838  20.212  1.00  0.00     0.293 HD
ENDBRANCH   8  24
TORSDOF 5
ENDMDL
