MODEL 1
REMARK VINA RESULT:    38.780      0.000      0.000
REMARK INTER + INTRA:          45.524
REMARK INTER:                  45.581
REMARK INTRA:                  -0.058
REMARK UNBOUND:                -0.058
REMARK SMILES O=c1c(O)c(-c2ccc(O)c(O)c2)oc2cc(O)ccc12
REMARK SMILES IDX 5 1 3 2 2 3 1 4 21 5 15 6 14 7 16 8 17 9 19 10 20 11 6 12
REMARK SMILES IDX 7 13 8 14 9 15 13 16 11 17 10 18 12 20 4 22 18 24
REMARK H PARENT 10 19 12 21 4 23 18 25
REMARK Flexibility Score: inf
ROOT
ATOM      1  C   UNL     1      84.991  53.558  20.428  1.00  0.00     0.180 A 
ATOM      2  C   UNL     1      83.609  53.840  20.441  1.00  0.00     0.208 A 
ATOM      3  C   UNL     1      83.188  55.163  20.237  1.00  0.00     0.235 A 
ATOM      4  O   UNL     1      81.959  55.444  20.255  1.00  0.00    -0.285 OA
ATOM      5  C   UNL     1      84.145  56.165  20.007  1.00  0.00     0.069 A 
ATOM      6  C   UNL     1      85.507  55.796  19.985  1.00  0.00     0.142 A 
ATOM      7  O   UNL     1      85.865  54.533  20.191  1.00  0.00    -0.452 OA
ATOM      8  C   UNL     1      86.490  56.764  19.748  1.00  0.00     0.094 A 
ATOM      9  C   UNL     1      86.130  58.098  19.534  1.00  0.00     0.119 A 
ATOM     10  C   UNL     1      84.779  58.468  19.556  1.00  0.00     0.047 A 
ATOM     11  C   UNL     1      83.788  57.509  19.790  1.00  0.00     0.020 A 
ENDROOT
BRANCH   1  12
ATOM     12  C   UNL     1      85.516  52.191  20.653  1.00  0.00     0.025 A 
ATOM     13  C   UNL     1      86.437  51.647  19.745  1.00  0.00     0.016 A 
ATOM     14  C   UNL     1      86.960  50.368  19.949  1.00  0.00     0.051 A 
ATOM     15  C   UNL     1      86.585  49.621  21.069  1.00  0.00     0.157 A 
ATOM     16  C   UNL     1      85.155  51.447  21.790  1.00  0.00     0.062 A 
ATOM     17  C   UNL     1      85.681  50.162  21.998  1.00  0.00     0.158 A 
BRANCH  15  18
ATOM     18  O   UNL     1      87.123  48.346  21.244  1.00  0.00    -0.504 OA
ATOM     19  H   UNL     1      87.717  47.912  20.548  1.00  0.00     0.293 HD
ENDBRANCH  15  18
BRANCH  17  20
ATOM     20  O   UNL     1      85.315  49.429  23.125  1.00  0.00    -0.504 OA
ATOM     21  H   UNL     1      85.965  49.262  23.885  1.00  0.00     0.293 HD
ENDBRANCH  17  20
ENDBRANCH   1  12
BRANCH   2  22
ATOM     22  O   UNL     1      82.678  52.814  20.624  1.00  0.00    -0.502 OA
ATOM     23  H   UNL     1      81.681  52.986  20.641  1.00  0.00     0.293 HD
ENDBRANCH   2  22
BRANCH   9  24
ATOM     24  O   UNL     1      87.122  59.048  19.300  1.00  0.00    -0.508 OA
ATOM     25  H   UNL     1      86.955  59.853  18.709  1.00  0.00     0.293 HD
ENDBRANCH   9  24
TORSDOF 5
ENDMDL
