MODEL 1
REMARK VINA RESULT:    -4.979      0.000      0.000
REMARK INTER + INTRA:          -4.979
REMARK INTER:                  -4.979
REMARK INTRA:                   0.000
REMARK UNBOUND:                 0.000
REMARK SMILES C[C@H]1C(=O)CC[C@H]2[C@]1(C)CC[C@@H]1[C@]2(C)CC[C@@]2(C)[C@@H]3CC(C)(C)CC[C@]3(C)CC[C@@]12C
REMARK SMILES IDX 1 1 2 2 3 3 4 4 5 5 6 6 7 7 8 8 10 9 11 10 12 11 13 12 15 13
REMARK SMILES IDX 16 14 17 15 30 16 29 17 28 18 26 19 19 20 20 21 21 22 24 23
REMARK SMILES IDX 25 24 22 25 23 26 27 27 31 28 18 29 14 30 9 31
REMARK H PARENT
REMARK Flexibility Score: inf
ROOT
ATOM      1  C   UNL     1     168.864 165.073 172.006  1.00  0.00     0.016 C 
ATOM      2  C   UNL     1     167.831 166.192 172.271  1.00  0.00     0.059 C 
ATOM      3  C   UNL     1     168.237 166.851 173.559  1.00  0.00     0.136 C 
ATOM      4  O   UNL     1     167.846 166.369 174.625  1.00  0.00    -0.299 OA
ATOM      5  C   UNL     1     169.288 167.917 173.589  1.00  0.00     0.076 C 
ATOM      6  C   UNL     1     169.211 168.860 172.374  1.00  0.00     0.012 C 
ATOM      7  C   UNL     1     167.933 168.763 171.488  1.00  0.00     0.002 C 
ATOM      8  C   UNL     1     167.576 167.254 171.102  1.00  0.00    -0.020 C 
ATOM      9  C   UNL     1     166.058 167.123 170.664  1.00  0.00     0.008 C 
ATOM     10  C   UNL     1     165.618 168.364 169.888  1.00  0.00     0.005 C 
ATOM     11  C   UNL     1     165.623 169.661 170.776  1.00  0.00     0.002 C 
ATOM     12  C   UNL     1     166.687 169.641 171.947  1.00  0.00    -0.026 C 
ATOM     13  C   UNL     1     167.029 171.139 172.179  1.00  0.00     0.008 C 
ATOM     14  C   UNL     1     165.800 171.991 172.559  1.00  0.00     0.008 C 
ATOM     15  C   UNL     1     164.284 171.652 172.015  1.00  0.00    -0.024 C 
ATOM     16  C   UNL     1     164.198 170.312 171.063  1.00  0.00    -0.024 C 
ATOM     17  C   UNL     1     163.568 170.686 169.676  1.00  0.00     0.008 C 
ATOM     18  C   UNL     1     162.282 171.491 169.845  1.00  0.00     0.007 C 
ATOM     19  C   UNL     1     162.639 172.962 170.130  1.00  0.00    -0.029 C 
ATOM     20  C   UNL     1     163.761 173.021 171.279  1.00  0.00     0.002 C 
ATOM     21  C   UNL     1     163.603 174.216 172.288  1.00  0.00     0.011 C 
ATOM     22  C   UNL     1     162.132 174.579 172.749  1.00  0.00    -0.035 C 
ATOM     23  C   UNL     1     161.026 173.764 172.011  1.00  0.00     0.007 C 
ATOM     24  C   UNL     1     161.287 173.694 170.534  1.00  0.00     0.007 C 
ATOM     25  C   UNL     1     161.934 174.403 174.292  1.00  0.00     0.011 C 
ATOM     26  C   UNL     1     161.946 176.106 172.474  1.00  0.00     0.011 C 
ATOM     27  C   UNL     1     163.178 173.659 168.770  1.00  0.00     0.011 C 
ATOM     28  C   UNL     1     163.277 169.160 171.647  1.00  0.00     0.012 C 
ATOM     29  C   UNL     1     163.412 171.434 173.331  1.00  0.00     0.012 C 
ATOM     30  C   UNL     1     166.209 169.091 173.339  1.00  0.00     0.012 C 
ATOM     31  C   UNL     1     168.421 166.880 169.822  1.00  0.00     0.012 C 
ENDROOT
TORSDOF 0
ENDMDL
MODEL 2
REMARK VINA RESULT:    -4.811      5.332      7.409
REMARK INTER + INTRA:          -4.811
REMARK INTER:                  -4.811
REMARK INTRA:                   0.000
REMARK UNBOUND:                 0.000
REMARK SMILES C[C@H]1C(=O)CC[C@H]2[C@]1(C)CC[C@@H]1[C@]2(C)CC[C@@]2(C)[C@@H]3CC(C)(C)CC[C@]3(C)CC[C@@]12C
REMARK SMILES IDX 1 1 2 2 3 3 4 4 5 5 6 6 7 7 8 8 10 9 11 10 12 11 13 12 15 13
REMARK SMILES IDX 16 14 17 15 30 16 29 17 28 18 26 19 19 20 20 21 21 22 24 23
REMARK SMILES IDX 25 24 22 25 23 26 27 27 31 28 18 29 14 30 9 31
REMARK H PARENT
REMARK Flexibility Score: inf
ROOT
ATOM      1  C   UNL     1     173.768 168.579 173.194  1.00  0.00     0.016 C 
ATOM      2  C   UNL     1     172.281 168.159 173.146  1.00  0.00     0.059 C 
ATOM      3  C   UNL     1     171.501 169.392 172.783  1.00  0.00     0.136 C 
ATOM      4  O   UNL     1     171.155 170.165 173.680  1.00  0.00    -0.299 OA
ATOM      5  C   UNL     1     171.347 169.822 171.358  1.00  0.00     0.076 C 
ATOM      6  C   UNL     1     171.167 168.634 170.395  1.00  0.00     0.012 C 
ATOM      7  C   UNL     1     170.883 167.244 171.038  1.00  0.00     0.002 C 
ATOM      8  C   UNL     1     171.896 166.907 172.227  1.00  0.00    -0.020 C 
ATOM      9  C   UNL     1     171.304 165.784 173.178  1.00  0.00     0.008 C 
ATOM     10  C   UNL     1     170.520 164.756 172.364  1.00  0.00     0.005 C 
ATOM     11  C   UNL     1     169.236 165.371 171.696  1.00  0.00     0.002 C 
ATOM     12  C   UNL     1     169.358 166.912 171.354  1.00  0.00    -0.026 C 
ATOM     13  C   UNL     1     168.410 167.109 170.139  1.00  0.00     0.008 C 
ATOM     14  C   UNL     1     166.948 166.721 170.440  1.00  0.00     0.008 C 
ATOM     15  C   UNL     1     166.548 165.533 171.505  1.00  0.00    -0.024 C 
ATOM     16  C   UNL     1     167.842 164.827 172.239  1.00  0.00    -0.024 C 
ATOM     17  C   UNL     1     167.815 163.279 171.987  1.00  0.00     0.008 C 
ATOM     18  C   UNL     1     166.443 162.685 172.298  1.00  0.00     0.007 C 
ATOM     19  C   UNL     1     165.500 162.940 171.107  1.00  0.00    -0.029 C 
ATOM     20  C   UNL     1     165.609 164.481 170.666  1.00  0.00     0.002 C 
ATOM     21  C   UNL     1     164.252 165.130 170.210  1.00  0.00     0.011 C 
ATOM     22  C   UNL     1     162.957 164.745 171.036  1.00  0.00    -0.035 C 
ATOM     23  C   UNL     1     163.207 163.650 172.119  1.00  0.00     0.007 C 
ATOM     24  C   UNL     1     164.041 162.524 171.579  1.00  0.00     0.007 C 
ATOM     25  C   UNL     1     162.303 165.988 171.727  1.00  0.00     0.011 C 
ATOM     26  C   UNL     1     161.903 164.240 169.998  1.00  0.00     0.011 C 
ATOM     27  C   UNL     1     165.908 161.966 169.879  1.00  0.00     0.011 C 
ATOM     28  C   UNL     1     167.866 164.997 173.816  1.00  0.00     0.012 C 
ATOM     29  C   UNL     1     165.634 166.247 172.598  1.00  0.00     0.012 C 
ATOM     30  C   UNL     1     168.870 167.928 172.449  1.00  0.00     0.012 C 
ATOM     31  C   UNL     1     173.191 166.277 171.582  1.00  0.00     0.012 C 
ENDROOT
TORSDOF 0
ENDMDL
MODEL 3
REMARK VINA RESULT:    -4.806      4.860      8.331
REMARK INTER + INTRA:          -4.806
REMARK INTER:                  -4.806
REMARK INTRA:                   0.000
REMARK UNBOUND:                 0.000
REMARK SMILES C[C@H]1C(=O)CC[C@H]2[C@]1(C)CC[C@@H]1[C@]2(C)CC[C@@]2(C)[C@@H]3CC(C)(C)CC[C@]3(C)CC[C@@]12C
REMARK SMILES IDX 1 1 2 2 3 3 4 4 5 5 6 6 7 7 8 8 10 9 11 10 12 11 13 12 15 13
REMARK SMILES IDX 16 14 17 15 30 16 29 17 28 18 26 19 19 20 20 21 21 22 24 23
REMARK SMILES IDX 25 24 22 25 23 26 27 27 31 28 18 29 14 30 9 31
REMARK H PARENT
REMARK Flexibility Score: inf
ROOT
ATOM      1  C   UNL     1     157.526 162.535 173.209  1.00  0.00     0.016 C 
ATOM      2  C   UNL     1     159.005 162.982 173.157  1.00  0.00     0.059 C 
ATOM      3  C   UNL     1     159.809 161.759 172.815  1.00  0.00     0.136 C 
ATOM      4  O   UNL     1     160.168 161.007 173.725  1.00  0.00    -0.299 OA
ATOM      5  C   UNL     1     159.974 161.309 171.398  1.00  0.00     0.076 C 
ATOM      6  C   UNL     1     160.134 162.485 170.416  1.00  0.00     0.012 C 
ATOM      7  C   UNL     1     160.391 163.890 171.038  1.00  0.00     0.002 C 
ATOM      8  C   UNL     1     159.369 164.227 172.220  1.00  0.00    -0.020 C 
ATOM      9  C   UNL     1     159.937 165.375 173.154  1.00  0.00     0.008 C 
ATOM     10  C   UNL     1     160.704 166.406 172.326  1.00  0.00     0.005 C 
ATOM     11  C   UNL     1     162.000 165.805 171.670  1.00  0.00     0.002 C 
ATOM     12  C   UNL     1     161.908 164.256 171.352  1.00  0.00    -0.026 C 
ATOM     13  C   UNL     1     162.863 164.058 170.142  1.00  0.00     0.008 C 
ATOM     14  C   UNL     1     164.317 164.479 170.440  1.00  0.00     0.008 C 
ATOM     15  C   UNL     1     164.691 165.691 171.488  1.00  0.00    -0.024 C 
ATOM     16  C   UNL     1     163.382 166.383 172.207  1.00  0.00    -0.024 C 
ATOM     17  C   UNL     1     163.381 167.928 171.931  1.00  0.00     0.008 C 
ATOM     18  C   UNL     1     164.740 168.552 172.235  1.00  0.00     0.007 C 
ATOM     19  C   UNL     1     165.691 168.296 171.050  1.00  0.00    -0.029 C 
ATOM     20  C   UNL     1     165.612 166.747 170.634  1.00  0.00     0.002 C 
ATOM     21  C   UNL     1     166.983 166.116 170.191  1.00  0.00     0.011 C 
ATOM     22  C   UNL     1     168.268 166.539 171.013  1.00  0.00    -0.035 C 
ATOM     23  C   UNL     1     167.994 167.645 172.078  1.00  0.00     0.007 C 
ATOM     24  C   UNL     1     167.141 168.748 171.519  1.00  0.00     0.007 C 
ATOM     25  C   UNL     1     168.943 165.319 171.725  1.00  0.00     0.011 C 
ATOM     26  C   UNL     1     169.314 167.047 169.970  1.00  0.00     0.011 C 
ATOM     27  C   UNL     1     165.268 169.243 169.806  1.00  0.00     0.011 C 
ATOM     28  C   UNL     1     163.358 166.238 173.786  1.00  0.00     0.012 C 
ATOM     29  C   UNL     1     165.616 165.011 172.593  1.00  0.00     0.012 C 
ATOM     30  C   UNL     1     162.413 163.267 172.464  1.00  0.00     0.012 C 
ATOM     31  C   UNL     1     158.063 164.822 171.562  1.00  0.00     0.012 C 
ENDROOT
TORSDOF 0
ENDMDL
MODEL 4
REMARK VINA RESULT:    -4.741      6.445      9.227
REMARK INTER + INTRA:          -4.741
REMARK INTER:                  -4.741
REMARK INTRA:                   0.000
REMARK UNBOUND:                 0.000
REMARK SMILES C[C@H]1C(=O)CC[C@H]2[C@]1(C)CC[C@@H]1[C@]2(C)CC[C@@]2(C)[C@@H]3CC(C)(C)CC[C@]3(C)CC[C@@]12C
REMARK SMILES IDX 1 1 2 2 3 3 4 4 5 5 6 6 7 7 8 8 10 9 11 10 12 11 13 12 15 13
REMARK SMILES IDX 16 14 17 15 30 16 29 17 28 18 26 19 19 20 20 21 21 22 24 23
REMARK SMILES IDX 25 24 22 25 23 26 27 27 31 28 18 29 14 30 9 31
REMARK H PARENT
REMARK Flexibility Score: inf
ROOT
ATOM      1  C   UNL     1     170.658 166.047 174.638  1.00  0.00     0.016 C 
ATOM      2  C   UNL     1     171.455 167.050 173.772  1.00  0.00     0.059 C 
ATOM      3  C   UNL     1     171.511 166.469 172.387  1.00  0.00     0.136 C 
ATOM      4  O   UNL     1     172.406 165.666 172.113  1.00  0.00    -0.299 OA
ATOM      5  C   UNL     1     170.381 166.650 171.423  1.00  0.00     0.076 C 
ATOM      6  C   UNL     1     169.741 168.048 171.514  1.00  0.00     0.012 C 
ATOM      7  C   UNL     1     170.511 169.122 172.340  1.00  0.00     0.002 C 
ATOM      8  C   UNL     1     170.968 168.574 173.770  1.00  0.00    -0.020 C 
ATOM      9  C   UNL     1     172.148 169.451 174.364  1.00  0.00     0.008 C 
ATOM     10  C   UNL     1     171.955 170.922 174.000  1.00  0.00     0.005 C 
ATOM     11  C   UNL     1     172.066 171.177 172.452  1.00  0.00     0.002 C 
ATOM     12  C   UNL     1     171.628 169.945 171.559  1.00  0.00    -0.026 C 
ATOM     13  C   UNL     1     171.122 170.591 170.240  1.00  0.00     0.008 C 
ATOM     14  C   UNL     1     172.196 171.440 169.528  1.00  0.00     0.008 C 
ATOM     15  C   UNL     1     173.370 172.251 170.346  1.00  0.00    -0.024 C 
ATOM     16  C   UNL     1     173.313 172.046 171.978  1.00  0.00    -0.024 C 
ATOM     17  C   UNL     1     173.204 173.443 172.685  1.00  0.00     0.008 C 
ATOM     18  C   UNL     1     174.247 174.422 172.153  1.00  0.00     0.007 C 
ATOM     19  C   UNL     1     173.754 175.009 170.816  1.00  0.00    -0.029 C 
ATOM     20  C   UNL     1     173.241 173.816 169.871  1.00  0.00     0.002 C 
ATOM     21  C   UNL     1     173.568 174.002 168.344  1.00  0.00     0.011 C 
ATOM     22  C   UNL     1     174.987 174.601 167.980  1.00  0.00    -0.035 C 
ATOM     23  C   UNL     1     175.815 175.051 169.223  1.00  0.00     0.007 C 
ATOM     24  C   UNL     1     174.971 175.823 170.196  1.00  0.00     0.007 C 
ATOM     25  C   UNL     1     175.853 173.603 167.140  1.00  0.00     0.011 C 
ATOM     26  C   UNL     1     174.726 175.822 167.041  1.00  0.00     0.011 C 
ATOM     27  C   UNL     1     172.560 176.066 171.100  1.00  0.00     0.011 C 
ATOM     28  C   UNL     1     174.607 171.364 172.592  1.00  0.00     0.012 C 
ATOM     29  C   UNL     1     174.743 171.674 169.779  1.00  0.00     0.012 C 
ATOM     30  C   UNL     1     172.753 168.933 171.137  1.00  0.00     0.012 C 
ATOM     31  C   UNL     1     169.755 168.768 174.761  1.00  0.00     0.012 C 
ENDROOT
TORSDOF 0
ENDMDL
MODEL 5
REMARK VINA RESULT:    -4.680      6.622     12.085
REMARK INTER + INTRA:          -4.680
REMARK INTER:                  -4.680
REMARK INTRA:                   0.000
REMARK UNBOUND:                 0.000
REMARK SMILES C[C@H]1C(=O)CC[C@H]2[C@]1(C)CC[C@@H]1[C@]2(C)CC[C@@]2(C)[C@@H]3CC(C)(C)CC[C@]3(C)CC[C@@]12C
REMARK SMILES IDX 1 1 2 2 3 3 4 4 5 5 6 6 7 7 8 8 10 9 11 10 12 11 13 12 15 13
REMARK SMILES IDX 16 14 17 15 30 16 29 17 28 18 26 19 19 20 20 21 21 22 24 23
REMARK SMILES IDX 25 24 22 25 23 26 27 27 31 28 18 29 14 30 9 31
REMARK H PARENT
REMARK Flexibility Score: inf
ROOT
ATOM      1  C   UNL     1     161.012 165.840 172.011  1.00  0.00     0.016 C 
ATOM      2  C   UNL     1     162.171 164.871 172.336  1.00  0.00     0.059 C 
ATOM      3  C   UNL     1     161.771 164.129 173.581  1.00  0.00     0.136 C 
ATOM      4  O   UNL     1     162.012 164.634 174.680  1.00  0.00    -0.299 OA
ATOM      5  C   UNL     1     160.883 162.926 173.516  1.00  0.00     0.076 C 
ATOM      6  C   UNL     1     161.179 162.033 172.297  1.00  0.00     0.012 C 
ATOM      7  C   UNL     1     162.491 162.331 171.510  1.00  0.00     0.002 C 
ATOM      8  C   UNL     1     162.657 163.884 171.174  1.00  0.00    -0.020 C 
ATOM      9  C   UNL     1     164.169 164.238 170.852  1.00  0.00     0.008 C 
ATOM     10  C   UNL     1     164.835 163.091 170.093  1.00  0.00     0.005 C 
ATOM     11  C   UNL     1     164.950 161.785 170.959  1.00  0.00     0.002 C 
ATOM     12  C   UNL     1     163.812 161.625 172.048  1.00  0.00    -0.026 C 
ATOM     13  C   UNL     1     163.671 160.089 172.231  1.00  0.00     0.008 C 
ATOM     14  C   UNL     1     164.978 159.409 172.690  1.00  0.00     0.008 C 
ATOM     15  C   UNL     1     166.465 159.970 172.266  1.00  0.00    -0.024 C 
ATOM     16  C   UNL     1     166.428 161.333 171.342  1.00  0.00    -0.024 C 
ATOM     17  C   UNL     1     167.203 161.086 170.001  1.00  0.00     0.008 C 
ATOM     18  C   UNL     1     168.575 160.465 170.253  1.00  0.00     0.007 C 
ATOM     19  C   UNL     1     168.410 158.952 170.489  1.00  0.00    -0.029 C 
ATOM     20  C   UNL     1     167.229 158.707 171.550  1.00  0.00     0.002 C 
ATOM     21  C   UNL     1     167.482 157.522 172.551  1.00  0.00     0.011 C 
ATOM     22  C   UNL     1     168.952 157.357 173.114  1.00  0.00    -0.035 C 
ATOM     23  C   UNL     1     169.982 158.337 172.473  1.00  0.00     0.007 C 
ATOM     24  C   UNL     1     169.820 158.407 170.982  1.00  0.00     0.007 C 
ATOM     25  C   UNL     1     169.012 157.520 174.670  1.00  0.00     0.011 C 
ATOM     26  C   UNL     1     169.373 155.879 172.831  1.00  0.00     0.011 C 
ATOM     27  C   UNL     1     168.074 158.221 169.083  1.00  0.00     0.011 C 
ATOM     28  C   UNL     1     167.133 162.588 172.010  1.00  0.00     0.012 C 
ATOM     29  C   UNL     1     167.201 160.276 173.645  1.00  0.00     0.012 C 
ATOM     30  C   UNL     1     164.107 162.202 173.480  1.00  0.00     0.012 C 
ATOM     31  C   UNL     1     161.862 164.169 169.840  1.00  0.00     0.012 C 
ENDROOT
TORSDOF 0
ENDMDL
MODEL 6
REMARK VINA RESULT:    -4.668      5.894     11.230
REMARK INTER + INTRA:          -4.668
REMARK INTER:                  -4.668
REMARK INTRA:                   0.000
REMARK UNBOUND:                 0.000
REMARK SMILES C[C@H]1C(=O)CC[C@H]2[C@]1(C)CC[C@@H]1[C@]2(C)CC[C@@]2(C)[C@@H]3CC(C)(C)CC[C@]3(C)CC[C@@]12C
REMARK SMILES IDX 1 1 2 2 3 3 4 4 5 5 6 6 7 7 8 8 10 9 11 10 12 11 13 12 15 13
REMARK SMILES IDX 16 14 17 15 30 16 29 17 28 18 26 19 19 20 20 21 21 22 24 23
REMARK SMILES IDX 25 24 22 25 23 26 27 27 31 28 18 29 14 30 9 31
REMARK H PARENT
REMARK Flexibility Score: inf
ROOT
ATOM      1  C   UNL     1     160.105 165.650 172.441  1.00  0.00     0.016 C 
ATOM      2  C   UNL     1     161.214 164.574 172.406  1.00  0.00     0.059 C 
ATOM      3  C   UNL     1     160.819 163.588 171.342  1.00  0.00     0.136 C 
ATOM      4  O   UNL     1     160.062 162.661 171.639  1.00  0.00    -0.299 OA
ATOM      5  C   UNL     1     161.123 163.840 169.898  1.00  0.00     0.076 C 
ATOM      6  C   UNL     1     162.495 164.506 169.687  1.00  0.00     0.012 C 
ATOM      7  C   UNL     1     163.453 164.547 170.915  1.00  0.00     0.002 C 
ATOM      8  C   UNL     1     162.724 165.075 172.236  1.00  0.00    -0.020 C 
ATOM      9  C   UNL     1     163.519 164.638 173.537  1.00  0.00     0.008 C 
ATOM     10  C   UNL     1     165.025 164.677 173.280  1.00  0.00     0.005 C 
ATOM     11  C   UNL     1     165.480 163.618 172.212  1.00  0.00     0.002 C 
ATOM     12  C   UNL     1     164.374 163.267 171.134  1.00  0.00    -0.026 C 
ATOM     13  C   UNL     1     165.186 162.857 169.874  1.00  0.00     0.008 C 
ATOM     14  C   UNL     1     166.123 161.657 170.120  1.00  0.00     0.008 C 
ATOM     15  C   UNL     1     166.823 161.363 171.579  1.00  0.00    -0.024 C 
ATOM     16  C   UNL     1     166.407 162.441 172.751  1.00  0.00    -0.024 C 
ATOM     17  C   UNL     1     167.699 163.101 173.348  1.00  0.00     0.008 C 
ATOM     18  C   UNL     1     168.742 162.051 173.722  1.00  0.00     0.007 C 
ATOM     19  C   UNL     1     169.498 161.614 172.453  1.00  0.00    -0.029 C 
ATOM     20  C   UNL     1     168.437 161.290 171.290  1.00  0.00     0.002 C 
ATOM     21  C   UNL     1     168.822 160.075 170.371  1.00  0.00     0.011 C 
ATOM     22  C   UNL     1     169.467 158.814 171.079  1.00  0.00    -0.035 C 
ATOM     23  C   UNL     1     169.752 159.026 172.598  1.00  0.00     0.007 C 
ATOM     24  C   UNL     1     170.388 160.362 172.857  1.00  0.00     0.007 C 
ATOM     25  C   UNL     1     168.590 157.528 170.913  1.00  0.00     0.011 C 
ATOM     26  C   UNL     1     170.800 158.513 170.321  1.00  0.00     0.011 C 
ATOM     27  C   UNL     1     170.505 162.796 171.992  1.00  0.00     0.011 C 
ATOM     28  C   UNL     1     165.654 161.795 173.989  1.00  0.00     0.012 C 
ATOM     29  C   UNL     1     166.329 159.905 171.989  1.00  0.00     0.012 C 
ATOM     30  C   UNL     1     163.429 162.052 171.449  1.00  0.00     0.012 C 
ATOM     31  C   UNL     1     162.784 166.652 172.212  1.00  0.00     0.012 C 
ENDROOT
TORSDOF 0
ENDMDL
MODEL 7
REMARK VINA RESULT:    -4.635      1.725      3.451
REMARK INTER + INTRA:          -4.635
REMARK INTER:                  -4.635
REMARK INTRA:                   0.000
REMARK UNBOUND:                 0.000
REMARK SMILES C[C@H]1C(=O)CC[C@H]2[C@]1(C)CC[C@@H]1[C@]2(C)CC[C@@]2(C)[C@@H]3CC(C)(C)CC[C@]3(C)CC[C@@]12C
REMARK SMILES IDX 1 1 2 2 3 3 4 4 5 5 6 6 7 7 8 8 10 9 11 10 12 11 13 12 15 13
REMARK SMILES IDX 16 14 17 15 30 16 29 17 28 18 26 19 19 20 20 21 21 22 24 23
REMARK SMILES IDX 25 24 22 25 23 26 27 27 31 28 18 29 14 30 9 31
REMARK H PARENT
REMARK Flexibility Score: inf
ROOT
ATOM      1  C   UNL     1     171.155 165.627 172.595  1.00  0.00     0.016 C 
ATOM      2  C   UNL     1     170.038 166.694 172.537  1.00  0.00     0.059 C 
ATOM      3  C   UNL     1     170.431 167.665 171.460  1.00  0.00     0.136 C 
ATOM      4  O   UNL     1     171.181 168.603 171.747  1.00  0.00    -0.299 OA
ATOM      5  C   UNL     1     170.138 167.389 170.019  1.00  0.00     0.076 C 
ATOM      6  C   UNL     1     168.772 166.709 169.811  1.00  0.00     0.012 C 
ATOM      7  C   UNL     1     167.807 166.680 171.035  1.00  0.00     0.002 C 
ATOM      8  C   UNL     1     168.533 166.179 172.367  1.00  0.00    -0.020 C 
ATOM      9  C   UNL     1     167.728 166.629 173.657  1.00  0.00     0.008 C 
ATOM     10  C   UNL     1     166.224 166.575 173.393  1.00  0.00     0.005 C 
ATOM     11  C   UNL     1     165.767 167.614 172.306  1.00  0.00     0.002 C 
ATOM     12  C   UNL     1     166.876 167.956 171.229  1.00  0.00    -0.026 C 
ATOM     13  C   UNL     1     166.068 168.341 169.958  1.00  0.00     0.008 C 
ATOM     14  C   UNL     1     165.120 169.538 170.180  1.00  0.00     0.008 C 
ATOM     15  C   UNL     1     164.410 169.849 171.631  1.00  0.00    -0.024 C 
ATOM     16  C   UNL     1     164.828 168.792 172.822  1.00  0.00    -0.024 C 
ATOM     17  C   UNL     1     163.538 168.132 173.423  1.00  0.00     0.008 C 
ATOM     18  C   UNL     1     162.485 169.180 173.775  1.00  0.00     0.007 C 
ATOM     19  C   UNL     1     161.733 169.591 172.495  1.00  0.00    -0.029 C 
ATOM     20  C   UNL     1     162.797 169.905 171.333  1.00  0.00     0.002 C 
ATOM     21  C   UNL     1     162.408 171.103 170.393  1.00  0.00     0.011 C 
ATOM     22  C   UNL     1     161.750 172.370 171.078  1.00  0.00    -0.035 C 
ATOM     23  C   UNL     1     161.458 172.179 172.598  1.00  0.00     0.007 C 
ATOM     24  C   UNL     1     160.831 170.843 172.875  1.00  0.00     0.007 C 
ATOM     25  C   UNL     1     162.618 173.659 170.896  1.00  0.00     0.011 C 
ATOM     26  C   UNL     1     160.419 172.649 170.308  1.00  0.00     0.011 C 
ATOM     27  C   UNL     1     160.737 168.395 172.048  1.00  0.00     0.011 C 
ATOM     28  C   UNL     1     165.570 169.463 174.053  1.00  0.00     0.012 C 
ATOM     29  C   UNL     1     164.891 171.317 172.021  1.00  0.00     0.012 C 
ATOM     30  C   UNL     1     167.810 169.183 171.530  1.00  0.00     0.012 C 
ATOM     31  C   UNL     1     168.486 164.601 172.368  1.00  0.00     0.012 C 
ENDROOT
TORSDOF 0
ENDMDL
MODEL 8
REMARK VINA RESULT:    -4.617      4.047      6.310
REMARK INTER + INTRA:          -4.617
REMARK INTER:                  -4.617
REMARK INTRA:                   0.000
REMARK UNBOUND:                 0.000
REMARK SMILES C[C@H]1C(=O)CC[C@H]2[C@]1(C)CC[C@@H]1[C@]2(C)CC[C@@]2(C)[C@@H]3CC(C)(C)CC[C@]3(C)CC[C@@]12C
REMARK SMILES IDX 1 1 2 2 3 3 4 4 5 5 6 6 7 7 8 8 10 9 11 10 12 11 13 12 15 13
REMARK SMILES IDX 16 14 17 15 30 16 29 17 28 18 26 19 19 20 20 21 21 22 24 23
REMARK SMILES IDX 25 24 22 25 23 26 27 27 31 28 18 29 14 30 9 31
REMARK H PARENT
REMARK Flexibility Score: inf
ROOT
ATOM      1  C   UNL     1     175.813 169.713 172.054  1.00  0.00     0.016 C 
ATOM      2  C   UNL     1     174.358 169.253 172.298  1.00  0.00     0.059 C 
ATOM      3  C   UNL     1     173.864 170.016 173.495  1.00  0.00     0.136 C 
ATOM      4  O   UNL     1     174.093 169.572 174.623  1.00  0.00    -0.299 OA
ATOM      5  C   UNL     1     173.322 171.405 173.360  1.00  0.00     0.076 C 
ATOM      6  C   UNL     1     172.488 171.596 172.080  1.00  0.00     0.012 C 
ATOM      7  C   UNL     1     172.094 170.306 171.299  1.00  0.00     0.002 C 
ATOM      8  C   UNL     1     173.340 169.334 171.066  1.00  0.00    -0.020 C 
ATOM      9  C   UNL     1     172.858 167.856 170.751  1.00  0.00     0.008 C 
ATOM     10  C   UNL     1     171.583 167.880 169.908  1.00  0.00     0.005 C 
ATOM     11  C   UNL     1     170.362 168.497 170.682  1.00  0.00     0.002 C 
ATOM     12  C   UNL     1     170.762 169.574 171.772  1.00  0.00    -0.026 C 
ATOM     13  C   UNL     1     169.526 170.512 171.853  1.00  0.00     0.008 C 
ATOM     14  C   UNL     1     168.229 169.776 172.248  1.00  0.00     0.008 C 
ATOM     15  C   UNL     1     167.942 168.208 171.845  1.00  0.00    -0.024 C 
ATOM     16  C   UNL     1     169.172 167.493 171.016  1.00  0.00    -0.024 C 
ATOM     17  C   UNL     1     168.637 166.933 169.651  1.00  0.00     0.008 C 
ATOM     18  C   UNL     1     167.369 166.106 169.844  1.00  0.00     0.007 C 
ATOM     19  C   UNL     1     166.162 167.054 169.979  1.00  0.00    -0.029 C 
ATOM     20  C   UNL     1     166.514 168.212 171.036  1.00  0.00     0.002 C 
ATOM     21  C   UNL     1     165.315 168.651 171.952  1.00  0.00     0.011 C 
ATOM     22  C   UNL     1     164.360 167.506 172.485  1.00  0.00    -0.035 C 
ATOM     23  C   UNL     1     164.683 166.097 171.899  1.00  0.00     0.007 C 
ATOM     24  C   UNL     1     164.923 166.160 170.417  1.00  0.00     0.007 C 
ATOM     25  C   UNL     1     164.367 167.409 174.047  1.00  0.00     0.011 C 
ATOM     26  C   UNL     1     162.905 167.926 172.098  1.00  0.00     0.011 C 
ATOM     27  C   UNL     1     165.812 167.690 168.532  1.00  0.00     0.011 C 
ATOM     28  C   UNL     1     169.817 166.248 171.758  1.00  0.00     0.012 C 
ATOM     29  C   UNL     1     167.722 167.457 173.233  1.00  0.00     0.012 C 
ATOM     30  C   UNL     1     171.002 169.055 173.236  1.00  0.00     0.012 C 
ATOM     31  C   UNL     1     174.087 169.823 169.764  1.00  0.00     0.012 C 
ENDROOT
TORSDOF 0
ENDMDL
MODEL 9
REMARK VINA RESULT:    -4.523      4.579      7.228
REMARK INTER + INTRA:          -4.523
REMARK INTER:                  -4.523
REMARK INTRA:                   0.000
REMARK UNBOUND:                 0.000
REMARK SMILES C[C@H]1C(=O)CC[C@H]2[C@]1(C)CC[C@@H]1[C@]2(C)CC[C@@]2(C)[C@@H]3CC(C)(C)CC[C@]3(C)CC[C@@]12C
REMARK SMILES IDX 1 1 2 2 3 3 4 4 5 5 6 6 7 7 8 8 10 9 11 10 12 11 13 12 15 13
REMARK SMILES IDX 16 14 17 15 30 16 29 17 28 18 26 19 19 20 20 21 21 22 24 23
REMARK SMILES IDX 25 24 22 25 23 26 27 27 31 28 18 29 14 30 9 31
REMARK H PARENT
REMARK Flexibility Score: inf
ROOT
ATOM      1  C   UNL     1     172.826 170.770 170.107  1.00  0.00     0.016 C 
ATOM      2  C   UNL     1     171.620 169.804 170.093  1.00  0.00     0.059 C 
ATOM      3  C   UNL     1     172.128 168.494 169.559  1.00  0.00     0.136 C 
ATOM      4  O   UNL     1     172.160 168.320 168.338  1.00  0.00    -0.299 OA
ATOM      5  C   UNL     1     172.813 167.506 170.450  1.00  0.00     0.076 C 
ATOM      6  C   UNL     1     172.182 167.432 171.852  1.00  0.00     0.012 C 
ATOM      7  C   UNL     1     170.806 168.138 172.042  1.00  0.00     0.002 C 
ATOM      8  C   UNL     1     170.800 169.624 171.456  1.00  0.00    -0.020 C 
ATOM      9  C   UNL     1     169.320 170.126 171.190  1.00  0.00     0.008 C 
ATOM     10  C   UNL     1     168.375 169.595 172.267  1.00  0.00     0.005 C 
ATOM     11  C   UNL     1     168.235 168.029 172.225  1.00  0.00     0.002 C 
ATOM     12  C   UNL     1     169.516 167.278 171.676  1.00  0.00    -0.026 C 
ATOM     13  C   UNL     1     169.472 165.889 172.372  1.00  0.00     0.008 C 
ATOM     14  C   UNL     1     168.186 165.095 172.062  1.00  0.00     0.008 C 
ATOM     15  C   UNL     1     166.740 165.826 171.775  1.00  0.00    -0.024 C 
ATOM     16  C   UNL     1     166.801 167.471 171.817  1.00  0.00    -0.024 C 
ATOM     17  C   UNL     1     165.772 168.013 172.870  1.00  0.00     0.008 C 
ATOM     18  C   UNL     1     164.395 167.382 172.682  1.00  0.00     0.007 C 
ATOM     19  C   UNL     1     164.386 165.984 173.328  1.00  0.00    -0.029 C 
ATOM     20  C   UNL     1     165.692 165.176 172.857  1.00  0.00     0.002 C 
ATOM     21  C   UNL     1     165.459 163.641 172.609  1.00  0.00     0.011 C 
ATOM     22  C   UNL     1     164.105 163.224 171.903  1.00  0.00    -0.035 C 
ATOM     23  C   UNL     1     163.124 164.415 171.675  1.00  0.00     0.007 C 
ATOM     24  C   UNL     1     163.026 165.286 172.894  1.00  0.00     0.007 C 
ATOM     25  C   UNL     1     164.348 162.509 170.531  1.00  0.00     0.011 C 
ATOM     26  C   UNL     1     163.439 162.150 172.822  1.00  0.00     0.011 C 
ATOM     27  C   UNL     1     164.360 166.136 174.940  1.00  0.00     0.011 C 
ATOM     28  C   UNL     1     166.410 168.169 170.447  1.00  0.00     0.012 C 
ATOM     29  C   UNL     1     166.313 165.341 170.319  1.00  0.00     0.012 C 
ATOM     30  C   UNL     1     169.566 166.983 170.134  1.00  0.00     0.012 C 
ATOM     31  C   UNL     1     171.376 170.577 172.576  1.00  0.00     0.012 C 
ENDROOT
TORSDOF 0
ENDMDL
