MODEL 1
REMARK VINA RESULT:    -5.465      0.000      0.000
REMARK INTER + INTRA:         -12.479
REMARK INTER:                 -10.576
REMARK INTRA:                  -1.903
REMARK UNBOUND:                -1.903
REMARK SMILES CCCCCCCCCCCCCCCCCC(=O)[O-]
REMARK SMILES IDX 10 1 11 2 12 3 13 4 14 5 15 6 16 7 17 8 18 9 19 10 20 11
REMARK SMILES IDX 9 12 8 13 7 14 6 15 5 16 4 17 3 18 2 19 1 20
REMARK H PARENT
REMARK Flexibility Score: inf
ROOT
ATOM      1  C   UNL     1      26.495 -10.731  16.638  1.00  0.00     0.000 C 
ENDROOT
BRANCH   1   2
ATOM      2  C   UNL     1      25.100 -10.741  15.991  1.00  0.00     0.000 C 
BRANCH   2   3
ATOM      3  C   UNL     1      24.728 -12.108  15.389  1.00  0.00     0.000 C 
BRANCH   3   4
ATOM      4  C   UNL     1      23.679 -12.917  16.179  1.00  0.00     0.000 C 
BRANCH   4   5
ATOM      5  C   UNL     1      23.352 -12.369  17.580  1.00  0.00     0.000 C 
BRANCH   5   6
ATOM      6  C   UNL     1      23.509 -13.388  18.725  1.00  0.00     0.000 C 
BRANCH   6   7
ATOM      7  C   UNL     1      22.874 -12.928  20.054  1.00  0.00     0.006 C 
BRANCH   7   8
ATOM      8  C   UNL     1      22.586 -11.421  20.077  1.00  0.00     0.053 C 
BRANCH   8   9
ATOM      9  C   UNL     1      23.326 -10.765  21.199  1.00  0.00     0.041 C 
ATOM     10  O   UNL     1      23.052 -11.052  22.393  1.00  0.00    -0.550 OA
ATOM     11  O   UNL     1      24.286  -9.797  20.927  1.00  0.00    -0.550 OA
ENDBRANCH   8   9
ENDBRANCH   7   8
ENDBRANCH   6   7
ENDBRANCH   5   6
ENDBRANCH   4   5
ENDBRANCH   3   4
ENDBRANCH   2   3
ENDBRANCH   1   2
BRANCH   1  12
ATOM     12  C   UNL     1      26.479 -10.211  18.087  1.00  0.00     0.000 C 
BRANCH  12  13
ATOM     13  C   UNL     1      27.754  -9.466  18.535  1.00  0.00    -0.000 C 
BRANCH  13  14
ATOM     14  C   UNL     1      27.728  -7.942  18.329  1.00  0.00    -0.000 C 
BRANCH  14  15
ATOM     15  C   UNL     1      28.889  -7.437  17.459  1.00  0.00    -0.000 C 
BRANCH  15  16
ATOM     16  C   UNL     1      28.646  -7.763  15.978  1.00  0.00    -0.000 C 
BRANCH  16  17
ATOM     17  C   UNL     1      29.883  -8.394  15.312  1.00  0.00    -0.000 C 
BRANCH  17  18
ATOM     18  C   UNL     1      29.893  -9.938  15.385  1.00  0.00    -0.000 C 
BRANCH  18  19
ATOM     19  C   UNL     1      30.688 -10.489  16.581  1.00  0.00    -0.003 C 
ATOM     20  C   UNL     1      31.878  -9.609  16.958  1.00  0.00     0.004 C 
ENDBRANCH  18  19
ENDBRANCH  17  18
ENDBRANCH  16  17
ENDBRANCH  15  16
ENDBRANCH  14  15
ENDBRANCH  13  14
ENDBRANCH  12  13
ENDBRANCH   1  12
TORSDOF 16
ENDMDL
MODEL 2
REMARK VINA RESULT:    -5.354      2.805      7.498
REMARK INTER + INTRA:         -12.265
REMARK INTER:                 -11.002
REMARK INTRA:                  -1.263
REMARK UNBOUND:                -1.903
REMARK SMILES CCCCCCCCCCCCCCCCCC(=O)[O-]
REMARK SMILES IDX 10 1 11 2 12 3 13 4 14 5 15 6 16 7 17 8 18 9 19 10 20 11
REMARK SMILES IDX 9 12 8 13 7 14 6 15 5 16 4 17 3 18 2 19 1 20
REMARK H PARENT
REMARK Flexibility Score: inf
ROOT
ATOM      1  C   UNL     1      26.140 -11.023  15.028  1.00  0.00     0.000 C 
ENDROOT
BRANCH   1   2
ATOM      2  C   UNL     1      27.148 -10.122  15.762  1.00  0.00     0.000 C 
BRANCH   2   3
ATOM      3  C   UNL     1      27.685 -10.757  17.057  1.00  0.00     0.000 C 
BRANCH   3   4
ATOM      4  C   UNL     1      28.878 -11.719  16.878  1.00  0.00     0.000 C 
BRANCH   4   5
ATOM      5  C   UNL     1      29.970 -11.232  15.908  1.00  0.00     0.000 C 
BRANCH   5   6
ATOM      6  C   UNL     1      31.028 -10.307  16.540  1.00  0.00     0.000 C 
BRANCH   6   7
ATOM      7  C   UNL     1      30.710  -8.805  16.382  1.00  0.00     0.006 C 
BRANCH   7   8
ATOM      8  C   UNL     1      30.364  -8.134  17.718  1.00  0.00     0.053 C 
BRANCH   8   9
ATOM      9  C   UNL     1      29.821  -6.760  17.488  1.00  0.00     0.041 C 
ATOM     10  O   UNL     1      29.813  -6.268  16.329  1.00  0.00    -0.550 OA
ATOM     11  O   UNL     1      29.369  -6.002  18.562  1.00  0.00    -0.550 OA
ENDBRANCH   8   9
ENDBRANCH   7   8
ENDBRANCH   6   7
ENDBRANCH   5   6
ENDBRANCH   4   5
ENDBRANCH   3   4
ENDBRANCH   2   3
ENDBRANCH   1   2
BRANCH   1  12
ATOM     12  C   UNL     1      24.762 -11.062  15.715  1.00  0.00     0.000 C 
BRANCH  12  13
ATOM     13  C   UNL     1      24.182 -12.472  15.950  1.00  0.00    -0.000 C 
BRANCH  13  14
ATOM     14  C   UNL     1      24.166 -12.936  17.417  1.00  0.00    -0.000 C 
BRANCH  14  15
ATOM     15  C   UNL     1      22.881 -12.535  18.157  1.00  0.00    -0.000 C 
BRANCH  15  16
ATOM     16  C   UNL     1      22.900 -13.043  19.606  1.00  0.00    -0.000 C 
BRANCH  16  17
ATOM     17  C   UNL     1      22.112 -12.122  20.555  1.00  0.00    -0.000 C 
BRANCH  17  18
ATOM     18  C   UNL     1      22.886 -11.770  21.845  1.00  0.00    -0.000 C 
BRANCH  18  19
ATOM     19  C   UNL     1      23.366 -10.310  21.891  1.00  0.00    -0.003 C 
ATOM     20  C   UNL     1      24.158  -9.906  20.648  1.00  0.00     0.004 C 
ENDBRANCH  18  19
ENDBRANCH  17  18
ENDBRANCH  16  17
ENDBRANCH  15  16
ENDBRANCH  14  15
ENDBRANCH  13  14
ENDBRANCH  12  13
ENDBRANCH   1  12
TORSDOF 16
ENDMDL
MODEL 3
REMARK VINA RESULT:    -5.312      2.245      7.454
REMARK INTER + INTRA:         -12.184
REMARK INTER:                 -10.960
REMARK INTRA:                  -1.224
REMARK UNBOUND:                -1.903
REMARK SMILES CCCCCCCCCCCCCCCCCC(=O)[O-]
REMARK SMILES IDX 10 1 11 2 12 3 13 4 14 5 15 6 16 7 17 8 18 9 19 10 20 11
REMARK SMILES IDX 9 12 8 13 7 14 6 15 5 16 4 17 3 18 2 19 1 20
REMARK H PARENT
REMARK Flexibility Score: inf
ROOT
ATOM      1  C   UNL     1      27.875 -11.123  14.978  1.00  0.00     0.000 C 
ENDROOT
BRANCH   1   2
ATOM      2  C   UNL     1      28.560 -11.076  16.354  1.00  0.00     0.000 C 
BRANCH   2   3
ATOM      3  C   UNL     1      30.056 -11.430  16.291  1.00  0.00     0.000 C 
BRANCH   3   4
ATOM      4  C   UNL     1      30.962 -10.364  15.641  1.00  0.00     0.000 C 
BRANCH   4   5
ATOM      5  C   UNL     1      31.833  -9.560  16.623  1.00  0.00     0.000 C 
BRANCH   5   6
ATOM      6  C   UNL     1      31.048  -8.785  17.698  1.00  0.00     0.000 C 
BRANCH   6   7
ATOM      7  C   UNL     1      30.835  -7.296  17.355  1.00  0.00     0.006 C 
BRANCH   7   8
ATOM      8  C   UNL     1      29.492  -6.761  17.870  1.00  0.00     0.053 C 
BRANCH   8   9
ATOM      9  C   UNL     1      28.357  -7.495  17.231  1.00  0.00     0.041 C 
ATOM     10  O   UNL     1      27.507  -8.092  17.943  1.00  0.00    -0.550 OA
ATOM     11  O   UNL     1      28.264  -7.564  15.846  1.00  0.00    -0.550 OA
ENDBRANCH   8   9
ENDBRANCH   7   8
ENDBRANCH   6   7
ENDBRANCH   5   6
ENDBRANCH   4   5
ENDBRANCH   3   4
ENDBRANCH   2   3
ENDBRANCH   1   2
BRANCH   1  12
ATOM     12  C   UNL     1      26.424 -10.608  15.015  1.00  0.00     0.000 C 
BRANCH  12  13
ATOM     13  C   UNL     1      25.548 -11.184  16.147  1.00  0.00    -0.000 C 
BRANCH  13  14
ATOM     14  C   UNL     1      24.178 -11.726  15.703  1.00  0.00    -0.000 C 
BRANCH  14  15
ATOM     15  C   UNL     1      23.741 -12.967  16.497  1.00  0.00    -0.000 C 
BRANCH  15  16
ATOM     16  C   UNL     1      23.968 -12.763  18.002  1.00  0.00    -0.000 C 
BRANCH  16  17
ATOM     17  C   UNL     1      22.646 -12.738  18.791  1.00  0.00    -0.000 C 
BRANCH  17  18
ATOM     18  C   UNL     1      22.559 -11.569  19.797  1.00  0.00    -0.000 C 
BRANCH  18  19
ATOM     19  C   UNL     1      22.655 -12.017  21.265  1.00  0.00    -0.003 C 
ATOM     20  C   UNL     1      23.027 -10.878  22.212  1.00  0.00     0.004 C 
ENDBRANCH  18  19
ENDBRANCH  17  18
ENDBRANCH  16  17
ENDBRANCH  15  16
ENDBRANCH  14  15
ENDBRANCH  13  14
ENDBRANCH  12  13
ENDBRANCH   1  12
TORSDOF 16
ENDMDL
MODEL 4
REMARK VINA RESULT:    -5.292      2.207      7.388
REMARK INTER + INTRA:         -12.145
REMARK INTER:                 -10.641
REMARK INTRA:                  -1.503
REMARK UNBOUND:                -1.903
REMARK SMILES CCCCCCCCCCCCCCCCCC(=O)[O-]
REMARK SMILES IDX 10 1 11 2 12 3 13 4 14 5 15 6 16 7 17 8 18 9 19 10 20 11
REMARK SMILES IDX 9 12 8 13 7 14 6 15 5 16 4 17 3 18 2 19 1 20
REMARK H PARENT
REMARK Flexibility Score: inf
ROOT
ATOM      1  C   UNL     1      27.481  -9.992  15.621  1.00  0.00     0.000 C 
ENDROOT
BRANCH   1   2
ATOM      2  C   UNL     1      28.419 -11.116  15.150  1.00  0.00     0.000 C 
BRANCH   2   3
ATOM      3  C   UNL     1      29.866 -10.638  14.933  1.00  0.00     0.000 C 
BRANCH   3   4
ATOM      4  C   UNL     1      30.732 -10.548  16.206  1.00  0.00     0.000 C 
BRANCH   4   5
ATOM      5  C   UNL     1      31.013  -9.120  16.706  1.00  0.00     0.000 C 
BRANCH   5   6
ATOM      6  C   UNL     1      30.938  -8.029  15.621  1.00  0.00     0.000 C 
BRANCH   6   7
ATOM      7  C   UNL     1      30.418  -6.673  16.141  1.00  0.00     0.006 C 
BRANCH   7   8
ATOM      8  C   UNL     1      28.928  -6.716  16.506  1.00  0.00     0.053 C 
BRANCH   8   9
ATOM      9  C   UNL     1      28.750  -6.637  17.989  1.00  0.00     0.041 C 
ATOM     10  O   UNL     1      27.875  -7.340  18.561  1.00  0.00    -0.550 OA
ATOM     11  O   UNL     1      29.517  -5.751  18.736  1.00  0.00    -0.550 OA
ENDBRANCH   8   9
ENDBRANCH   7   8
ENDBRANCH   6   7
ENDBRANCH   5   6
ENDBRANCH   4   5
ENDBRANCH   3   4
ENDBRANCH   2   3
ENDBRANCH   1   2
BRANCH   1  12
ATOM     12  C   UNL     1      26.944 -10.220  17.046  1.00  0.00     0.000 C 
BRANCH  12  13
ATOM     13  C   UNL     1      25.887 -11.336  17.182  1.00  0.00    -0.000 C 
BRANCH  13  14
ATOM     14  C   UNL     1      24.774 -11.316  16.120  1.00  0.00    -0.000 C 
BRANCH  14  15
ATOM     15  C   UNL     1      23.671 -12.351  16.391  1.00  0.00    -0.000 C 
BRANCH  15  16
ATOM     16  C   UNL     1      23.820 -12.956  17.794  1.00  0.00    -0.000 C 
BRANCH  16  17
ATOM     17  C   UNL     1      22.683 -12.523  18.737  1.00  0.00    -0.000 C 
BRANCH  17  18
ATOM     18  C   UNL     1      23.139 -11.524  19.824  1.00  0.00    -0.000 C 
BRANCH  18  19
ATOM     19  C   UNL     1      22.634 -11.879  21.233  1.00  0.00    -0.003 C 
ATOM     20  C   UNL     1      23.051 -10.857  22.288  1.00  0.00     0.004 C 
ENDBRANCH  18  19
ENDBRANCH  17  18
ENDBRANCH  16  17
ENDBRANCH  15  16
ENDBRANCH  14  15
ENDBRANCH  13  14
ENDBRANCH  12  13
ENDBRANCH   1  12
TORSDOF 16
ENDMDL
MODEL 5
REMARK VINA RESULT:    -5.286      3.628      8.004
REMARK INTER + INTRA:         -12.133
REMARK INTER:                 -10.226
REMARK INTRA:                  -1.907
REMARK UNBOUND:                -1.903
REMARK SMILES CCCCCCCCCCCCCCCCCC(=O)[O-]
REMARK SMILES IDX 10 1 11 2 12 3 13 4 14 5 15 6 16 7 17 8 18 9 19 10 20 11
REMARK SMILES IDX 9 12 8 13 7 14 6 15 5 16 4 17 3 18 2 19 1 20
REMARK H PARENT
REMARK Flexibility Score: inf
ROOT
ATOM      1  C   UNL     1      26.586  -9.699  19.042  1.00  0.00     0.000 C 
ENDROOT
BRANCH   1   2
ATOM      2  C   UNL     1      27.978  -9.502  18.417  1.00  0.00     0.000 C 
BRANCH   2   3
ATOM      3  C   UNL     1      28.046  -8.284  17.478  1.00  0.00     0.000 C 
BRANCH   3   4
ATOM      4  C   UNL     1      28.331  -8.605  15.996  1.00  0.00     0.000 C 
BRANCH   4   5
ATOM      5  C   UNL     1      28.840 -10.032  15.723  1.00  0.00     0.000 C 
BRANCH   5   6
ATOM      6  C   UNL     1      30.331 -10.126  15.347  1.00  0.00     0.000 C 
BRANCH   6   7
ATOM      7  C   UNL     1      31.279 -10.082  16.564  1.00  0.00     0.006 C 
BRANCH   7   8
ATOM      8  C   UNL     1      32.168  -8.831  16.570  1.00  0.00     0.053 C 
BRANCH   8   9
ATOM      9  C   UNL     1      33.598  -9.207  16.792  1.00  0.00     0.041 C 
ATOM     10  O   UNL     1      34.062  -9.272  17.961  1.00  0.00    -0.550 OA
ATOM     11  O   UNL     1      34.434  -9.438  15.705  1.00  0.00    -0.550 OA
ENDBRANCH   8   9
ENDBRANCH   7   8
ENDBRANCH   6   7
ENDBRANCH   5   6
ENDBRANCH   4   5
ENDBRANCH   3   4
ENDBRANCH   2   3
ENDBRANCH   1   2
BRANCH   1  12
ATOM     12  C   UNL     1      25.495  -9.982  17.993  1.00  0.00     0.000 C 
BRANCH  12  13
ATOM     13  C   UNL     1      25.751 -11.206  17.089  1.00  0.00    -0.000 C 
BRANCH  13  14
ATOM     14  C   UNL     1      24.603 -11.562  16.128  1.00  0.00    -0.000 C 
BRANCH  14  15
ATOM     15  C   UNL     1      23.602 -12.556  16.736  1.00  0.00    -0.000 C 
BRANCH  15  16
ATOM     16  C   UNL     1      24.292 -13.476  17.754  1.00  0.00    -0.000 C 
BRANCH  16  17
ATOM     17  C   UNL     1      23.544 -13.519  19.099  1.00  0.00    -0.000 C 
BRANCH  17  18
ATOM     18  C   UNL     1      22.607 -12.310  19.315  1.00  0.00    -0.000 C 
BRANCH  18  19
ATOM     19  C   UNL     1      22.557 -11.827  20.774  1.00  0.00    -0.003 C 
ATOM     20  C   UNL     1      23.383 -10.564  21.010  1.00  0.00     0.004 C 
ENDBRANCH  18  19
ENDBRANCH  17  18
ENDBRANCH  16  17
ENDBRANCH  15  16
ENDBRANCH  14  15
ENDBRANCH  13  14
ENDBRANCH  12  13
ENDBRANCH   1  12
TORSDOF 16
ENDMDL
MODEL 6
REMARK VINA RESULT:    -5.208      1.211      2.517
REMARK INTER + INTRA:         -11.982
REMARK INTER:                 -10.420
REMARK INTRA:                  -1.562
REMARK UNBOUND:                -1.903
REMARK SMILES CCCCCCCCCCCCCCCCCC(=O)[O-]
REMARK SMILES IDX 10 1 11 2 12 3 13 4 14 5 15 6 16 7 17 8 18 9 19 10 20 11
REMARK SMILES IDX 9 12 8 13 7 14 6 15 5 16 4 17 3 18 2 19 1 20
REMARK H PARENT
REMARK Flexibility Score: inf
ROOT
ATOM      1  C   UNL     1      27.265 -11.107  17.479  1.00  0.00     0.000 C 
ENDROOT
BRANCH   1   2
ATOM      2  C   UNL     1      25.807 -10.642  17.325  1.00  0.00     0.000 C 
BRANCH   2   3
ATOM      3  C   UNL     1      25.150 -11.152  16.030  1.00  0.00     0.000 C 
BRANCH   3   4
ATOM      4  C   UNL     1      24.004 -12.167  16.224  1.00  0.00     0.000 C 
BRANCH   4   5
ATOM      5  C   UNL     1      23.980 -12.871  17.593  1.00  0.00     0.000 C 
BRANCH   5   6
ATOM      6  C   UNL     1      22.758 -12.538  18.469  1.00  0.00     0.000 C 
BRANCH   6   7
ATOM      7  C   UNL     1      23.009 -12.730  19.980  1.00  0.00     0.006 C 
BRANCH   7   8
ATOM      8  C   UNL     1      22.327 -11.650  20.831  1.00  0.00     0.053 C 
BRANCH   8   9
ATOM      9  C   UNL     1      23.333 -10.655  21.316  1.00  0.00     0.041 C 
ATOM     10  O   UNL     1      23.441 -10.412  22.547  1.00  0.00    -0.550 OA
ATOM     11  O   UNL     1      24.118  -9.958  20.405  1.00  0.00    -0.550 OA
ENDBRANCH   8   9
ENDBRANCH   7   8
ENDBRANCH   6   7
ENDBRANCH   5   6
ENDBRANCH   4   5
ENDBRANCH   3   4
ENDBRANCH   2   3
ENDBRANCH   1   2
BRANCH   1  12
ATOM     12  C   UNL     1      28.276 -10.119  16.868  1.00  0.00     0.000 C 
BRANCH  12  13
ATOM     13  C   UNL     1      29.097 -10.666  15.682  1.00  0.00    -0.000 C 
BRANCH  13  14
ATOM     14  C   UNL     1      30.623 -10.646  15.879  1.00  0.00    -0.000 C 
BRANCH  14  15
ATOM     15  C   UNL     1      31.047  -9.987  17.200  1.00  0.00    -0.000 C 
BRANCH  15  16
ATOM     16  C   UNL     1      32.301  -9.122  17.005  1.00  0.00    -0.000 C 
BRANCH  16  17
ATOM     17  C   UNL     1      32.191  -8.210  15.770  1.00  0.00    -0.000 C 
BRANCH  17  18
ATOM     18  C   UNL     1      31.172  -7.061  15.950  1.00  0.00    -0.000 C 
BRANCH  18  19
ATOM     19  C   UNL     1      30.147  -6.969  14.807  1.00  0.00    -0.003 C 
ATOM     20  C   UNL     1      28.706  -6.889  15.308  1.00  0.00     0.004 C 
ENDBRANCH  18  19
ENDBRANCH  17  18
ENDBRANCH  16  17
ENDBRANCH  15  16
ENDBRANCH  14  15
ENDBRANCH  13  14
ENDBRANCH  12  13
ENDBRANCH   1  12
TORSDOF 16
ENDMDL
MODEL 7
REMARK VINA RESULT:    -5.205      3.682      7.575
REMARK INTER + INTRA:         -11.976
REMARK INTER:                 -10.010
REMARK INTRA:                  -1.966
REMARK UNBOUND:                -1.903
REMARK SMILES CCCCCCCCCCCCCCCCCC(=O)[O-]
REMARK SMILES IDX 10 1 11 2 12 3 13 4 14 5 15 6 16 7 17 8 18 9 19 10 20 11
REMARK SMILES IDX 9 12 8 13 7 14 6 15 5 16 4 17 3 18 2 19 1 20
REMARK H PARENT
REMARK Flexibility Score: inf
ROOT
ATOM      1  C   UNL     1      25.789  -9.953  18.356  1.00  0.00     0.000 C 
ENDROOT
BRANCH   1   2
ATOM      2  C   UNL     1      27.153 -10.641  18.170  1.00  0.00     0.000 C 
BRANCH   2   3
ATOM      3  C   UNL     1      27.224 -11.493  16.890  1.00  0.00     0.000 C 
BRANCH   3   4
ATOM      4  C   UNL     1      27.288 -10.699  15.569  1.00  0.00     0.000 C 
BRANCH   4   5
ATOM      5  C   UNL     1      28.628  -9.993  15.295  1.00  0.00     0.000 C 
BRANCH   5   6
ATOM      6  C   UNL     1      29.851 -10.928  15.240  1.00  0.00     0.000 C 
BRANCH   6   7
ATOM      7  C   UNL     1      30.773 -10.815  16.473  1.00  0.00     0.006 C 
BRANCH   7   8
ATOM      8  C   UNL     1      31.029  -9.359  16.882  1.00  0.00     0.053 C 
BRANCH   8   9
ATOM      9  C   UNL     1      32.095  -8.754  16.025  1.00  0.00     0.041 C 
ATOM     10  O   UNL     1      33.105  -9.431  15.698  1.00  0.00    -0.550 OA
ATOM     11  O   UNL     1      31.998  -7.426  15.627  1.00  0.00    -0.550 OA
ENDBRANCH   8   9
ENDBRANCH   7   8
ENDBRANCH   6   7
ENDBRANCH   5   6
ENDBRANCH   4   5
ENDBRANCH   3   4
ENDBRANCH   2   3
ENDBRANCH   1   2
BRANCH   1  12
ATOM     12  C   UNL     1      25.402  -9.784  19.837  1.00  0.00     0.000 C 
BRANCH  12  13
ATOM     13  C   UNL     1      23.899  -9.937  20.147  1.00  0.00    -0.000 C 
BRANCH  13  14
ATOM     14  C   UNL     1      23.568 -10.377  21.584  1.00  0.00    -0.000 C 
BRANCH  14  15
ATOM     15  C   UNL     1      22.661 -11.615  21.636  1.00  0.00    -0.000 C 
BRANCH  15  16
ATOM     16  C   UNL     1      22.340 -12.120  20.222  1.00  0.00    -0.000 C 
BRANCH  16  17
ATOM     17  C   UNL     1      23.039 -13.456  19.910  1.00  0.00    -0.000 C 
BRANCH  17  18
ATOM     18  C   UNL     1      23.719 -13.479  18.522  1.00  0.00    -0.000 C 
BRANCH  18  19
ATOM     19  C   UNL     1      23.124 -12.462  17.533  1.00  0.00    -0.003 C 
ATOM     20  C   UNL     1      23.854 -12.443  16.191  1.00  0.00     0.004 C 
ENDBRANCH  18  19
ENDBRANCH  17  18
ENDBRANCH  16  17
ENDBRANCH  15  16
ENDBRANCH  14  15
ENDBRANCH  13  14
ENDBRANCH  12  13
ENDBRANCH   1  12
TORSDOF 16
ENDMDL
MODEL 8
REMARK VINA RESULT:    -5.188      3.526      7.815
REMARK INTER + INTRA:         -11.943
REMARK INTER:                 -10.300
REMARK INTRA:                  -1.643
REMARK UNBOUND:                -1.903
REMARK SMILES CCCCCCCCCCCCCCCCCC(=O)[O-]
REMARK SMILES IDX 10 1 11 2 12 3 13 4 14 5 15 6 16 7 17 8 18 9 19 10 20 11
REMARK SMILES IDX 9 12 8 13 7 14 6 15 5 16 4 17 3 18 2 19 1 20
REMARK H PARENT
REMARK Flexibility Score: inf
ROOT
ATOM      1  C   UNL     1      28.946 -11.088  14.779  1.00  0.00     0.000 C 
ENDROOT
BRANCH   1   2
ATOM      2  C   UNL     1      29.842 -11.066  16.029  1.00  0.00     0.000 C 
BRANCH   2   3
ATOM      3  C   UNL     1      31.097 -10.193  15.852  1.00  0.00     0.000 C 
BRANCH   3   4
ATOM      4  C   UNL     1      31.366  -9.182  16.986  1.00  0.00     0.000 C 
BRANCH   4   5
ATOM      5  C   UNL     1      30.120  -8.730  17.768  1.00  0.00     0.000 C 
BRANCH   5   6
ATOM      6  C   UNL     1      29.710  -7.263  17.537  1.00  0.00     0.000 C 
BRANCH   6   7
ATOM      7  C   UNL     1      28.362  -7.105  16.802  1.00  0.00     0.006 C 
BRANCH   7   8
ATOM      8  C   UNL     1      28.528  -7.039  15.278  1.00  0.00     0.053 C 
BRANCH   8   9
ATOM      9  C   UNL     1      29.703  -6.188  14.917  1.00  0.00     0.041 C 
ATOM     10  O   UNL     1      29.651  -4.939  15.065  1.00  0.00    -0.550 OA
ATOM     11  O   UNL     1      30.841  -6.770  14.369  1.00  0.00    -0.550 OA
ENDBRANCH   8   9
ENDBRANCH   7   8
ENDBRANCH   6   7
ENDBRANCH   5   6
ENDBRANCH   4   5
ENDBRANCH   3   4
ENDBRANCH   2   3
ENDBRANCH   1   2
BRANCH   1  12
ATOM     12  C   UNL     1      27.530 -10.545  15.048  1.00  0.00     0.000 C 
BRANCH  12  13
ATOM     13  C   UNL     1      26.893 -10.995  16.379  1.00  0.00    -0.000 C 
BRANCH  13  14
ATOM     14  C   UNL     1      25.361 -10.866  16.448  1.00  0.00    -0.000 C 
BRANCH  14  15
ATOM     15  C   UNL     1      24.633 -12.021  15.744  1.00  0.00    -0.000 C 
BRANCH  15  16
ATOM     16  C   UNL     1      23.430 -12.497  16.572  1.00  0.00    -0.000 C 
BRANCH  16  17
ATOM     17  C   UNL     1      23.727 -12.491  18.083  1.00  0.00    -0.000 C 
BRANCH  17  18
ATOM     18  C   UNL     1      22.461 -12.653  18.954  1.00  0.00    -0.000 C 
BRANCH  18  19
ATOM     19  C   UNL     1      22.767 -12.842  20.449  1.00  0.00    -0.003 C 
ATOM     20  C   UNL     1      22.875 -11.519  21.205  1.00  0.00     0.004 C 
ENDBRANCH  18  19
ENDBRANCH  17  18
ENDBRANCH  16  17
ENDBRANCH  15  16
ENDBRANCH  14  15
ENDBRANCH  13  14
ENDBRANCH  12  13
ENDBRANCH   1  12
TORSDOF 16
ENDMDL
MODEL 9
REMARK VINA RESULT:    -5.049      1.151      2.701
REMARK INTER + INTRA:         -11.675
REMARK INTER:                 -10.126
REMARK INTRA:                  -1.549
REMARK UNBOUND:                -1.903
REMARK SMILES CCCCCCCCCCCCCCCCCC(=O)[O-]
REMARK SMILES IDX 10 1 11 2 12 3 13 4 14 5 15 6 16 7 17 8 18 9 19 10 20 11
REMARK SMILES IDX 9 12 8 13 7 14 6 15 5 16 4 17 3 18 2 19 1 20
REMARK H PARENT
REMARK Flexibility Score: inf
ROOT
ATOM      1  C   UNL     1      27.705 -10.764  15.407  1.00  0.00     0.000 C 
ENDROOT
BRANCH   1   2
ATOM      2  C   UNL     1      26.763 -10.124  16.441  1.00  0.00     0.000 C 
BRANCH   2   3
ATOM      3  C   UNL     1      25.674 -11.091  16.939  1.00  0.00     0.000 C 
BRANCH   3   4
ATOM      4  C   UNL     1      24.655 -11.545  15.874  1.00  0.00     0.000 C 
BRANCH   4   5
ATOM      5  C   UNL     1      23.763 -12.731  16.287  1.00  0.00     0.000 C 
BRANCH   5   6
ATOM      6  C   UNL     1      23.792 -13.068  17.790  1.00  0.00     0.000 C 
BRANCH   6   7
ATOM      7  C   UNL     1      22.628 -12.442  18.586  1.00  0.00     0.006 C 
BRANCH   7   8
ATOM      8  C   UNL     1      22.723 -12.730  20.090  1.00  0.00     0.053 C 
BRANCH   8   9
ATOM      9  C   UNL     1      22.926 -11.461  20.854  1.00  0.00     0.041 C 
ATOM     10  O   UNL     1      22.496 -11.355  22.033  1.00  0.00    -0.550 OA
ATOM     11  O   UNL     1      23.548 -10.376  20.248  1.00  0.00    -0.550 OA
ENDBRANCH   8   9
ENDBRANCH   7   8
ENDBRANCH   6   7
ENDBRANCH   5   6
ENDBRANCH   4   5
ENDBRANCH   3   4
ENDBRANCH   2   3
ENDBRANCH   1   2
BRANCH   1  12
ATOM     12  C   UNL     1      29.037 -11.232  16.023  1.00  0.00     0.000 C 
BRANCH  12  13
ATOM     13  C   UNL     1      30.271 -10.386  15.646  1.00  0.00    -0.000 C 
BRANCH  13  14
ATOM     14  C   UNL     1      30.927  -9.631  16.816  1.00  0.00    -0.000 C 
BRANCH  14  15
ATOM     15  C   UNL     1      31.650  -8.351  16.369  1.00  0.00    -0.000 C 
BRANCH  15  16
ATOM     16  C   UNL     1      30.833  -7.602  15.305  1.00  0.00    -0.000 C 
BRANCH  16  17
ATOM     17  C   UNL     1      29.960  -6.492  15.919  1.00  0.00    -0.000 C 
BRANCH  17  18
ATOM     18  C   UNL     1      28.510  -6.944  16.203  1.00  0.00    -0.000 C 
BRANCH  18  19
ATOM     19  C   UNL     1      28.184  -7.048  17.702  1.00  0.00    -0.003 C 
ATOM     20  C   UNL     1      28.329  -5.715  18.435  1.00  0.00     0.004 C 
ENDBRANCH  18  19
ENDBRANCH  17  18
ENDBRANCH  16  17
ENDBRANCH  15  16
ENDBRANCH  14  15
ENDBRANCH  13  14
ENDBRANCH  12  13
ENDBRANCH   1  12
TORSDOF 16
ENDMDL
