MODEL 1
REMARK VINA RESULT:    -5.365      0.000      0.000
REMARK INTER + INTRA:          -9.224
REMARK INTER:                  -8.501
REMARK INTRA:                  -0.722
REMARK UNBOUND:                -0.722
REMARK SMILES CCCCCCCCCCCC(=O)[O-]
REMARK SMILES IDX 7 1 8 2 9 3 10 4 11 5 12 6 13 7 14 8 6 9 5 10 4 11 3 12 2 13
REMARK SMILES IDX 1 14
REMARK H PARENT
REMARK Flexibility Score: inf
ROOT
ATOM      1  C   UNL     1     -12.718  -1.179 -10.740  1.00  0.00     0.000 C 
ENDROOT
BRANCH   1   2
ATOM      2  C   UNL     1     -11.522  -0.281 -10.386  1.00  0.00     0.000 C 
BRANCH   2   3
ATOM      3  C   UNL     1     -10.650  -0.870  -9.267  1.00  0.00     0.000 C 
BRANCH   3   4
ATOM      4  C   UNL     1     -10.036  -2.229  -9.647  1.00  0.00     0.006 C 
BRANCH   4   5
ATOM      5  C   UNL     1     -10.649  -3.386  -8.848  1.00  0.00     0.053 C 
BRANCH   5   6
ATOM      6  C   UNL     1      -9.683  -3.942  -7.846  1.00  0.00     0.041 C 
ATOM      7  O   UNL     1      -9.995  -3.996  -6.628  1.00  0.00    -0.550 OA
ATOM      8  O   UNL     1      -8.425  -4.367  -8.255  1.00  0.00    -0.550 OA
ENDBRANCH   5   6
ENDBRANCH   4   5
ENDBRANCH   3   4
ENDBRANCH   2   3
ENDBRANCH   1   2
BRANCH   1   9
ATOM      9  C   UNL     1     -14.013  -0.362 -10.823  1.00  0.00     0.000 C 
BRANCH   9  10
ATOM     10  C   UNL     1     -14.245   0.433  -9.529  1.00  0.00    -0.000 C 
BRANCH  10  11
ATOM     11  C   UNL     1     -14.465   1.933  -9.786  1.00  0.00    -0.000 C 
BRANCH  11  12
ATOM     12  C   UNL     1     -13.697   2.820  -8.791  1.00  0.00    -0.000 C 
BRANCH  12  13
ATOM     13  C   UNL     1     -12.275   3.150  -9.273  1.00  0.00    -0.003 C 
ATOM     14  C   UNL     1     -11.531   4.093  -8.326  1.00  0.00     0.004 C 
ENDBRANCH  12  13
ENDBRANCH  11  12
ENDBRANCH  10  11
ENDBRANCH   9  10
ENDBRANCH   1   9
TORSDOF 10
ENDMDL
MODEL 2
REMARK VINA RESULT:    -5.250      1.250      1.883
REMARK INTER + INTRA:          -9.041
REMARK INTER:                  -8.400
REMARK INTRA:                  -0.641
REMARK UNBOUND:                -0.722
REMARK SMILES CCCCCCCCCCCC(=O)[O-]
REMARK SMILES IDX 7 1 8 2 9 3 10 4 11 5 12 6 13 7 14 8 6 9 5 10 4 11 3 12 2 13
REMARK SMILES IDX 1 14
REMARK H PARENT
REMARK Flexibility Score: inf
ROOT
ATOM      1  C   UNL     1     -12.285  -1.581 -10.443  1.00  0.00     0.000 C 
ENDROOT
BRANCH   1   2
ATOM      2  C   UNL     1     -11.743  -2.836  -9.741  1.00  0.00     0.000 C 
BRANCH   2   3
ATOM      3  C   UNL     1     -10.213  -2.821  -9.600  1.00  0.00     0.000 C 
BRANCH   3   4
ATOM      4  C   UNL     1      -9.752  -2.961  -8.138  1.00  0.00     0.006 C 
BRANCH   4   5
ATOM      5  C   UNL     1      -9.033  -4.292  -7.883  1.00  0.00     0.053 C 
BRANCH   5   6
ATOM      6  C   UNL     1      -9.908  -5.265  -7.153  1.00  0.00     0.041 C 
ATOM      7  O   UNL     1     -10.676  -4.864  -6.239  1.00  0.00    -0.550 OA
ATOM      8  O   UNL     1      -9.849  -6.619  -7.459  1.00  0.00    -0.550 OA
ENDBRANCH   5   6
ENDBRANCH   4   5
ENDBRANCH   3   4
ENDBRANCH   2   3
ENDBRANCH   1   2
BRANCH   1   9
ATOM      9  C   UNL     1     -11.255  -0.445 -10.409  1.00  0.00     0.000 C 
BRANCH   9  10
ATOM     10  C   UNL     1     -11.785   0.752  -9.604  1.00  0.00    -0.000 C 
BRANCH  10  11
ATOM     11  C   UNL     1     -13.316   0.878  -9.664  1.00  0.00    -0.000 C 
BRANCH  11  12
ATOM     12  C   UNL     1     -13.795   2.332  -9.515  1.00  0.00    -0.000 C 
BRANCH  12  13
ATOM     13  C   UNL     1     -12.642   3.303  -9.214  1.00  0.00    -0.003 C 
ATOM     14  C   UNL     1     -12.969   4.278  -8.082  1.00  0.00     0.004 C 
ENDBRANCH  12  13
ENDBRANCH  11  12
ENDBRANCH  10  11
ENDBRANCH   9  10
ENDBRANCH   1   9
TORSDOF 10
ENDMDL
MODEL 3
REMARK VINA RESULT:    -5.179      3.382      6.371
REMARK INTER + INTRA:          -8.929
REMARK INTER:                  -8.350
REMARK INTRA:                  -0.579
REMARK UNBOUND:                -0.722
REMARK SMILES CCCCCCCCCCCC(=O)[O-]
REMARK SMILES IDX 7 1 8 2 9 3 10 4 11 5 12 6 13 7 14 8 6 9 5 10 4 11 3 12 2 13
REMARK SMILES IDX 1 14
REMARK H PARENT
REMARK Flexibility Score: inf
ROOT
ATOM      1  C   UNL     1     -12.733  -0.837 -10.785  1.00  0.00     0.000 C 
ENDROOT
BRANCH   1   2
ATOM      2  C   UNL     1     -13.775  -0.258  -9.816  1.00  0.00     0.000 C 
BRANCH   2   3
ATOM      3  C   UNL     1     -14.260   1.139 -10.233  1.00  0.00     0.000 C 
BRANCH   3   4
ATOM      4  C   UNL     1     -13.864   2.229  -9.220  1.00  0.00     0.006 C 
BRANCH   4   5
ATOM      5  C   UNL     1     -12.453   2.773  -9.476  1.00  0.00     0.053 C 
BRANCH   5   6
ATOM      6  C   UNL     1     -12.083   3.842  -8.495  1.00  0.00     0.041 C 
ATOM      7  O   UNL     1     -10.890   3.965  -8.110  1.00  0.00    -0.550 OA
ATOM      8  O   UNL     1     -13.063   4.681  -7.978  1.00  0.00    -0.550 OA
ENDBRANCH   5   6
ENDBRANCH   4   5
ENDBRANCH   3   4
ENDBRANCH   2   3
ENDBRANCH   1   2
BRANCH   1   9
ATOM      9  C   UNL     1     -11.323  -0.350 -10.431  1.00  0.00     0.000 C 
BRANCH   9  10
ATOM     10  C   UNL     1     -10.642  -1.311  -9.444  1.00  0.00    -0.000 C 
BRANCH  10  11
ATOM     11  C   UNL     1     -10.804  -2.787  -9.844  1.00  0.00    -0.000 C 
BRANCH  11  12
ATOM     12  C   UNL     1     -10.691  -3.739  -8.641  1.00  0.00    -0.000 C 
BRANCH  12  13
ATOM     13  C   UNL     1      -9.642  -3.275  -7.619  1.00  0.00    -0.003 C 
ATOM     14  C   UNL     1      -8.209  -3.561  -8.068  1.00  0.00     0.004 C 
ENDBRANCH  12  13
ENDBRANCH  11  12
ENDBRANCH  10  11
ENDBRANCH   9  10
ENDBRANCH   1   9
TORSDOF 10
ENDMDL
MODEL 4
REMARK VINA RESULT:    -5.050      1.598      2.669
REMARK INTER + INTRA:          -8.724
REMARK INTER:                  -8.173
REMARK INTRA:                  -0.551
REMARK UNBOUND:                -0.722
REMARK SMILES CCCCCCCCCCCC(=O)[O-]
REMARK SMILES IDX 7 1 8 2 9 3 10 4 11 5 12 6 13 7 14 8 6 9 5 10 4 11 3 12 2 13
REMARK SMILES IDX 1 14
REMARK H PARENT
REMARK Flexibility Score: inf
ROOT
ATOM      1  C   UNL     1     -10.590  -0.755  -9.245  1.00  0.00     0.000 C 
ENDROOT
BRANCH   1   2
ATOM      2  C   UNL     1     -10.184  -2.225  -9.428  1.00  0.00     0.000 C 
BRANCH   2   3
ATOM      3  C   UNL     1      -9.850  -2.917  -8.097  1.00  0.00     0.000 C 
BRANCH   3   4
ATOM      4  C   UNL     1      -9.857  -4.452  -8.210  1.00  0.00     0.006 C 
BRANCH   4   5
ATOM      5  C   UNL     1     -10.227  -5.129  -6.884  1.00  0.00     0.053 C 
BRANCH   5   6
ATOM      6  C   UNL     1     -10.061  -6.616  -6.954  1.00  0.00     0.041 C 
ATOM      7  O   UNL     1      -9.845  -7.280  -5.906  1.00  0.00    -0.550 OA
ATOM      8  O   UNL     1     -10.109  -7.264  -8.183  1.00  0.00    -0.550 OA
ENDBRANCH   5   6
ENDBRANCH   4   5
ENDBRANCH   3   4
ENDBRANCH   2   3
ENDBRANCH   1   2
BRANCH   1   9
ATOM      9  C   UNL     1     -11.425  -0.264 -10.433  1.00  0.00     0.000 C 
BRANCH   9  10
ATOM     10  C   UNL     1     -12.698  -1.109 -10.596  1.00  0.00    -0.000 C 
BRANCH  10  11
ATOM     11  C   UNL     1     -13.969  -0.252 -10.720  1.00  0.00    -0.000 C 
BRANCH  11  12
ATOM     12  C   UNL     1     -14.283   0.526  -9.430  1.00  0.00    -0.000 C 
BRANCH  12  13
ATOM     13  C   UNL     1     -14.329   2.046  -9.656  1.00  0.00    -0.003 C 
ATOM     14  C   UNL     1     -12.998   2.732  -9.346  1.00  0.00     0.004 C 
ENDBRANCH  12  13
ENDBRANCH  11  12
ENDBRANCH  10  11
ENDBRANCH   9  10
ENDBRANCH   1   9
TORSDOF 10
ENDMDL
MODEL 5
REMARK VINA RESULT:    -5.005      3.238      6.607
REMARK INTER + INTRA:          -8.654
REMARK INTER:                  -8.011
REMARK INTRA:                  -0.642
REMARK UNBOUND:                -0.722
REMARK SMILES CCCCCCCCCCCC(=O)[O-]
REMARK SMILES IDX 7 1 8 2 9 3 10 4 11 5 12 6 13 7 14 8 6 9 5 10 4 11 3 12 2 13
REMARK SMILES IDX 1 14
REMARK H PARENT
REMARK Flexibility Score: inf
ROOT
ATOM      1  C   UNL     1     -11.467  -0.279 -10.400  1.00  0.00     0.000 C 
ENDROOT
BRANCH   1   2
ATOM      2  C   UNL     1     -12.780  -0.974 -10.793  1.00  0.00     0.000 C 
BRANCH   2   3
ATOM      3  C   UNL     1     -14.000  -0.050 -10.665  1.00  0.00     0.000 C 
BRANCH   3   4
ATOM      4  C   UNL     1     -13.995   0.760  -9.356  1.00  0.00     0.006 C 
BRANCH   4   5
ATOM      5  C   UNL     1     -14.254   2.253  -9.598  1.00  0.00     0.053 C 
BRANCH   5   6
ATOM      6  C   UNL     1     -13.243   3.111  -8.901  1.00  0.00     0.041 C 
ATOM      7  O   UNL     1     -13.617   4.079  -8.189  1.00  0.00    -0.550 OA
ATOM      8  O   UNL     1     -11.886   2.863  -9.069  1.00  0.00    -0.550 OA
ENDBRANCH   5   6
ENDBRANCH   4   5
ENDBRANCH   3   4
ENDBRANCH   2   3
ENDBRANCH   1   2
BRANCH   1   9
ATOM      9  C   UNL     1     -10.567  -1.221  -9.591  1.00  0.00     0.000 C 
BRANCH   9  10
ATOM     10  C   UNL     1     -11.077  -2.668  -9.669  1.00  0.00    -0.000 C 
BRANCH  10  11
ATOM     11  C   UNL     1     -10.102  -3.676  -9.037  1.00  0.00    -0.000 C 
BRANCH  11  12
ATOM     12  C   UNL     1      -9.792  -3.353  -7.565  1.00  0.00    -0.000 C 
BRANCH  12  13
ATOM     13  C   UNL     1     -10.142  -4.515  -6.621  1.00  0.00    -0.003 C 
ATOM     14  C   UNL     1      -9.949  -5.886  -7.272  1.00  0.00     0.004 C 
ENDBRANCH  12  13
ENDBRANCH  11  12
ENDBRANCH  10  11
ENDBRANCH   9  10
ENDBRANCH   1   9
TORSDOF 10
ENDMDL
MODEL 6
REMARK VINA RESULT:    -4.909      2.222      4.259
REMARK INTER + INTRA:          -8.502
REMARK INTER:                  -7.978
REMARK INTRA:                  -0.523
REMARK UNBOUND:                -0.722
REMARK SMILES CCCCCCCCCCCC(=O)[O-]
REMARK SMILES IDX 7 1 8 2 9 3 10 4 11 5 12 6 13 7 14 8 6 9 5 10 4 11 3 12 2 13
REMARK SMILES IDX 1 14
REMARK H PARENT
REMARK Flexibility Score: inf
ROOT
ATOM      1  C   UNL     1      -9.765  -2.558  -7.962  1.00  0.00     0.000 C 
ENDROOT
BRANCH   1   2
ATOM      2  C   UNL     1      -8.767  -3.719  -8.096  1.00  0.00     0.000 C 
BRANCH   2   3
ATOM      3  C   UNL     1      -9.446  -5.095  -8.021  1.00  0.00     0.000 C 
BRANCH   3   4
ATOM      4  C   UNL     1     -10.766  -5.062  -7.229  1.00  0.00     0.006 C 
BRANCH   4   5
ATOM      5  C   UNL     1     -10.585  -5.540  -5.783  1.00  0.00     0.053 C 
BRANCH   5   6
ATOM      6  C   UNL     1     -10.965  -6.980  -5.622  1.00  0.00     0.041 C 
ATOM      7  O   UNL     1     -10.101  -7.884  -5.777  1.00  0.00    -0.550 OA
ATOM      8  O   UNL     1     -12.280  -7.325  -5.335  1.00  0.00    -0.550 OA
ENDBRANCH   5   6
ENDBRANCH   4   5
ENDBRANCH   3   4
ENDBRANCH   2   3
ENDBRANCH   1   2
BRANCH   1   9
ATOM      9  C   UNL     1     -10.254  -2.093  -9.339  1.00  0.00     0.000 C 
BRANCH   9  10
ATOM     10  C   UNL     1     -10.594  -0.594  -9.324  1.00  0.00    -0.000 C 
BRANCH  10  11
ATOM     11  C   UNL     1     -11.577  -0.196 -10.438  1.00  0.00    -0.000 C 
BRANCH  11  12
ATOM     12  C   UNL     1     -12.842  -1.071 -10.448  1.00  0.00    -0.000 C 
BRANCH  12  13
ATOM     13  C   UNL     1     -14.130  -0.243 -10.307  1.00  0.00    -0.003 C 
ATOM     14  C   UNL     1     -13.882   1.143  -9.712  1.00  0.00     0.004 C 
ENDBRANCH  12  13
ENDBRANCH  11  12
ENDBRANCH  10  11
ENDBRANCH   9  10
ENDBRANCH   1   9
TORSDOF 10
ENDMDL
MODEL 7
REMARK VINA RESULT:    -4.738      3.317      7.098
REMARK INTER + INTRA:          -8.231
REMARK INTER:                  -7.609
REMARK INTRA:                  -0.622
REMARK UNBOUND:                -0.722
REMARK SMILES CCCCCCCCCCCC(=O)[O-]
REMARK SMILES IDX 7 1 8 2 9 3 10 4 11 5 12 6 13 7 14 8 6 9 5 10 4 11 3 12 2 13
REMARK SMILES IDX 1 14
REMARK H PARENT
REMARK Flexibility Score: inf
ROOT
ATOM      1  C   UNL     1     -10.247  -2.067  -8.854  1.00  0.00     0.000 C 
ENDROOT
BRANCH   1   2
ATOM      2  C   UNL     1     -11.073  -3.035  -9.716  1.00  0.00     0.000 C 
BRANCH   2   3
ATOM      3  C   UNL     1     -12.380  -2.408 -10.222  1.00  0.00     0.000 C 
BRANCH   3   4
ATOM      4  C   UNL     1     -12.272  -0.885 -10.413  1.00  0.00     0.006 C 
BRANCH   4   5
ATOM      5  C   UNL     1     -13.594  -0.167 -10.110  1.00  0.00     0.053 C 
BRANCH   5   6
ATOM      6  C   UNL     1     -13.374   1.265  -9.730  1.00  0.00     0.041 C 
ATOM      7  O   UNL     1     -12.217   1.675  -9.450  1.00  0.00    -0.550 OA
ATOM      8  O   UNL     1     -14.453   2.137  -9.650  1.00  0.00    -0.550 OA
ENDBRANCH   5   6
ENDBRANCH   4   5
ENDBRANCH   3   4
ENDBRANCH   2   3
ENDBRANCH   1   2
BRANCH   1   9
ATOM      9  C   UNL     1      -9.432  -2.827  -7.800  1.00  0.00     0.000 C 
BRANCH   9  10
ATOM     10  C   UNL     1      -9.016  -4.212  -8.321  1.00  0.00    -0.000 C 
BRANCH  10  11
ATOM     11  C   UNL     1      -9.560  -5.360  -7.455  1.00  0.00    -0.000 C 
BRANCH  11  12
ATOM     12  C   UNL     1     -10.415  -4.858  -6.279  1.00  0.00    -0.000 C 
BRANCH  12  13
ATOM     13  C   UNL     1     -11.149  -5.999  -5.556  1.00  0.00    -0.003 C 
ATOM     14  C   UNL     1     -10.599  -7.380  -5.916  1.00  0.00     0.004 C 
ENDBRANCH  12  13
ENDBRANCH  11  12
ENDBRANCH  10  11
ENDBRANCH   9  10
ENDBRANCH   1   9
TORSDOF 10
ENDMDL
MODEL 8
REMARK VINA RESULT:    -4.687     15.783     18.032
REMARK INTER + INTRA:          -8.149
REMARK INTER:                  -7.280
REMARK INTRA:                  -0.869
REMARK UNBOUND:                -0.722
REMARK SMILES CCCCCCCCCCCC(=O)[O-]
REMARK SMILES IDX 7 1 8 2 9 3 10 4 11 5 12 6 13 7 14 8 6 9 5 10 4 11 3 12 2 13
REMARK SMILES IDX 1 14
REMARK H PARENT
REMARK Flexibility Score: inf
ROOT
ATOM      1  C   UNL     1      -9.805   6.263   7.995  1.00  0.00     0.000 C 
ENDROOT
BRANCH   1   2
ATOM      2  C   UNL     1      -9.142   6.340   6.612  1.00  0.00     0.000 C 
BRANCH   2   3
ATOM      3  C   UNL     1      -9.587   7.571   5.809  1.00  0.00     0.000 C 
BRANCH   3   4
ATOM      4  C   UNL     1      -8.399   8.377   5.253  1.00  0.00     0.006 C 
BRANCH   4   5
ATOM      5  C   UNL     1      -7.614   9.092   6.360  1.00  0.00     0.053 C 
BRANCH   5   6
ATOM      6  C   UNL     1      -6.635  10.077   5.799  1.00  0.00     0.041 C 
ATOM      7  O   UNL     1      -6.935  10.762   4.786  1.00  0.00    -0.550 OA
ATOM      8  O   UNL     1      -5.377  10.212   6.375  1.00  0.00    -0.550 OA
ENDBRANCH   5   6
ENDBRANCH   4   5
ENDBRANCH   3   4
ENDBRANCH   2   3
ENDBRANCH   1   2
BRANCH   1   9
ATOM      9  C   UNL     1     -10.268   4.834   8.305  1.00  0.00     0.000 C 
BRANCH   9  10
ATOM     10  C   UNL     1     -10.957   4.204   7.085  1.00  0.00    -0.000 C 
BRANCH  10  11
ATOM     11  C   UNL     1     -12.469   4.480   7.047  1.00  0.00    -0.000 C 
BRANCH  11  12
ATOM     12  C   UNL     1     -12.834   5.635   6.099  1.00  0.00    -0.000 C 
BRANCH  12  13
ATOM     13  C   UNL     1     -12.414   5.359   4.647  1.00  0.00    -0.003 C 
ATOM     14  C   UNL     1     -13.509   5.704   3.637  1.00  0.00     0.004 C 
ENDBRANCH  12  13
ENDBRANCH  11  12
ENDBRANCH  10  11
ENDBRANCH   9  10
ENDBRANCH   1   9
TORSDOF 10
ENDMDL
MODEL 9
REMARK VINA RESULT:    -4.659     16.326     18.021
REMARK INTER + INTRA:          -8.104
REMARK INTER:                  -7.479
REMARK INTRA:                  -0.625
REMARK UNBOUND:                -0.722
REMARK SMILES CCCCCCCCCCCC(=O)[O-]
REMARK SMILES IDX 7 1 8 2 9 3 10 4 11 5 12 6 13 7 14 8 6 9 5 10 4 11 3 12 2 13
REMARK SMILES IDX 1 14
REMARK H PARENT
REMARK Flexibility Score: inf
ROOT
ATOM      1  C   UNL     1      -8.931   6.201   6.673  1.00  0.00     0.000 C 
ENDROOT
BRANCH   1   2
ATOM      2  C   UNL     1      -9.647   6.463   8.007  1.00  0.00     0.000 C 
BRANCH   2   3
ATOM      3  C   UNL     1     -10.213   5.182   8.637  1.00  0.00     0.000 C 
BRANCH   3   4
ATOM      4  C   UNL     1     -10.617   4.133   7.586  1.00  0.00     0.006 C 
BRANCH   4   5
ATOM      5  C   UNL     1     -12.107   4.214   7.229  1.00  0.00     0.053 C 
BRANCH   5   6
ATOM      6  C   UNL     1     -12.332   4.973   5.957  1.00  0.00     0.041 C 
ATOM      7  O   UNL     1     -13.325   5.739   5.844  1.00  0.00    -0.550 OA
ATOM      8  O   UNL     1     -11.465   4.805   4.884  1.00  0.00    -0.550 OA
ENDBRANCH   5   6
ENDBRANCH   4   5
ENDBRANCH   3   4
ENDBRANCH   2   3
ENDBRANCH   1   2
BRANCH   1   9
ATOM      9  C   UNL     1      -9.135   7.369   5.700  1.00  0.00     0.000 C 
BRANCH   9  10
ATOM     10  C   UNL     1      -8.312   8.593   6.131  1.00  0.00    -0.000 C 
BRANCH  10  11
ATOM     11  C   UNL     1      -7.941   9.505   4.949  1.00  0.00    -0.000 C 
BRANCH  11  12
ATOM     12  C   UNL     1      -6.865  10.540   5.319  1.00  0.00    -0.000 C 
BRANCH  12  13
ATOM     13  C   UNL     1      -5.927  10.042   6.430  1.00  0.00    -0.003 C 
ATOM     14  C   UNL     1      -4.548  10.702   6.383  1.00  0.00     0.004 C 
ENDBRANCH  12  13
ENDBRANCH  11  12
ENDBRANCH  10  11
ENDBRANCH   9  10
ENDBRANCH   1   9
TORSDOF 10
ENDMDL
