MODEL 1
REMARK VINA RESULT:    -7.716      0.000      0.000
REMARK INTER + INTRA:          -9.877
REMARK INTER:                  -9.521
REMARK INTRA:                  -0.357
REMARK UNBOUND:                -0.357
REMARK SMILES O=c1c(O)c(-c2cc(O)c(O)c(O)c2)oc2cc(O)cc(O)c12
REMARK SMILES IDX 5 1 3 2 2 3 1 4 23 5 21 6 20 7 18 8 17 9 16 10 15 11 6 12
REMARK SMILES IDX 7 13 8 14 14 15 10 16 12 17 9 18 11 20 13 22 4 24 22 26
REMARK SMILES IDX 19 28
REMARK H PARENT 9 19 11 21 13 23 4 25 22 27 19 29
REMARK Flexibility Score: inf
ROOT
ATOM      1  C   UNL     1      18.251  33.562  30.346  1.00  0.00     0.180 A 
ATOM      2  C   UNL     1      18.290  32.308  29.714  1.00  0.00     0.208 A 
ATOM      3  C   UNL     1      18.282  32.252  28.311  1.00  0.00     0.238 A 
ATOM      4  O   UNL     1      18.391  31.131  27.751  1.00  0.00    -0.285 OA
ATOM      5  C   UNL     1      18.177  33.448  27.558  1.00  0.00     0.111 A 
ATOM      6  C   UNL     1      18.114  33.507  26.133  1.00  0.00     0.134 A 
ATOM      7  C   UNL     1      18.120  34.753  25.493  1.00  0.00     0.093 A 
ATOM      8  C   UNL     1      18.121  35.939  26.225  1.00  0.00     0.123 A 
ATOM      9  C   UNL     1      18.128  35.892  27.620  1.00  0.00     0.094 A 
ATOM     10  C   UNL     1      18.161  34.666  28.287  1.00  0.00     0.146 A 
ATOM     11  O   UNL     1      18.188  34.667  29.614  1.00  0.00    -0.452 OA
ENDROOT
BRANCH   1  12
ATOM     12  C   UNL     1      18.273  33.702  31.821  1.00  0.00     0.029 A 
ATOM     13  C   UNL     1      17.087  33.727  32.572  1.00  0.00     0.062 A 
ATOM     14  C   UNL     1      17.129  33.836  33.968  1.00  0.00     0.162 A 
ATOM     15  C   UNL     1      19.506  33.754  32.489  1.00  0.00     0.062 A 
ATOM     16  C   UNL     1      18.368  33.911  34.628  1.00  0.00     0.200 A 
ATOM     17  C   UNL     1      19.559  33.866  33.883  1.00  0.00     0.162 A 
BRANCH  14  18
ATOM     18  O   UNL     1      15.945  33.866  34.703  1.00  0.00    -0.504 OA
ATOM     19  H   UNL     1      15.167  34.457  34.434  1.00  0.00     0.293 HD
ENDBRANCH  14  18
BRANCH  16  20
ATOM     20  O   UNL     1      18.429  34.026  36.017  1.00  0.00    -0.502 OA
ATOM     21  H   UNL     1      17.950  34.764  36.520  1.00  0.00     0.293 HD
ENDBRANCH  16  20
BRANCH  17  22
ATOM     22  O   UNL     1      20.804  33.929  34.508  1.00  0.00    -0.504 OA
ATOM     23  H   UNL     1      21.667  33.750  34.008  1.00  0.00     0.293 HD
ENDBRANCH  17  22
ENDBRANCH   1  12
BRANCH   2  24
ATOM     24  O   UNL     1      18.315  31.136  30.475  1.00  0.00    -0.502 OA
ATOM     25  H   UNL     1      17.471  30.661  30.771  1.00  0.00     0.293 HD
ENDBRANCH   2  24
BRANCH   6  26
ATOM     26  O   UNL     1      18.020  32.384  25.306  1.00  0.00    -0.507 OA
ATOM     27  H   UNL     1      17.553  31.525  25.549  1.00  0.00     0.293 HD
ENDBRANCH   6  26
BRANCH   8  28
ATOM     28  O   UNL     1      18.109  37.160  25.555  1.00  0.00    -0.508 OA
ATOM     29  H   UNL     1      18.949  37.718  25.453  1.00  0.00     0.293 HD
ENDBRANCH   8  28
TORSDOF 7
ENDMDL
MODEL 2
REMARK VINA RESULT:    -7.618      2.033      6.641
REMARK INTER + INTRA:          -9.756
REMARK INTER:                  -9.528
REMARK INTRA:                  -0.228
REMARK UNBOUND:                -0.357
REMARK SMILES O=c1c(O)c(-c2cc(O)c(O)c(O)c2)oc2cc(O)cc(O)c12
REMARK SMILES IDX 5 1 3 2 2 3 1 4 23 5 21 6 20 7 18 8 17 9 16 10 15 11 6 12
REMARK SMILES IDX 7 13 8 14 14 15 10 16 12 17 9 18 11 20 13 22 4 24 22 26
REMARK SMILES IDX 19 28
REMARK H PARENT 9 19 11 21 13 23 4 25 22 27 19 29
REMARK Flexibility Score: inf
ROOT
ATOM      1  C   UNL     1      18.053  33.031  30.635  1.00  0.00     0.180 A 
ATOM      2  C   UNL     1      17.109  32.398  31.461  1.00  0.00     0.208 A 
ATOM      3  C   UNL     1      16.774  32.989  32.690  1.00  0.00     0.238 A 
ATOM      4  O   UNL     1      15.875  32.456  33.391  1.00  0.00    -0.285 OA
ATOM      5  C   UNL     1      17.429  34.175  33.104  1.00  0.00     0.111 A 
ATOM      6  C   UNL     1      17.201  34.836  34.349  1.00  0.00     0.134 A 
ATOM      7  C   UNL     1      17.829  36.062  34.604  1.00  0.00     0.093 A 
ATOM      8  C   UNL     1      18.722  36.618  33.690  1.00  0.00     0.123 A 
ATOM      9  C   UNL     1      18.993  35.954  32.494  1.00  0.00     0.094 A 
ATOM     10  C   UNL     1      18.354  34.749  32.193  1.00  0.00     0.146 A 
ATOM     11  O   UNL     1      18.625  34.161  31.035  1.00  0.00    -0.452 OA
ENDROOT
BRANCH   1  12
ATOM     12  C   UNL     1      18.445  32.477  29.319  1.00  0.00     0.029 A 
ATOM     13  C   UNL     1      18.124  33.138  28.121  1.00  0.00     0.062 A 
ATOM     14  C   UNL     1      18.525  32.610  26.886  1.00  0.00     0.162 A 
ATOM     15  C   UNL     1      19.202  31.298  29.266  1.00  0.00     0.062 A 
ATOM     16  C   UNL     1      19.264  31.415  26.842  1.00  0.00     0.200 A 
ATOM     17  C   UNL     1      19.605  30.761  28.038  1.00  0.00     0.162 A 
BRANCH  14  18
ATOM     18  O   UNL     1      18.196  33.271  25.704  1.00  0.00    -0.504 OA
ATOM     19  H   UNL     1      17.273  33.660  25.552  1.00  0.00     0.293 HD
ENDBRANCH  14  18
BRANCH  16  20
ATOM     20  O   UNL     1      19.666  30.872  25.621  1.00  0.00    -0.502 OA
ATOM     21  H   UNL     1      19.811  29.877  25.494  1.00  0.00     0.293 HD
ENDBRANCH  16  20
BRANCH  17  22
ATOM     22  O   UNL     1      20.344  29.579  28.028  1.00  0.00    -0.504 OA
ATOM     23  H   UNL     1      20.782  29.211  28.864  1.00  0.00     0.293 HD
ENDBRANCH  17  22
ENDBRANCH   1  12
BRANCH   2  24
ATOM     24  O   UNL     1      16.531  31.187  31.070  1.00  0.00    -0.502 OA
ATOM     25  H   UNL     1      16.301  30.981  30.106  1.00  0.00     0.293 HD
ENDBRANCH   2  24
BRANCH   6  26
ATOM     26  O   UNL     1      16.396  34.325  35.371  1.00  0.00    -0.507 OA
ATOM     27  H   UNL     1      15.881  33.460  35.323  1.00  0.00     0.293 HD
ENDBRANCH   6  26
BRANCH   8  28
ATOM     28  O   UNL     1      19.341  37.831  33.985  1.00  0.00    -0.508 OA
ATOM     29  H   UNL     1      19.961  37.931  34.781  1.00  0.00     0.293 HD
ENDBRANCH   8  28
TORSDOF 7
ENDMDL
MODEL 3
REMARK VINA RESULT:    -7.561      0.933      1.971
REMARK INTER + INTRA:          -9.686
REMARK INTER:                  -9.368
REMARK INTRA:                  -0.318
REMARK UNBOUND:                -0.357
REMARK SMILES O=c1c(O)c(-c2cc(O)c(O)c(O)c2)oc2cc(O)cc(O)c12
REMARK SMILES IDX 5 1 3 2 2 3 1 4 23 5 21 6 20 7 18 8 17 9 16 10 15 11 6 12
REMARK SMILES IDX 7 13 8 14 14 15 10 16 12 17 9 18 11 20 13 22 4 24 22 26
REMARK SMILES IDX 19 28
REMARK H PARENT 9 19 11 21 13 23 4 25 22 27 19 29
REMARK Flexibility Score: inf
ROOT
ATOM      1  C   UNL     1      17.623  33.410  30.431  1.00  0.00     0.180 A 
ATOM      2  C   UNL     1      17.077  32.253  29.850  1.00  0.00     0.208 A 
ATOM      3  C   UNL     1      16.826  32.239  28.469  1.00  0.00     0.238 A 
ATOM      4  O   UNL     1      16.407  31.176  27.942  1.00  0.00    -0.285 OA
ATOM      5  C   UNL     1      17.069  33.401  27.695  1.00  0.00     0.111 A 
ATOM      6  C   UNL     1      16.808  33.515  26.296  1.00  0.00     0.134 A 
ATOM      7  C   UNL     1      17.189  34.679  25.616  1.00  0.00     0.093 A 
ATOM      8  C   UNL     1      17.761  35.754  26.292  1.00  0.00     0.123 A 
ATOM      9  C   UNL     1      17.970  35.675  27.669  1.00  0.00     0.094 A 
ATOM     10  C   UNL     1      17.637  34.513  28.370  1.00  0.00     0.146 A 
ATOM     11  O   UNL     1      17.872  34.472  29.675  1.00  0.00    -0.452 OA
ENDROOT
BRANCH   1  12
ATOM     12  C   UNL     1      17.931  33.495  31.878  1.00  0.00     0.029 A 
ATOM     13  C   UNL     1      19.249  33.392  32.354  1.00  0.00     0.062 A 
ATOM     14  C   UNL     1      19.522  33.498  33.724  1.00  0.00     0.162 A 
ATOM     15  C   UNL     1      16.893  33.740  32.790  1.00  0.00     0.062 A 
ATOM     16  C   UNL     1      18.473  33.721  34.632  1.00  0.00     0.200 A 
ATOM     17  C   UNL     1      17.155  33.845  34.160  1.00  0.00     0.162 A 
BRANCH  14  18
ATOM     18  O   UNL     1      20.833  33.388  34.185  1.00  0.00    -0.504 OA
ATOM     19  H   UNL     1      21.139  33.854  35.031  1.00  0.00     0.293 HD
ENDBRANCH  14  18
BRANCH  16  20
ATOM     20  O   UNL     1      18.726  33.823  36.001  1.00  0.00    -0.502 OA
ATOM     21  H   UNL     1      19.612  34.156  36.363  1.00  0.00     0.293 HD
ENDBRANCH  16  20
BRANCH  17  22
ATOM     22  O   UNL     1      16.094  34.075  35.034  1.00  0.00    -0.504 OA
ATOM     23  H   UNL     1      15.294  33.456  35.084  1.00  0.00     0.293 HD
ENDBRANCH  17  22
ENDBRANCH   1  12
BRANCH   2  24
ATOM     24  O   UNL     1      16.772  31.143  30.642  1.00  0.00    -0.502 OA
ATOM     25  H   UNL     1      16.808  31.171  31.654  1.00  0.00     0.293 HD
ENDBRANCH   2  24
BRANCH   6  26
ATOM     26  O   UNL     1      16.161  32.535  25.538  1.00  0.00    -0.507 OA
ATOM     27  H   UNL     1      15.931  32.619  24.560  1.00  0.00     0.293 HD
ENDBRANCH   6  26
BRANCH   8  28
ATOM     28  O   UNL     1      18.111  36.903  25.586  1.00  0.00    -0.508 OA
ATOM     29  H   UNL     1      18.558  37.691  26.041  1.00  0.00     0.293 HD
ENDBRANCH   8  28
TORSDOF 7
ENDMDL
MODEL 4
REMARK VINA RESULT:    -7.323     12.913     14.954
REMARK INTER + INTRA:          -9.392
REMARK INTER:                  -9.091
REMARK INTRA:                  -0.301
REMARK UNBOUND:                -0.357
REMARK SMILES O=c1c(O)c(-c2cc(O)c(O)c(O)c2)oc2cc(O)cc(O)c12
REMARK SMILES IDX 5 1 3 2 2 3 1 4 23 5 21 6 20 7 18 8 17 9 16 10 15 11 6 12
REMARK SMILES IDX 7 13 8 14 14 15 10 16 12 17 9 18 11 20 13 22 4 24 22 26
REMARK SMILES IDX 19 28
REMARK H PARENT 9 19 11 21 13 23 4 25 22 27 19 29
REMARK Flexibility Score: inf
ROOT
ATOM      1  C   UNL     1      31.062  33.981  37.364  1.00  0.00     0.180 A 
ATOM      2  C   UNL     1      31.975  32.923  37.506  1.00  0.00     0.208 A 
ATOM      3  C   UNL     1      33.038  32.813  36.594  1.00  0.00     0.238 A 
ATOM      4  O   UNL     1      33.893  31.908  36.771  1.00  0.00    -0.285 OA
ATOM      5  C   UNL     1      33.142  33.730  35.519  1.00  0.00     0.111 A 
ATOM      6  C   UNL     1      34.151  33.686  34.509  1.00  0.00     0.134 A 
ATOM      7  C   UNL     1      34.216  34.709  33.555  1.00  0.00     0.093 A 
ATOM      8  C   UNL     1      33.275  35.736  33.533  1.00  0.00     0.123 A 
ATOM      9  C   UNL     1      32.252  35.758  34.481  1.00  0.00     0.094 A 
ATOM     10  C   UNL     1      32.181  34.774  35.470  1.00  0.00     0.146 A 
ATOM     11  O   UNL     1      31.204  34.845  36.365  1.00  0.00    -0.452 OA
ENDROOT
BRANCH   1  12
ATOM     12  C   UNL     1      29.926  34.172  38.295  1.00  0.00     0.029 A 
ATOM     13  C   UNL     1      28.620  33.791  37.945  1.00  0.00     0.062 A 
ATOM     14  C   UNL     1      27.562  33.958  38.848  1.00  0.00     0.162 A 
ATOM     15  C   UNL     1      30.165  34.691  39.576  1.00  0.00     0.062 A 
ATOM     16  C   UNL     1      27.808  34.500  40.122  1.00  0.00     0.200 A 
ATOM     17  C   UNL     1      29.116  34.864  40.485  1.00  0.00     0.162 A 
BRANCH  14  18
ATOM     18  O   UNL     1      26.269  33.582  38.488  1.00  0.00    -0.504 OA
ATOM     19  H   UNL     1      26.059  32.647  38.160  1.00  0.00     0.293 HD
ENDBRANCH  14  18
BRANCH  16  20
ATOM     20  O   UNL     1      26.766  34.679  41.032  1.00  0.00    -0.502 OA
ATOM     21  H   UNL     1      26.747  35.450  41.689  1.00  0.00     0.293 HD
ENDBRANCH  16  20
BRANCH  17  22
ATOM     22  O   UNL     1      29.393  35.396  41.744  1.00  0.00    -0.504 OA
ATOM     23  H   UNL     1      29.772  34.832  42.495  1.00  0.00     0.293 HD
ENDBRANCH  17  22
ENDBRANCH   1  12
BRANCH   2  24
ATOM     24  O   UNL     1      31.812  31.984  38.528  1.00  0.00    -0.502 OA
ATOM     25  H   UNL     1      32.588  31.463  38.917  1.00  0.00     0.293 HD
ENDBRANCH   2  24
BRANCH   6  26
ATOM     26  O   UNL     1      35.090  32.658  34.385  1.00  0.00    -0.507 OA
ATOM     27  H   UNL     1      35.631  32.274  35.144  1.00  0.00     0.293 HD
ENDBRANCH   6  26
BRANCH   8  28
ATOM     28  O   UNL     1      33.360  36.727  32.558  1.00  0.00    -0.508 OA
ATOM     29  H   UNL     1      33.754  37.638  32.761  1.00  0.00     0.293 HD
ENDBRANCH   8  28
TORSDOF 7
ENDMDL
MODEL 5
REMARK VINA RESULT:    -7.300     12.850     15.282
REMARK INTER + INTRA:          -9.364
REMARK INTER:                  -9.052
REMARK INTRA:                  -0.312
REMARK UNBOUND:                -0.357
REMARK SMILES O=c1c(O)c(-c2cc(O)c(O)c(O)c2)oc2cc(O)cc(O)c12
REMARK SMILES IDX 5 1 3 2 2 3 1 4 23 5 21 6 20 7 18 8 17 9 16 10 15 11 6 12
REMARK SMILES IDX 7 13 8 14 14 15 10 16 12 17 9 18 11 20 13 22 4 24 22 26
REMARK SMILES IDX 19 28
REMARK H PARENT 9 19 11 21 13 23 4 25 22 27 19 29
REMARK Flexibility Score: inf
ROOT
ATOM      1  C   UNL     1      30.884  34.219  37.195  1.00  0.00     0.180 A 
ATOM      2  C   UNL     1      31.018  35.170  36.169  1.00  0.00     0.208 A 
ATOM      3  C   UNL     1      32.036  35.005  35.216  1.00  0.00     0.238 A 
ATOM      4  O   UNL     1      32.103  35.817  34.259  1.00  0.00    -0.285 OA
ATOM      5  C   UNL     1      32.944  33.923  35.334  1.00  0.00     0.111 A 
ATOM      6  C   UNL     1      34.041  33.684  34.452  1.00  0.00     0.134 A 
ATOM      7  C   UNL     1      34.808  32.522  34.605  1.00  0.00     0.093 A 
ATOM      8  C   UNL     1      34.560  31.625  35.642  1.00  0.00     0.123 A 
ATOM      9  C   UNL     1      33.524  31.877  36.542  1.00  0.00     0.094 A 
ATOM     10  C   UNL     1      32.716  33.007  36.395  1.00  0.00     0.146 A 
ATOM     11  O   UNL     1      31.729  33.197  37.261  1.00  0.00    -0.452 OA
ENDROOT
BRANCH   1  12
ATOM     12  C   UNL     1      29.825  34.317  38.227  1.00  0.00     0.029 A 
ATOM     13  C   UNL     1      30.096  34.822  39.509  1.00  0.00     0.062 A 
ATOM     14  C   UNL     1      29.076  34.929  40.463  1.00  0.00     0.162 A 
ATOM     15  C   UNL     1      28.511  33.951  37.901  1.00  0.00     0.062 A 
ATOM     16  C   UNL     1      27.766  34.537  40.135  1.00  0.00     0.200 A 
ATOM     17  C   UNL     1      27.486  34.050  38.847  1.00  0.00     0.162 A 
BRANCH  14  18
ATOM     18  O   UNL     1      29.357  35.426  41.735  1.00  0.00    -0.504 OA
ATOM     19  H   UNL     1      28.738  35.260  42.519  1.00  0.00     0.293 HD
ENDBRANCH  14  18
BRANCH  16  20
ATOM     20  O   UNL     1      26.739  34.631  41.075  1.00  0.00    -0.502 OA
ATOM     21  H   UNL     1      26.108  33.861  41.265  1.00  0.00     0.293 HD
ENDBRANCH  16  20
BRANCH  17  22
ATOM     22  O   UNL     1      26.195  33.663  38.488  1.00  0.00    -0.504 OA
ATOM     23  H   UNL     1      25.999  32.756  38.081  1.00  0.00     0.293 HD
ENDBRANCH  17  22
ENDBRANCH   1  12
BRANCH   2  24
ATOM     24  O   UNL     1      30.160  36.272  36.114  1.00  0.00    -0.502 OA
ATOM     25  H   UNL     1      30.438  37.158  35.710  1.00  0.00     0.293 HD
ENDBRANCH   2  24
BRANCH   6  26
ATOM     26  O   UNL     1      34.433  34.559  33.435  1.00  0.00    -0.507 OA
ATOM     27  H   UNL     1      35.078  35.325  33.549  1.00  0.00     0.293 HD
ENDBRANCH   6  26
BRANCH   8  28
ATOM     28  O   UNL     1      35.354  30.489  35.773  1.00  0.00    -0.508 OA
ATOM     29  H   UNL     1      35.421  29.800  35.033  1.00  0.00     0.293 HD
ENDBRANCH   8  28
TORSDOF 7
ENDMDL
MODEL 6
REMARK VINA RESULT:    -7.295     12.889     15.034
REMARK INTER + INTRA:          -9.358
REMARK INTER:                  -9.033
REMARK INTRA:                  -0.325
REMARK UNBOUND:                -0.357
REMARK SMILES O=c1c(O)c(-c2cc(O)c(O)c(O)c2)oc2cc(O)cc(O)c12
REMARK SMILES IDX 5 1 3 2 2 3 1 4 23 5 21 6 20 7 18 8 17 9 16 10 15 11 6 12
REMARK SMILES IDX 7 13 8 14 14 15 10 16 12 17 9 18 11 20 13 22 4 24 22 26
REMARK SMILES IDX 19 28
REMARK H PARENT 9 19 11 21 13 23 4 25 22 27 19 29
REMARK Flexibility Score: inf
ROOT
ATOM      1  C   UNL     1      31.111  33.976  37.394  1.00  0.00     0.180 A 
ATOM      2  C   UNL     1      32.036  32.928  37.533  1.00  0.00     0.208 A 
ATOM      3  C   UNL     1      33.090  32.822  36.611  1.00  0.00     0.238 A 
ATOM      4  O   UNL     1      33.956  31.927  36.784  1.00  0.00    -0.285 OA
ATOM      5  C   UNL     1      33.173  33.733  35.528  1.00  0.00     0.111 A 
ATOM      6  C   UNL     1      34.172  33.693  34.508  1.00  0.00     0.134 A 
ATOM      7  C   UNL     1      34.217  34.710  33.547  1.00  0.00     0.093 A 
ATOM      8  C   UNL     1      33.265  35.728  33.529  1.00  0.00     0.123 A 
ATOM      9  C   UNL     1      32.252  35.746  34.488  1.00  0.00     0.094 A 
ATOM     10  C   UNL     1      32.202  34.768  35.484  1.00  0.00     0.146 A 
ATOM     11  O   UNL     1      31.234  34.835  36.389  1.00  0.00    -0.452 OA
ENDROOT
BRANCH   1  12
ATOM     12  C   UNL     1      29.983  34.162  38.336  1.00  0.00     0.029 A 
ATOM     13  C   UNL     1      30.178  34.717  39.612  1.00  0.00     0.062 A 
ATOM     14  C   UNL     1      29.095  34.906  40.480  1.00  0.00     0.162 A 
ATOM     15  C   UNL     1      28.683  33.830  37.928  1.00  0.00     0.062 A 
ATOM     16  C   UNL     1      27.798  34.549  40.070  1.00  0.00     0.200 A 
ATOM     17  C   UNL     1      27.595  34.013  38.788  1.00  0.00     0.162 A 
BRANCH  14  18
ATOM     18  O   UNL     1      29.301  35.452  41.746  1.00  0.00    -0.504 OA
ATOM     19  H   UNL     1      29.990  36.177  41.906  1.00  0.00     0.293 HD
ENDBRANCH  14  18
BRANCH  16  20
ATOM     20  O   UNL     1      26.708  34.725  40.924  1.00  0.00    -0.502 OA
ATOM     21  H   UNL     1      25.938  34.068  40.960  1.00  0.00     0.293 HD
ENDBRANCH  16  20
BRANCH  17  22
ATOM     22  O   UNL     1      26.320  33.657  38.348  1.00  0.00    -0.504 OA
ATOM     23  H   UNL     1      25.543  33.541  38.988  1.00  0.00     0.293 HD
ENDBRANCH  17  22
ENDBRANCH   1  12
BRANCH   2  24
ATOM     24  O   UNL     1      31.893  31.994  38.563  1.00  0.00    -0.502 OA
ATOM     25  H   UNL     1      31.889  32.259  39.540  1.00  0.00     0.293 HD
ENDBRANCH   2  24
BRANCH   6  26
ATOM     26  O   UNL     1      35.119  32.673  34.380  1.00  0.00    -0.507 OA
ATOM     27  H   UNL     1      35.642  32.473  33.542  1.00  0.00     0.293 HD
ENDBRANCH   6  26
BRANCH   8  28
ATOM     28  O   UNL     1      33.331  36.713  32.546  1.00  0.00    -0.508 OA
ATOM     29  H   UNL     1      33.458  36.480  31.568  1.00  0.00     0.293 HD
ENDBRANCH   8  28
TORSDOF 7
ENDMDL
MODEL 7
REMARK VINA RESULT:    -7.241      1.338      2.731
REMARK INTER + INTRA:          -9.291
REMARK INTER:                  -9.165
REMARK INTRA:                  -0.126
REMARK UNBOUND:                -0.357
REMARK SMILES O=c1c(O)c(-c2cc(O)c(O)c(O)c2)oc2cc(O)cc(O)c12
REMARK SMILES IDX 5 1 3 2 2 3 1 4 23 5 21 6 20 7 18 8 17 9 16 10 15 11 6 12
REMARK SMILES IDX 7 13 8 14 14 15 10 16 12 17 9 18 11 20 13 22 4 24 22 26
REMARK SMILES IDX 19 28
REMARK H PARENT 9 19 11 21 13 23 4 25 22 27 19 29
REMARK Flexibility Score: inf
ROOT
ATOM      1  C   UNL     1      17.808  34.113  30.491  1.00  0.00     0.180 A 
ATOM      2  C   UNL     1      17.094  35.155  29.876  1.00  0.00     0.208 A 
ATOM      3  C   UNL     1      16.915  35.128  28.483  1.00  0.00     0.238 A 
ATOM      4  O   UNL     1      16.212  36.023  27.948  1.00  0.00    -0.285 OA
ATOM      5  C   UNL     1      17.501  34.090  27.717  1.00  0.00     0.111 A 
ATOM      6  C   UNL     1      17.423  33.988  26.295  1.00  0.00     0.134 A 
ATOM      7  C   UNL     1      17.951  32.859  25.655  1.00  0.00     0.093 A 
ATOM      8  C   UNL     1      18.609  31.864  26.374  1.00  0.00     0.123 A 
ATOM      9  C   UNL     1      18.739  31.981  27.758  1.00  0.00     0.094 A 
ATOM     10  C   UNL     1      18.189  33.075  28.431  1.00  0.00     0.146 A 
ATOM     11  O   UNL     1      18.318  33.136  29.751  1.00  0.00    -0.452 OA
ENDROOT
BRANCH   1  12
ATOM     12  C   UNL     1      18.024  34.064  31.956  1.00  0.00     0.029 A 
ATOM     13  C   UNL     1      16.947  34.089  32.857  1.00  0.00     0.062 A 
ATOM     14  C   UNL     1      17.170  34.018  34.238  1.00  0.00     0.162 A 
ATOM     15  C   UNL     1      19.328  33.931  32.456  1.00  0.00     0.062 A 
ATOM     16  C   UNL     1      18.482  33.908  34.730  1.00  0.00     0.200 A 
ATOM     17  C   UNL     1      19.562  33.861  33.833  1.00  0.00     0.162 A 
BRANCH  14  18
ATOM     18  O   UNL     1      16.093  34.051  35.123  1.00  0.00    -0.504 OA
ATOM     19  H   UNL     1      16.138  33.603  36.030  1.00  0.00     0.293 HD
ENDBRANCH  14  18
BRANCH  16  20
ATOM     20  O   UNL     1      18.724  33.842  36.103  1.00  0.00    -0.502 OA
ATOM     21  H   UNL     1      19.501  33.321  36.491  1.00  0.00     0.293 HD
ENDBRANCH  16  20
BRANCH  17  22
ATOM     22  O   UNL     1      20.875  33.744  34.290  1.00  0.00    -0.504 OA
ATOM     23  H   UNL     1      21.109  33.793  35.274  1.00  0.00     0.293 HD
ENDBRANCH  17  22
ENDBRANCH   1  12
BRANCH   2  24
ATOM     24  O   UNL     1      16.589  36.210  30.640  1.00  0.00    -0.502 OA
ATOM     25  H   UNL     1      17.175  36.773  31.245  1.00  0.00     0.293 HD
ENDBRANCH   2  24
BRANCH   6  26
ATOM     26  O   UNL     1      16.866  34.968  25.469  1.00  0.00    -0.507 OA
ATOM     27  H   UNL     1      16.515  34.807  24.537  1.00  0.00     0.293 HD
ENDBRANCH   6  26
BRANCH   8  28
ATOM     28  O   UNL     1      19.138  30.764  25.702  1.00  0.00    -0.508 OA
ATOM     29  H   UNL     1      20.101  30.475  25.832  1.00  0.00     0.293 HD
ENDBRANCH   8  28
TORSDOF 7
ENDMDL
MODEL 8
REMARK VINA RESULT:    -7.158      1.967      7.278
REMARK INTER + INTRA:          -9.188
REMARK INTER:                  -8.833
REMARK INTRA:                  -0.355
REMARK UNBOUND:                -0.357
REMARK SMILES O=c1c(O)c(-c2cc(O)c(O)c(O)c2)oc2cc(O)cc(O)c12
REMARK SMILES IDX 5 1 3 2 2 3 1 4 23 5 21 6 20 7 18 8 17 9 16 10 15 11 6 12
REMARK SMILES IDX 7 13 8 14 14 15 10 16 12 17 9 18 11 20 13 22 4 24 22 26
REMARK SMILES IDX 19 28
REMARK H PARENT 9 19 11 21 13 23 4 25 22 27 19 29
REMARK Flexibility Score: inf
ROOT
ATOM      1  C   UNL     1      17.900  35.339  30.380  1.00  0.00     0.180 A 
ATOM      2  C   UNL     1      16.883  35.809  31.229  1.00  0.00     0.208 A 
ATOM      3  C   UNL     1      16.886  35.418  32.577  1.00  0.00     0.238 A 
ATOM      4  O   UNL     1      16.017  35.901  33.347  1.00  0.00    -0.285 OA
ATOM      5  C   UNL     1      17.873  34.516  33.047  1.00  0.00     0.111 A 
ATOM      6  C   UNL     1      17.944  34.016  34.383  1.00  0.00     0.134 A 
ATOM      7  C   UNL     1      19.028  33.212  34.761  1.00  0.00     0.093 A 
ATOM      8  C   UNL     1      20.004  32.838  33.840  1.00  0.00     0.123 A 
ATOM      9  C   UNL     1      19.913  33.276  32.518  1.00  0.00     0.094 A 
ATOM     10  C   UNL     1      18.867  34.110  32.119  1.00  0.00     0.146 A 
ATOM     11  O   UNL     1      18.831  34.521  30.858  1.00  0.00    -0.452 OA
ENDROOT
BRANCH   1  12
ATOM     12  C   UNL     1      17.973  35.720  28.951  1.00  0.00     0.029 A 
ATOM     13  C   UNL     1      17.272  35.005  27.965  1.00  0.00     0.062 A 
ATOM     14  C   UNL     1      17.335  35.397  26.621  1.00  0.00     0.162 A 
ATOM     15  C   UNL     1      18.711  36.854  28.577  1.00  0.00     0.062 A 
ATOM     16  C   UNL     1      18.096  36.520  26.253  1.00  0.00     0.200 A 
ATOM     17  C   UNL     1      18.782  37.251  27.238  1.00  0.00     0.162 A 
BRANCH  14  18
ATOM     18  O   UNL     1      16.641  34.676  25.650  1.00  0.00    -0.504 OA
ATOM     19  H   UNL     1      16.426  33.693  25.771  1.00  0.00     0.293 HD
ENDBRANCH  14  18
BRANCH  16  20
ATOM     20  O   UNL     1      18.174  36.920  24.919  1.00  0.00    -0.502 OA
ATOM     21  H   UNL     1      19.030  36.848  24.382  1.00  0.00     0.293 HD
ENDBRANCH  16  20
BRANCH  17  22
ATOM     22  O   UNL     1      19.537  38.375  26.906  1.00  0.00    -0.504 OA
ATOM     23  H   UNL     1      19.141  39.161  26.406  1.00  0.00     0.293 HD
ENDBRANCH  17  22
ENDBRANCH   1  12
BRANCH   2  24
ATOM     24  O   UNL     1      15.875  36.637  30.727  1.00  0.00    -0.502 OA
ATOM     25  H   UNL     1      16.074  37.505  30.244  1.00  0.00     0.293 HD
ENDBRANCH   2  24
BRANCH   6  26
ATOM     26  O   UNL     1      16.976  34.255  35.362  1.00  0.00    -0.507 OA
ATOM     27  H   UNL     1      16.045  34.597  35.183  1.00  0.00     0.293 HD
ENDBRANCH   6  26
BRANCH   8  28
ATOM     28  O   UNL     1      21.057  32.022  34.247  1.00  0.00    -0.508 OA
ATOM     29  H   UNL     1      21.939  32.005  33.747  1.00  0.00     0.293 HD
ENDBRANCH   8  28
TORSDOF 7
ENDMDL
MODEL 9
REMARK VINA RESULT:    -7.130      2.071      6.839
REMARK INTER + INTRA:          -9.154
REMARK INTER:                  -9.280
REMARK INTRA:                   0.126
REMARK UNBOUND:                -0.357
REMARK SMILES O=c1c(O)c(-c2cc(O)c(O)c(O)c2)oc2cc(O)cc(O)c12
REMARK SMILES IDX 5 1 3 2 2 3 1 4 23 5 21 6 20 7 18 8 17 9 16 10 15 11 6 12
REMARK SMILES IDX 7 13 8 14 14 15 10 16 12 17 9 18 11 20 13 22 4 24 22 26
REMARK SMILES IDX 19 28
REMARK H PARENT 9 19 11 21 13 23 4 25 22 27 19 29
REMARK Flexibility Score: inf
ROOT
ATOM      1  C   UNL     1      18.093  33.969  29.948  1.00  0.00     0.180 A 
ATOM      2  C   UNL     1      17.060  34.905  29.771  1.00  0.00     0.208 A 
ATOM      3  C   UNL     1      16.750  35.784  30.821  1.00  0.00     0.238 A 
ATOM      4  O   UNL     1      15.875  36.667  30.630  1.00  0.00    -0.285 OA
ATOM      5  C   UNL     1      17.439  35.679  32.055  1.00  0.00     0.111 A 
ATOM      6  C   UNL     1      17.176  36.487  33.203  1.00  0.00     0.134 A 
ATOM      7  C   UNL     1      17.994  36.365  34.333  1.00  0.00     0.093 A 
ATOM      8  C   UNL     1      19.020  35.424  34.383  1.00  0.00     0.123 A 
ATOM      9  C   UNL     1      19.250  34.591  33.287  1.00  0.00     0.094 A 
ATOM     10  C   UNL     1      18.477  34.714  32.130  1.00  0.00     0.146 A 
ATOM     11  O   UNL     1      18.744  33.917  31.104  1.00  0.00    -0.452 OA
ENDROOT
BRANCH   1  12
ATOM     12  C   UNL     1      18.488  33.020  28.881  1.00  0.00     0.029 A 
ATOM     13  C   UNL     1      18.496  33.400  27.529  1.00  0.00     0.062 A 
ATOM     14  C   UNL     1      18.896  32.495  26.536  1.00  0.00     0.162 A 
ATOM     15  C   UNL     1      18.918  31.731  29.230  1.00  0.00     0.062 A 
ATOM     16  C   UNL     1      19.303  31.198  26.894  1.00  0.00     0.200 A 
ATOM     17  C   UNL     1      19.316  30.819  28.247  1.00  0.00     0.162 A 
BRANCH  14  18
ATOM     18  O   UNL     1      18.894  32.881  25.196  1.00  0.00    -0.504 OA
ATOM     19  H   UNL     1      19.215  32.260  24.464  1.00  0.00     0.293 HD
ENDBRANCH  14  18
BRANCH  16  20
ATOM     20  O   UNL     1      19.698  30.282  25.918  1.00  0.00    -0.502 OA
ATOM     21  H   UNL     1      19.572  30.458  24.928  1.00  0.00     0.293 HD
ENDBRANCH  16  20
BRANCH  17  22
ATOM     22  O   UNL     1      19.723  29.543  28.635  1.00  0.00    -0.504 OA
ATOM     23  H   UNL     1      20.066  29.348  29.568  1.00  0.00     0.293 HD
ENDBRANCH  17  22
ENDBRANCH   1  12
BRANCH   2  24
ATOM     24  O   UNL     1      16.340  34.941  28.573  1.00  0.00    -0.502 OA
ATOM     25  H   UNL     1      15.737  35.716  28.324  1.00  0.00     0.293 HD
ENDBRANCH   2  24
BRANCH   6  26
ATOM     26  O   UNL     1      16.121  37.399  33.293  1.00  0.00    -0.507 OA
ATOM     27  H   UNL     1      15.893  38.090  32.596  1.00  0.00     0.293 HD
ENDBRANCH   6  26
BRANCH   8  28
ATOM     28  O   UNL     1      19.802  35.319  35.531  1.00  0.00    -0.508 OA
ATOM     29  H   UNL     1      19.642  35.911  36.338  1.00  0.00     0.293 HD
ENDBRANCH   8  28
TORSDOF 7
ENDMDL
