MODEL 1
REMARK VINA RESULT:    -2.243      0.000      0.000
REMARK INTER + INTRA:          -2.907
REMARK INTER:                  -2.768
REMARK INTRA:                  -0.139
REMARK UNBOUND:                -0.139
REMARK SMILES CCCCCC(C)=O
REMARK SMILES IDX 4 1 3 2 2 3 1 4 5 5 6 6 8 7 7 8
REMARK H PARENT
REMARK Flexibility Score: inf
ROOT
ATOM      1  C   UNL     1     110.274 115.733 108.395  1.00  0.00     0.008 C 
ENDROOT
BRANCH   1   2
ATOM      2  C   UNL     1     109.323 116.898 108.705  1.00  0.00     0.000 C 
BRANCH   2   3
ATOM      3  C   UNL     1     108.287 117.073 107.588  1.00  0.00    -0.003 C 
ATOM      4  C   UNL     1     106.954 117.562 108.144  1.00  0.00     0.004 C 
ENDBRANCH   2   3
ENDBRANCH   1   2
BRANCH   1   5
ATOM      5  C   UNL     1     109.555 114.377 108.430  1.00  0.00     0.075 C 
BRANCH   5   6
ATOM      6  C   UNL     1     110.220 113.413 109.380  1.00  0.00     0.129 C 
ATOM      7  O   UNL     1     109.556 112.536 109.911  1.00  0.00    -0.300 OA
ATOM      8  C   UNL     1     111.686 113.502 109.681  1.00  0.00     0.087 C 
ENDBRANCH   5   6
ENDBRANCH   1   5
TORSDOF 4
ENDMDL
MODEL 2
REMARK VINA RESULT:    -2.237      8.830      9.842
REMARK INTER + INTRA:          -2.899
REMARK INTER:                  -2.755
REMARK INTRA:                  -0.144
REMARK UNBOUND:                -0.139
REMARK SMILES CCCCCC(C)=O
REMARK SMILES IDX 4 1 3 2 2 3 1 4 5 5 6 6 8 7 7 8
REMARK H PARENT
REMARK Flexibility Score: inf
ROOT
ATOM      1  C   UNL     1     116.454 110.391 108.339  1.00  0.00     0.008 C 
ENDROOT
BRANCH   1   2
ATOM      2  C   UNL     1     115.195 109.555 108.602  1.00  0.00     0.000 C 
BRANCH   2   3
ATOM      3  C   UNL     1     115.086 108.396 107.603  1.00  0.00    -0.003 C 
ATOM      4  C   UNL     1     114.403 107.187 108.233  1.00  0.00     0.004 C 
ENDBRANCH   2   3
ENDBRANCH   1   2
BRANCH   1   5
ATOM      5  C   UNL     1     117.739 109.565 108.495  1.00  0.00     0.075 C 
BRANCH   5   6
ATOM      6  C   UNL     1     118.742 110.250 109.387  1.00  0.00     0.129 C 
ATOM      7  O   UNL     1     119.678 109.610 109.843  1.00  0.00    -0.300 OA
ATOM      8  C   UNL     1     118.622 111.707 109.721  1.00  0.00     0.087 C 
ENDBRANCH   5   6
ENDBRANCH   1   5
TORSDOF 4
ENDMDL
MODEL 3
REMARK VINA RESULT:    -2.210      8.688      9.675
REMARK INTER + INTRA:          -2.866
REMARK INTER:                  -2.712
REMARK INTRA:                  -0.154
REMARK UNBOUND:                -0.139
REMARK SMILES CCCCCC(C)=O
REMARK SMILES IDX 4 1 3 2 2 3 1 4 5 5 6 6 8 7 7 8
REMARK H PARENT
REMARK Flexibility Score: inf
ROOT
ATOM      1  C   UNL     1     115.340 121.650 108.179  1.00  0.00     0.008 C 
ENDROOT
BRANCH   1   2
ATOM      2  C   UNL     1     116.681 122.278 108.580  1.00  0.00     0.000 C 
BRANCH   2   3
ATOM      3  C   UNL     1     117.095 123.371 107.587  1.00  0.00    -0.003 C 
ATOM      4  C   UNL     1     117.534 124.639 108.312  1.00  0.00     0.004 C 
ENDBRANCH   2   3
ENDBRANCH   1   2
BRANCH   1   5
ATOM      5  C   UNL     1     114.154 122.571 108.495  1.00  0.00     0.075 C 
BRANCH   5   6
ATOM      6  C   UNL     1     113.126 121.886 109.360  1.00  0.00     0.129 C 
ATOM      7  O   UNL     1     112.216 122.541 109.847  1.00  0.00    -0.300 OA
ATOM      8  C   UNL     1     113.190 120.412 109.629  1.00  0.00     0.087 C 
ENDBRANCH   5   6
ENDBRANCH   1   5
TORSDOF 4
ENDMDL
MODEL 4
REMARK VINA RESULT:    -2.190     11.910     13.703
REMARK INTER + INTRA:          -2.842
REMARK INTER:                  -2.691
REMARK INTRA:                  -0.151
REMARK UNBOUND:                -0.139
REMARK SMILES CCCCCC(C)=O
REMARK SMILES IDX 4 1 3 2 2 3 1 4 5 5 6 6 8 7 7 8
REMARK H PARENT
REMARK Flexibility Score: inf
ROOT
ATOM      1  C   UNL     1     121.519 116.408 108.082  1.00  0.00     0.008 C 
ENDROOT
BRANCH   1   2
ATOM      2  C   UNL     1     122.433 115.317 108.656  1.00  0.00     0.000 C 
BRANCH   2   3
ATOM      3  C   UNL     1     123.406 114.799 107.590  1.00  0.00    -0.003 C 
ATOM      4  C   UNL     1     124.767 114.472 108.196  1.00  0.00     0.004 C 
ENDBRANCH   2   3
ENDBRANCH   1   2
BRANCH   1   5
ATOM      5  C   UNL     1     122.166 117.798 108.151  1.00  0.00     0.075 C 
BRANCH   5   6
ATOM      6  C   UNL     1     121.686 118.582 109.346  1.00  0.00     0.129 C 
ATOM      7  O   UNL     1     122.482 119.254 109.985  1.00  0.00    -0.300 OA
ATOM      8  C   UNL     1     120.246 118.564 109.764  1.00  0.00     0.087 C 
ENDBRANCH   5   6
ENDBRANCH   1   5
TORSDOF 4
ENDMDL
MODEL 5
REMARK VINA RESULT:    -2.187      7.615      8.448
REMARK INTER + INTRA:          -2.838
REMARK INTER:                  -2.696
REMARK INTRA:                  -0.142
REMARK UNBOUND:                -0.139
REMARK SMILES CCCCCC(C)=O
REMARK SMILES IDX 4 1 3 2 2 3 1 4 5 5 6 6 8 7 7 8
REMARK H PARENT
REMARK Flexibility Score: inf
ROOT
ATOM      1  C   UNL     1     112.192 123.326 108.469  1.00  0.00     0.008 C 
ENDROOT
BRANCH   1   2
ATOM      2  C   UNL     1     111.003 124.281 108.645  1.00  0.00     0.000 C 
BRANCH   2   3
ATOM      3  C   UNL     1     110.285 124.024 109.976  1.00  0.00    -0.003 C 
ATOM      4  C   UNL     1     109.892 125.333 110.653  1.00  0.00     0.004 C 
ENDBRANCH   2   3
ENDBRANCH   1   2
BRANCH   1   5
ATOM      5  C   UNL     1     112.569 122.626 109.782  1.00  0.00     0.075 C 
BRANCH   5   6
ATOM      6  C   UNL     1     113.626 121.572 109.572  1.00  0.00     0.129 C 
ATOM      7  O   UNL     1     114.763 121.909 109.279  1.00  0.00    -0.300 OA
ATOM      8  C   UNL     1     113.315 120.113 109.726  1.00  0.00     0.087 C 
ENDBRANCH   5   6
ENDBRANCH   1   5
TORSDOF 4
ENDMDL
MODEL 6
REMARK VINA RESULT:    -2.186      3.136      4.741
REMARK INTER + INTRA:          -2.837
REMARK INTER:                  -2.691
REMARK INTRA:                  -0.146
REMARK UNBOUND:                -0.139
REMARK SMILES CCCCCC(C)=O
REMARK SMILES IDX 4 1 3 2 2 3 1 4 5 5 6 6 8 7 7 8
REMARK H PARENT
REMARK Flexibility Score: inf
ROOT
ATOM      1  C   UNL     1     108.601 112.216 108.502  1.00  0.00     0.008 C 
ENDROOT
BRANCH   1   2
ATOM      2  C   UNL     1     107.697 110.984 108.648  1.00  0.00     0.000 C 
BRANCH   2   3
ATOM      3  C   UNL     1     107.952 110.272 109.982  1.00  0.00    -0.003 C 
ATOM      4  C   UNL     1     106.645 109.998 110.720  1.00  0.00     0.004 C 
ENDBRANCH   2   3
ENDBRANCH   1   2
BRANCH   1   5
ATOM      5  C   UNL     1     109.359 112.533 109.799  1.00  0.00     0.075 C 
BRANCH   5   6
ATOM      6  C   UNL     1     110.435 113.566 109.582  1.00  0.00     0.129 C 
ATOM      7  O   UNL     1     110.120 114.716 109.314  1.00  0.00    -0.300 OA
ATOM      8  C   UNL     1     111.888 113.216 109.697  1.00  0.00     0.087 C 
ENDBRANCH   5   6
ENDBRANCH   1   5
TORSDOF 4
ENDMDL
MODEL 7
REMARK VINA RESULT:    -2.163     13.550     14.746
REMARK INTER + INTRA:          -2.808
REMARK INTER:                  -2.668
REMARK INTRA:                  -0.140
REMARK UNBOUND:                -0.139
REMARK SMILES CCCCCC(C)=O
REMARK SMILES IDX 4 1 3 2 2 3 1 4 5 5 6 6 8 7 7 8
REMARK H PARENT
REMARK Flexibility Score: inf
ROOT
ATOM      1  C   UNL     1     123.465 120.088 108.474  1.00  0.00     0.008 C 
ENDROOT
BRANCH   1   2
ATOM      2  C   UNL     1     124.493 121.201 108.720  1.00  0.00     0.000 C 
BRANCH   2   3
ATOM      3  C   UNL     1     124.210 121.927 110.040  1.00  0.00    -0.003 C 
ATOM      4  C   UNL     1     125.474 122.048 110.886  1.00  0.00     0.004 C 
ENDBRANCH   2   3
ENDBRANCH   1   2
BRANCH   1   5
ATOM      5  C   UNL     1     122.731 119.685 109.761  1.00  0.00     0.075 C 
BRANCH   5   6
ATOM      6  C   UNL     1     121.651 118.669 109.496  1.00  0.00     0.129 C 
ATOM      7  O   UNL     1     121.959 117.539 109.145  1.00  0.00    -0.300 OA
ATOM      8  C   UNL     1     120.200 119.010 109.663  1.00  0.00     0.087 C 
ENDBRANCH   5   6
ENDBRANCH   1   5
TORSDOF 4
ENDMDL
MODEL 8
REMARK VINA RESULT:    -2.130     14.296     15.425
REMARK INTER + INTRA:          -2.767
REMARK INTER:                  -2.595
REMARK INTRA:                  -0.173
REMARK UNBOUND:                -0.139
REMARK SMILES CCCCCC(C)=O
REMARK SMILES IDX 4 1 3 2 2 3 1 4 5 5 6 6 8 7 7 8
REMARK H PARENT
REMARK Flexibility Score: inf
ROOT
ATOM      1  C   UNL     1     123.922 120.271 108.413  1.00  0.00     0.008 C 
ENDROOT
BRANCH   1   2
ATOM      2  C   UNL     1     122.633 119.445 108.313  1.00  0.00     0.000 C 
BRANCH   2   3
ATOM      3  C   UNL     1     122.045 119.173 109.703  1.00  0.00    -0.003 C 
ATOM      4  C   UNL     1     120.531 119.004 109.640  1.00  0.00     0.004 C 
ENDBRANCH   2   3
ENDBRANCH   1   2
BRANCH   1   5
ATOM      5  C   UNL     1     124.562 120.175 109.805  1.00  0.00     0.075 C 
BRANCH   5   6
ATOM      6  C   UNL     1     124.824 121.536 110.397  1.00  0.00     0.129 C 
ATOM      7  O   UNL     1     124.187 122.499 109.998  1.00  0.00    -0.300 OA
ATOM      8  C   UNL     1     125.846 121.734 111.477  1.00  0.00     0.087 C 
ENDBRANCH   5   6
ENDBRANCH   1   5
TORSDOF 4
ENDMDL
MODEL 9
REMARK VINA RESULT:    -2.122      9.380     12.453
REMARK INTER + INTRA:          -2.758
REMARK INTER:                  -2.584
REMARK INTRA:                  -0.174
REMARK UNBOUND:                -0.139
REMARK SMILES CCCCCC(C)=O
REMARK SMILES IDX 4 1 3 2 2 3 1 4 5 5 6 6 8 7 7 8
REMARK H PARENT
REMARK Flexibility Score: inf
ROOT
ATOM      1  C   UNL     1     119.618 109.010 108.246  1.00  0.00     0.008 C 
ENDROOT
BRANCH   1   2
ATOM      2  C   UNL     1     120.355 107.675 108.416  1.00  0.00     0.000 C 
BRANCH   2   3
ATOM      3  C   UNL     1     120.781 107.463 109.873  1.00  0.00    -0.003 C 
ATOM      4  C   UNL     1     122.300 107.426 110.005  1.00  0.00     0.004 C 
ENDBRANCH   2   3
ENDBRANCH   1   2
BRANCH   1   5
ATOM      5  C   UNL     1     119.367 109.706 109.592  1.00  0.00     0.075 C 
BRANCH   5   6
ATOM      6  C   UNL     1     118.185 110.639 109.530  1.00  0.00     0.129 C 
ATOM      7  O   UNL     1     118.287 111.770 109.980  1.00  0.00    -0.300 OA
ATOM      8  C   UNL     1     116.884 110.210 108.919  1.00  0.00     0.087 C 
ENDBRANCH   5   6
ENDBRANCH   1   5
TORSDOF 4
ENDMDL
