MODEL 1
REMARK VINA RESULT:    -6.977      0.000      0.000
REMARK INTER + INTRA:          -8.726
REMARK INTER:                  -8.404
REMARK INTRA:                  -0.322
REMARK UNBOUND:                -0.322
REMARK SMILES O=c1c(O)c(-c2ccc(O)c(O)c2)oc2cc(O)cc(O)c12
REMARK SMILES IDX 5 1 3 2 2 3 1 4 22 5 20 6 19 7 17 8 16 9 15 10 14 11 6 12
REMARK SMILES IDX 7 13 8 14 9 15 13 16 11 17 10 18 12 20 4 22 21 24 18 26
REMARK H PARENT 10 19 12 21 4 23 21 25 18 27
REMARK Flexibility Score: inf
ROOT
ATOM      1  C   UNL     1     -13.858   7.922  11.718  1.00  0.00     0.180 A 
ATOM      2  C   UNL     1     -13.041   8.769  10.947  1.00  0.00     0.208 A 
ATOM      3  C   UNL     1     -11.891   8.239  10.342  1.00  0.00     0.238 A 
ATOM      4  O   UNL     1     -11.135   9.014   9.699  1.00  0.00    -0.285 OA
ATOM      5  C   UNL     1     -11.580   6.867  10.498  1.00  0.00     0.111 A 
ATOM      6  C   UNL     1     -10.462   6.215   9.896  1.00  0.00     0.134 A 
ATOM      7  C   UNL     1     -10.179   4.884  10.226  1.00  0.00     0.093 A 
ATOM      8  C   UNL     1     -11.011   4.162  11.085  1.00  0.00     0.123 A 
ATOM      9  C   UNL     1     -12.138   4.772  11.631  1.00  0.00     0.094 A 
ATOM     10  C   UNL     1     -12.426   6.110  11.350  1.00  0.00     0.146 A 
ATOM     11  O   UNL     1     -13.504   6.655  11.900  1.00  0.00    -0.452 OA
ENDROOT
BRANCH   1  12
ATOM     12  C   UNL     1     -15.099   8.402  12.367  1.00  0.00     0.025 A 
ATOM     13  C   UNL     1     -15.091   8.902  13.679  1.00  0.00     0.016 A 
ATOM     14  C   UNL     1     -16.270   9.372  14.261  1.00  0.00     0.051 A 
ATOM     15  C   UNL     1     -17.473   9.365  13.547  1.00  0.00     0.157 A 
ATOM     16  C   UNL     1     -16.299   8.414  11.640  1.00  0.00     0.062 A 
ATOM     17  C   UNL     1     -17.487   8.882  12.216  1.00  0.00     0.158 A 
BRANCH  15  18
ATOM     18  O   UNL     1     -18.616   9.843  14.189  1.00  0.00    -0.504 OA
ATOM     19  H   UNL     1     -19.483  10.054  13.716  1.00  0.00     0.293 HD
ENDBRANCH  15  18
BRANCH  17  20
ATOM     20  O   UNL     1     -18.646   8.853  11.438  1.00  0.00    -0.504 OA
ATOM     21  H   UNL     1     -19.503   9.329  11.681  1.00  0.00     0.293 HD
ENDBRANCH  17  20
ENDBRANCH   1  12
BRANCH   2  22
ATOM     22  O   UNL     1     -13.354  10.125  10.824  1.00  0.00    -0.502 OA
ATOM     23  H   UNL     1     -14.174  10.451  10.324  1.00  0.00     0.293 HD
ENDBRANCH   2  22
BRANCH   6  24
ATOM     24  O   UNL     1      -9.622   6.816   8.955  1.00  0.00    -0.507 OA
ATOM     25  H   UNL     1      -9.909   7.106   8.032  1.00  0.00     0.293 HD
ENDBRANCH   6  24
BRANCH   8  26
ATOM     26  O   UNL     1     -10.731   2.833  11.396  1.00  0.00    -0.508 OA
ATOM     27  H   UNL     1      -9.888   2.571  11.894  1.00  0.00     0.293 HD
ENDBRANCH   8  26
TORSDOF 6
ENDMDL
MODEL 2
REMARK VINA RESULT:    -6.532      1.628      6.966
REMARK INTER + INTRA:          -8.190
REMARK INTER:                  -7.856
REMARK INTRA:                  -0.335
REMARK UNBOUND:                -0.322
REMARK SMILES O=c1c(O)c(-c2ccc(O)c(O)c2)oc2cc(O)cc(O)c12
REMARK SMILES IDX 5 1 3 2 2 3 1 4 22 5 20 6 19 7 17 8 16 9 15 10 14 11 6 12
REMARK SMILES IDX 7 13 8 14 9 15 13 16 11 17 10 18 12 20 4 22 21 24 18 26
REMARK H PARENT 10 19 12 21 4 23 21 25 18 27
REMARK Flexibility Score: inf
ROOT
ATOM      1  C   UNL     1     -13.434   6.722  10.730  1.00  0.00     0.180 A 
ATOM      2  C   UNL     1     -14.429   6.754   9.737  1.00  0.00     0.208 A 
ATOM      3  C   UNL     1     -15.631   7.431   9.999  1.00  0.00     0.238 A 
ATOM      4  O   UNL     1     -16.538   7.409   9.126  1.00  0.00    -0.285 OA
ATOM      5  C   UNL     1     -15.818   8.080  11.243  1.00  0.00     0.111 A 
ATOM      6  C   UNL     1     -16.981   8.828  11.600  1.00  0.00     0.134 A 
ATOM      7  C   UNL     1     -17.112   9.317  12.905  1.00  0.00     0.093 A 
ATOM      8  C   UNL     1     -16.095   9.141  13.847  1.00  0.00     0.123 A 
ATOM      9  C   UNL     1     -14.932   8.464  13.490  1.00  0.00     0.094 A 
ATOM     10  C   UNL     1     -14.786   7.932  12.206  1.00  0.00     0.146 A 
ATOM     11  O   UNL     1     -13.666   7.284  11.911  1.00  0.00    -0.452 OA
ENDROOT
BRANCH   1  12
ATOM     12  C   UNL     1     -12.131   6.050  10.520  1.00  0.00     0.025 A 
ATOM     13  C   UNL     1     -11.041   6.732   9.957  1.00  0.00     0.016 A 
ATOM     14  C   UNL     1      -9.815   6.084   9.790  1.00  0.00     0.051 A 
ATOM     15  C   UNL     1      -9.648   4.755  10.192  1.00  0.00     0.157 A 
ATOM     16  C   UNL     1     -11.961   4.724  10.943  1.00  0.00     0.062 A 
ATOM     17  C   UNL     1     -10.735   4.066  10.780  1.00  0.00     0.158 A 
BRANCH  15  18
ATOM     18  O   UNL     1      -8.398   4.165   9.992  1.00  0.00    -0.504 OA
ATOM     19  H   UNL     1      -7.984   3.495  10.624  1.00  0.00     0.293 HD
ENDBRANCH  15  18
BRANCH  17  20
ATOM     20  O   UNL     1     -10.642   2.742  11.214  1.00  0.00    -0.504 OA
ATOM     21  H   UNL     1     -10.694   2.459  12.182  1.00  0.00     0.293 HD
ENDBRANCH  17  20
ENDBRANCH   1  12
BRANCH   2  22
ATOM     22  O   UNL     1     -14.232   6.089   8.524  1.00  0.00    -0.502 OA
ATOM     23  H   UNL     1     -14.912   5.440   8.143  1.00  0.00     0.293 HD
ENDBRANCH   2  22
BRANCH   6  24
ATOM     24  O   UNL     1     -18.012   9.139  10.710  1.00  0.00    -0.507 OA
ATOM     25  H   UNL     1     -18.870   9.603  10.966  1.00  0.00     0.293 HD
ENDBRANCH   6  24
BRANCH   8  26
ATOM     26  O   UNL     1     -16.228   9.645  15.139  1.00  0.00    -0.508 OA
ATOM     27  H   UNL     1     -17.049  10.166  15.423  1.00  0.00     0.293 HD
ENDBRANCH   8  26
TORSDOF 6
ENDMDL
MODEL 3
REMARK VINA RESULT:    -6.362      1.865      7.264
REMARK INTER + INTRA:          -7.985
REMARK INTER:                  -7.842
REMARK INTRA:                  -0.143
REMARK UNBOUND:                -0.322
REMARK SMILES O=c1c(O)c(-c2ccc(O)c(O)c2)oc2cc(O)cc(O)c12
REMARK SMILES IDX 5 1 3 2 2 3 1 4 22 5 20 6 19 7 17 8 16 9 15 10 14 11 6 12
REMARK SMILES IDX 7 13 8 14 9 15 13 16 11 17 10 18 12 20 4 22 21 24 18 26
REMARK H PARENT 10 19 12 21 4 23 21 25 18 27
REMARK Flexibility Score: inf
ROOT
ATOM      1  C   UNL     1     -15.487   8.470  11.701  1.00  0.00     0.180 A 
ATOM      2  C   UNL     1     -16.388   8.676  10.641  1.00  0.00     0.208 A 
ATOM      3  C   UNL     1     -17.712   9.039  10.934  1.00  0.00     0.238 A 
ATOM      4  O   UNL     1     -18.527   9.168   9.983  1.00  0.00    -0.285 OA
ATOM      5  C   UNL     1     -18.115   9.210  12.280  1.00  0.00     0.111 A 
ATOM      6  C   UNL     1     -19.422   9.616  12.689  1.00  0.00     0.134 A 
ATOM      7  C   UNL     1     -19.746   9.626  14.051  1.00  0.00     0.093 A 
ATOM      8  C   UNL     1     -18.792   9.307  15.022  1.00  0.00     0.123 A 
ATOM      9  C   UNL     1     -17.498   8.967  14.634  1.00  0.00     0.094 A 
ATOM     10  C   UNL     1     -17.154   8.913  13.281  1.00  0.00     0.146 A 
ATOM     11  O   UNL     1     -15.913   8.574  12.955  1.00  0.00    -0.452 OA
ENDROOT
BRANCH   1  12
ATOM     12  C   UNL     1     -14.070   8.109  11.472  1.00  0.00     0.025 A 
ATOM     13  C   UNL     1     -13.210   8.949  10.747  1.00  0.00     0.016 A 
ATOM     14  C   UNL     1     -11.870   8.600  10.565  1.00  0.00     0.051 A 
ATOM     15  C   UNL     1     -11.360   7.416  11.110  1.00  0.00     0.157 A 
ATOM     16  C   UNL     1     -13.556   6.933  12.038  1.00  0.00     0.062 A 
ATOM     17  C   UNL     1     -12.214   6.573  11.860  1.00  0.00     0.158 A 
BRANCH  15  18
ATOM     18  O   UNL     1     -10.013   7.122  10.886  1.00  0.00    -0.504 OA
ATOM     19  H   UNL     1      -9.620   6.937   9.975  1.00  0.00     0.293 HD
ENDBRANCH  15  18
BRANCH  17  20
ATOM     20  O   UNL     1     -11.775   5.382  12.442  1.00  0.00    -0.504 OA
ATOM     21  H   UNL     1     -11.159   4.723  11.987  1.00  0.00     0.293 HD
ENDBRANCH  17  20
ENDBRANCH   1  12
BRANCH   2  22
ATOM     22  O   UNL     1     -15.975   8.480   9.321  1.00  0.00    -0.502 OA
ATOM     23  H   UNL     1     -15.408   7.689   9.039  1.00  0.00     0.293 HD
ENDBRANCH   2  22
BRANCH   6  24
ATOM     24  O   UNL     1     -20.419  10.042  11.807  1.00  0.00    -0.507 OA
ATOM     25  H   UNL     1     -20.940   9.434  11.194  1.00  0.00     0.293 HD
ENDBRANCH   6  24
BRANCH   8  26
ATOM     26  O   UNL     1     -19.119   9.334  16.376  1.00  0.00    -0.508 OA
ATOM     27  H   UNL     1     -19.982   8.931  16.721  1.00  0.00     0.293 HD
ENDBRANCH   8  26
TORSDOF 6
ENDMDL
MODEL 4
REMARK VINA RESULT:    -6.360      2.012      7.327
REMARK INTER + INTRA:          -7.984
REMARK INTER:                  -7.679
REMARK INTRA:                  -0.305
REMARK UNBOUND:                -0.322
REMARK SMILES O=c1c(O)c(-c2ccc(O)c(O)c2)oc2cc(O)cc(O)c12
REMARK SMILES IDX 5 1 3 2 2 3 1 4 22 5 20 6 19 7 17 8 16 9 15 10 14 11 6 12
REMARK SMILES IDX 7 13 8 14 9 15 13 16 11 17 10 18 12 20 4 22 21 24 18 26
REMARK H PARENT 10 19 12 21 4 23 21 25 18 27
REMARK Flexibility Score: inf
ROOT
ATOM      1  C   UNL     1     -15.740   8.408  11.888  1.00  0.00     0.180 A 
ATOM      2  C   UNL     1     -16.199   8.993  13.082  1.00  0.00     0.208 A 
ATOM      3  C   UNL     1     -17.576   9.203  13.252  1.00  0.00     0.238 A 
ATOM      4  O   UNL     1     -17.975   9.776  14.299  1.00  0.00    -0.285 OA
ATOM      5  C   UNL     1     -18.479   8.811  12.235  1.00  0.00     0.111 A 
ATOM      6  C   UNL     1     -19.899   8.940  12.318  1.00  0.00     0.134 A 
ATOM      7  C   UNL     1     -20.686   8.640  11.199  1.00  0.00     0.093 A 
ATOM      8  C   UNL     1     -20.110   8.154  10.022  1.00  0.00     0.123 A 
ATOM      9  C   UNL     1     -18.731   7.969   9.952  1.00  0.00     0.094 A 
ATOM     10  C   UNL     1     -17.916   8.294  11.039  1.00  0.00     0.146 A 
ATOM     11  O   UNL     1     -16.606   8.113  10.926  1.00  0.00    -0.452 OA
ENDROOT
BRANCH   1  12
ATOM     12  C   UNL     1     -14.305   8.133  11.646  1.00  0.00     0.025 A 
ATOM     13  C   UNL     1     -13.500   9.031  10.927  1.00  0.00     0.016 A 
ATOM     14  C   UNL     1     -12.144   8.762  10.733  1.00  0.00     0.051 A 
ATOM     15  C   UNL     1     -11.562   7.604  11.260  1.00  0.00     0.157 A 
ATOM     16  C   UNL     1     -13.720   6.982  12.195  1.00  0.00     0.062 A 
ATOM     17  C   UNL     1     -12.360   6.703  12.005  1.00  0.00     0.158 A 
BRANCH  15  18
ATOM     18  O   UNL     1     -10.202   7.391  11.025  1.00  0.00    -0.504 OA
ATOM     19  H   UNL     1      -9.510   8.126  11.018  1.00  0.00     0.293 HD
ENDBRANCH  15  18
BRANCH  17  20
ATOM     20  O   UNL     1     -11.849   5.533  12.569  1.00  0.00    -0.504 OA
ATOM     21  H   UNL     1     -11.186   4.925  12.109  1.00  0.00     0.293 HD
ENDBRANCH  17  20
ENDBRANCH   1  12
BRANCH   2  22
ATOM     22  O   UNL     1     -15.288   9.392  14.064  1.00  0.00    -0.502 OA
ATOM     23  H   UNL     1     -14.359   9.730  13.840  1.00  0.00     0.293 HD
ENDBRANCH   2  22
BRANCH   6  24
ATOM     24  O   UNL     1     -20.581   9.328  13.474  1.00  0.00    -0.507 OA
ATOM     25  H   UNL     1     -20.838  10.277  13.698  1.00  0.00     0.293 HD
ENDBRANCH   6  24
BRANCH   8  26
ATOM     26  O   UNL     1     -20.902   7.844   8.919  1.00  0.00    -0.508 OA
ATOM     27  H   UNL     1     -21.361   8.565   8.376  1.00  0.00     0.293 HD
ENDBRANCH   8  26
TORSDOF 6
ENDMDL
MODEL 5
REMARK VINA RESULT:    -6.242      1.950      7.209
REMARK INTER + INTRA:          -7.841
REMARK INTER:                  -7.555
REMARK INTRA:                  -0.286
REMARK UNBOUND:                -0.322
REMARK SMILES O=c1c(O)c(-c2ccc(O)c(O)c2)oc2cc(O)cc(O)c12
REMARK SMILES IDX 5 1 3 2 2 3 1 4 22 5 20 6 19 7 17 8 16 9 15 10 14 11 6 12
REMARK SMILES IDX 7 13 8 14 9 15 13 16 11 17 10 18 12 20 4 22 21 24 18 26
REMARK H PARENT 10 19 12 21 4 23 21 25 18 27
REMARK Flexibility Score: inf
ROOT
ATOM      1  C   UNL     1     -11.447   5.154  10.585  1.00  0.00     0.180 A 
ATOM      2  C   UNL     1     -10.701   6.317  10.325  1.00  0.00     0.208 A 
ATOM      3  C   UNL     1     -11.339   7.566  10.398  1.00  0.00     0.238 A 
ATOM      4  O   UNL     1     -10.679   8.599  10.110  1.00  0.00    -0.285 OA
ATOM      5  C   UNL     1     -12.709   7.638  10.746  1.00  0.00     0.111 A 
ATOM      6  C   UNL     1     -13.446   8.853  10.888  1.00  0.00     0.134 A 
ATOM      7  C   UNL     1     -14.828   8.799  11.108  1.00  0.00     0.093 A 
ATOM      8  C   UNL     1     -15.487   7.577  11.255  1.00  0.00     0.123 A 
ATOM      9  C   UNL     1     -14.766   6.388  11.177  1.00  0.00     0.094 A 
ATOM     10  C   UNL     1     -13.392   6.407  10.922  1.00  0.00     0.146 A 
ATOM     11  O   UNL     1     -12.746   5.251  10.845  1.00  0.00    -0.452 OA
ENDROOT
BRANCH   1  12
ATOM     12  C   UNL     1     -10.839   3.804  10.552  1.00  0.00     0.025 A 
ATOM     13  C   UNL     1     -10.987   2.964   9.438  1.00  0.00     0.016 A 
ATOM     14  C   UNL     1     -10.383   1.704   9.420  1.00  0.00     0.051 A 
ATOM     15  C   UNL     1      -9.614   1.265  10.502  1.00  0.00     0.157 A 
ATOM     16  C   UNL     1     -10.050   3.375  11.630  1.00  0.00     0.062 A 
ATOM     17  C   UNL     1      -9.441   2.113  11.621  1.00  0.00     0.158 A 
BRANCH  15  18
ATOM     18  O   UNL     1      -9.043  -0.007  10.422  1.00  0.00    -0.504 OA
ATOM     19  H   UNL     1      -9.009  -0.559   9.578  1.00  0.00     0.293 HD
ENDBRANCH  15  18
BRANCH  17  20
ATOM     20  O   UNL     1      -8.680   1.748  12.733  1.00  0.00    -0.504 OA
ATOM     21  H   UNL     1      -7.714   2.012  12.869  1.00  0.00     0.293 HD
ENDBRANCH  17  20
ENDBRANCH   1  12
BRANCH   2  22
ATOM     22  O   UNL     1      -9.355   6.222   9.962  1.00  0.00    -0.502 OA
ATOM     23  H   UNL     1      -8.834   7.007   9.588  1.00  0.00     0.293 HD
ENDBRANCH   2  22
BRANCH   6  24
ATOM     24  O   UNL     1     -12.868  10.125  10.850  1.00  0.00    -0.507 OA
ATOM     25  H   UNL     1     -12.388  10.514  10.053  1.00  0.00     0.293 HD
ENDBRANCH   6  24
BRANCH   8  26
ATOM     26  O   UNL     1     -16.860   7.534  11.489  1.00  0.00    -0.508 OA
ATOM     27  H   UNL     1     -17.476   8.270  11.166  1.00  0.00     0.293 HD
ENDBRANCH   8  26
TORSDOF 6
ENDMDL
MODEL 6
REMARK VINA RESULT:    -6.027      1.210      2.921
REMARK INTER + INTRA:          -7.582
REMARK INTER:                  -7.255
REMARK INTRA:                  -0.327
REMARK UNBOUND:                -0.322
REMARK SMILES O=c1c(O)c(-c2ccc(O)c(O)c2)oc2cc(O)cc(O)c12
REMARK SMILES IDX 5 1 3 2 2 3 1 4 22 5 20 6 19 7 17 8 16 9 15 10 14 11 6 12
REMARK SMILES IDX 7 13 8 14 9 15 13 16 11 17 10 18 12 20 4 22 21 24 18 26
REMARK H PARENT 10 19 12 21 4 23 21 25 18 27
REMARK Flexibility Score: inf
ROOT
ATOM      1  C   UNL     1     -14.074   7.687  11.752  1.00  0.00     0.180 A 
ATOM      2  C   UNL     1     -13.705   6.346  11.958  1.00  0.00     0.208 A 
ATOM      3  C   UNL     1     -12.555   5.851  11.323  1.00  0.00     0.238 A 
ATOM      4  O   UNL     1     -12.261   4.636  11.467  1.00  0.00    -0.285 OA
ATOM      5  C   UNL     1     -11.779   6.706  10.504  1.00  0.00     0.111 A 
ATOM      6  C   UNL     1     -10.573   6.321   9.844  1.00  0.00     0.134 A 
ATOM      7  C   UNL     1      -9.958   7.211   8.955  1.00  0.00     0.093 A 
ATOM      8  C   UNL     1     -10.470   8.496   8.752  1.00  0.00     0.123 A 
ATOM      9  C   UNL     1     -11.614   8.900   9.436  1.00  0.00     0.094 A 
ATOM     10  C   UNL     1     -12.270   8.023  10.302  1.00  0.00     0.146 A 
ATOM     11  O   UNL     1     -13.362   8.445  10.926  1.00  0.00    -0.452 OA
ENDROOT
BRANCH   1  12
ATOM     12  C   UNL     1     -15.259   8.288  12.407  1.00  0.00     0.025 A 
ATOM     13  C   UNL     1     -15.189   8.807  13.709  1.00  0.00     0.016 A 
ATOM     14  C   UNL     1     -16.314   9.391  14.296  1.00  0.00     0.051 A 
ATOM     15  C   UNL     1     -17.521   9.480  13.596  1.00  0.00     0.157 A 
ATOM     16  C   UNL     1     -16.462   8.395  11.694  1.00  0.00     0.062 A 
ATOM     17  C   UNL     1     -17.596   8.979  12.274  1.00  0.00     0.158 A 
BRANCH  15  18
ATOM     18  O   UNL     1     -18.609  10.071  14.242  1.00  0.00    -0.504 OA
ATOM     19  H   UNL     1     -18.974  10.984  14.013  1.00  0.00     0.293 HD
ENDBRANCH  15  18
BRANCH  17  20
ATOM     20  O   UNL     1     -18.762   9.041  11.510  1.00  0.00    -0.504 OA
ATOM     21  H   UNL     1     -19.557   8.431  11.639  1.00  0.00     0.293 HD
ENDBRANCH  17  20
ENDBRANCH   1  12
BRANCH   2  22
ATOM     22  O   UNL     1     -14.498   5.514  12.753  1.00  0.00    -0.502 OA
ATOM     23  H   UNL     1     -15.005   4.722  12.375  1.00  0.00     0.293 HD
ENDBRANCH   2  22
BRANCH   6  24
ATOM     24  O   UNL     1      -9.928   5.098  10.047  1.00  0.00    -0.507 OA
ATOM     25  H   UNL     1     -10.374   4.196   9.977  1.00  0.00     0.293 HD
ENDBRANCH   6  24
BRANCH   8  26
ATOM     26  O   UNL     1      -9.844   9.380   7.876  1.00  0.00    -0.508 OA
ATOM     27  H   UNL     1     -10.373   9.937   7.216  1.00  0.00     0.293 HD
ENDBRANCH   8  26
TORSDOF 6
ENDMDL
MODEL 7
REMARK VINA RESULT:    -5.968      2.170      7.397
REMARK INTER + INTRA:          -7.510
REMARK INTER:                  -7.347
REMARK INTRA:                  -0.164
REMARK UNBOUND:                -0.322
REMARK SMILES O=c1c(O)c(-c2ccc(O)c(O)c2)oc2cc(O)cc(O)c12
REMARK SMILES IDX 5 1 3 2 2 3 1 4 22 5 20 6 19 7 17 8 16 9 15 10 14 11 6 12
REMARK SMILES IDX 7 13 8 14 9 15 13 16 11 17 10 18 12 20 4 22 21 24 18 26
REMARK H PARENT 10 19 12 21 4 23 21 25 18 27
REMARK Flexibility Score: inf
ROOT
ATOM      1  C   UNL     1     -12.329   6.456  10.310  1.00  0.00     0.180 A 
ATOM      2  C   UNL     1     -12.679   6.555  11.668  1.00  0.00     0.208 A 
ATOM      3  C   UNL     1     -13.797   7.324  12.029  1.00  0.00     0.238 A 
ATOM      4  O   UNL     1     -14.073   7.453  13.250  1.00  0.00    -0.285 OA
ATOM      5  C   UNL     1     -14.561   7.970  11.027  1.00  0.00     0.111 A 
ATOM      6  C   UNL     1     -15.736   8.742  11.275  1.00  0.00     0.134 A 
ATOM      7  C   UNL     1     -16.336   9.443  10.223  1.00  0.00     0.093 A 
ATOM      8  C   UNL     1     -15.842   9.349   8.919  1.00  0.00     0.123 A 
ATOM      9  C   UNL     1     -14.730   8.551   8.657  1.00  0.00     0.094 A 
ATOM     10  C   UNL     1     -14.088   7.868   9.693  1.00  0.00     0.146 A 
ATOM     11  O   UNL     1     -13.026   7.128   9.401  1.00  0.00    -0.452 OA
ENDROOT
BRANCH   1  12
ATOM     12  C   UNL     1     -11.179   5.644   9.850  1.00  0.00     0.025 A 
ATOM     13  C   UNL     1     -11.359   4.523   9.025  1.00  0.00     0.016 A 
ATOM     14  C   UNL     1     -10.258   3.787   8.584  1.00  0.00     0.051 A 
ATOM     15  C   UNL     1      -8.958   4.161   8.944  1.00  0.00     0.157 A 
ATOM     16  C   UNL     1      -9.876   6.034  10.195  1.00  0.00     0.062 A 
ATOM     17  C   UNL     1      -8.764   5.302   9.758  1.00  0.00     0.158 A 
BRANCH  15  18
ATOM     18  O   UNL     1      -7.901   3.379   8.474  1.00  0.00    -0.504 OA
ATOM     19  H   UNL     1      -7.922   2.371   8.427  1.00  0.00     0.293 HD
ENDBRANCH  15  18
BRANCH  17  20
ATOM     20  O   UNL     1      -7.498   5.742  10.150  1.00  0.00    -0.504 OA
ATOM     21  H   UNL     1      -7.265   6.708  10.327  1.00  0.00     0.293 HD
ENDBRANCH  17  20
ENDBRANCH   1  12
BRANCH   2  22
ATOM     22  O   UNL     1     -11.899   5.926  12.642  1.00  0.00    -0.502 OA
ATOM     23  H   UNL     1     -12.269   5.660  13.548  1.00  0.00     0.293 HD
ENDBRANCH   2  22
BRANCH   6  24
ATOM     24  O   UNL     1     -16.364   8.829  12.521  1.00  0.00    -0.507 OA
ATOM     25  H   UNL     1     -15.882   8.840  13.407  1.00  0.00     0.293 HD
ENDBRANCH   6  24
BRANCH   8  26
ATOM     26  O   UNL     1     -16.454  10.039   7.875  1.00  0.00    -0.508 OA
ATOM     27  H   UNL     1     -17.163  10.742   8.048  1.00  0.00     0.293 HD
ENDBRANCH   8  26
TORSDOF 6
ENDMDL
MODEL 8
REMARK VINA RESULT:    -5.461      1.595      2.075
REMARK INTER + INTRA:          -6.900
REMARK INTER:                  -6.777
REMARK INTRA:                  -0.123
REMARK UNBOUND:                -0.322
REMARK SMILES O=c1c(O)c(-c2ccc(O)c(O)c2)oc2cc(O)cc(O)c12
REMARK SMILES IDX 5 1 3 2 2 3 1 4 22 5 20 6 19 7 17 8 16 9 15 10 14 11 6 12
REMARK SMILES IDX 7 13 8 14 9 15 13 16 11 17 10 18 12 20 4 22 21 24 18 26
REMARK H PARENT 10 19 12 21 4 23 21 25 18 27
REMARK Flexibility Score: inf
ROOT
ATOM      1  C   UNL     1     -15.778   8.334  11.520  1.00  0.00     0.180 A 
ATOM      2  C   UNL     1     -15.404   9.039  10.363  1.00  0.00     0.208 A 
ATOM      3  C   UNL     1     -14.234   8.661   9.684  1.00  0.00     0.238 A 
ATOM      4  O   UNL     1     -13.876   9.331   8.680  1.00  0.00    -0.285 OA
ATOM      5  C   UNL     1     -13.464   7.573  10.159  1.00  0.00     0.111 A 
ATOM      6  C   UNL     1     -12.282   7.079   9.527  1.00  0.00     0.134 A 
ATOM      7  C   UNL     1     -11.528   6.082  10.157  1.00  0.00     0.093 A 
ATOM      8  C   UNL     1     -11.947   5.516  11.364  1.00  0.00     0.123 A 
ATOM      9  C   UNL     1     -13.129   5.951  11.958  1.00  0.00     0.094 A 
ATOM     10  C   UNL     1     -13.885   6.970  11.373  1.00  0.00     0.146 A 
ATOM     11  O   UNL     1     -14.999   7.361  11.978  1.00  0.00    -0.452 OA
ENDROOT
BRANCH   1  12
ATOM     12  C   UNL     1     -17.010   8.658  12.276  1.00  0.00     0.025 A 
ATOM     13  C   UNL     1     -16.954   9.121  13.600  1.00  0.00     0.016 A 
ATOM     14  C   UNL     1     -18.128   9.443  14.284  1.00  0.00     0.051 A 
ATOM     15  C   UNL     1     -19.374   9.323  13.661  1.00  0.00     0.157 A 
ATOM     16  C   UNL     1     -18.257   8.557  11.641  1.00  0.00     0.062 A 
ATOM     17  C   UNL     1     -19.440   8.877  12.320  1.00  0.00     0.158 A 
BRANCH  15  18
ATOM     18  O   UNL     1     -20.509   9.656  14.403  1.00  0.00    -0.504 OA
ATOM     19  H   UNL     1     -20.481  10.101  15.309  1.00  0.00     0.293 HD
ENDBRANCH  15  18
BRANCH  17  20
ATOM     20  O   UNL     1     -20.646   8.741  11.629  1.00  0.00    -0.504 OA
ATOM     21  H   UNL     1     -20.953   7.886  11.189  1.00  0.00     0.293 HD
ENDBRANCH  17  20
ENDBRANCH   1  12
BRANCH   2  22
ATOM     22  O   UNL     1     -16.167  10.123   9.923  1.00  0.00    -0.502 OA
ATOM     23  H   UNL     1     -16.362  10.926  10.511  1.00  0.00     0.293 HD
ENDBRANCH   2  22
BRANCH   6  24
ATOM     24  O   UNL     1     -11.827   7.511   8.278  1.00  0.00    -0.507 OA
ATOM     25  H   UNL     1     -12.298   8.189   7.698  1.00  0.00     0.293 HD
ENDBRANCH   6  24
BRANCH   8  26
ATOM     26  O   UNL     1     -11.198   4.513  11.976  1.00  0.00    -0.508 OA
ATOM     27  H   UNL     1     -11.151   3.577  11.592  1.00  0.00     0.293 HD
ENDBRANCH   8  26
TORSDOF 6
ENDMDL
MODEL 9
REMARK VINA RESULT:    -5.180      2.750      8.361
REMARK INTER + INTRA:          -6.562
REMARK INTER:                  -6.520
REMARK INTRA:                  -0.042
REMARK UNBOUND:                -0.322
REMARK SMILES O=c1c(O)c(-c2ccc(O)c(O)c2)oc2cc(O)cc(O)c12
REMARK SMILES IDX 5 1 3 2 2 3 1 4 22 5 20 6 19 7 17 8 16 9 15 10 14 11 6 12
REMARK SMILES IDX 7 13 8 14 9 15 13 16 11 17 10 18 12 20 4 22 21 24 18 26
REMARK H PARENT 10 19 12 21 4 23 21 25 18 27
REMARK Flexibility Score: inf
ROOT
ATOM      1  C   UNL     1     -17.414   8.896  13.243  1.00  0.00     0.180 A 
ATOM      2  C   UNL     1     -17.473   8.862  14.647  1.00  0.00     0.208 A 
ATOM      3  C   UNL     1     -18.724   8.746  15.273  1.00  0.00     0.238 A 
ATOM      4  O   UNL     1     -18.774   8.771  16.531  1.00  0.00    -0.285 OA
ATOM      5  C   UNL     1     -19.898   8.649  14.489  1.00  0.00     0.111 A 
ATOM      6  C   UNL     1     -21.215   8.489  15.018  1.00  0.00     0.134 A 
ATOM      7  C   UNL     1     -22.316   8.535  14.154  1.00  0.00     0.093 A 
ATOM      8  C   UNL     1     -22.144   8.672  12.774  1.00  0.00     0.123 A 
ATOM      9  C   UNL     1     -20.860   8.770  12.243  1.00  0.00     0.094 A 
ATOM     10  C   UNL     1     -19.743   8.764  13.083  1.00  0.00     0.146 A 
ATOM     11  O   UNL     1     -18.538   8.870  12.537  1.00  0.00    -0.452 OA
ENDROOT
BRANCH   1  12
ATOM     12  C   UNL     1     -16.130   8.992  12.510  1.00  0.00     0.025 A 
ATOM     13  C   UNL     1     -15.882  10.036  11.605  1.00  0.00     0.016 A 
ATOM     14  C   UNL     1     -14.654  10.120  10.945  1.00  0.00     0.051 A 
ATOM     15  C   UNL     1     -13.650   9.175  11.181  1.00  0.00     0.157 A 
ATOM     16  C   UNL     1     -15.117   8.056  12.765  1.00  0.00     0.062 A 
ATOM     17  C   UNL     1     -13.883   8.131  12.107  1.00  0.00     0.158 A 
BRANCH  15  18
ATOM     18  O   UNL     1     -12.448   9.313  10.483  1.00  0.00    -0.504 OA
ATOM     19  H   UNL     1     -11.878   8.535  10.184  1.00  0.00     0.293 HD
ENDBRANCH  15  18
BRANCH  17  20
ATOM     20  O   UNL     1     -12.926   7.158  12.401  1.00  0.00    -0.504 OA
ATOM     21  H   UNL     1     -11.993   7.363  12.731  1.00  0.00     0.293 HD
ENDBRANCH  17  20
ENDBRANCH   1  12
BRANCH   2  22
ATOM     22  O   UNL     1     -16.303   8.980  15.402  1.00  0.00    -0.502 OA
ATOM     23  H   UNL     1     -15.590   9.672  15.197  1.00  0.00     0.293 HD
ENDBRANCH   2  22
BRANCH   6  24
ATOM     24  O   UNL     1     -21.490   8.254  16.368  1.00  0.00    -0.507 OA
ATOM     25  H   UNL     1     -21.986   7.450  16.721  1.00  0.00     0.293 HD
ENDBRANCH   6  24
BRANCH   8  26
ATOM     26  O   UNL     1     -23.245   8.702  11.920  1.00  0.00    -0.508 OA
ATOM     27  H   UNL     1     -24.192   8.655  12.275  1.00  0.00     0.293 HD
ENDBRANCH   8  26
TORSDOF 6
ENDMDL
