MODEL 1
REMARK VINA RESULT:    -4.001      0.000      0.000
REMARK INTER + INTRA:          -5.256
REMARK INTER:                  -4.937
REMARK INTRA:                  -0.319
REMARK UNBOUND:                -0.319
REMARK SMILES CCCCC=CC(C)=O
REMARK SMILES IDX 4 1 3 2 2 3 1 4 5 5 6 6 7 7 9 8 8 9
REMARK H PARENT
REMARK Flexibility Score: inf
ROOT
ATOM      1  C   UNL     1      13.009 -31.006  22.967  1.00  0.00     0.027 C 
ENDROOT
BRANCH   1   2
ATOM      2  C   UNL     1      13.534 -29.582  23.208  1.00  0.00     0.004 C 
BRANCH   2   3
ATOM      3  C   UNL     1      12.578 -28.741  24.067  1.00  0.00    -0.003 C 
ATOM      4  C   UNL     1      11.292 -28.373  23.327  1.00  0.00     0.004 C 
ENDBRANCH   2   3
ENDBRANCH   1   2
BRANCH   1   5
ATOM      5  C   UNL     1      12.928 -31.313  21.495  1.00  0.00    -0.023 C 
ATOM      6  C   UNL     1      13.787 -32.080  20.802  1.00  0.00     0.042 C 
BRANCH   6   7
ATOM      7  C   UNL     1      14.954 -32.809  21.348  1.00  0.00     0.152 C 
ATOM      8  O   UNL     1      14.893 -34.030  21.648  1.00  0.00    -0.295 OA
ATOM      9  C   UNL     1      16.262 -32.095  21.483  1.00  0.00     0.093 C 
ENDBRANCH   6   7
ENDBRANCH   1   5
TORSDOF 4
ENDMDL
MODEL 2
REMARK VINA RESULT:    -3.952      2.032      2.542
REMARK INTER + INTRA:          -5.195
REMARK INTER:                  -4.661
REMARK INTRA:                  -0.533
REMARK UNBOUND:                -0.319
REMARK SMILES CCCCC=CC(C)=O
REMARK SMILES IDX 4 1 3 2 2 3 1 4 5 5 6 6 7 7 9 8 8 9
REMARK H PARENT
REMARK Flexibility Score: inf
ROOT
ATOM      1  C   UNL     1      12.542 -30.892  22.584  1.00  0.00     0.027 C 
ENDROOT
BRANCH   1   2
ATOM      2  C   UNL     1      11.397 -29.933  22.219  1.00  0.00     0.004 C 
BRANCH   2   3
ATOM      3  C   UNL     1      11.356 -28.695  23.129  1.00  0.00    -0.003 C 
ATOM      4  C   UNL     1      12.425 -28.733  24.220  1.00  0.00     0.004 C 
ENDBRANCH   2   3
ENDBRANCH   1   2
BRANCH   1   5
ATOM      5  C   UNL     1      13.477 -31.089  21.421  1.00  0.00    -0.023 C 
ATOM      6  C   UNL     1      14.717 -30.583  21.312  1.00  0.00     0.042 C 
BRANCH   6   7
ATOM      7  C   UNL     1      15.427 -29.770  22.326  1.00  0.00     0.152 C 
ATOM      8  O   UNL     1      15.992 -30.296  23.321  1.00  0.00    -0.295 OA
ATOM      9  C   UNL     1      15.538 -28.292  22.129  1.00  0.00     0.093 C 
ENDBRANCH   6   7
ENDBRANCH   1   5
TORSDOF 4
ENDMDL
MODEL 3
REMARK VINA RESULT:    -3.897      2.018      2.241
REMARK INTER + INTRA:          -5.128
REMARK INTER:                  -4.841
REMARK INTRA:                  -0.287
REMARK UNBOUND:                -0.319
REMARK SMILES CCCCC=CC(C)=O
REMARK SMILES IDX 4 1 3 2 2 3 1 4 5 5 6 6 7 7 9 8 8 9
REMARK H PARENT
REMARK Flexibility Score: inf
ROOT
ATOM      1  C   UNL     1      14.672 -30.503  23.443  1.00  0.00     0.027 C 
ENDROOT
BRANCH   1   2
ATOM      2  C   UNL     1      14.008 -29.128  23.264  1.00  0.00     0.004 C 
BRANCH   2   3
ATOM      3  C   UNL     1      12.822 -28.920  24.218  1.00  0.00    -0.003 C 
ATOM      4  C   UNL     1      11.575 -28.405  23.500  1.00  0.00     0.004 C 
ENDBRANCH   2   3
ENDBRANCH   1   2
BRANCH   1   5
ATOM      5  C   UNL     1      13.789 -31.433  24.232  1.00  0.00    -0.023 C 
ATOM      6  C   UNL     1      13.941 -32.764  24.335  1.00  0.00     0.042 C 
BRANCH   6   7
ATOM      7  C   UNL     1      15.024 -33.576  23.734  1.00  0.00     0.152 C 
ATOM      8  O   UNL     1      15.008 -33.906  22.518  1.00  0.00    -0.295 OA
ATOM      9  C   UNL     1      16.202 -33.956  24.572  1.00  0.00     0.093 C 
ENDBRANCH   6   7
ENDBRANCH   1   5
TORSDOF 4
ENDMDL
MODEL 4
REMARK VINA RESULT:    -3.866      1.233      1.574
REMARK INTER + INTRA:          -5.089
REMARK INTER:                  -4.675
REMARK INTRA:                  -0.414
REMARK UNBOUND:                -0.319
REMARK SMILES CCCCC=CC(C)=O
REMARK SMILES IDX 4 1 3 2 2 3 1 4 5 5 6 6 7 7 9 8 8 9
REMARK H PARENT
REMARK Flexibility Score: inf
ROOT
ATOM      1  C   UNL     1      14.846 -30.242  21.732  1.00  0.00     0.027 C 
ENDROOT
BRANCH   1   2
ATOM      2  C   UNL     1      14.733 -30.144  23.262  1.00  0.00     0.004 C 
BRANCH   2   3
ATOM      3  C   UNL     1      13.278 -30.211  23.749  1.00  0.00    -0.003 C 
ATOM      4  C   UNL     1      12.712 -28.834  24.099  1.00  0.00     0.004 C 
ENDBRANCH   2   3
ENDBRANCH   1   2
BRANCH   1   5
ATOM      5  C   UNL     1      13.762 -31.119  21.163  1.00  0.00    -0.023 C 
ATOM      6  C   UNL     1      13.856 -32.440  20.935  1.00  0.00     0.042 C 
BRANCH   6   7
ATOM      7  C   UNL     1      15.020 -33.305  21.236  1.00  0.00     0.152 C 
ATOM      8  O   UNL     1      15.888 -33.575  20.364  1.00  0.00    -0.295 OA
ATOM      9  C   UNL     1      15.209 -33.815  22.629  1.00  0.00     0.093 C 
ENDBRANCH   6   7
ENDBRANCH   1   5
TORSDOF 4
ENDMDL
MODEL 5
REMARK VINA RESULT:    -3.790      2.633      4.827
REMARK INTER + INTRA:          -4.995
REMARK INTER:                  -4.704
REMARK INTRA:                  -0.291
REMARK UNBOUND:                -0.319
REMARK SMILES CCCCC=CC(C)=O
REMARK SMILES IDX 4 1 3 2 2 3 1 4 5 5 6 6 7 7 9 8 8 9
REMARK H PARENT
REMARK Flexibility Score: inf
ROOT
ATOM      1  C   UNL     1      15.080 -29.980  22.662  1.00  0.00     0.027 C 
ENDROOT
BRANCH   1   2
ATOM      2  C   UNL     1      14.686 -30.448  21.252  1.00  0.00     0.004 C 
BRANCH   2   3
ATOM      3  C   UNL     1      13.657 -31.589  21.279  1.00  0.00    -0.003 C 
ATOM      4  C   UNL     1      14.220 -32.901  20.733  1.00  0.00     0.004 C 
ENDBRANCH   2   3
ENDBRANCH   1   2
BRANCH   1   5
ATOM      5  C   UNL     1      14.162 -30.561  23.704  1.00  0.00    -0.023 C 
ATOM      6  C   UNL     1      13.106 -29.941  24.256  1.00  0.00     0.042 C 
BRANCH   6   7
ATOM      7  C   UNL     1      12.607 -28.587  23.924  1.00  0.00     0.152 C 
ATOM      8  O   UNL     1      13.246 -27.548  24.238  1.00  0.00    -0.295 OA
ATOM      9  C   UNL     1      11.346 -28.448  23.132  1.00  0.00     0.093 C 
ENDBRANCH   6   7
ENDBRANCH   1   5
TORSDOF 4
ENDMDL
MODEL 6
REMARK VINA RESULT:    -3.713      2.310      4.355
REMARK INTER + INTRA:          -4.901
REMARK INTER:                  -4.435
REMARK INTRA:                  -0.466
REMARK UNBOUND:                -0.319
REMARK SMILES CCCCC=CC(C)=O
REMARK SMILES IDX 4 1 3 2 2 3 1 4 5 5 6 6 7 7 9 8 8 9
REMARK H PARENT
REMARK Flexibility Score: inf
ROOT
ATOM      1  C   UNL     1      13.873 -32.668  24.245  1.00  0.00     0.027 C 
ENDROOT
BRANCH   1   2
ATOM      2  C   UNL     1      15.160 -33.507  24.251  1.00  0.00     0.004 C 
BRANCH   2   3
ATOM      3  C   UNL     1      16.001 -33.304  22.981  1.00  0.00    -0.003 C 
ATOM      4  C   UNL     1      15.690 -34.339  21.900  1.00  0.00     0.004 C 
ENDBRANCH   2   3
ENDBRANCH   1   2
BRANCH   1   5
ATOM      5  C   UNL     1      14.172 -31.216  23.986  1.00  0.00    -0.023 C 
ATOM      6  C   UNL     1      13.702 -30.486  22.960  1.00  0.00     0.042 C 
BRANCH   6   7
ATOM      7  C   UNL     1      12.767 -30.946  21.908  1.00  0.00     0.152 C 
ATOM      8  O   UNL     1      11.545 -30.643  21.928  1.00  0.00    -0.295 OA
ATOM      9  C   UNL     1      13.299 -31.732  20.752  1.00  0.00     0.093 C 
ENDBRANCH   6   7
ENDBRANCH   1   5
TORSDOF 4
ENDMDL
MODEL 7
REMARK VINA RESULT:    -3.681      1.026      1.757
REMARK INTER + INTRA:          -4.860
REMARK INTER:                  -4.297
REMARK INTRA:                  -0.563
REMARK UNBOUND:                -0.319
REMARK SMILES CCCCC=CC(C)=O
REMARK SMILES IDX 4 1 3 2 2 3 1 4 5 5 6 6 7 7 9 8 8 9
REMARK H PARENT
REMARK Flexibility Score: inf
ROOT
ATOM      1  C   UNL     1      13.178 -31.018  23.064  1.00  0.00     0.027 C 
ENDROOT
BRANCH   1   2
ATOM      2  C   UNL     1      13.579 -29.545  23.244  1.00  0.00     0.004 C 
BRANCH   2   3
ATOM      3  C   UNL     1      15.102 -29.342  23.207  1.00  0.00    -0.003 C 
ATOM      4  C   UNL     1      15.558 -28.542  21.987  1.00  0.00     0.004 C 
ENDBRANCH   2   3
ENDBRANCH   1   2
BRANCH   1   5
ATOM      5  C   UNL     1      13.044 -31.371  21.607  1.00  0.00    -0.023 C 
ATOM      6  C   UNL     1      13.875 -32.165  20.910  1.00  0.00     0.042 C 
BRANCH   6   7
ATOM      7  C   UNL     1      15.056 -32.883  21.439  1.00  0.00     0.152 C 
ATOM      8  O   UNL     1      14.962 -34.032  21.947  1.00  0.00    -0.295 OA
ATOM      9  C   UNL     1      16.409 -32.261  21.306  1.00  0.00     0.093 C 
ENDBRANCH   6   7
ENDBRANCH   1   5
TORSDOF 4
ENDMDL
MODEL 8
REMARK VINA RESULT:    -3.637      1.468      2.079
REMARK INTER + INTRA:          -4.806
REMARK INTER:                  -4.408
REMARK INTRA:                  -0.399
REMARK UNBOUND:                -0.319
REMARK SMILES CCCCC=CC(C)=O
REMARK SMILES IDX 4 1 3 2 2 3 1 4 5 5 6 6 7 7 9 8 8 9
REMARK H PARENT
REMARK Flexibility Score: inf
ROOT
ATOM      1  C   UNL     1      13.554 -31.108  21.245  1.00  0.00     0.027 C 
ENDROOT
BRANCH   1   2
ATOM      2  C   UNL     1      12.637 -30.850  22.451  1.00  0.00     0.004 C 
BRANCH   2   3
ATOM      3  C   UNL     1      13.386 -30.218  23.635  1.00  0.00    -0.003 C 
ATOM      4  C   UNL     1      12.707 -28.950  24.149  1.00  0.00     0.004 C 
ENDBRANCH   2   3
ENDBRANCH   1   2
BRANCH   1   5
ATOM      5  C   UNL     1      14.089 -32.514  21.260  1.00  0.00    -0.023 C 
ATOM      6  C   UNL     1      15.347 -32.875  21.567  1.00  0.00     0.042 C 
BRANCH   6   7
ATOM      7  C   UNL     1      16.442 -31.973  21.992  1.00  0.00     0.152 C 
ATOM      8  O   UNL     1      17.100 -31.292  21.162  1.00  0.00    -0.295 OA
ATOM      9  C   UNL     1      16.731 -31.813  23.450  1.00  0.00     0.093 C 
ENDBRANCH   6   7
ENDBRANCH   1   5
TORSDOF 4
ENDMDL
MODEL 9
REMARK VINA RESULT:    -3.595      1.463      2.267
REMARK INTER + INTRA:          -4.755
REMARK INTER:                  -4.136
REMARK INTRA:                  -0.619
REMARK UNBOUND:                -0.319
REMARK SMILES CCCCC=CC(C)=O
REMARK SMILES IDX 4 1 3 2 2 3 1 4 5 5 6 6 7 7 9 8 8 9
REMARK H PARENT
REMARK Flexibility Score: inf
ROOT
ATOM      1  C   UNL     1      14.985 -30.015  21.593  1.00  0.00     0.027 C 
ENDROOT
BRANCH   1   2
ATOM      2  C   UNL     1      14.596 -29.532  22.999  1.00  0.00     0.004 C 
BRANCH   2   3
ATOM      3  C   UNL     1      13.304 -30.188  23.510  1.00  0.00    -0.003 C 
ATOM      4  C   UNL     1      12.380 -30.628  22.374  1.00  0.00     0.004 C 
ENDBRANCH   2   3
ENDBRANCH   1   2
BRANCH   1   5
ATOM      5  C   UNL     1      16.261 -30.813  21.626  1.00  0.00    -0.023 C 
ATOM      6  C   UNL     1      16.359 -32.133  21.858  1.00  0.00     0.042 C 
BRANCH   6   7
ATOM      7  C   UNL     1      15.236 -33.073  22.084  1.00  0.00     0.152 C 
ATOM      8  O   UNL     1      14.555 -33.534  21.130  1.00  0.00    -0.295 OA
ATOM      9  C   UNL     1      14.946 -33.543  23.473  1.00  0.00     0.093 C 
ENDBRANCH   6   7
ENDBRANCH   1   5
TORSDOF 4
ENDMDL
