MODEL 1
REMARK VINA RESULT:    -4.180      0.000      0.000
REMARK INTER + INTRA:          -6.650
REMARK INTER:                  -6.380
REMARK INTRA:                  -0.270
REMARK UNBOUND:                -0.270
REMARK SMILES CC1=CCC[C@@H](C)C(=O)C[C@H](C(C)C)C(=O)C1
REMARK SMILES IDX 8 1 9 2 6 3 7 4 5 5 4 6 3 7 2 8 1 9 10 11 11 12 15 13 16 14
REMARK SMILES IDX 17 15 12 17 13 18 14 19
REMARK H PARENT
REMARK Flexibility Score: 70.00
ROOT
ATOM      1  C   UNL     1      17.468 -30.487  22.369  1.00  0.00     0.136 C 
ATOM      2  O   UNL     1      17.250 -29.465  21.731  1.00  0.00    -0.299 OA
ENDROOT
BRANCH   1   3
ATOM      3  C   UNL     1      18.721 -31.292  22.087  1.00  0.00     0.053 C 
ATOM      4  C   UNL     1      19.974 -30.428  22.291  1.00  0.00     0.016 C 
BRANCH   3   5
ATOM      5  C   UNL     1      18.673 -31.871  20.655  1.00  0.00     0.015 C 
BRANCH   5   6
ATOM      6  C   UNL     1      17.728 -33.084  20.548  1.00  0.00     0.028 C 
BRANCH   6   7
ATOM      7  C   UNL     1      17.905 -34.022  21.714  1.00  0.00    -0.028 C 
ATOM      8  C   UNL     1      16.903 -34.495  22.491  1.00  0.00    -0.070 CG0
ATOM      9  C   UNL     1      17.259 -35.477  23.580  1.00  0.00     0.039 C 
ATOM     10  G   UNL     1      15.447 -34.099  22.312  1.00  0.00     0.000 G0
ENDBRANCH   6   7
ENDBRANCH   5   6
ENDBRANCH   3   5
ENDBRANCH   1   3
BRANCH   1  11
ATOM     11  C   UNL     1      16.478 -30.920  23.425  1.00  0.00     0.087 C 
BRANCH  11  12
ATOM     12  C   UNL     1      15.185 -31.520  22.815  1.00  0.00     0.066 C 
BRANCH  12  13
ATOM     13  C   UNL     1      15.014 -32.978  23.227  1.00  0.00     0.140 C 
ATOM     14  O   UNL     1      14.577 -33.225  24.343  1.00  0.00    -0.299 OA
BRANCH  13  15
ATOM     15  C   UNL     1      15.435 -34.120  22.330  1.00  0.00     0.106 CG0
ATOM     16  G   UNL     1      16.904 -34.474  22.499  1.00  0.00     0.000 G0
ENDBRANCH  13  15
ENDBRANCH  12  13
BRANCH  12  17
ATOM     17  C   UNL     1      13.908 -30.678  23.143  1.00  0.00    -0.006 C 
ATOM     18  C   UNL     1      14.218 -29.178  23.296  1.00  0.00     0.008 C 
ATOM     19  C   UNL     1      12.837 -30.853  22.051  1.00  0.00     0.008 C 
ENDBRANCH  12  17
ENDBRANCH  11  12
ENDBRANCH   1  11
TORSDOF 1
ENDMDL
MODEL 2
REMARK VINA RESULT:    -4.161      1.728      3.919
REMARK INTER + INTRA:          -6.620
REMARK INTER:                  -6.543
REMARK INTRA:                  -0.077
REMARK UNBOUND:                -0.270
REMARK SMILES CC1=CCC[C@@H](C)C(=O)C[C@H](C(C)C)C(=O)C1
REMARK SMILES IDX 8 1 9 2 6 3 7 4 5 5 4 6 3 7 2 8 1 9 10 11 11 12 15 13 16 14
REMARK SMILES IDX 17 15 12 17 13 18 14 19
REMARK H PARENT
REMARK Flexibility Score: 70.00
ROOT
ATOM      1  C   UNL     1      14.621 -33.214  23.308  1.00  0.00     0.136 C 
ATOM      2  O   UNL     1      13.896 -33.263  24.292  1.00  0.00    -0.299 OA
ENDROOT
BRANCH   1   3
ATOM      3  C   UNL     1      15.673 -34.285  23.099  1.00  0.00     0.053 C 
ATOM      4  C   UNL     1      16.360 -34.633  24.428  1.00  0.00     0.016 C 
BRANCH   3   5
ATOM      5  C   UNL     1      16.706 -33.820  22.047  1.00  0.00     0.015 C 
BRANCH   5   6
ATOM      6  C   UNL     1      17.950 -33.179  22.695  1.00  0.00     0.028 C 
BRANCH   6   7
ATOM      7  C   UNL     1      18.473 -32.036  21.864  1.00  0.00    -0.028 C 
ATOM      8  C   UNL     1      18.151 -30.734  22.042  1.00  0.00    -0.070 CG0
ATOM      9  C   UNL     1      18.819 -29.714  21.153  1.00  0.00     0.039 C 
ATOM     10  G   UNL     1      17.168 -30.251  23.095  1.00  0.00     0.000 G0
ENDBRANCH   6   7
ENDBRANCH   5   6
ENDBRANCH   3   5
ENDBRANCH   1   3
BRANCH   1  11
ATOM     11  C   UNL     1      14.448 -32.083  22.322  1.00  0.00     0.087 C 
BRANCH  11  12
ATOM     12  C   UNL     1      14.538 -30.689  22.996  1.00  0.00     0.066 C 
BRANCH  12  13
ATOM     13  C   UNL     1      15.782 -29.940  22.531  1.00  0.00     0.140 C 
ATOM     14  O   UNL     1      15.673 -29.131  21.619  1.00  0.00    -0.299 OA
BRANCH  13  15
ATOM     15  C   UNL     1      17.151 -30.218  23.110  1.00  0.00     0.106 CG0
ATOM     16  G   UNL     1      18.127 -30.727  22.062  1.00  0.00     0.000 G0
ENDBRANCH  13  15
ENDBRANCH  12  13
BRANCH  12  17
ATOM     17  C   UNL     1      13.246 -29.831  22.802  1.00  0.00    -0.006 C 
ATOM     18  C   UNL     1      12.082 -30.649  22.212  1.00  0.00     0.008 C 
ATOM     19  C   UNL     1      12.788 -29.213  24.136  1.00  0.00     0.008 C 
ENDBRANCH  12  17
ENDBRANCH  11  12
ENDBRANCH   1  11
TORSDOF 1
ENDMDL
MODEL 3
REMARK VINA RESULT:    -4.112      2.395      4.765
REMARK INTER + INTRA:          -6.546
REMARK INTER:                  -6.353
REMARK INTRA:                  -0.192
REMARK UNBOUND:                -0.270
REMARK SMILES CC1=CCC[C@@H](C)C(=O)C[C@H](C(C)C)C(=O)C1
REMARK SMILES IDX 8 1 9 2 6 3 7 4 5 5 4 6 3 7 2 8 1 9 10 11 11 12 15 13 16 14
REMARK SMILES IDX 17 15 12 17 13 18 14 19
REMARK H PARENT
REMARK Flexibility Score: 70.00
ROOT
ATOM      1  C   UNL     1      14.959 -33.543  21.051  1.00  0.00     0.136 C 
ATOM      2  O   UNL     1      14.622 -33.620  19.877  1.00  0.00    -0.299 OA
ENDROOT
BRANCH   1   3
ATOM      3  C   UNL     1      14.587 -32.314  21.858  1.00  0.00     0.053 C 
ATOM      4  C   UNL     1      13.479 -31.520  21.150  1.00  0.00     0.016 C 
BRANCH   3   5
ATOM      5  C   UNL     1      15.835 -31.434  22.095  1.00  0.00     0.015 C 
BRANCH   5   6
ATOM      6  C   UNL     1      16.199 -31.330  23.590  1.00  0.00     0.028 C 
BRANCH   6   7
ATOM      7  C   UNL     1      17.690 -31.402  23.798  1.00  0.00    -0.028 C 
ATOM      8  C   UNL     1      18.394 -32.542  23.987  1.00  0.00    -0.070 CG0
ATOM      9  C   UNL     1      19.893 -32.431  24.118  1.00  0.00     0.039 C 
ATOM     10  G   UNL     1      17.755 -33.919  24.060  1.00  0.00     0.000 G0
ENDBRANCH   6   7
ENDBRANCH   5   6
ENDBRANCH   3   5
ENDBRANCH   1   3
BRANCH   1  11
ATOM     11  C   UNL     1      15.740 -34.679  21.668  1.00  0.00     0.087 C 
BRANCH  11  12
ATOM     12  C   UNL     1      17.273 -34.489  21.531  1.00  0.00     0.066 C 
BRANCH  12  13
ATOM     13  C   UNL     1      17.976 -34.767  22.855  1.00  0.00     0.140 C 
ATOM     14  O   UNL     1      18.709 -35.742  22.936  1.00  0.00    -0.299 OA
BRANCH  13  15
ATOM     15  C   UNL     1      17.738 -33.918  24.084  1.00  0.00     0.106 CG0
ATOM     16  G   UNL     1      18.396 -32.552  23.978  1.00  0.00     0.000 G0
ENDBRANCH  13  15
ENDBRANCH  12  13
BRANCH  12  17
ATOM     17  C   UNL     1      17.890 -35.330  20.366  1.00  0.00    -0.006 C 
ATOM     18  C   UNL     1      16.958 -36.463  19.902  1.00  0.00     0.008 C 
ATOM     19  C   UNL     1      18.221 -34.436  19.156  1.00  0.00     0.008 C 
ENDBRANCH  12  17
ENDBRANCH  11  12
ENDBRANCH   1  11
TORSDOF 1
ENDMDL
MODEL 4
REMARK VINA RESULT:    -4.066      1.865      4.278
REMARK INTER + INTRA:          -6.476
REMARK INTER:                  -6.325
REMARK INTRA:                  -0.151
REMARK UNBOUND:                -0.270
REMARK SMILES CC1=CCC[C@@H](C)C(=O)C[C@H](C(C)C)C(=O)C1
REMARK SMILES IDX 8 1 9 2 6 3 7 4 5 5 4 6 3 7 2 8 1 9 10 11 11 12 15 13 16 14
REMARK SMILES IDX 17 15 12 17 13 18 14 19
REMARK H PARENT
REMARK Flexibility Score: 70.00
ROOT
ATOM      1  C   UNL     1      18.580 -32.278  20.900  1.00  0.00     0.136 C 
ATOM      2  O   UNL     1      19.791 -32.277  20.724  1.00  0.00    -0.299 OA
ENDROOT
BRANCH   1   3
ATOM      3  C   UNL     1      17.942 -31.177  21.724  1.00  0.00     0.053 C 
ATOM      4  C   UNL     1      18.388 -29.798  21.216  1.00  0.00     0.016 C 
BRANCH   3   5
ATOM      5  C   UNL     1      18.291 -31.357  23.218  1.00  0.00     0.015 C 
BRANCH   5   6
ATOM      6  C   UNL     1      17.070 -31.790  24.054  1.00  0.00     0.028 C 
BRANCH   6   7
ATOM      7  C   UNL     1      15.783 -31.310  23.433  1.00  0.00    -0.028 C 
ATOM      8  C   UNL     1      14.840 -32.109  22.883  1.00  0.00    -0.070 CG0
ATOM      9  C   UNL     1      13.582 -31.460  22.361  1.00  0.00     0.039 C 
ATOM     10  G   UNL     1      14.979 -33.620  22.779  1.00  0.00     0.000 G0
ENDBRANCH   6   7
ENDBRANCH   5   6
ENDBRANCH   3   5
ENDBRANCH   1   3
BRANCH   1  11
ATOM     11  C   UNL     1      17.748 -33.382  20.290  1.00  0.00     0.087 C 
BRANCH  11  12
ATOM     12  C   UNL     1      17.125 -34.316  21.360  1.00  0.00     0.066 C 
BRANCH  12  13
ATOM     13  C   UNL     1      15.625 -34.072  21.487  1.00  0.00     0.140 C 
ATOM     14  O   UNL     1      14.928 -34.173  20.487  1.00  0.00    -0.299 OA
BRANCH  13  15
ATOM     15  C   UNL     1      14.989 -33.641  22.789  1.00  0.00     0.106 CG0
ATOM     16  G   UNL     1      14.845 -32.131  22.888  1.00  0.00     0.000 G0
ENDBRANCH  13  15
ENDBRANCH  12  13
BRANCH  12  17
ATOM     17  C   UNL     1      17.441 -35.827  21.111  1.00  0.00    -0.006 C 
ATOM     18  C   UNL     1      17.627 -36.148  19.617  1.00  0.00     0.008 C 
ATOM     19  C   UNL     1      18.710 -36.257  21.870  1.00  0.00     0.008 C 
ENDBRANCH  12  17
ENDBRANCH  11  12
ENDBRANCH   1  11
TORSDOF 1
ENDMDL
MODEL 5
REMARK VINA RESULT:    -4.008      2.162      4.417
REMARK INTER + INTRA:          -6.387
REMARK INTER:                  -6.858
REMARK INTRA:                   0.471
REMARK UNBOUND:                -0.270
REMARK SMILES CC1=CCC[C@@H](C)C(=O)C[C@H](C(C)C)C(=O)C1
REMARK SMILES IDX 8 1 9 2 6 3 7 4 5 5 4 6 3 7 2 8 1 9 10 11 11 12 15 13 16 14
REMARK SMILES IDX 17 15 12 17 13 18 14 19
REMARK H PARENT
REMARK Flexibility Score: 70.00
ROOT
ATOM      1  C   UNL     1      14.339 -32.465  21.461  1.00  0.00     0.136 C 
ATOM      2  O   UNL     1      13.416 -32.041  20.778  1.00  0.00    -0.299 OA
ENDROOT
BRANCH   1   3
ATOM      3  C   UNL     1      14.807 -31.671  22.664  1.00  0.00     0.053 C 
ATOM      4  C   UNL     1      13.631 -31.383  23.609  1.00  0.00     0.016 C 
BRANCH   3   5
ATOM      5  C   UNL     1      15.485 -30.360  22.208  1.00  0.00     0.015 C 
BRANCH   5   6
ATOM      6  C   UNL     1      16.931 -30.239  22.730  1.00  0.00     0.028 C 
BRANCH   6   7
ATOM      7  C   UNL     1      17.168 -31.152  23.905  1.00  0.00    -0.028 C 
ATOM      8  C   UNL     1      17.804 -32.345  23.848  1.00  0.00    -0.070 CG0
ATOM      9  C   UNL     1      18.004 -33.100  25.139  1.00  0.00     0.039 C 
ATOM     10  G   UNL     1      18.334 -32.950  22.559  1.00  0.00     0.000 G0
ENDBRANCH   6   7
ENDBRANCH   5   6
ENDBRANCH   3   5
ENDBRANCH   1   3
BRANCH   1  11
ATOM     11  C   UNL     1      14.991 -33.775  21.084  1.00  0.00     0.087 C 
BRANCH  11  12
ATOM     12  C   UNL     1      16.497 -33.615  20.755  1.00  0.00     0.066 C 
BRANCH  12  13
ATOM     13  C   UNL     1      17.358 -33.953  21.967  1.00  0.00     0.140 C 
ATOM     14  O   UNL     1      17.210 -35.041  22.507  1.00  0.00    -0.299 OA
BRANCH  13  15
ATOM     15  C   UNL     1      18.333 -32.962  22.562  1.00  0.00     0.106 CG0
ATOM     16  G   UNL     1      17.812 -32.343  23.849  1.00  0.00     0.000 G0
ENDBRANCH  13  15
ENDBRANCH  12  13
BRANCH  12  17
ATOM     17  C   UNL     1      16.937 -34.429  19.494  1.00  0.00    -0.006 C 
ATOM     18  C   UNL     1      18.439 -34.279  19.193  1.00  0.00     0.008 C 
ATOM     19  C   UNL     1      16.614 -35.925  19.665  1.00  0.00     0.008 C 
ENDBRANCH  12  17
ENDBRANCH  11  12
ENDBRANCH   1  11
TORSDOF 1
ENDMDL
MODEL 6
REMARK VINA RESULT:    -3.954      2.314      3.836
REMARK INTER + INTRA:          -6.304
REMARK INTER:                  -5.990
REMARK INTRA:                  -0.314
REMARK UNBOUND:                -0.270
REMARK SMILES CC1=CCC[C@@H](C)C(=O)C[C@H](C(C)C)C(=O)C1
REMARK SMILES IDX 8 1 9 2 6 3 7 4 5 5 4 6 3 7 2 8 1 9 10 11 11 12 15 13 16 14
REMARK SMILES IDX 17 15 12 17 13 18 14 19
REMARK H PARENT
REMARK Flexibility Score: 70.00
ROOT
ATOM      1  C   UNL     1      16.830 -34.570  24.833  1.00  0.00     0.136 C 
ATOM      2  O   UNL     1      17.150 -33.852  25.770  1.00  0.00    -0.299 OA
ENDROOT
BRANCH   1   3
ATOM      3  C   UNL     1      17.591 -35.858  24.582  1.00  0.00     0.053 C 
ATOM      4  C   UNL     1      17.500 -36.783  25.805  1.00  0.00     0.016 C 
BRANCH   3   5
ATOM      5  C   UNL     1      19.063 -35.549  24.230  1.00  0.00     0.015 C 
BRANCH   5   6
ATOM      6  C   UNL     1      19.225 -35.073  22.772  1.00  0.00     0.028 C 
BRANCH   6   7
ATOM      7  C   UNL     1      18.538 -36.007  21.810  1.00  0.00    -0.028 C 
ATOM      8  C   UNL     1      17.663 -35.630  20.850  1.00  0.00    -0.070 CG0
ATOM      9  C   UNL     1      17.116 -36.697  19.934  1.00  0.00     0.039 C 
ATOM     10  G   UNL     1      17.218 -34.191  20.642  1.00  0.00     0.000 G0
ENDBRANCH   6   7
ENDBRANCH   5   6
ENDBRANCH   3   5
ENDBRANCH   1   3
BRANCH   1  11
ATOM     11  C   UNL     1      15.682 -34.153  23.944  1.00  0.00     0.087 C 
BRANCH  11  12
ATOM     12  C   UNL     1      16.120 -33.165  22.832  1.00  0.00     0.066 C 
BRANCH  12  13
ATOM     13  C   UNL     1      15.997 -33.808  21.455  1.00  0.00     0.140 C 
ATOM     14  O   UNL     1      14.883 -34.091  21.037  1.00  0.00    -0.299 OA
BRANCH  13  15
ATOM     15  C   UNL     1      17.209 -34.168  20.626  1.00  0.00     0.106 CG0
ATOM     16  G   UNL     1      17.659 -35.602  20.856  1.00  0.00     0.000 G0
ENDBRANCH  13  15
ENDBRANCH  12  13
BRANCH  12  17
ATOM     17  C   UNL     1      15.364 -31.799  22.897  1.00  0.00    -0.006 C 
ATOM     18  C   UNL     1      14.248 -31.795  23.958  1.00  0.00     0.008 C 
ATOM     19  C   UNL     1      16.337 -30.644  23.201  1.00  0.00     0.008 C 
ENDBRANCH  12  17
ENDBRANCH  11  12
ENDBRANCH   1  11
TORSDOF 1
ENDMDL
MODEL 7
REMARK VINA RESULT:    -3.850      2.718      5.031
REMARK INTER + INTRA:          -6.146
REMARK INTER:                  -6.026
REMARK INTRA:                  -0.120
REMARK UNBOUND:                -0.270
REMARK SMILES CC1=CCC[C@@H](C)C(=O)C[C@H](C(C)C)C(=O)C1
REMARK SMILES IDX 8 1 9 2 6 3 7 4 5 5 4 6 3 7 2 8 1 9 10 11 11 12 15 13 16 14
REMARK SMILES IDX 17 15 12 17 13 18 14 19
REMARK H PARENT
REMARK Flexibility Score: 70.00
ROOT
ATOM      1  C   UNL     1      15.465 -33.949  22.317  1.00  0.00     0.136 C 
ATOM      2  O   UNL     1      14.919 -33.450  21.342  1.00  0.00    -0.299 OA
ENDROOT
BRANCH   1   3
ATOM      3  C   UNL     1      15.194 -33.383  23.697  1.00  0.00     0.053 C 
ATOM      4  C   UNL     1      14.226 -32.195  23.612  1.00  0.00     0.016 C 
BRANCH   3   5
ATOM      5  C   UNL     1      16.520 -32.971  24.375  1.00  0.00     0.015 C 
BRANCH   5   6
ATOM      6  C   UNL     1      16.967 -33.985  25.447  1.00  0.00     0.028 C 
BRANCH   6   7
ATOM      7  C   UNL     1      18.469 -34.043  25.554  1.00  0.00    -0.028 C 
ATOM      8  C   UNL     1      19.276 -34.796  24.771  1.00  0.00    -0.070 CG0
ATOM      9  C   UNL     1      20.766 -34.684  24.980  1.00  0.00     0.039 C 
ATOM     10  G   UNL     1      18.759 -35.730  23.690  1.00  0.00     0.000 G0
ENDBRANCH   6   7
ENDBRANCH   5   6
ENDBRANCH   3   5
ENDBRANCH   1   3
BRANCH   1  11
ATOM     11  C   UNL     1      16.398 -35.120  22.120  1.00  0.00     0.087 C 
BRANCH  11  12
ATOM     12  C   UNL     1      17.733 -34.709  21.446  1.00  0.00     0.066 C 
BRANCH  12  13
ATOM     13  C   UNL     1      18.925 -35.164  22.280  1.00  0.00     0.140 C 
ATOM     14  O   UNL     1      20.041 -35.117  21.782  1.00  0.00    -0.299 OA
BRANCH  13  15
ATOM     15  C   UNL     1      18.762 -35.738  23.669  1.00  0.00     0.106 CG0
ATOM     16  G   UNL     1      19.267 -34.793  24.747  1.00  0.00     0.000 G0
ENDBRANCH  13  15
ENDBRANCH  12  13
BRANCH  12  17
ATOM     17  C   UNL     1      17.847 -35.200  19.966  1.00  0.00    -0.006 C 
ATOM     18  C   UNL     1      16.811 -36.287  19.627  1.00  0.00     0.008 C 
ATOM     19  C   UNL     1      17.672 -34.028  18.981  1.00  0.00     0.008 C 
ENDBRANCH  12  17
ENDBRANCH  11  12
ENDBRANCH   1  11
TORSDOF 1
ENDMDL
MODEL 8
REMARK VINA RESULT:    -3.793      2.045      3.417
REMARK INTER + INTRA:          -6.058
REMARK INTER:                  -5.904
REMARK INTRA:                  -0.154
REMARK UNBOUND:                -0.270
REMARK SMILES CC1=CCC[C@@H](C)C(=O)C[C@H](C(C)C)C(=O)C1
REMARK SMILES IDX 8 1 9 2 6 3 7 4 5 5 4 6 3 7 2 8 1 9 10 11 11 12 15 13 16 14
REMARK SMILES IDX 17 15 12 17 13 18 14 19
REMARK H PARENT
REMARK Flexibility Score: 70.00
ROOT
ATOM      1  C   UNL     1      16.302 -33.857  20.879  1.00  0.00     0.136 C 
ATOM      2  O   UNL     1      15.280 -34.486  20.641  1.00  0.00    -0.299 OA
ENDROOT
BRANCH   1   3
ATOM      3  C   UNL     1      17.648 -34.547  20.767  1.00  0.00     0.053 C 
ATOM      4  C   UNL     1      17.971 -34.863  19.300  1.00  0.00     0.016 C 
BRANCH   3   5
ATOM      5  C   UNL     1      17.663 -35.830  21.627  1.00  0.00     0.015 C 
BRANCH   5   6
ATOM      6  C   UNL     1      18.191 -35.571  23.053  1.00  0.00     0.028 C 
BRANCH   6   7
ATOM      7  C   UNL     1      19.217 -34.467  23.065  1.00  0.00    -0.028 C 
ATOM      8  C   UNL     1      19.061 -33.266  23.669  1.00  0.00    -0.070 CG0
ATOM      9  C   UNL     1      20.219 -32.301  23.631  1.00  0.00     0.039 C 
ATOM     10  G   UNL     1      17.788 -32.852  24.390  1.00  0.00     0.000 G0
ENDBRANCH   6   7
ENDBRANCH   5   6
ENDBRANCH   3   5
ENDBRANCH   1   3
BRANCH   1  11
ATOM     11  C   UNL     1      16.197 -32.404  21.279  1.00  0.00     0.087 C 
BRANCH  11  12
ATOM     12  C   UNL     1      15.774 -32.226  22.761  1.00  0.00     0.066 C 
BRANCH  12  13
ATOM     13  C   UNL     1      16.967 -31.827  23.622  1.00  0.00     0.140 C 
ATOM     14  O   UNL     1      17.311 -30.653  23.639  1.00  0.00    -0.299 OA
BRANCH  13  15
ATOM     15  C   UNL     1      17.777 -32.844  24.394  1.00  0.00     0.106 CG0
ATOM     16  G   UNL     1      19.055 -33.233  23.670  1.00  0.00     0.000 G0
ENDBRANCH  13  15
ENDBRANCH  12  13
BRANCH  12  17
ATOM     17  C   UNL     1      14.580 -31.234  22.940  1.00  0.00    -0.006 C 
ATOM     18  C   UNL     1      13.825 -30.980  21.622  1.00  0.00     0.008 C 
ATOM     19  C   UNL     1      13.580 -31.757  23.988  1.00  0.00     0.008 C 
ENDBRANCH  12  17
ENDBRANCH  11  12
ENDBRANCH   1  11
TORSDOF 1
ENDMDL
MODEL 9
REMARK VINA RESULT:    -3.642      2.104      4.489
REMARK INTER + INTRA:          -5.829
REMARK INTER:                  -5.548
REMARK INTRA:                  -0.281
REMARK UNBOUND:                -0.270
REMARK SMILES CC1=CCC[C@@H](C)C(=O)C[C@H](C(C)C)C(=O)C1
REMARK SMILES IDX 8 1 9 2 6 3 7 4 5 5 4 6 3 7 2 8 1 9 10 11 11 12 15 13 16 14
REMARK SMILES IDX 17 15 12 17 13 18 14 19
REMARK H PARENT
REMARK Flexibility Score: 70.00
ROOT
ATOM      1  C   UNL     1      18.708 -34.446  21.782  1.00  0.00     0.136 C 
ATOM      2  O   UNL     1      19.870 -34.813  21.896  1.00  0.00    -0.299 OA
ENDROOT
BRANCH   1   3
ATOM      3  C   UNL     1      17.841 -35.033  20.686  1.00  0.00     0.053 C 
ATOM      4  C   UNL     1      17.976 -34.213  19.395  1.00  0.00     0.016 C 
BRANCH   3   5
ATOM      5  C   UNL     1      16.368 -35.099  21.148  1.00  0.00     0.015 C 
BRANCH   5   6
ATOM      6  C   UNL     1      15.485 -34.057  20.432  1.00  0.00     0.028 C 
BRANCH   6   7
ATOM      7  C   UNL     1      14.626 -33.299  21.412  1.00  0.00    -0.028 C 
ATOM      8  C   UNL     1      14.841 -32.025  21.811  1.00  0.00    -0.070 CG0
ATOM      9  C   UNL     1      13.842 -31.403  22.755  1.00  0.00     0.039 C 
ATOM     10  G   UNL     1      16.023 -31.190  21.346  1.00  0.00     0.000 G0
ENDBRANCH   6   7
ENDBRANCH   5   6
ENDBRANCH   3   5
ENDBRANCH   1   3
BRANCH   1  11
ATOM     11  C   UNL     1      18.166 -33.412  22.741  1.00  0.00     0.087 C 
BRANCH  11  12
ATOM     12  C   UNL     1      18.400 -31.962  22.245  1.00  0.00     0.066 C 
BRANCH  12  13
ATOM     13  C   UNL     1      17.130 -31.129  22.380  1.00  0.00     0.140 C 
ATOM     14  O   UNL     1      16.983 -30.441  23.380  1.00  0.00    -0.299 OA
BRANCH  13  15
ATOM     15  C   UNL     1      16.020 -31.186  21.355  1.00  0.00     0.106 CG0
ATOM     16  G   UNL     1      14.852 -32.042  21.816  1.00  0.00     0.000 G0
ENDBRANCH  13  15
ENDBRANCH  12  13
BRANCH  12  17
ATOM     17  C   UNL     1      19.617 -31.268  22.940  1.00  0.00    -0.006 C 
ATOM     18  C   UNL     1      20.033 -31.979  24.241  1.00  0.00     0.008 C 
ATOM     19  C   UNL     1      20.833 -31.213  21.997  1.00  0.00     0.008 C 
ENDBRANCH  12  17
ENDBRANCH  11  12
ENDBRANCH   1  11
TORSDOF 1
ENDMDL
