MODEL 1
REMARK VINA RESULT:    -6.043      0.000      0.000
REMARK INTER + INTRA:          -6.720
REMARK INTER:                  -7.103
REMARK INTRA:                   0.383
REMARK UNBOUND:                 0.383
REMARK SMILES O=c1c(O)c(-c2ccc(O)c(O)c2)oc2cc(O)ccc12
REMARK SMILES IDX 5 1 3 2 2 3 1 4 21 5 15 6 14 7 16 8 17 9 19 10 20 11 6 12
REMARK SMILES IDX 7 13 8 14 9 15 13 16 11 17 10 18 12 20 4 22 18 24
REMARK H PARENT 10 19 12 21 4 23 18 25
REMARK Flexibility Score: inf
ROOT
ATOM      1  C   UNL     1      -4.016  -7.703  11.881  1.00  0.00     0.180 A 
ATOM      2  C   UNL     1      -3.778  -8.109  13.211  1.00  0.00     0.208 A 
ATOM      3  C   UNL     1      -2.550  -8.712  13.525  1.00  0.00     0.235 A 
ATOM      4  O   UNL     1      -2.309  -9.074  14.710  1.00  0.00    -0.285 OA
ATOM      5  C   UNL     1      -1.601  -8.913  12.510  1.00  0.00     0.069 A 
ATOM      6  C   UNL     1      -1.924  -8.501  11.200  1.00  0.00     0.142 A 
ATOM      7  O   UNL     1      -3.095  -7.926  10.946  1.00  0.00    -0.452 OA
ATOM      8  C   UNL     1      -1.008  -8.693  10.159  1.00  0.00     0.094 A 
ATOM      9  C   UNL     1       0.232  -9.293  10.414  1.00  0.00     0.119 A 
ATOM     10  C   UNL     1       0.555  -9.701  11.711  1.00  0.00     0.047 A 
ATOM     11  C   UNL     1      -0.353  -9.515  12.757  1.00  0.00     0.020 A 
ENDROOT
BRANCH   1  12
ATOM     12  C   UNL     1      -5.278  -7.044  11.474  1.00  0.00     0.025 A 
ATOM     13  C   UNL     1      -6.442  -7.146  12.256  1.00  0.00     0.016 A 
ATOM     14  C   UNL     1      -7.615  -6.496  11.864  1.00  0.00     0.051 A 
ATOM     15  C   UNL     1      -7.639  -5.725  10.694  1.00  0.00     0.157 A 
ATOM     16  C   UNL     1      -5.301  -6.254  10.313  1.00  0.00     0.062 A 
ATOM     17  C   UNL     1      -6.479  -5.602   9.919  1.00  0.00     0.158 A 
BRANCH  15  18
ATOM     18  O   UNL     1      -8.806  -5.077  10.298  1.00  0.00    -0.504 OA
ATOM     19  H   UNL     1      -8.902  -4.070  10.364  1.00  0.00     0.293 HD
ENDBRANCH  15  18
BRANCH  17  20
ATOM     20  O   UNL     1      -6.502  -4.830   8.758  1.00  0.00    -0.504 OA
ATOM     21  H   UNL     1      -7.206  -4.116   8.610  1.00  0.00     0.293 HD
ENDBRANCH  17  20
ENDBRANCH   1  12
BRANCH   2  22
ATOM     22  O   UNL     1      -4.761  -7.940  14.189  1.00  0.00    -0.502 OA
ATOM     23  H   UNL     1      -5.561  -8.557  14.265  1.00  0.00     0.293 HD
ENDBRANCH   2  22
BRANCH   9  24
ATOM     24  O   UNL     1       1.150  -9.488   9.383  1.00  0.00    -0.508 OA
ATOM     25  H   UNL     1       1.771 -10.288   9.372  1.00  0.00     0.293 HD
ENDBRANCH   9  24
TORSDOF 5
ENDMDL
MODEL 2
REMARK VINA RESULT:    -6.013      2.349      6.808
REMARK INTER + INTRA:          -6.685
REMARK INTER:                  -6.371
REMARK INTRA:                  -0.314
REMARK UNBOUND:                 0.383
REMARK SMILES O=c1c(O)c(-c2ccc(O)c(O)c2)oc2cc(O)ccc12
REMARK SMILES IDX 5 1 3 2 2 3 1 4 21 5 15 6 14 7 16 8 17 9 19 10 20 11 6 12
REMARK SMILES IDX 7 13 8 14 9 15 13 16 11 17 10 18 12 20 4 22 18 24
REMARK H PARENT 10 19 12 21 4 23 18 25
REMARK Flexibility Score: inf
ROOT
ATOM      1  C   UNL     1      -5.431  -7.313  11.063  1.00  0.00     0.180 A 
ATOM      2  C   UNL     1      -6.355  -6.521  10.350  1.00  0.00     0.208 A 
ATOM      3  C   UNL     1      -7.459  -5.988  11.034  1.00  0.00     0.235 A 
ATOM      4  O   UNL     1      -8.294  -5.268  10.421  1.00  0.00    -0.285 OA
ATOM      5  C   UNL     1      -7.626  -6.271  12.399  1.00  0.00     0.069 A 
ATOM      6  C   UNL     1      -6.670  -7.091  13.035  1.00  0.00     0.142 A 
ATOM      7  O   UNL     1      -5.635  -7.568  12.353  1.00  0.00    -0.452 OA
ATOM      8  C   UNL     1      -6.807  -7.403  14.393  1.00  0.00     0.094 A 
ATOM      9  C   UNL     1      -7.891  -6.902  15.125  1.00  0.00     0.119 A 
ATOM     10  C   UNL     1      -8.840  -6.088  14.497  1.00  0.00     0.047 A 
ATOM     11  C   UNL     1      -8.713  -5.771  13.142  1.00  0.00     0.020 A 
ENDROOT
BRANCH   1  12
ATOM     12  C   UNL     1      -4.232  -7.896  10.417  1.00  0.00     0.025 A 
ATOM     13  C   UNL     1      -4.256  -9.185   9.858  1.00  0.00     0.016 A 
ATOM     14  C   UNL     1      -3.120  -9.705   9.233  1.00  0.00     0.051 A 
ATOM     15  C   UNL     1      -1.949  -8.940   9.146  1.00  0.00     0.157 A 
ATOM     16  C   UNL     1      -3.062  -7.125  10.309  1.00  0.00     0.062 A 
ATOM     17  C   UNL     1      -1.922  -7.647   9.682  1.00  0.00     0.158 A 
BRANCH  15  18
ATOM     18  O   UNL     1      -0.813  -9.456   8.525  1.00  0.00    -0.504 OA
ATOM     19  H   UNL     1      -0.080  -9.913   9.056  1.00  0.00     0.293 HD
ENDBRANCH  15  18
BRANCH  17  20
ATOM     20  O   UNL     1      -0.757  -6.885   9.589  1.00  0.00    -0.504 OA
ATOM     21  H   UNL     1      -0.790  -5.884   9.436  1.00  0.00     0.293 HD
ENDBRANCH  17  20
ENDBRANCH   1  12
BRANCH   2  22
ATOM     22  O   UNL     1      -6.188  -6.298   8.981  1.00  0.00    -0.502 OA
ATOM     23  H   UNL     1      -6.973  -6.164   8.354  1.00  0.00     0.293 HD
ENDBRANCH   2  22
BRANCH   9  24
ATOM     24  O   UNL     1      -8.036  -7.208  16.477  1.00  0.00    -0.508 OA
ATOM     25  H   UNL     1      -8.678  -6.697  17.069  1.00  0.00     0.293 HD
ENDBRANCH   9  24
TORSDOF 5
ENDMDL
MODEL 3
REMARK VINA RESULT:    -5.925      1.331      2.779
REMARK INTER + INTRA:          -6.581
REMARK INTER:                  -6.929
REMARK INTRA:                   0.348
REMARK UNBOUND:                 0.383
REMARK SMILES O=c1c(O)c(-c2ccc(O)c(O)c2)oc2cc(O)ccc12
REMARK SMILES IDX 5 1 3 2 2 3 1 4 21 5 15 6 14 7 16 8 17 9 19 10 20 11 6 12
REMARK SMILES IDX 7 13 8 14 9 15 13 16 11 17 10 18 12 20 4 22 18 24
REMARK H PARENT 10 19 12 21 4 23 18 25
REMARK Flexibility Score: inf
ROOT
ATOM      1  C   UNL     1      -3.640  -7.763  10.854  1.00  0.00     0.180 A 
ATOM      2  C   UNL     1      -3.027  -8.225   9.671  1.00  0.00     0.208 A 
ATOM      3  C   UNL     1      -1.807  -8.914   9.765  1.00  0.00     0.235 A 
ATOM      4  O   UNL     1      -1.244  -9.347   8.722  1.00  0.00    -0.285 OA
ATOM      5  C   UNL     1      -1.221  -9.108  11.026  1.00  0.00     0.069 A 
ATOM      6  C   UNL     1      -1.885  -8.594  12.160  1.00  0.00     0.142 A 
ATOM      7  O   UNL     1      -3.042  -7.955  12.028  1.00  0.00    -0.452 OA
ATOM      8  C   UNL     1      -1.327  -8.760  13.433  1.00  0.00     0.094 A 
ATOM      9  C   UNL     1      -0.110  -9.435  13.586  1.00  0.00     0.119 A 
ATOM     10  C   UNL     1       0.550  -9.947  12.465  1.00  0.00     0.047 A 
ATOM     11  C   UNL     1       0.002  -9.786  11.189  1.00  0.00     0.020 A 
ENDROOT
BRANCH   1  12
ATOM     12  C   UNL     1      -4.935  -7.044  10.840  1.00  0.00     0.025 A 
ATOM     13  C   UNL     1      -5.800  -7.073  11.948  1.00  0.00     0.016 A 
ATOM     14  C   UNL     1      -7.005  -6.368  11.921  1.00  0.00     0.051 A 
ATOM     15  C   UNL     1      -7.358  -5.614  10.794  1.00  0.00     0.157 A 
ATOM     16  C   UNL     1      -5.283  -6.271   9.721  1.00  0.00     0.062 A 
ATOM     17  C   UNL     1      -6.494  -5.564   9.693  1.00  0.00     0.158 A 
BRANCH  15  18
ATOM     18  O   UNL     1      -8.560  -4.911  10.762  1.00  0.00    -0.504 OA
ATOM     19  H   UNL     1      -8.620  -3.949  11.076  1.00  0.00     0.293 HD
ENDBRANCH  15  18
BRANCH  17  20
ATOM     20  O   UNL     1      -6.844  -4.808   8.575  1.00  0.00    -0.504 OA
ATOM     21  H   UNL     1      -6.609  -3.825   8.505  1.00  0.00     0.293 HD
ENDBRANCH  17  20
ENDBRANCH   1  12
BRANCH   2  22
ATOM     22  O   UNL     1      -3.611  -7.974   8.427  1.00  0.00    -0.502 OA
ATOM     23  H   UNL     1      -3.115  -7.497   7.682  1.00  0.00     0.293 HD
ENDBRANCH   2  22
BRANCH   9  24
ATOM     24  O   UNL     1       0.453  -9.604  14.850  1.00  0.00    -0.508 OA
ATOM     25  H   UNL     1       0.384 -10.484  15.347  1.00  0.00     0.293 HD
ENDBRANCH   9  24
TORSDOF 5
ENDMDL
MODEL 4
REMARK VINA RESULT:    -5.655     15.804     16.622
REMARK INTER + INTRA:          -6.264
REMARK INTER:                  -6.806
REMARK INTRA:                   0.543
REMARK UNBOUND:                 0.383
REMARK SMILES O=c1c(O)c(-c2ccc(O)c(O)c2)oc2cc(O)ccc12
REMARK SMILES IDX 5 1 3 2 2 3 1 4 21 5 15 6 14 7 16 8 17 9 19 10 20 11 6 12
REMARK SMILES IDX 7 13 8 14 9 15 13 16 11 17 10 18 12 20 4 22 18 24
REMARK H PARENT 10 19 12 21 4 23 18 25
REMARK Flexibility Score: inf
ROOT
ATOM      1  C   UNL     1       2.436   7.116   9.997  1.00  0.00     0.180 A 
ATOM      2  C   UNL     1       3.505   6.440   9.373  1.00  0.00     0.208 A 
ATOM      3  C   UNL     1       4.774   6.482   9.971  1.00  0.00     0.235 A 
ATOM      4  O   UNL     1       5.744   5.877   9.437  1.00  0.00    -0.285 OA
ATOM      5  C   UNL     1       4.953   7.209  11.159  1.00  0.00     0.069 A 
ATOM      6  C   UNL     1       3.838   7.878  11.708  1.00  0.00     0.142 A 
ATOM      7  O   UNL     1       2.652   7.806  11.115  1.00  0.00    -0.452 OA
ATOM      8  C   UNL     1       3.979   8.621  12.887  1.00  0.00     0.094 A 
ATOM      9  C   UNL     1       5.223   8.702  13.525  1.00  0.00     0.119 A 
ATOM     10  C   UNL     1       6.329   8.039  12.983  1.00  0.00     0.047 A 
ATOM     11  C   UNL     1       6.199   7.295  11.806  1.00  0.00     0.020 A 
ENDROOT
BRANCH   1  12
ATOM     12  C   UNL     1       1.064   7.104   9.439  1.00  0.00     0.025 A 
ATOM     13  C   UNL     1       0.038   7.882  10.004  1.00  0.00     0.016 A 
ATOM     14  C   UNL     1      -1.243   7.872   9.445  1.00  0.00     0.051 A 
ATOM     15  C   UNL     1      -1.514   7.098   8.309  1.00  0.00     0.157 A 
ATOM     16  C   UNL     1       0.793   6.345   8.289  1.00  0.00     0.062 A 
ATOM     17  C   UNL     1      -0.493   6.336   7.729  1.00  0.00     0.158 A 
BRANCH  15  18
ATOM     18  O   UNL     1      -2.790   7.084   7.751  1.00  0.00    -0.504 OA
ATOM     19  H   UNL     1      -3.572   7.544   8.204  1.00  0.00     0.293 HD
ENDBRANCH  15  18
BRANCH  17  20
ATOM     20  O   UNL     1      -0.762   5.571   6.594  1.00  0.00    -0.504 OA
ATOM     21  H   UNL     1      -1.655   5.109   6.466  1.00  0.00     0.293 HD
ENDBRANCH  17  20
ENDBRANCH   1  12
BRANCH   2  22
ATOM     22  O   UNL     1       3.306   5.766   8.165  1.00  0.00    -0.502 OA
ATOM     23  H   UNL     1       3.980   5.800   7.409  1.00  0.00     0.293 HD
ENDBRANCH   2  22
BRANCH   9  24
ATOM     24  O   UNL     1       5.371   9.439  14.698  1.00  0.00    -0.508 OA
ATOM     25  H   UNL     1       6.027   9.162  15.418  1.00  0.00     0.293 HD
ENDBRANCH   9  24
TORSDOF 5
ENDMDL
MODEL 5
REMARK VINA RESULT:    -5.602     15.220     16.097
REMARK INTER + INTRA:          -6.202
REMARK INTER:                  -5.898
REMARK INTRA:                  -0.304
REMARK UNBOUND:                 0.383
REMARK SMILES O=c1c(O)c(-c2ccc(O)c(O)c2)oc2cc(O)ccc12
REMARK SMILES IDX 5 1 3 2 2 3 1 4 21 5 15 6 14 7 16 8 17 9 19 10 20 11 6 12
REMARK SMILES IDX 7 13 8 14 9 15 13 16 11 17 10 18 12 20 4 22 18 24
REMARK H PARENT 10 19 12 21 4 23 18 25
REMARK Flexibility Score: inf
ROOT
ATOM      1  C   UNL     1       2.981   6.722   8.790  1.00  0.00     0.180 A 
ATOM      2  C   UNL     1       3.837   7.771   8.394  1.00  0.00     0.208 A 
ATOM      3  C   UNL     1       5.225   7.569   8.446  1.00  0.00     0.235 A 
ATOM      4  O   UNL     1       6.011   8.488   8.087  1.00  0.00    -0.285 OA
ATOM      5  C   UNL     1       5.726   6.340   8.907  1.00  0.00     0.069 A 
ATOM      6  C   UNL     1       4.804   5.349   9.307  1.00  0.00     0.142 A 
ATOM      7  O   UNL     1       3.498   5.578   9.235  1.00  0.00    -0.452 OA
ATOM      8  C   UNL     1       5.265   4.115   9.781  1.00  0.00     0.094 A 
ATOM      9  C   UNL     1       6.640   3.859   9.859  1.00  0.00     0.119 A 
ATOM     10  C   UNL     1       7.555   4.839   9.461  1.00  0.00     0.047 A 
ATOM     11  C   UNL     1       7.106   6.075   8.988  1.00  0.00     0.020 A 
ENDROOT
BRANCH   1  12
ATOM     12  C   UNL     1       1.506   6.850   8.747  1.00  0.00     0.025 A 
ATOM     13  C   UNL     1       0.772   7.238   9.882  1.00  0.00     0.016 A 
ATOM     14  C   UNL     1      -0.617   7.375   9.811  1.00  0.00     0.051 A 
ATOM     15  C   UNL     1      -1.289   7.142   8.605  1.00  0.00     0.157 A 
ATOM     16  C   UNL     1       0.829   6.638   7.535  1.00  0.00     0.062 A 
ATOM     17  C   UNL     1      -0.564   6.776   7.464  1.00  0.00     0.158 A 
BRANCH  15  18
ATOM     18  O   UNL     1      -2.674   7.277   8.530  1.00  0.00    -0.504 OA
ATOM     19  H   UNL     1      -3.162   7.250   7.642  1.00  0.00     0.293 HD
ENDBRANCH  15  18
BRANCH  17  20
ATOM     20  O   UNL     1      -1.235   6.550   6.262  1.00  0.00    -0.504 OA
ATOM     21  H   UNL     1      -1.281   7.259   5.540  1.00  0.00     0.293 HD
ENDBRANCH  17  20
ENDBRANCH   1  12
BRANCH   2  22
ATOM     22  O   UNL     1       3.309   8.999   7.987  1.00  0.00    -0.502 OA
ATOM     23  H   UNL     1       3.102   9.204   7.016  1.00  0.00     0.293 HD
ENDBRANCH   2  22
BRANCH   9  24
ATOM     24  O   UNL     1       7.107   2.634  10.329  1.00  0.00    -0.508 OA
ATOM     25  H   UNL     1       6.940   2.334  11.282  1.00  0.00     0.293 HD
ENDBRANCH   9  24
TORSDOF 5
ENDMDL
MODEL 6
REMARK VINA RESULT:    -5.581     15.094     17.127
REMARK INTER + INTRA:          -6.177
REMARK INTER:                  -5.883
REMARK INTRA:                  -0.294
REMARK UNBOUND:                 0.383
REMARK SMILES O=c1c(O)c(-c2ccc(O)c(O)c2)oc2cc(O)ccc12
REMARK SMILES IDX 5 1 3 2 2 3 1 4 21 5 15 6 14 7 16 8 17 9 19 10 20 11 6 12
REMARK SMILES IDX 7 13 8 14 9 15 13 16 11 17 10 18 12 20 4 22 18 24
REMARK H PARENT 10 19 12 21 4 23 18 25
REMARK Flexibility Score: inf
ROOT
ATOM      1  C   UNL     1       3.609   6.328   9.190  1.00  0.00     0.180 A 
ATOM      2  C   UNL     1       3.680   7.365  10.143  1.00  0.00     0.208 A 
ATOM      3  C   UNL     1       2.527   8.118  10.412  1.00  0.00     0.235 A 
ATOM      4  O   UNL     1       2.563   9.045  11.268  1.00  0.00    -0.285 OA
ATOM      5  C   UNL     1       1.341   7.835   9.717  1.00  0.00     0.069 A 
ATOM      6  C   UNL     1       1.357   6.796   8.761  1.00  0.00     0.142 A 
ATOM      7  O   UNL     1       2.468   6.102   8.542  1.00  0.00    -0.452 OA
ATOM      8  C   UNL     1       0.196   6.490   8.040  1.00  0.00     0.094 A 
ATOM      9  C   UNL     1      -0.983   7.211   8.264  1.00  0.00     0.119 A 
ATOM     10  C   UNL     1      -1.002   8.240   9.212  1.00  0.00     0.047 A 
ATOM     11  C   UNL     1       0.151   8.554   9.936  1.00  0.00     0.020 A 
ENDROOT
BRANCH   1  12
ATOM     12  C   UNL     1       4.777   5.478   8.863  1.00  0.00     0.025 A 
ATOM     13  C   UNL     1       5.590   5.749   7.749  1.00  0.00     0.016 A 
ATOM     14  C   UNL     1       6.701   4.947   7.474  1.00  0.00     0.051 A 
ATOM     15  C   UNL     1       7.022   3.873   8.314  1.00  0.00     0.157 A 
ATOM     16  C   UNL     1       5.115   4.413   9.714  1.00  0.00     0.062 A 
ATOM     17  C   UNL     1       6.230   3.608   9.438  1.00  0.00     0.158 A 
BRANCH  15  18
ATOM     18  O   UNL     1       8.128   3.069   8.043  1.00  0.00    -0.504 OA
ATOM     19  H   UNL     1       9.073   3.392   8.219  1.00  0.00     0.293 HD
ENDBRANCH  15  18
BRANCH  17  20
ATOM     20  O   UNL     1       6.555   2.542  10.277  1.00  0.00    -0.504 OA
ATOM     21  H   UNL     1       6.819   2.690  11.243  1.00  0.00     0.293 HD
ENDBRANCH  17  20
ENDBRANCH   1  12
BRANCH   2  22
ATOM     22  O   UNL     1       4.888   7.656  10.784  1.00  0.00    -0.502 OA
ATOM     23  H   UNL     1       4.931   7.934  11.757  1.00  0.00     0.293 HD
ENDBRANCH   2  22
BRANCH   9  24
ATOM     24  O   UNL     1      -2.143   6.913   7.551  1.00  0.00    -0.508 OA
ATOM     25  H   UNL     1      -2.295   5.996   7.148  1.00  0.00     0.293 HD
ENDBRANCH   9  24
TORSDOF 5
ENDMDL
MODEL 7
REMARK VINA RESULT:    -5.523     15.494     16.321
REMARK INTER + INTRA:          -6.109
REMARK INTER:                  -5.843
REMARK INTRA:                  -0.266
REMARK UNBOUND:                 0.383
REMARK SMILES O=c1c(O)c(-c2ccc(O)c(O)c2)oc2cc(O)ccc12
REMARK SMILES IDX 5 1 3 2 2 3 1 4 21 5 15 6 14 7 16 8 17 9 19 10 20 11 6 12
REMARK SMILES IDX 7 13 8 14 9 15 13 16 11 17 10 18 12 20 4 22 18 24
REMARK H PARENT 10 19 12 21 4 23 18 25
REMARK Flexibility Score: inf
ROOT
ATOM      1  C   UNL     1       3.954   6.009   8.975  1.00  0.00     0.180 A 
ATOM      2  C   UNL     1       4.376   5.201   7.899  1.00  0.00     0.208 A 
ATOM      3  C   UNL     1       5.587   4.500   8.012  1.00  0.00     0.235 A 
ATOM      4  O   UNL     1       5.981   3.762   7.068  1.00  0.00    -0.285 OA
ATOM      5  C   UNL     1       6.354   4.635   9.180  1.00  0.00     0.069 A 
ATOM      6  C   UNL     1       5.875   5.482  10.202  1.00  0.00     0.142 A 
ATOM      7  O   UNL     1       4.719   6.121  10.058  1.00  0.00    -0.452 OA
ATOM      8  C   UNL     1       6.617   5.650  11.378  1.00  0.00     0.094 A 
ATOM      9  C   UNL     1       7.835   4.978  11.545  1.00  0.00     0.119 A 
ATOM     10  C   UNL     1       8.311   4.138  10.534  1.00  0.00     0.047 A 
ATOM     11  C   UNL     1       7.579   3.964   9.356  1.00  0.00     0.020 A 
ENDROOT
BRANCH   1  12
ATOM     12  C   UNL     1       2.681   6.765   8.939  1.00  0.00     0.025 A 
ATOM     13  C   UNL     1       1.558   6.343   9.672  1.00  0.00     0.016 A 
ATOM     14  C   UNL     1       0.375   7.086   9.641  1.00  0.00     0.051 A 
ATOM     15  C   UNL     1       0.301   8.266   8.890  1.00  0.00     0.157 A 
ATOM     16  C   UNL     1       2.608   7.960   8.203  1.00  0.00     0.062 A 
ATOM     17  C   UNL     1       1.420   8.705   8.172  1.00  0.00     0.158 A 
BRANCH  15  18
ATOM     18  O   UNL     1      -0.878   9.008   8.855  1.00  0.00    -0.504 OA
ATOM     19  H   UNL     1      -1.763   8.611   9.151  1.00  0.00     0.293 HD
ENDBRANCH  15  18
BRANCH  17  20
ATOM     20  O   UNL     1       1.346   9.883   7.430  1.00  0.00    -0.504 OA
ATOM     21  H   UNL     1       1.007   9.888   6.476  1.00  0.00     0.293 HD
ENDBRANCH  17  20
ENDBRANCH   1  12
BRANCH   2  22
ATOM     22  O   UNL     1       3.614   5.125   6.729  1.00  0.00    -0.502 OA
ATOM     23  H   UNL     1       2.801   4.526   6.651  1.00  0.00     0.293 HD
ENDBRANCH   2  22
BRANCH   9  24
ATOM     24  O   UNL     1       8.579   5.140  12.711  1.00  0.00    -0.508 OA
ATOM     25  H   UNL     1       8.573   4.441  13.444  1.00  0.00     0.293 HD
ENDBRANCH   9  24
TORSDOF 5
ENDMDL
MODEL 8
REMARK VINA RESULT:    -5.450     15.290     16.216
REMARK INTER + INTRA:          -6.023
REMARK INTER:                  -5.707
REMARK INTRA:                  -0.317
REMARK UNBOUND:                 0.383
REMARK SMILES O=c1c(O)c(-c2ccc(O)c(O)c2)oc2cc(O)ccc12
REMARK SMILES IDX 5 1 3 2 2 3 1 4 21 5 15 6 14 7 16 8 17 9 19 10 20 11 6 12
REMARK SMILES IDX 7 13 8 14 9 15 13 16 11 17 10 18 12 20 4 22 18 24
REMARK H PARENT 10 19 12 21 4 23 18 25
REMARK Flexibility Score: inf
ROOT
ATOM      1  C   UNL     1       3.771   6.400   8.841  1.00  0.00     0.180 A 
ATOM      2  C   UNL     1       4.219   6.515   7.509  1.00  0.00     0.208 A 
ATOM      3  C   UNL     1       5.249   5.671   7.066  1.00  0.00     0.235 A 
ATOM      4  O   UNL     1       5.660   5.748   5.875  1.00  0.00    -0.285 OA
ATOM      5  C   UNL     1       5.819   4.750   7.960  1.00  0.00     0.069 A 
ATOM      6  C   UNL     1       5.331   4.713   9.283  1.00  0.00     0.142 A 
ATOM      7  O   UNL     1       4.349   5.524   9.660  1.00  0.00    -0.452 OA
ATOM      8  C   UNL     1       5.880   3.815  10.207  1.00  0.00     0.094 A 
ATOM      9  C   UNL     1       6.913   2.951   9.821  1.00  0.00     0.119 A 
ATOM     10  C   UNL     1       7.398   2.985   8.509  1.00  0.00     0.047 A 
ATOM     11  C   UNL     1       6.857   3.879   7.580  1.00  0.00     0.020 A 
ENDROOT
BRANCH   1  12
ATOM     12  C   UNL     1       2.678   7.241   9.379  1.00  0.00     0.025 A 
ATOM     13  C   UNL     1       2.935   8.504   9.942  1.00  0.00     0.016 A 
ATOM     14  C   UNL     1       1.884   9.290  10.422  1.00  0.00     0.051 A 
ATOM     15  C   UNL     1       0.563   8.834  10.334  1.00  0.00     0.157 A 
ATOM     16  C   UNL     1       1.349   6.797   9.275  1.00  0.00     0.062 A 
ATOM     17  C   UNL     1       0.295   7.586   9.757  1.00  0.00     0.158 A 
BRANCH  15  18
ATOM     18  O   UNL     1      -0.488   9.614  10.813  1.00  0.00    -0.504 OA
ATOM     19  H   UNL     1      -0.986   9.368  11.661  1.00  0.00     0.293 HD
ENDBRANCH  15  18
BRANCH  17  20
ATOM     20  O   UNL     1      -1.022   7.136   9.665  1.00  0.00    -0.504 OA
ATOM     21  H   UNL     1      -1.794   7.675  10.040  1.00  0.00     0.293 HD
ENDBRANCH  17  20
ENDBRANCH   1  12
BRANCH   2  22
ATOM     22  O   UNL     1       3.666   7.475   6.657  1.00  0.00    -0.502 OA
ATOM     23  H   UNL     1       4.206   7.929   5.930  1.00  0.00     0.293 HD
ENDBRANCH   2  22
BRANCH   9  24
ATOM     24  O   UNL     1       7.465   2.054  10.733  1.00  0.00    -0.508 OA
ATOM     25  H   UNL     1       7.207   2.069  11.713  1.00  0.00     0.293 HD
ENDBRANCH   9  24
TORSDOF 5
ENDMDL
