MODEL 1
REMARK VINA RESULT:    -3.142      0.000      0.000
REMARK INTER + INTRA:          -7.506
REMARK INTER:                  -5.529
REMARK INTRA:                  -1.976
REMARK UNBOUND:                -1.976
REMARK SMILES CCCCCCCCCCCCCCC(=O)[O-]
REMARK SMILES IDX 9 1 10 2 11 3 12 4 13 5 14 6 15 7 16 8 17 9 8 10 7 11 6 12
REMARK SMILES IDX 5 13 4 14 3 15 2 16 1 17
REMARK H PARENT
REMARK Flexibility Score: inf
ROOT
ATOM      1  C   UNL     1      -4.147  39.920  97.391  1.00  0.00     0.000 C 
ENDROOT
BRANCH   1   2
ATOM      2  C   UNL     1      -4.511  41.342  96.916  1.00  0.00     0.000 C 
BRANCH   2   3
ATOM      3  C   UNL     1      -3.265  42.219  96.708  1.00  0.00     0.000 C 
BRANCH   3   4
ATOM      4  C   UNL     1      -3.201  42.838  95.301  1.00  0.00     0.000 C 
BRANCH   4   5
ATOM      5  C   UNL     1      -3.058  44.376  95.314  1.00  0.00     0.006 C 
BRANCH   5   6
ATOM      6  C   UNL     1      -2.814  44.927  96.725  1.00  0.00     0.053 C 
BRANCH   6   7
ATOM      7  C   UNL     1      -1.977  46.165  96.669  1.00  0.00     0.041 C 
ATOM      8  O   UNL     1      -1.198  46.360  95.702  1.00  0.00    -0.550 OA
ATOM      9  O   UNL     1      -2.066  47.112  97.683  1.00  0.00    -0.550 OA
ENDBRANCH   6   7
ENDBRANCH   5   6
ENDBRANCH   4   5
ENDBRANCH   3   4
ENDBRANCH   2   3
ENDBRANCH   1   2
BRANCH   1  10
ATOM     10  C   UNL     1      -2.631  39.694  97.543  1.00  0.00     0.000 C 
BRANCH  10  11
ATOM     11  C   UNL     1      -2.227  38.226  97.355  1.00  0.00    -0.000 C 
BRANCH  11  12
ATOM     12  C   UNL     1      -1.307  38.061  96.142  1.00  0.00    -0.000 C 
BRANCH  12  13
ATOM     13  C   UNL     1      -1.179  39.356  95.322  1.00  0.00    -0.000 C 
BRANCH  13  14
ATOM     14  C   UNL     1      -1.423  39.127  93.819  1.00  0.00    -0.000 C 
BRANCH  14  15
ATOM     15  C   UNL     1      -2.692  39.831  93.314  1.00  0.00    -0.000 C 
BRANCH  15  16
ATOM     16  C   UNL     1      -3.976  39.130  93.776  1.00  0.00    -0.003 C 
ATOM     17  C   UNL     1      -5.198  40.015  93.552  1.00  0.00     0.004 C 
ENDBRANCH  15  16
ENDBRANCH  14  15
ENDBRANCH  13  14
ENDBRANCH  12  13
ENDBRANCH  11  12
ENDBRANCH  10  11
ENDBRANCH   1  10
TORSDOF 13
ENDMDL
MODEL 2
REMARK VINA RESULT:    -3.107     15.305     17.413
REMARK INTER + INTRA:          -7.445
REMARK INTER:                  -5.180
REMARK INTRA:                  -2.265
REMARK UNBOUND:                -1.976
REMARK SMILES CCCCCCCCCCCCCCC(=O)[O-]
REMARK SMILES IDX 9 1 10 2 11 3 12 4 13 5 14 6 15 7 16 8 17 9 8 10 7 11 6 12
REMARK SMILES IDX 5 13 4 14 3 15 2 16 1 17
REMARK H PARENT
REMARK Flexibility Score: inf
ROOT
ATOM      1  C   UNL     1     -17.931  40.776  94.085  1.00  0.00     0.000 C 
ENDROOT
BRANCH   1   2
ATOM      2  C   UNL     1     -19.250  41.509  93.760  1.00  0.00     0.000 C 
BRANCH   2   3
ATOM      3  C   UNL     1     -20.264  40.589  93.059  1.00  0.00     0.000 C 
BRANCH   3   4
ATOM      4  C   UNL     1     -19.802  39.123  93.005  1.00  0.00     0.000 C 
BRANCH   4   5
ATOM      5  C   UNL     1     -19.587  38.600  91.569  1.00  0.00     0.006 C 
BRANCH   5   6
ATOM      6  C   UNL     1     -18.954  37.202  91.547  1.00  0.00     0.053 C 
BRANCH   6   7
ATOM      7  C   UNL     1     -18.815  36.709  90.141  1.00  0.00     0.041 C 
ATOM      8  O   UNL     1     -17.783  36.085  89.787  1.00  0.00    -0.550 OA
ATOM      9  O   UNL     1     -19.834  36.932  89.222  1.00  0.00    -0.550 OA
ENDBRANCH   6   7
ENDBRANCH   5   6
ENDBRANCH   4   5
ENDBRANCH   3   4
ENDBRANCH   2   3
ENDBRANCH   1   2
BRANCH   1  10
ATOM     10  C   UNL     1     -17.355  41.135  95.466  1.00  0.00     0.000 C 
BRANCH  10  11
ATOM     11  C   UNL     1     -18.440  41.514  96.483  1.00  0.00    -0.000 C 
BRANCH  11  12
ATOM     12  C   UNL     1     -18.813  40.314  97.359  1.00  0.00    -0.000 C 
BRANCH  12  13
ATOM     13  C   UNL     1     -20.127  39.649  96.914  1.00  0.00    -0.000 C 
BRANCH  13  14
ATOM     14  C   UNL     1     -19.939  38.169  96.534  1.00  0.00    -0.000 C 
BRANCH  14  15
ATOM     15  C   UNL     1     -18.463  37.741  96.543  1.00  0.00    -0.000 C 
BRANCH  15  16
ATOM     16  C   UNL     1     -18.091  36.886  95.325  1.00  0.00    -0.003 C 
ATOM     17  C   UNL     1     -16.802  37.381  94.677  1.00  0.00     0.004 C 
ENDBRANCH  15  16
ENDBRANCH  14  15
ENDBRANCH  13  14
ENDBRANCH  12  13
ENDBRANCH  11  12
ENDBRANCH  10  11
ENDBRANCH   1  10
TORSDOF 13
ENDMDL
MODEL 3
REMARK VINA RESULT:    -3.068     12.421     15.107
REMARK INTER + INTRA:          -7.375
REMARK INTER:                  -5.399
REMARK INTRA:                  -1.976
REMARK UNBOUND:                -1.976
REMARK SMILES CCCCCCCCCCCCCCC(=O)[O-]
REMARK SMILES IDX 9 1 10 2 11 3 12 4 13 5 14 6 15 7 16 8 17 9 8 10 7 11 6 12
REMARK SMILES IDX 5 13 4 14 3 15 2 16 1 17
REMARK H PARENT
REMARK Flexibility Score: inf
ROOT
ATOM      1  C   UNL     1      -8.341  31.402 105.776  1.00  0.00     0.000 C 
ENDROOT
BRANCH   1   2
ATOM      2  C   UNL     1      -7.071  32.224 105.472  1.00  0.00     0.000 C 
BRANCH   2   3
ATOM      3  C   UNL     1      -6.509  31.923 104.072  1.00  0.00     0.000 C 
BRANCH   3   4
ATOM      4  C   UNL     1      -5.756  30.584 104.008  1.00  0.00     0.000 C 
BRANCH   4   5
ATOM      5  C   UNL     1      -4.452  30.652 103.184  1.00  0.00     0.006 C 
BRANCH   5   6
ATOM      6  C   UNL     1      -3.903  32.081 103.079  1.00  0.00     0.053 C 
BRANCH   6   7
ATOM      7  C   UNL     1      -2.765  32.138 102.110  1.00  0.00     0.041 C 
ATOM      8  O   UNL     1      -2.329  31.083 101.582  1.00  0.00    -0.550 OA
ATOM      9  O   UNL     1      -2.191  33.360 101.781  1.00  0.00    -0.550 OA
ENDBRANCH   6   7
ENDBRANCH   5   6
ENDBRANCH   4   5
ENDBRANCH   3   4
ENDBRANCH   2   3
ENDBRANCH   1   2
BRANCH   1  10
ATOM     10  C   UNL     1      -8.221  30.534 107.041  1.00  0.00     0.000 C 
BRANCH  10  11
ATOM     11  C   UNL     1      -7.592  29.161 106.762  1.00  0.00    -0.000 C 
BRANCH  11  12
ATOM     12  C   UNL     1      -6.253  29.013 107.490  1.00  0.00    -0.000 C 
BRANCH  12  13
ATOM     13  C   UNL     1      -6.139  29.948 108.706  1.00  0.00    -0.000 C 
BRANCH  13  14
ATOM     14  C   UNL     1      -4.976  30.948 108.572  1.00  0.00    -0.000 C 
BRANCH  14  15
ATOM     15  C   UNL     1      -4.182  30.759 107.270  1.00  0.00    -0.000 C 
BRANCH  15  16
ATOM     16  C   UNL     1      -3.522  32.058 106.790  1.00  0.00    -0.003 C 
ATOM     17  C   UNL     1      -2.973  32.862 107.964  1.00  0.00     0.004 C 
ENDBRANCH  15  16
ENDBRANCH  14  15
ENDBRANCH  13  14
ENDBRANCH  12  13
ENDBRANCH  11  12
ENDBRANCH  10  11
ENDBRANCH   1  10
TORSDOF 13
ENDMDL
MODEL 4
REMARK VINA RESULT:    -3.060     13.991     16.292
REMARK INTER + INTRA:          -7.363
REMARK INTER:                  -5.712
REMARK INTRA:                  -1.651
REMARK UNBOUND:                -1.976
REMARK SMILES CCCCCCCCCCCCCCC(=O)[O-]
REMARK SMILES IDX 9 1 10 2 11 3 12 4 13 5 14 6 15 7 16 8 17 9 8 10 7 11 6 12
REMARK SMILES IDX 5 13 4 14 3 15 2 16 1 17
REMARK H PARENT
REMARK Flexibility Score: inf
ROOT
ATOM      1  C   UNL     1     -18.900  41.154  95.324  1.00  0.00     0.000 C 
ENDROOT
BRANCH   1   2
ATOM      2  C   UNL     1     -18.900  41.332  93.792  1.00  0.00     0.000 C 
BRANCH   2   3
ATOM      3  C   UNL     1     -20.312  41.203  93.195  1.00  0.00     0.000 C 
BRANCH   3   4
ATOM      4  C   UNL     1     -20.545  39.851  92.500  1.00  0.00     0.000 C 
BRANCH   4   5
ATOM      5  C   UNL     1     -19.240  39.073  92.219  1.00  0.00     0.006 C 
BRANCH   5   6
ATOM      6  C   UNL     1     -18.986  38.884  90.718  1.00  0.00     0.053 C 
BRANCH   6   7
ATOM      7  C   UNL     1     -19.098  37.440  90.344  1.00  0.00     0.041 C 
ATOM      8  O   UNL     1     -18.616  36.552  91.093  1.00  0.00    -0.550 OA
ATOM      9  O   UNL     1     -19.745  37.073  89.170  1.00  0.00    -0.550 OA
ENDBRANCH   6   7
ENDBRANCH   5   6
ENDBRANCH   4   5
ENDBRANCH   3   4
ENDBRANCH   2   3
ENDBRANCH   1   2
BRANCH   1  10
ATOM     10  C   UNL     1     -17.491  41.169  95.943  1.00  0.00     0.000 C 
BRANCH  10  11
ATOM     11  C   UNL     1     -16.378  41.217  94.886  1.00  0.00    -0.000 C 
BRANCH  11  12
ATOM     12  C   UNL     1     -15.336  40.123  95.136  1.00  0.00    -0.000 C 
BRANCH  12  13
ATOM     13  C   UNL     1     -15.977  38.742  95.354  1.00  0.00    -0.000 C 
BRANCH  13  14
ATOM     14  C   UNL     1     -16.264  38.011  94.030  1.00  0.00    -0.000 C 
BRANCH  14  15
ATOM     15  C   UNL     1     -15.479  38.601  92.848  1.00  0.00    -0.000 C 
BRANCH  15  16
ATOM     16  C   UNL     1     -15.293  37.594  91.705  1.00  0.00    -0.003 C 
ATOM     17  C   UNL     1     -15.386  38.281  90.346  1.00  0.00     0.004 C 
ENDBRANCH  15  16
ENDBRANCH  14  15
ENDBRANCH  13  14
ENDBRANCH  12  13
ENDBRANCH  11  12
ENDBRANCH  10  11
ENDBRANCH   1  10
TORSDOF 13
ENDMDL
MODEL 5
REMARK VINA RESULT:    -3.040     13.715     16.028
REMARK INTER + INTRA:          -7.327
REMARK INTER:                  -4.918
REMARK INTRA:                  -2.408
REMARK UNBOUND:                -1.976
REMARK SMILES CCCCCCCCCCCCCCC(=O)[O-]
REMARK SMILES IDX 9 1 10 2 11 3 12 4 13 5 14 6 15 7 16 8 17 9 8 10 7 11 6 12
REMARK SMILES IDX 5 13 4 14 3 15 2 16 1 17
REMARK H PARENT
REMARK Flexibility Score: inf
ROOT
ATOM      1  C   UNL     1     -20.263  38.316  96.037  1.00  0.00     0.000 C 
ENDROOT
BRANCH   1   2
ATOM      2  C   UNL     1     -18.861  37.674  96.082  1.00  0.00     0.000 C 
BRANCH   2   3
ATOM      3  C   UNL     1     -18.398  37.197  94.695  1.00  0.00     0.000 C 
BRANCH   3   4
ATOM      4  C   UNL     1     -16.985  37.687  94.337  1.00  0.00     0.000 C 
BRANCH   4   5
ATOM      5  C   UNL     1     -16.620  37.479  92.851  1.00  0.00     0.006 C 
BRANCH   5   6
ATOM      6  C   UNL     1     -16.234  38.792  92.157  1.00  0.00     0.053 C 
BRANCH   6   7
ATOM      7  C   UNL     1     -14.774  38.806  91.834  1.00  0.00     0.041 C 
ATOM      8  O   UNL     1     -14.384  39.087  90.672  1.00  0.00    -0.550 OA
ATOM      9  O   UNL     1     -13.840  38.518  92.822  1.00  0.00    -0.550 OA
ENDBRANCH   6   7
ENDBRANCH   5   6
ENDBRANCH   4   5
ENDBRANCH   3   4
ENDBRANCH   2   3
ENDBRANCH   1   2
BRANCH   1  10
ATOM     10  C   UNL     1     -20.384  39.586  96.899  1.00  0.00     0.000 C 
BRANCH  10  11
ATOM     11  C   UNL     1     -19.029  40.077  97.427  1.00  0.00    -0.000 C 
BRANCH  11  12
ATOM     12  C   UNL     1     -18.565  41.325  96.670  1.00  0.00    -0.000 C 
BRANCH  12  13
ATOM     13  C   UNL     1     -17.320  41.059  95.807  1.00  0.00    -0.000 C 
BRANCH  13  14
ATOM     14  C   UNL     1     -17.555  41.380  94.320  1.00  0.00    -0.000 C 
BRANCH  14  15
ATOM     15  C   UNL     1     -19.048  41.445  93.960  1.00  0.00    -0.000 C 
BRANCH  15  16
ATOM     16  C   UNL     1     -19.464  40.339  92.981  1.00  0.00    -0.003 C 
ATOM     17  C   UNL     1     -20.982  40.230  92.887  1.00  0.00     0.004 C 
ENDBRANCH  15  16
ENDBRANCH  14  15
ENDBRANCH  13  14
ENDBRANCH  12  13
ENDBRANCH  11  12
ENDBRANCH  10  11
ENDBRANCH   1  10
TORSDOF 13
ENDMDL
MODEL 6
REMARK VINA RESULT:    -3.039     15.249     17.351
REMARK INTER + INTRA:          -7.325
REMARK INTER:                  -5.371
REMARK INTRA:                  -1.954
REMARK UNBOUND:                -1.976
REMARK SMILES CCCCCCCCCCCCCCC(=O)[O-]
REMARK SMILES IDX 9 1 10 2 11 3 12 4 13 5 14 6 15 7 16 8 17 9 8 10 7 11 6 12
REMARK SMILES IDX 5 13 4 14 3 15 2 16 1 17
REMARK H PARENT
REMARK Flexibility Score: inf
ROOT
ATOM      1  C   UNL     1     -20.254  40.483  92.914  1.00  0.00     0.000 C 
ENDROOT
BRANCH   1   2
ATOM      2  C   UNL     1     -21.084  39.647  93.911  1.00  0.00     0.000 C 
BRANCH   2   3
ATOM      3  C   UNL     1     -21.125  38.159  93.523  1.00  0.00     0.000 C 
BRANCH   3   4
ATOM      4  C   UNL     1     -19.822  37.680  92.861  1.00  0.00     0.000 C 
BRANCH   4   5
ATOM      5  C   UNL     1     -20.049  36.941  91.524  1.00  0.00     0.006 C 
BRANCH   5   6
ATOM      6  C   UNL     1     -19.216  37.535  90.381  1.00  0.00     0.053 C 
BRANCH   6   7
ATOM      7  C   UNL     1     -17.756  37.454  90.697  1.00  0.00     0.041 C 
ATOM      8  O   UNL     1     -17.189  36.336  90.788  1.00  0.00    -0.550 OA
ATOM      9  O   UNL     1     -17.019  38.618  90.882  1.00  0.00    -0.550 OA
ENDBRANCH   6   7
ENDBRANCH   5   6
ENDBRANCH   4   5
ENDBRANCH   3   4
ENDBRANCH   2   3
ENDBRANCH   1   2
BRANCH   1  10
ATOM     10  C   UNL     1     -19.236  41.415  93.595  1.00  0.00     0.000 C 
BRANCH  10  11
ATOM     11  C   UNL     1     -17.925  40.701  93.955  1.00  0.00    -0.000 C 
BRANCH  11  12
ATOM     12  C   UNL     1     -17.391  41.184  95.307  1.00  0.00    -0.000 C 
BRANCH  12  13
ATOM     13  C   UNL     1     -18.519  41.522  96.297  1.00  0.00    -0.000 C 
BRANCH  13  14
ATOM     14  C   UNL     1     -19.127  40.266  96.947  1.00  0.00    -0.000 C 
BRANCH  14  15
ATOM     15  C   UNL     1     -18.067  39.206  97.287  1.00  0.00    -0.000 C 
BRANCH  15  16
ATOM     16  C   UNL     1     -18.429  37.819  96.741  1.00  0.00    -0.003 C 
ATOM     17  C   UNL     1     -17.482  37.405  95.619  1.00  0.00     0.004 C 
ENDBRANCH  15  16
ENDBRANCH  14  15
ENDBRANCH  13  14
ENDBRANCH  12  13
ENDBRANCH  11  12
ENDBRANCH  10  11
ENDBRANCH   1  10
TORSDOF 13
ENDMDL
MODEL 7
REMARK VINA RESULT:    -3.038      3.441      6.666
REMARK INTER + INTRA:          -7.323
REMARK INTER:                  -5.253
REMARK INTRA:                  -2.069
REMARK UNBOUND:                -1.976
REMARK SMILES CCCCCCCCCCCCCCC(=O)[O-]
REMARK SMILES IDX 9 1 10 2 11 3 12 4 13 5 14 6 15 7 16 8 17 9 8 10 7 11 6 12
REMARK SMILES IDX 5 13 4 14 3 15 2 16 1 17
REMARK H PARENT
REMARK Flexibility Score: inf
ROOT
ATOM      1  C   UNL     1      -5.541  43.479  95.473  1.00  0.00     0.000 C 
ENDROOT
BRANCH   1   2
ATOM      2  C   UNL     1      -4.440  42.854  94.590  1.00  0.00     0.000 C 
BRANCH   2   3
ATOM      3  C   UNL     1      -3.081  42.808  95.308  1.00  0.00     0.000 C 
BRANCH   3   4
ATOM      4  C   UNL     1      -3.196  42.360  96.775  1.00  0.00     0.000 C 
BRANCH   4   5
ATOM      5  C   UNL     1      -2.278  41.169  97.127  1.00  0.00     0.006 C 
BRANCH   5   6
ATOM      6  C   UNL     1      -2.613  39.914  96.311  1.00  0.00     0.053 C 
BRANCH   6   7
ATOM      7  C   UNL     1      -1.965  38.707  96.913  1.00  0.00     0.041 C 
ATOM      8  O   UNL     1      -2.268  38.339  98.076  1.00  0.00    -0.550 OA
ATOM      9  O   UNL     1      -1.030  37.982  96.182  1.00  0.00    -0.550 OA
ENDBRANCH   6   7
ENDBRANCH   5   6
ENDBRANCH   4   5
ENDBRANCH   3   4
ENDBRANCH   2   3
ENDBRANCH   1   2
BRANCH   1  10
ATOM     10  C   UNL     1      -5.966  44.886  95.017  1.00  0.00     0.000 C 
BRANCH  10  11
ATOM     11  C   UNL     1      -5.617  45.974  96.041  1.00  0.00    -0.000 C 
BRANCH  11  12
ATOM     12  C   UNL     1      -5.344  45.364  97.419  1.00  0.00    -0.000 C 
BRANCH  12  13
ATOM     13  C   UNL     1      -3.986  45.800  97.996  1.00  0.00    -0.000 C 
BRANCH  13  14
ATOM     14  C   UNL     1      -3.153  46.614  96.989  1.00  0.00    -0.000 C 
BRANCH  14  15
ATOM     15  C   UNL     1      -1.801  45.956  96.674  1.00  0.00    -0.000 C 
BRANCH  15  16
ATOM     16  C   UNL     1      -1.280  46.323  95.279  1.00  0.00    -0.003 C 
ATOM     17  C   UNL     1      -2.368  46.154  94.223  1.00  0.00     0.004 C 
ENDBRANCH  15  16
ENDBRANCH  14  15
ENDBRANCH  13  14
ENDBRANCH  12  13
ENDBRANCH  11  12
ENDBRANCH  10  11
ENDBRANCH   1  10
TORSDOF 13
ENDMDL
MODEL 8
REMARK VINA RESULT:    -3.012      3.822      7.135
REMARK INTER + INTRA:          -7.278
REMARK INTER:                  -5.841
REMARK INTRA:                  -1.437
REMARK UNBOUND:                -1.976
REMARK SMILES CCCCCCCCCCCCCCC(=O)[O-]
REMARK SMILES IDX 9 1 10 2 11 3 12 4 13 5 14 6 15 7 16 8 17 9 8 10 7 11 6 12
REMARK SMILES IDX 5 13 4 14 3 15 2 16 1 17
REMARK H PARENT
REMARK Flexibility Score: inf
ROOT
ATOM      1  C   UNL     1      -3.867  42.770  95.444  1.00  0.00     0.000 C 
ENDROOT
BRANCH   1   2
ATOM      2  C   UNL     1      -3.198  42.577  96.820  1.00  0.00     0.000 C 
BRANCH   2   3
ATOM      3  C   UNL     1      -2.335  41.304  96.870  1.00  0.00     0.000 C 
BRANCH   3   4
ATOM      4  C   UNL     1      -2.374  40.506  95.556  1.00  0.00     0.000 C 
BRANCH   4   5
ATOM      5  C   UNL     1      -1.256  39.447  95.447  1.00  0.00     0.006 C 
BRANCH   5   6
ATOM      6  C   UNL     1      -1.211  38.787  94.063  1.00  0.00     0.053 C 
BRANCH   6   7
ATOM      7  C   UNL     1      -1.647  37.358  94.148  1.00  0.00     0.041 C 
ATOM      8  O   UNL     1      -2.277  36.947  95.155  1.00  0.00    -0.550 OA
ATOM      9  O   UNL     1      -1.365  36.481  93.107  1.00  0.00    -0.550 OA
ENDBRANCH   6   7
ENDBRANCH   5   6
ENDBRANCH   4   5
ENDBRANCH   3   4
ENDBRANCH   2   3
ENDBRANCH   1   2
BRANCH   1  10
ATOM     10  C   UNL     1      -3.758  44.209  94.906  1.00  0.00     0.000 C 
BRANCH  10  11
ATOM     11  C   UNL     1      -2.388  44.843  95.178  1.00  0.00    -0.000 C 
BRANCH  11  12
ATOM     12  C   UNL     1      -2.539  46.277  95.695  1.00  0.00    -0.000 C 
BRANCH  12  13
ATOM     13  C   UNL     1      -2.038  46.436  97.140  1.00  0.00    -0.000 C 
BRANCH  13  14
ATOM     14  C   UNL     1      -3.125  46.983  98.083  1.00  0.00    -0.000 C 
BRANCH  14  15
ATOM     15  C   UNL     1      -4.524  46.441  97.748  1.00  0.00    -0.000 C 
BRANCH  15  16
ATOM     16  C   UNL     1      -5.054  45.482  98.821  1.00  0.00    -0.003 C 
ATOM     17  C   UNL     1      -5.960  44.418  98.209  1.00  0.00     0.004 C 
ENDBRANCH  15  16
ENDBRANCH  14  15
ENDBRANCH  13  14
ENDBRANCH  12  13
ENDBRANCH  11  12
ENDBRANCH  10  11
ENDBRANCH   1  10
TORSDOF 13
ENDMDL
MODEL 9
REMARK VINA RESULT:    -2.962     15.387     16.855
REMARK INTER + INTRA:          -7.189
REMARK INTER:                  -4.991
REMARK INTRA:                  -2.197
REMARK UNBOUND:                -1.976
REMARK SMILES CCCCCCCCCCCCCCC(=O)[O-]
REMARK SMILES IDX 9 1 10 2 11 3 12 4 13 5 14 6 15 7 16 8 17 9 8 10 7 11 6 12
REMARK SMILES IDX 5 13 4 14 3 15 2 16 1 17
REMARK H PARENT
REMARK Flexibility Score: inf
ROOT
ATOM      1  C   UNL     1     -20.560  39.066  92.626  1.00  0.00     0.000 C 
ENDROOT
BRANCH   1   2
ATOM      2  C   UNL     1     -20.286  40.007  93.818  1.00  0.00     0.000 C 
BRANCH   2   3
ATOM      3  C   UNL     1     -19.608  41.315  93.377  1.00  0.00     0.000 C 
BRANCH   3   4
ATOM      4  C   UNL     1     -18.260  41.553  94.079  1.00  0.00     0.000 C 
BRANCH   4   5
ATOM      5  C   UNL     1     -18.097  40.743  95.384  1.00  0.00     0.006 C 
BRANCH   5   6
ATOM      6  C   UNL     1     -18.362  41.593  96.634  1.00  0.00     0.053 C 
BRANCH   6   7
ATOM      7  C   UNL     1     -19.340  40.910  97.536  1.00  0.00     0.041 C 
ATOM      8  O   UNL     1     -19.667  39.714  97.327  1.00  0.00    -0.550 OA
ATOM      9  O   UNL     1     -19.884  41.593  98.618  1.00  0.00    -0.550 OA
ENDBRANCH   6   7
ENDBRANCH   5   6
ENDBRANCH   4   5
ENDBRANCH   3   4
ENDBRANCH   2   3
ENDBRANCH   1   2
BRANCH   1  10
ATOM     10  C   UNL     1     -19.600  39.282  91.442  1.00  0.00     0.000 C 
BRANCH  10  11
ATOM     11  C   UNL     1     -18.529  38.187  91.337  1.00  0.00    -0.000 C 
BRANCH  11  12
ATOM     12  C   UNL     1     -17.270  38.576  92.117  1.00  0.00    -0.000 C 
BRANCH  12  13
ATOM     13  C   UNL     1     -16.786  37.451  93.048  1.00  0.00    -0.000 C 
BRANCH  13  14
ATOM     14  C   UNL     1     -17.685  37.285  94.287  1.00  0.00    -0.000 C 
BRANCH  14  15
ATOM     15  C   UNL     1     -18.415  35.933  94.309  1.00  0.00    -0.000 C 
BRANCH  15  16
ATOM     16  C   UNL     1     -19.909  36.077  94.626  1.00  0.00    -0.003 C 
ATOM     17  C   UNL     1     -20.768  35.523  93.494  1.00  0.00     0.004 C 
ENDBRANCH  15  16
ENDBRANCH  14  15
ENDBRANCH  13  14
ENDBRANCH  12  13
ENDBRANCH  11  12
ENDBRANCH  10  11
ENDBRANCH   1  10
TORSDOF 13
ENDMDL
