MODEL 1
REMARK VINA RESULT:    -4.885      0.000      0.000
REMARK INTER + INTRA:          -6.698
REMARK INTER:                  -6.599
REMARK INTRA:                  -0.099
REMARK UNBOUND:                -0.099
REMARK SMILES [NH3+]CCCC[C@H]([NH3+])C(=O)[O-]
REMARK SMILES IDX 4 1 3 2 2 3 1 4 5 8 6 9 7 10 8 14 9 15 10 16
REMARK H PARENT 1 5 1 6 1 7 7 11 7 12 7 13
REMARK Flexibility Score: inf
ROOT
ATOM      1  C   UNL     1     101.265  54.872  51.128  1.00  0.00     0.012 C 
ENDROOT
BRANCH   1   2
ATOM      2  C   UNL     1     100.954  54.380  52.549  1.00  0.00     0.061 C 
BRANCH   2   3
ATOM      3  C   UNL     1      99.910  53.251  52.567  1.00  0.00     0.258 C 
BRANCH   3   4
ATOM      4  N   UNL     1      99.934  52.497  53.823  1.00  0.00    -0.358 N 
ATOM      5  H   UNL     1      99.642  53.108  54.621  1.00  0.00     0.344 HD
ATOM      6  H   UNL     1      99.265  51.697  53.751  1.00  0.00     0.344 HD
ATOM      7  H   UNL     1     100.889  52.112  53.999  1.00  0.00     0.344 HD
ENDBRANCH   3   4
ENDBRANCH   2   3
ENDBRANCH   1   2
BRANCH   1   8
ATOM      8  C   UNL     1     100.904  53.802  50.085  1.00  0.00     0.072 C 
BRANCH   8   9
ATOM      9  C   UNL     1     101.918  53.754  48.921  1.00  0.00     0.227 C 
BRANCH   9  10
ATOM     10  N   UNL     1     102.052  55.078  48.302  1.00  0.00    -0.350 N 
ATOM     11  H   UNL     1     101.129  55.386  47.919  1.00  0.00     0.345 HD
ATOM     12  H   UNL     1     102.387  55.781  49.002  1.00  0.00     0.345 HD
ATOM     13  H   UNL     1     102.734  55.032  47.511  1.00  0.00     0.345 HD
ENDBRANCH   9  10
BRANCH   9  14
ATOM     14  C   UNL     1     101.513  52.736  47.887  1.00  0.00     0.099 C 
ATOM     15  O   UNL     1     101.119  51.592  48.237  1.00  0.00    -0.544 OA
ATOM     16  O   UNL     1     101.584  53.052  46.537  1.00  0.00    -0.544 OA
ENDBRANCH   9  14
ENDBRANCH   8   9
ENDBRANCH   1   8
TORSDOF 7
ENDMDL
MODEL 2
REMARK VINA RESULT:    -4.806      0.272      1.052
REMARK INTER + INTRA:          -6.590
REMARK INTER:                  -6.499
REMARK INTRA:                  -0.091
REMARK UNBOUND:                -0.099
REMARK SMILES [NH3+]CCCC[C@H]([NH3+])C(=O)[O-]
REMARK SMILES IDX 4 1 3 2 2 3 1 4 5 8 6 9 7 10 8 14 9 15 10 16
REMARK H PARENT 1 5 1 6 1 7 7 11 7 12 7 13
REMARK Flexibility Score: inf
ROOT
ATOM      1  C   UNL     1     100.946  54.744  50.973  1.00  0.00     0.012 C 
ENDROOT
BRANCH   1   2
ATOM      2  C   UNL     1     101.037  54.233  52.418  1.00  0.00     0.061 C 
BRANCH   2   3
ATOM      3  C   UNL     1      99.730  53.578  52.896  1.00  0.00     0.258 C 
BRANCH   3   4
ATOM      4  N   UNL     1      99.975  52.459  53.809  1.00  0.00    -0.358 N 
ATOM      5  H   UNL     1      99.123  52.263  54.384  1.00  0.00     0.344 HD
ATOM      6  H   UNL     1     100.205  51.607  53.248  1.00  0.00     0.344 HD
ATOM      7  H   UNL     1     100.787  52.669  54.434  1.00  0.00     0.344 HD
ENDBRANCH   3   4
ENDBRANCH   2   3
ENDBRANCH   1   2
BRANCH   1   8
ATOM      8  C   UNL     1     100.889  53.573  49.979  1.00  0.00     0.072 C 
BRANCH   8   9
ATOM      9  C   UNL     1     101.962  53.690  48.875  1.00  0.00     0.227 C 
BRANCH   9  10
ATOM     10  N   UNL     1     102.056  55.073  48.394  1.00  0.00    -0.350 N 
ATOM     11  H   UNL     1     101.212  55.612  48.696  1.00  0.00     0.345 HD
ATOM     12  H   UNL     1     102.915  55.538  48.771  1.00  0.00     0.345 HD
ATOM     13  H   UNL     1     102.093  55.084  47.349  1.00  0.00     0.345 HD
ENDBRANCH   9  10
BRANCH   9  14
ATOM     14  C   UNL     1     101.667  52.760  47.727  1.00  0.00     0.099 C 
ATOM     15  O   UNL     1     101.708  53.178  46.539  1.00  0.00    -0.544 OA
ATOM     16  O   UNL     1     101.334  51.434  47.975  1.00  0.00    -0.544 OA
ENDBRANCH   9  14
ENDBRANCH   8   9
ENDBRANCH   1   8
TORSDOF 7
ENDMDL
MODEL 3
REMARK VINA RESULT:    -4.694      3.007      4.718
REMARK INTER + INTRA:          -6.439
REMARK INTER:                  -6.348
REMARK INTRA:                  -0.091
REMARK UNBOUND:                -0.099
REMARK SMILES [NH3+]CCCC[C@H]([NH3+])C(=O)[O-]
REMARK SMILES IDX 4 1 3 2 2 3 1 4 5 8 6 9 7 10 8 14 9 15 10 16
REMARK H PARENT 1 5 1 6 1 7 7 11 7 12 7 13
REMARK Flexibility Score: inf
ROOT
ATOM      1  C   UNL     1     101.577  52.962  48.085  1.00  0.00     0.012 C 
ENDROOT
BRANCH   1   2
ATOM      2  C   UNL     1     101.273  51.667  47.317  1.00  0.00     0.061 C 
BRANCH   2   3
ATOM      3  C   UNL     1     102.492  50.735  47.226  1.00  0.00     0.258 C 
BRANCH   3   4
ATOM      4  N   UNL     1     102.293  49.490  47.972  1.00  0.00    -0.358 N 
ATOM      5  H   UNL     1     102.924  49.458  48.805  1.00  0.00     0.344 HD
ATOM      6  H   UNL     1     101.301  49.446  48.299  1.00  0.00     0.344 HD
ATOM      7  H   UNL     1     102.472  48.664  47.357  1.00  0.00     0.344 HD
ENDBRANCH   3   4
ENDBRANCH   2   3
ENDBRANCH   1   2
BRANCH   1   8
ATOM      8  C   UNL     1     100.727  53.055  49.362  1.00  0.00     0.072 C 
BRANCH   8   9
ATOM      9  C   UNL     1     100.861  54.428  50.056  1.00  0.00     0.227 C 
BRANCH   9  10
ATOM     10  N   UNL     1     102.094  55.101  49.629  1.00  0.00    -0.350 N 
ATOM     11  H   UNL     1     102.923  54.506  49.864  1.00  0.00     0.345 HD
ATOM     12  H   UNL     1     102.080  55.280  48.598  1.00  0.00     0.345 HD
ATOM     13  H   UNL     1     102.194  56.011  50.133  1.00  0.00     0.345 HD
ENDBRANCH   9  10
BRANCH   9  14
ATOM     14  C   UNL     1     100.840  54.285  51.556  1.00  0.00     0.099 C 
ATOM     15  O   UNL     1     101.513  55.065  52.281  1.00  0.00    -0.544 OA
ATOM     16  O   UNL     1     100.083  53.282  52.147  1.00  0.00    -0.544 OA
ENDBRANCH   9  14
ENDBRANCH   8   9
ENDBRANCH   1   8
TORSDOF 7
ENDMDL
MODEL 4
REMARK VINA RESULT:    -4.625      2.964      4.646
REMARK INTER + INTRA:          -6.346
REMARK INTER:                  -6.245
REMARK INTRA:                  -0.101
REMARK UNBOUND:                -0.099
REMARK SMILES [NH3+]CCCC[C@H]([NH3+])C(=O)[O-]
REMARK SMILES IDX 4 1 3 2 2 3 1 4 5 8 6 9 7 10 8 14 9 15 10 16
REMARK H PARENT 1 5 1 6 1 7 7 11 7 12 7 13
REMARK Flexibility Score: inf
ROOT
ATOM      1  C   UNL     1     101.518  52.783  47.574  1.00  0.00     0.012 C 
ENDROOT
BRANCH   1   2
ATOM      2  C   UNL     1     101.309  51.380  46.985  1.00  0.00     0.061 C 
BRANCH   2   3
ATOM      3  C   UNL     1     102.546  50.482  47.148  1.00  0.00     0.258 C 
BRANCH   3   4
ATOM      4  N   UNL     1     102.308  49.379  48.082  1.00  0.00    -0.358 N 
ATOM      5  H   UNL     1     102.142  48.487  47.560  1.00  0.00     0.344 HD
ATOM      6  H   UNL     1     103.152  49.261  48.689  1.00  0.00     0.344 HD
ATOM      7  H   UNL     1     101.490  49.591  48.696  1.00  0.00     0.344 HD
ENDBRANCH   3   4
ENDBRANCH   2   3
ENDBRANCH   1   2
BRANCH   1   8
ATOM      8  C   UNL     1     100.945  52.871  48.998  1.00  0.00     0.072 C 
BRANCH   8   9
ATOM      9  C   UNL     1     101.053  54.295  49.584  1.00  0.00     0.227 C 
BRANCH   9  10
ATOM     10  N   UNL     1     102.329  54.913  49.203  1.00  0.00    -0.350 N 
ATOM     11  H   UNL     1     103.071  54.179  49.131  1.00  0.00     0.345 HD
ATOM     12  H   UNL     1     102.241  55.405  48.284  1.00  0.00     0.345 HD
ATOM     13  H   UNL     1     102.621  55.602  49.933  1.00  0.00     0.345 HD
ENDBRANCH   9  10
BRANCH   9  14
ATOM     14  C   UNL     1     100.912  54.279  51.085  1.00  0.00     0.099 C 
ATOM     15  O   UNL     1     100.083  53.510  51.640  1.00  0.00    -0.544 OA
ATOM     16  O   UNL     1     101.692  55.123  51.864  1.00  0.00    -0.544 OA
ENDBRANCH   9  14
ENDBRANCH   8   9
ENDBRANCH   1   8
TORSDOF 7
ENDMDL
MODEL 5
REMARK VINA RESULT:    -4.517      2.014      2.401
REMARK INTER + INTRA:          -6.200
REMARK INTER:                  -6.065
REMARK INTRA:                  -0.135
REMARK UNBOUND:                -0.099
REMARK SMILES [NH3+]CCCC[C@H]([NH3+])C(=O)[O-]
REMARK SMILES IDX 4 1 3 2 2 3 1 4 5 8 6 9 7 10 8 14 9 15 10 16
REMARK H PARENT 1 5 1 6 1 7 7 11 7 12 7 13
REMARK Flexibility Score: inf
ROOT
ATOM      1  C   UNL     1      99.910  54.126  52.562  1.00  0.00     0.012 C 
ENDROOT
BRANCH   1   2
ATOM      2  C   UNL     1     100.010  52.910  53.494  1.00  0.00     0.061 C 
BRANCH   2   3
ATOM      3  C   UNL     1      99.165  51.722  53.007  1.00  0.00     0.258 C 
BRANCH   3   4
ATOM      4  N   UNL     1      97.728  51.985  53.115  1.00  0.00    -0.358 N 
ATOM      5  H   UNL     1      97.265  51.252  53.700  1.00  0.00     0.344 HD
ATOM      6  H   UNL     1      97.587  52.916  53.569  1.00  0.00     0.344 HD
ATOM      7  H   UNL     1      97.290  52.013  52.166  1.00  0.00     0.344 HD
ENDBRANCH   3   4
ENDBRANCH   2   3
ENDBRANCH   1   2
BRANCH   1   8
ATOM      8  C   UNL     1     101.088  54.161  51.576  1.00  0.00     0.072 C 
BRANCH   8   9
ATOM      9  C   UNL     1     100.623  54.095  50.105  1.00  0.00     0.227 C 
BRANCH   9  10
ATOM     10  N   UNL     1     100.066  52.772  49.801  1.00  0.00    -0.350 N 
ATOM     11  H   UNL     1     100.115  52.594  48.771  1.00  0.00     0.345 HD
ATOM     12  H   UNL     1     100.595  52.023  50.306  1.00  0.00     0.345 HD
ATOM     13  H   UNL     1      99.062  52.735  50.090  1.00  0.00     0.345 HD
ENDBRANCH   9  10
BRANCH   9  14
ATOM     14  C   UNL     1     101.754  54.413  49.161  1.00  0.00     0.099 C 
ATOM     15  O   UNL     1     102.777  55.022  49.571  1.00  0.00    -0.544 OA
ATOM     16  O   UNL     1     101.666  54.043  47.825  1.00  0.00    -0.544 OA
ENDBRANCH   9  14
ENDBRANCH   8   9
ENDBRANCH   1   8
TORSDOF 7
ENDMDL
MODEL 6
REMARK VINA RESULT:    -4.308      3.308      5.176
REMARK INTER + INTRA:          -5.918
REMARK INTER:                  -5.794
REMARK INTRA:                  -0.124
REMARK UNBOUND:                -0.099
REMARK SMILES [NH3+]CCCC[C@H]([NH3+])C(=O)[O-]
REMARK SMILES IDX 4 1 3 2 2 3 1 4 5 8 6 9 7 10 8 14 9 15 10 16
REMARK H PARENT 1 5 1 6 1 7 7 11 7 12 7 13
REMARK Flexibility Score: inf
ROOT
ATOM      1  C   UNL     1     100.801  54.420  52.485  1.00  0.00     0.012 C 
ENDROOT
BRANCH   1   2
ATOM      2  C   UNL     1     100.802  54.145  50.974  1.00  0.00     0.061 C 
BRANCH   2   3
ATOM      3  C   UNL     1     101.972  54.831  50.250  1.00  0.00     0.258 C 
BRANCH   3   4
ATOM      4  N   UNL     1     101.820  54.792  48.794  1.00  0.00    -0.358 N 
ATOM      5  H   UNL     1     101.730  55.761  48.410  1.00  0.00     0.344 HD
ATOM      6  H   UNL     1     102.667  54.343  48.376  1.00  0.00     0.344 HD
ATOM      7  H   UNL     1     100.983  54.224  48.530  1.00  0.00     0.344 HD
ENDBRANCH   3   4
ENDBRANCH   2   3
ENDBRANCH   1   2
BRANCH   1   8
ATOM      8  C   UNL     1     100.180  53.244  53.256  1.00  0.00     0.072 C 
BRANCH   8   9
ATOM      9  C   UNL     1      98.788  52.858  52.713  1.00  0.00     0.227 C 
BRANCH   9  10
ATOM     10  N   UNL     1      97.768  53.794  53.201  1.00  0.00    -0.350 N 
ATOM     11  H   UNL     1      97.043  53.276  53.748  1.00  0.00     0.345 HD
ATOM     12  H   UNL     1      98.201  54.528  53.809  1.00  0.00     0.345 HD
ATOM     13  H   UNL     1      97.295  54.257  52.390  1.00  0.00     0.345 HD
ENDBRANCH   9  10
BRANCH   9  14
ATOM     14  C   UNL     1      98.424  51.447  53.099  1.00  0.00     0.099 C 
ATOM     15  O   UNL     1      99.323  50.589  53.306  1.00  0.00    -0.544 OA
ATOM     16  O   UNL     1      97.089  51.082  53.217  1.00  0.00    -0.544 OA
ENDBRANCH   9  14
ENDBRANCH   8   9
ENDBRANCH   1   8
TORSDOF 7
ENDMDL
MODEL 7
REMARK VINA RESULT:    -4.141      3.065      4.772
REMARK INTER + INTRA:          -5.692
REMARK INTER:                  -5.579
REMARK INTRA:                  -0.113
REMARK UNBOUND:                -0.099
REMARK SMILES [NH3+]CCCC[C@H]([NH3+])C(=O)[O-]
REMARK SMILES IDX 4 1 3 2 2 3 1 4 5 8 6 9 7 10 8 14 9 15 10 16
REMARK H PARENT 1 5 1 6 1 7 7 11 7 12 7 13
REMARK Flexibility Score: inf
ROOT
ATOM      1  C   UNL     1     101.411  54.249  49.543  1.00  0.00     0.012 C 
ENDROOT
BRANCH   1   2
ATOM      2  C   UNL     1     101.680  53.633  48.163  1.00  0.00     0.061 C 
BRANCH   2   3
ATOM      3  C   UNL     1     101.366  52.128  48.116  1.00  0.00     0.258 C 
BRANCH   3   4
ATOM      4  N   UNL     1     100.631  51.755  46.905  1.00  0.00    -0.358 N 
ATOM      5  H   UNL     1      99.675  52.180  46.913  1.00  0.00     0.344 HD
ATOM      6  H   UNL     1     101.150  52.111  46.070  1.00  0.00     0.344 HD
ATOM      7  H   UNL     1     100.559  50.715  46.828  1.00  0.00     0.344 HD
ENDBRANCH   3   4
ENDBRANCH   2   3
ENDBRANCH   1   2
BRANCH   1   8
ATOM      8  C   UNL     1     100.531  53.321  50.396  1.00  0.00     0.072 C 
BRANCH   8   9
ATOM      9  C   UNL     1     100.179  53.943  51.764  1.00  0.00     0.227 C 
BRANCH   9  10
ATOM     10  N   UNL     1     101.290  54.768  52.255  1.00  0.00    -0.350 N 
ATOM     11  H   UNL     1     102.009  54.878  51.503  1.00  0.00     0.345 HD
ATOM     12  H   UNL     1     100.947  55.713  52.546  1.00  0.00     0.345 HD
ATOM     13  H   UNL     1     101.743  54.301  53.074  1.00  0.00     0.345 HD
ENDBRANCH   9  10
BRANCH   9  14
ATOM     14  C   UNL     1      99.837  52.878  52.775  1.00  0.00     0.099 C 
ATOM     15  O   UNL     1     100.252  52.967  53.962  1.00  0.00    -0.544 OA
ATOM     16  O   UNL     1      99.069  51.785  52.398  1.00  0.00    -0.544 OA
ENDBRANCH   9  14
ENDBRANCH   8   9
ENDBRANCH   1   8
TORSDOF 7
ENDMDL
MODEL 8
REMARK VINA RESULT:    -4.021      2.079      2.611
REMARK INTER + INTRA:          -5.530
REMARK INTER:                  -5.427
REMARK INTRA:                  -0.103
REMARK UNBOUND:                -0.099
REMARK SMILES [NH3+]CCCC[C@H]([NH3+])C(=O)[O-]
REMARK SMILES IDX 4 1 3 2 2 3 1 4 5 8 6 9 7 10 8 14 9 15 10 16
REMARK H PARENT 1 5 1 6 1 7 7 11 7 12 7 13
REMARK Flexibility Score: inf
ROOT
ATOM      1  C   UNL     1     101.888  54.037  49.003  1.00  0.00     0.012 C 
ENDROOT
BRANCH   1   2
ATOM      2  C   UNL     1     101.286  54.799  50.193  1.00  0.00     0.061 C 
BRANCH   2   3
ATOM      3  C   UNL     1     100.549  53.874  51.175  1.00  0.00     0.258 C 
BRANCH   3   4
ATOM      4  N   UNL     1     100.808  54.232  52.571  1.00  0.00    -0.358 N 
ATOM      5  H   UNL     1     100.976  55.261  52.659  1.00  0.00     0.344 HD
ATOM      6  H   UNL     1      99.973  53.978  53.147  1.00  0.00     0.344 HD
ATOM      7  H   UNL     1     101.632  53.704  52.937  1.00  0.00     0.344 HD
ENDBRANCH   3   4
ENDBRANCH   2   3
ENDBRANCH   1   2
BRANCH   1   8
ATOM      8  C   UNL     1     100.982  52.868  48.584  1.00  0.00     0.072 C 
BRANCH   8   9
ATOM      9  C   UNL     1     101.422  52.237  47.246  1.00  0.00     0.227 C 
BRANCH   9  10
ATOM     10  N   UNL     1     100.263  51.697  46.526  1.00  0.00    -0.350 N 
ATOM     11  H   UNL     1      99.864  50.886  47.052  1.00  0.00     0.345 HD
ATOM     12  H   UNL     1      99.525  52.431  46.412  1.00  0.00     0.345 HD
ATOM     13  H   UNL     1     100.558  51.360  45.581  1.00  0.00     0.345 HD
ENDBRANCH   9  10
BRANCH   9  14
ATOM     14  C   UNL     1     102.447  51.153  47.466  1.00  0.00     0.099 C 
ATOM     15  O   UNL     1     103.674  51.434  47.509  1.00  0.00    -0.544 OA
ATOM     16  O   UNL     1     102.041  49.833  47.611  1.00  0.00    -0.544 OA
ENDBRANCH   9  14
ENDBRANCH   8   9
ENDBRANCH   1   8
TORSDOF 7
ENDMDL
MODEL 9
REMARK VINA RESULT:    -3.356      2.986      5.026
REMARK INTER + INTRA:          -4.632
REMARK INTER:                  -4.563
REMARK INTRA:                  -0.069
REMARK UNBOUND:                -0.099
REMARK SMILES [NH3+]CCCC[C@H]([NH3+])C(=O)[O-]
REMARK SMILES IDX 4 1 3 2 2 3 1 4 5 8 6 9 7 10 8 14 9 15 10 16
REMARK H PARENT 1 5 1 6 1 7 7 11 7 12 7 13
REMARK Flexibility Score: inf
ROOT
ATOM      1  C   UNL     1     101.663  52.978  47.257  1.00  0.00     0.012 C 
ENDROOT
BRANCH   1   2
ATOM      2  C   UNL     1     101.078  51.791  46.477  1.00  0.00     0.061 C 
BRANCH   2   3
ATOM      3  C   UNL     1      99.808  52.167  45.695  1.00  0.00     0.258 C 
BRANCH   3   4
ATOM      4  N   UNL     1      99.231  51.018  44.993  1.00  0.00    -0.358 N 
ATOM      5  H   UNL     1      98.652  50.443  45.648  1.00  0.00     0.344 HD
ATOM      6  H   UNL     1      98.619  51.365  44.220  1.00  0.00     0.344 HD
ATOM      7  H   UNL     1      99.987  50.430  44.575  1.00  0.00     0.344 HD
ENDBRANCH   3   4
ENDBRANCH   2   3
ENDBRANCH   1   2
BRANCH   1   8
ATOM      8  C   UNL     1     101.183  52.964  48.717  1.00  0.00     0.072 C 
BRANCH   8   9
ATOM      9  C   UNL     1     101.301  54.352  49.384  1.00  0.00     0.227 C 
BRANCH   9  10
ATOM     10  N   UNL     1     102.632  54.924  49.149  1.00  0.00    -0.350 N 
ATOM     11  H   UNL     1     103.192  54.282  48.543  1.00  0.00     0.345 HD
ATOM     12  H   UNL     1     102.555  55.859  48.684  1.00  0.00     0.345 HD
ATOM     13  H   UNL     1     103.136  55.035  50.059  1.00  0.00     0.345 HD
ENDBRANCH   9  10
BRANCH   9  14
ATOM     14  C   UNL     1     101.024  54.270  50.864  1.00  0.00     0.099 C 
ATOM     15  O   UNL     1     100.192  53.438  51.314  1.00  0.00    -0.544 OA
ATOM     16  O   UNL     1     101.681  55.125  51.740  1.00  0.00    -0.544 OA
ENDBRANCH   9  14
ENDBRANCH   8   9
ENDBRANCH   1   8
TORSDOF 7
ENDMDL
