MODEL 1
REMARK VINA RESULT:    -5.073      0.000      0.000
REMARK INTER + INTRA:          -8.861
REMARK INTER:                  -7.742
REMARK INTRA:                  -1.119
REMARK UNBOUND:                -1.119
REMARK SMILES O=C([O-])CCCCCCCCC(=O)[O-]
REMARK SMILES IDX 7 1 6 2 5 3 4 4 2 5 1 6 3 7 8 8 9 9 10 10 11 11 12 12 13 13
REMARK SMILES IDX 14 14
REMARK H PARENT
REMARK Flexibility Score: inf
ROOT
ATOM      1  C   UNL     1     -31.234  -0.026  22.636  1.00  0.00     0.000 C 
ENDROOT
BRANCH   1   2
ATOM      2  C   UNL     1     -30.745  -1.467  22.429  1.00  0.00     0.000 C 
BRANCH   2   3
ATOM      3  C   UNL     1     -30.151  -1.697  21.030  1.00  0.00     0.006 C 
BRANCH   3   4
ATOM      4  C   UNL     1     -28.747  -2.314  21.079  1.00  0.00     0.053 C 
BRANCH   4   5
ATOM      5  C   UNL     1     -27.803  -1.527  20.225  1.00  0.00     0.041 C 
ATOM      6  O   UNL     1     -26.571  -1.514  20.488  1.00  0.00    -0.550 OA
ATOM      7  O   UNL     1     -28.276  -0.846  19.111  1.00  0.00    -0.550 OA
ENDBRANCH   4   5
ENDBRANCH   3   4
ENDBRANCH   2   3
ENDBRANCH   1   2
BRANCH   1   8
ATOM      8  C   UNL     1     -30.264   0.761  23.524  1.00  0.00     0.000 C 
BRANCH   8   9
ATOM      9  C   UNL     1     -29.176   1.441  22.687  1.00  0.00     0.000 C 
BRANCH   9  10
ATOM     10  C   UNL     1     -27.792   0.853  22.999  1.00  0.00     0.006 C 
BRANCH  10  11
ATOM     11  C   UNL     1     -27.763   0.119  24.345  1.00  0.00     0.053 C 
BRANCH  11  12
ATOM     12  C   UNL     1     -27.267  -1.288  24.201  1.00  0.00     0.041 C 
ATOM     13  O   UNL     1     -26.092  -1.508  23.805  1.00  0.00    -0.550 OA
ATOM     14  O   UNL     1     -28.091  -2.355  24.535  1.00  0.00    -0.550 OA
ENDBRANCH  11  12
ENDBRANCH  10  11
ENDBRANCH   9  10
ENDBRANCH   8   9
ENDBRANCH   1   8
TORSDOF 9
ENDMDL
MODEL 2
REMARK VINA RESULT:    -5.038      2.636      3.793
REMARK INTER + INTRA:          -8.808
REMARK INTER:                  -7.851
REMARK INTRA:                  -0.957
REMARK UNBOUND:                -1.119
REMARK SMILES O=C([O-])CCCCCCCCC(=O)[O-]
REMARK SMILES IDX 7 1 6 2 5 3 4 4 2 5 1 6 3 7 8 8 9 9 10 10 11 11 12 12 13 13
REMARK SMILES IDX 14 14
REMARK H PARENT
REMARK Flexibility Score: inf
ROOT
ATOM      1  C   UNL     1     -27.619   0.802  22.733  1.00  0.00     0.000 C 
ENDROOT
BRANCH   1   2
ATOM      2  C   UNL     1     -27.523  -0.409  21.794  1.00  0.00     0.000 C 
BRANCH   2   3
ATOM      3  C   UNL     1     -28.836  -0.683  21.043  1.00  0.00     0.006 C 
BRANCH   3   4
ATOM      4  C   UNL     1     -29.565  -1.929  21.563  1.00  0.00     0.053 C 
BRANCH   4   5
ATOM      5  C   UNL     1     -30.615  -1.542  22.556  1.00  0.00     0.041 C 
ATOM      6  O   UNL     1     -30.876  -2.296  23.529  1.00  0.00    -0.550 OA
ATOM      7  O   UNL     1     -31.272  -0.324  22.434  1.00  0.00    -0.550 OA
ENDBRANCH   4   5
ENDBRANCH   3   4
ENDBRANCH   2   3
ENDBRANCH   1   2
BRANCH   1   8
ATOM      8  C   UNL     1     -26.934   0.514  24.074  1.00  0.00     0.000 C 
BRANCH   8   9
ATOM      9  C   UNL     1     -27.126  -0.949  24.489  1.00  0.00     0.000 C 
BRANCH   9  10
ATOM     10  C   UNL     1     -28.220  -1.080  25.559  1.00  0.00     0.006 C 
BRANCH  10  11
ATOM     11  C   UNL     1     -28.337   0.179  26.427  1.00  0.00     0.053 C 
BRANCH  11  12
ATOM     12  C   UNL     1     -29.756   0.644  26.544  1.00  0.00     0.041 C 
ATOM     13  O   UNL     1     -30.574   0.423  25.612  1.00  0.00    -0.550 OA
ATOM     14  O   UNL     1     -30.185   1.292  27.696  1.00  0.00    -0.550 OA
ENDBRANCH  11  12
ENDBRANCH  10  11
ENDBRANCH   9  10
ENDBRANCH   8   9
ENDBRANCH   1   8
TORSDOF 9
ENDMDL
MODEL 3
REMARK VINA RESULT:    -5.009      2.429      3.903
REMARK INTER + INTRA:          -8.763
REMARK INTER:                  -7.803
REMARK INTRA:                  -0.961
REMARK UNBOUND:                -1.119
REMARK SMILES O=C([O-])CCCCCCCCC(=O)[O-]
REMARK SMILES IDX 7 1 6 2 5 3 4 4 2 5 1 6 3 7 8 8 9 9 10 10 11 11 12 12 13 13
REMARK SMILES IDX 14 14
REMARK H PARENT
REMARK Flexibility Score: inf
ROOT
ATOM      1  C   UNL     1     -27.970   0.695  22.765  1.00  0.00     0.000 C 
ENDROOT
BRANCH   1   2
ATOM      2  C   UNL     1     -29.282   1.488  22.861  1.00  0.00     0.000 C 
BRANCH   2   3
ATOM      3  C   UNL     1     -30.503   0.588  23.103  1.00  0.00     0.006 C 
BRANCH   3   4
ATOM      4  C   UNL     1     -30.565  -0.598  22.131  1.00  0.00     0.053 C 
BRANCH   4   5
ATOM      5  C   UNL     1     -30.320  -1.882  22.859  1.00  0.00     0.041 C 
ATOM      6  O   UNL     1     -31.175  -2.323  23.671  1.00  0.00    -0.550 OA
ATOM      7  O   UNL     1     -29.169  -2.616  22.604  1.00  0.00    -0.550 OA
ENDBRANCH   4   5
ENDBRANCH   3   4
ENDBRANCH   2   3
ENDBRANCH   1   2
BRANCH   1   8
ATOM      8  C   UNL     1     -27.246   0.664  24.115  1.00  0.00     0.000 C 
BRANCH   8   9
ATOM      9  C   UNL     1     -27.166  -0.765  24.666  1.00  0.00     0.000 C 
BRANCH   9  10
ATOM     10  C   UNL     1     -28.263  -1.015  25.711  1.00  0.00     0.006 C 
BRANCH  10  11
ATOM     11  C   UNL     1     -28.435   0.171  26.669  1.00  0.00     0.053 C 
BRANCH  11  12
ATOM     12  C   UNL     1     -29.879   0.449  26.956  1.00  0.00     0.041 C 
ATOM     13  O   UNL     1     -30.202   1.398  27.719  1.00  0.00    -0.550 OA
ATOM     14  O   UNL     1     -30.870  -0.317  26.355  1.00  0.00    -0.550 OA
ENDBRANCH  11  12
ENDBRANCH  10  11
ENDBRANCH   9  10
ENDBRANCH   8   9
ENDBRANCH   1   8
TORSDOF 9
ENDMDL
MODEL 4
REMARK VINA RESULT:    -5.004      2.778      5.106
REMARK INTER + INTRA:          -8.756
REMARK INTER:                  -7.749
REMARK INTRA:                  -1.007
REMARK UNBOUND:                -1.119
REMARK SMILES O=C([O-])CCCCCCCCC(=O)[O-]
REMARK SMILES IDX 7 1 6 2 5 3 4 4 2 5 1 6 3 7 8 8 9 9 10 10 11 11 12 12 13 13
REMARK SMILES IDX 14 14
REMARK H PARENT
REMARK Flexibility Score: inf
ROOT
ATOM      1  C   UNL     1     -26.756   0.335  24.008  1.00  0.00     0.000 C 
ENDROOT
BRANCH   1   2
ATOM      2  C   UNL     1     -27.020  -1.082  24.538  1.00  0.00     0.000 C 
BRANCH   2   3
ATOM      3  C   UNL     1     -28.228  -1.146  25.485  1.00  0.00     0.006 C 
BRANCH   3   4
ATOM      4  C   UNL     1     -28.249   0.011  26.494  1.00  0.00     0.053 C 
BRANCH   4   5
ATOM      5  C   UNL     1     -29.575   0.703  26.464  1.00  0.00     0.041 C 
ATOM      6  O   UNL     1     -30.216   0.799  25.385  1.00  0.00    -0.550 OA
ATOM      7  O   UNL     1     -30.126   1.201  27.638  1.00  0.00    -0.550 OA
ENDBRANCH   4   5
ENDBRANCH   3   4
ENDBRANCH   2   3
ENDBRANCH   1   2
BRANCH   1   8
ATOM      8  C   UNL     1     -27.705   0.676  22.854  1.00  0.00     0.000 C 
BRANCH   8   9
ATOM      9  C   UNL     1     -27.676  -0.412  21.775  1.00  0.00     0.000 C 
BRANCH   9  10
ATOM     10  C   UNL     1     -29.091  -0.722  21.266  1.00  0.00     0.006 C 
BRANCH  10  11
ATOM     11  C   UNL     1     -29.713  -1.930  21.978  1.00  0.00     0.053 C 
BRANCH  11  12
ATOM     12  C   UNL     1     -30.870  -1.531  22.843  1.00  0.00     0.041 C 
ATOM     13  O   UNL     1     -31.181  -2.226  23.846  1.00  0.00    -0.550 OA
ATOM     14  O   UNL     1     -31.583  -0.372  22.562  1.00  0.00    -0.550 OA
ENDBRANCH  11  12
ENDBRANCH  10  11
ENDBRANCH   9  10
ENDBRANCH   8   9
ENDBRANCH   1   8
TORSDOF 9
ENDMDL
MODEL 5
REMARK VINA RESULT:    -4.977      2.187      3.518
REMARK INTER + INTRA:          -8.715
REMARK INTER:                  -7.711
REMARK INTRA:                  -1.004
REMARK UNBOUND:                -1.119
REMARK SMILES O=C([O-])CCCCCCCCC(=O)[O-]
REMARK SMILES IDX 7 1 6 2 5 3 4 4 2 5 1 6 3 7 8 8 9 9 10 10 11 11 12 12 13 13
REMARK SMILES IDX 14 14
REMARK H PARENT
REMARK Flexibility Score: inf
ROOT
ATOM      1  C   UNL     1     -30.150  -1.516  20.932  1.00  0.00     0.000 C 
ENDROOT
BRANCH   1   2
ATOM      2  C   UNL     1     -28.933  -0.733  20.419  1.00  0.00     0.000 C 
BRANCH   2   3
ATOM      3  C   UNL     1     -28.093  -0.129  21.556  1.00  0.00     0.006 C 
BRANCH   3   4
ATOM      4  C   UNL     1     -27.110  -1.139  22.164  1.00  0.00     0.053 C 
BRANCH   4   5
ATOM      5  C   UNL     1     -26.759  -0.745  23.564  1.00  0.00     0.041 C 
ATOM      6  O   UNL     1     -26.370  -1.615  24.388  1.00  0.00    -0.550 OA
ATOM      7  O   UNL     1     -26.817   0.588  23.947  1.00  0.00    -0.550 OA
ENDBRANCH   4   5
ENDBRANCH   3   4
ENDBRANCH   2   3
ENDBRANCH   1   2
BRANCH   1   8
ATOM      8  C   UNL     1     -30.777  -0.822  22.146  1.00  0.00     0.000 C 
BRANCH   8   9
ATOM      9  C   UNL     1     -31.012  -1.816  23.290  1.00  0.00     0.000 C 
BRANCH   9  10
ATOM     10  C   UNL     1     -30.111  -1.495  24.492  1.00  0.00     0.006 C 
BRANCH  10  11
ATOM     11  C   UNL     1     -30.222  -0.028  24.926  1.00  0.00     0.053 C 
BRANCH  11  12
ATOM     12  C   UNL     1     -29.617   0.199  26.278  1.00  0.00     0.041 C 
ATOM     13  O   UNL     1     -29.995   1.171  26.985  1.00  0.00    -0.550 OA
ATOM     14  O   UNL     1     -28.662  -0.680  26.771  1.00  0.00    -0.550 OA
ENDBRANCH  11  12
ENDBRANCH  10  11
ENDBRANCH   9  10
ENDBRANCH   8   9
ENDBRANCH   1   8
TORSDOF 9
ENDMDL
MODEL 6
REMARK VINA RESULT:    -4.964      2.267      4.642
REMARK INTER + INTRA:          -8.695
REMARK INTER:                  -7.808
REMARK INTRA:                  -0.888
REMARK UNBOUND:                -1.119
REMARK SMILES O=C([O-])CCCCCCCCC(=O)[O-]
REMARK SMILES IDX 7 1 6 2 5 3 4 4 2 5 1 6 3 7 8 8 9 9 10 10 11 11 12 12 13 13
REMARK SMILES IDX 14 14
REMARK H PARENT
REMARK Flexibility Score: inf
ROOT
ATOM      1  C   UNL     1     -30.716  -2.091  23.234  1.00  0.00     0.000 C 
ENDROOT
BRANCH   1   2
ATOM      2  C   UNL     1     -30.169  -1.498  24.541  1.00  0.00     0.000 C 
BRANCH   2   3
ATOM      3  C   UNL     1     -30.482  -0.001  24.690  1.00  0.00     0.006 C 
BRANCH   3   4
ATOM      4  C   UNL     1     -29.332   0.782  25.338  1.00  0.00     0.053 C 
BRANCH   4   5
ATOM      5  C   UNL     1     -29.359   0.615  26.824  1.00  0.00     0.041 C 
ATOM      6  O   UNL     1     -30.133   1.317  27.526  1.00  0.00    -0.550 OA
ATOM      7  O   UNL     1     -28.566  -0.351  27.430  1.00  0.00    -0.550 OA
ENDBRANCH   4   5
ENDBRANCH   3   4
ENDBRANCH   2   3
ENDBRANCH   1   2
BRANCH   1   8
ATOM      8  C   UNL     1     -30.764  -1.032  22.128  1.00  0.00     0.000 C 
BRANCH   8   9
ATOM      9  C   UNL     1     -30.011  -1.503  20.879  1.00  0.00     0.000 C 
BRANCH   9  10
ATOM     10  C   UNL     1     -28.680  -2.171  21.257  1.00  0.00     0.006 C 
BRANCH  10  11
ATOM     11  C   UNL     1     -27.493  -1.208  21.142  1.00  0.00     0.053 C 
BRANCH  11  12
ATOM     12  C   UNL     1     -27.138  -0.601  22.465  1.00  0.00     0.041 C 
ATOM     13  O   UNL     1     -27.141   0.650  22.610  1.00  0.00    -0.550 OA
ATOM     14  O   UNL     1     -26.837  -1.418  23.548  1.00  0.00    -0.550 OA
ENDBRANCH  11  12
ENDBRANCH  10  11
ENDBRANCH   9  10
ENDBRANCH   8   9
ENDBRANCH   1   8
TORSDOF 9
ENDMDL
MODEL 7
REMARK VINA RESULT:    -4.959      1.305      1.847
REMARK INTER + INTRA:          -8.687
REMARK INTER:                  -7.655
REMARK INTRA:                  -1.032
REMARK UNBOUND:                -1.119
REMARK SMILES O=C([O-])CCCCCCCCC(=O)[O-]
REMARK SMILES IDX 7 1 6 2 5 3 4 4 2 5 1 6 3 7 8 8 9 9 10 10 11 11 12 12 13 13
REMARK SMILES IDX 14 14
REMARK H PARENT
REMARK Flexibility Score: inf
ROOT
ATOM      1  C   UNL     1     -31.079   0.062  23.227  1.00  0.00     0.000 C 
ENDROOT
BRANCH   1   2
ATOM      2  C   UNL     1     -29.863   0.914  22.833  1.00  0.00     0.000 C 
BRANCH   2   3
ATOM      3  C   UNL     1     -28.991   0.243  21.759  1.00  0.00     0.006 C 
BRANCH   3   4
ATOM      4  C   UNL     1     -29.463  -1.177  21.418  1.00  0.00     0.053 C 
BRANCH   4   5
ATOM      5  C   UNL     1     -28.524  -1.818  20.445  1.00  0.00     0.041 C 
ATOM      6  O   UNL     1     -27.292  -1.559  20.490  1.00  0.00    -0.550 OA
ATOM      7  O   UNL     1     -29.001  -2.737  19.521  1.00  0.00    -0.550 OA
ENDBRANCH   4   5
ENDBRANCH   3   4
ENDBRANCH   2   3
ENDBRANCH   1   2
BRANCH   1   8
ATOM      8  C   UNL     1     -30.899  -0.538  24.625  1.00  0.00     0.000 C 
BRANCH   8   9
ATOM      9  C   UNL     1     -29.955   0.319  25.476  1.00  0.00     0.000 C 
BRANCH   9  10
ATOM     10  C   UNL     1     -28.873  -0.546  26.139  1.00  0.00     0.006 C 
BRANCH  10  11
ATOM     11  C   UNL     1     -27.501  -0.371  25.476  1.00  0.00     0.053 C 
BRANCH  11  12
ATOM     12  C   UNL     1     -27.237  -1.435  24.454  1.00  0.00     0.041 C 
ATOM     13  O   UNL     1     -26.274  -1.317  23.651  1.00  0.00    -0.550 OA
ATOM     14  O   UNL     1     -28.034  -2.572  24.410  1.00  0.00    -0.550 OA
ENDBRANCH  11  12
ENDBRANCH  10  11
ENDBRANCH   9  10
ENDBRANCH   8   9
ENDBRANCH   1   8
TORSDOF 9
ENDMDL
MODEL 8
REMARK VINA RESULT:    -4.939      1.290      3.787
REMARK INTER + INTRA:          -8.657
REMARK INTER:                  -7.674
REMARK INTRA:                  -0.983
REMARK UNBOUND:                -1.119
REMARK SMILES O=C([O-])CCCCCCCCC(=O)[O-]
REMARK SMILES IDX 7 1 6 2 5 3 4 4 2 5 1 6 3 7 8 8 9 9 10 10 11 11 12 12 13 13
REMARK SMILES IDX 14 14
REMARK H PARENT
REMARK Flexibility Score: inf
ROOT
ATOM      1  C   UNL     1     -30.884  -0.690  24.527  1.00  0.00     0.000 C 
ENDROOT
BRANCH   1   2
ATOM      2  C   UNL     1     -29.988   0.130  25.467  1.00  0.00     0.000 C 
BRANCH   2   3
ATOM      3  C   UNL     1     -28.802  -0.680  26.013  1.00  0.00     0.006 C 
BRANCH   3   4
ATOM      4  C   UNL     1     -27.494  -0.388  25.266  1.00  0.00     0.053 C 
BRANCH   4   5
ATOM      5  C   UNL     1     -27.169  -1.506  24.326  1.00  0.00     0.041 C 
ATOM      6  O   UNL     1     -27.979  -2.458  24.170  1.00  0.00    -0.550 OA
ATOM      7  O   UNL     1     -25.995  -1.474  23.586  1.00  0.00    -0.550 OA
ENDBRANCH   4   5
ENDBRANCH   3   4
ENDBRANCH   2   3
ENDBRANCH   1   2
BRANCH   1   8
ATOM      8  C   UNL     1     -31.076   0.028  23.187  1.00  0.00     0.000 C 
BRANCH   8   9
ATOM      9  C   UNL     1     -29.871   0.917  22.859  1.00  0.00     0.000 C 
BRANCH   9  10
ATOM     10  C   UNL     1     -29.019   0.300  21.740  1.00  0.00     0.006 C 
BRANCH  10  11
ATOM     11  C   UNL     1     -29.577  -1.045  21.259  1.00  0.00     0.053 C 
BRANCH  11  12
ATOM     12  C   UNL     1     -28.587  -1.788  20.415  1.00  0.00     0.041 C 
ATOM     13  O   UNL     1     -27.352  -1.582  20.557  1.00  0.00    -0.550 OA
ATOM     14  O   UNL     1     -29.025  -2.733  19.495  1.00  0.00    -0.550 OA
ENDBRANCH  11  12
ENDBRANCH  10  11
ENDBRANCH   9  10
ENDBRANCH   8   9
ENDBRANCH   1   8
TORSDOF 9
ENDMDL
MODEL 9
REMARK VINA RESULT:    -4.906      2.142      3.449
REMARK INTER + INTRA:          -8.606
REMARK INTER:                  -7.687
REMARK INTRA:                  -0.919
REMARK UNBOUND:                -1.119
REMARK SMILES O=C([O-])CCCCCCCCC(=O)[O-]
REMARK SMILES IDX 7 1 6 2 5 3 4 4 2 5 1 6 3 7 8 8 9 9 10 10 11 11 12 12 13 13
REMARK SMILES IDX 14 14
REMARK H PARENT
REMARK Flexibility Score: inf
ROOT
ATOM      1  C   UNL     1     -26.754   0.301  23.620  1.00  0.00     0.000 C 
ENDROOT
BRANCH   1   2
ATOM      2  C   UNL     1     -27.624   0.210  22.357  1.00  0.00     0.000 C 
BRANCH   2   3
ATOM      3  C   UNL     1     -27.886  -1.240  21.921  1.00  0.00     0.006 C 
BRANCH   3   4
ATOM      4  C   UNL     1     -27.807  -1.423  20.399  1.00  0.00     0.053 C 
BRANCH   4   5
ATOM      5  C   UNL     1     -29.101  -1.956  19.871  1.00  0.00     0.041 C 
ATOM      6  O   UNL     1     -29.104  -2.781  18.919  1.00  0.00    -0.550 OA
ATOM      7  O   UNL     1     -30.301  -1.580  20.460  1.00  0.00    -0.550 OA
ENDBRANCH   4   5
ENDBRANCH   3   4
ENDBRANCH   2   3
ENDBRANCH   1   2
BRANCH   1   8
ATOM      8  C   UNL     1     -27.170  -0.754  24.651  1.00  0.00     0.000 C 
BRANCH   8   9
ATOM      9  C   UNL     1     -27.893  -0.109  25.839  1.00  0.00     0.000 C 
BRANCH   9  10
ATOM     10  C   UNL     1     -29.356  -0.571  25.909  1.00  0.00     0.006 C 
BRANCH  10  11
ATOM     11  C   UNL     1     -30.288   0.321  25.081  1.00  0.00     0.053 C 
BRANCH  11  12
ATOM     12  C   UNL     1     -30.929  -0.435  23.957  1.00  0.00     0.041 C 
ATOM     13  O   UNL     1     -30.836  -1.690  23.904  1.00  0.00    -0.550 OA
ATOM     14  O   UNL     1     -31.656   0.243  22.986  1.00  0.00    -0.550 OA
ENDBRANCH  11  12
ENDBRANCH  10  11
ENDBRANCH   9  10
ENDBRANCH   8   9
ENDBRANCH   1   8
TORSDOF 9
ENDMDL
