MODEL 1
REMARK VINA RESULT:    -4.011      0.000      0.000
REMARK INTER + INTRA:          -6.113
REMARK INTER:                  -5.418
REMARK INTRA:                  -0.695
REMARK UNBOUND:                -0.695
REMARK SMILES O=C[C@H](O)[C@@H](O)[C@H](O)CO
REMARK SMILES IDX 7 1 9 2 10 3 5 5 3 6 2 7 1 8 4 9 6 11 8 13
REMARK H PARENT 10 4 4 10 6 12 8 14
REMARK Flexibility Score: inf
ROOT
ATOM      1  C   UNL     1      65.439  49.478  39.137  1.00  0.00     0.171 C 
ENDROOT
BRANCH   1   2
ATOM      2  C   UNL     1      65.448  49.552  40.672  1.00  0.00     0.190 C 
BRANCH   2   3
ATOM      3  O   UNL     1      64.145  49.482  41.189  1.00  0.00    -0.394 OA
ATOM      4  H   UNL     1      64.070  50.200  41.870  1.00  0.00     0.210 HD
ENDBRANCH   2   3
ENDBRANCH   1   2
BRANCH   1   5
ATOM      5  C   UNL     1      65.045  50.839  38.500  1.00  0.00     0.181 C 
BRANCH   5   6
ATOM      6  C   UNL     1      64.606  50.697  37.022  1.00  0.00     0.209 C 
BRANCH   6   7
ATOM      7  C   UNL     1      64.816  51.988  36.274  1.00  0.00     0.258 C 
ATOM      8  O   UNL     1      64.824  53.056  36.865  1.00  0.00    -0.300 OA
ENDBRANCH   6   7
BRANCH   6   9
ATOM      9  O   UNL     1      63.256  50.317  36.939  1.00  0.00    -0.383 OA
ATOM     10  H   UNL     1      63.241  49.384  36.600  1.00  0.00     0.211 HD
ENDBRANCH   6   9
ENDBRANCH   5   6
BRANCH   5  11
ATOM     11  O   UNL     1      64.066  51.503  39.266  1.00  0.00    -0.387 OA
ATOM     12  H   UNL     1      63.843  52.353  38.808  1.00  0.00     0.211 HD
ENDBRANCH   5  11
ENDBRANCH   1   5
BRANCH   1  13
ATOM     13  O   UNL     1      64.542  48.469  38.743  1.00  0.00    -0.388 OA
ATOM     14  H   UNL     1      64.675  47.699  39.355  1.00  0.00     0.211 HD
ENDBRANCH   1  13
TORSDOF 8
ENDMDL
MODEL 2
REMARK VINA RESULT:    -3.839      1.281      2.001
REMARK INTER + INTRA:          -5.881
REMARK INTER:                  -5.192
REMARK INTRA:                  -0.689
REMARK UNBOUND:                -0.695
REMARK SMILES O=C[C@H](O)[C@@H](O)[C@H](O)CO
REMARK SMILES IDX 7 1 9 2 10 3 5 5 3 6 2 7 1 8 4 9 6 11 8 13
REMARK H PARENT 10 4 4 10 6 12 8 14
REMARK Flexibility Score: inf
ROOT
ATOM      1  C   UNL     1      65.383  49.735  40.681  1.00  0.00     0.171 C 
ENDROOT
BRANCH   1   2
ATOM      2  C   UNL     1      66.199  50.510  41.727  1.00  0.00     0.190 C 
BRANCH   2   3
ATOM      3  O   UNL     1      65.766  51.842  41.820  1.00  0.00    -0.394 OA
ATOM      4  H   UNL     1      64.802  51.845  41.583  1.00  0.00     0.210 HD
ENDBRANCH   2   3
ENDBRANCH   1   2
BRANCH   1   5
ATOM      5  C   UNL     1      65.228  50.542  39.363  1.00  0.00     0.181 C 
BRANCH   5   6
ATOM      6  C   UNL     1      64.965  49.631  38.138  1.00  0.00     0.209 C 
BRANCH   6   7
ATOM      7  C   UNL     1      64.034  50.301  37.162  1.00  0.00     0.258 C 
ATOM      8  O   UNL     1      64.435  51.192  36.429  1.00  0.00    -0.300 OA
ENDBRANCH   6   7
BRANCH   6   9
ATOM      9  O   UNL     1      64.420  48.401  38.542  1.00  0.00    -0.383 OA
ATOM     10  H   UNL     1      64.780  48.211  39.448  1.00  0.00     0.211 HD
ENDBRANCH   6   9
ENDBRANCH   5   6
BRANCH   5  11
ATOM     11  O   UNL     1      64.241  51.540  39.483  1.00  0.00    -0.387 OA
ATOM     12  H   UNL     1      63.690  51.332  40.279  1.00  0.00     0.211 HD
ENDBRANCH   5  11
ENDBRANCH   1   5
BRANCH   1  13
ATOM     13  O   UNL     1      64.124  49.434  41.229  1.00  0.00    -0.388 OA
ATOM     14  H   UNL     1      64.038  48.445  41.249  1.00  0.00     0.211 HD
ENDBRANCH   1  13
TORSDOF 8
ENDMDL
MODEL 3
REMARK VINA RESULT:    -3.746      1.636      4.248
REMARK INTER + INTRA:          -5.755
REMARK INTER:                  -4.906
REMARK INTRA:                  -0.849
REMARK UNBOUND:                -0.695
REMARK SMILES O=C[C@H](O)[C@@H](O)[C@H](O)CO
REMARK SMILES IDX 7 1 9 2 10 3 5 5 3 6 2 7 1 8 4 9 6 11 8 13
REMARK H PARENT 10 4 4 10 6 12 8 14
REMARK Flexibility Score: inf
ROOT
ATOM      1  C   UNL     1      65.161  50.818  38.742  1.00  0.00     0.171 C 
ENDROOT
BRANCH   1   2
ATOM      2  C   UNL     1      64.562  49.870  37.691  1.00  0.00     0.190 C 
BRANCH   2   3
ATOM      3  O   UNL     1      64.134  48.670  38.279  1.00  0.00    -0.394 OA
ATOM      4  H   UNL     1      63.151  48.748  38.402  1.00  0.00     0.210 HD
ENDBRANCH   2   3
ENDBRANCH   1   2
BRANCH   1   5
ATOM      5  C   UNL     1      66.216  50.099  39.627  1.00  0.00     0.181 C 
BRANCH   5   6
ATOM      6  C   UNL     1      65.676  49.766  41.039  1.00  0.00     0.209 C 
BRANCH   6   7
ATOM      7  C   UNL     1      66.807  49.465  41.988  1.00  0.00     0.258 C 
ATOM      8  O   UNL     1      67.646  48.623  41.710  1.00  0.00    -0.300 OA
ENDBRANCH   6   7
BRANCH   6   9
ATOM      9  O   UNL     1      64.797  48.671  40.990  1.00  0.00    -0.383 OA
ATOM     10  H   UNL     1      64.051  48.874  41.614  1.00  0.00     0.211 HD
ENDBRANCH   6   9
ENDBRANCH   5   6
BRANCH   5  11
ATOM     11  O   UNL     1      66.729  48.954  38.989  1.00  0.00    -0.387 OA
ATOM     12  H   UNL     1      66.192  48.173  39.281  1.00  0.00     0.211 HD
ENDBRANCH   5  11
ENDBRANCH   1   5
BRANCH   1  13
ATOM     13  O   UNL     1      64.115  51.327  39.532  1.00  0.00    -0.388 OA
ATOM     14  H   UNL     1      64.085  50.789  40.365  1.00  0.00     0.211 HD
ENDBRANCH   1  13
TORSDOF 8
ENDMDL
MODEL 4
REMARK VINA RESULT:    -3.687      1.761      4.354
REMARK INTER + INTRA:          -5.675
REMARK INTER:                  -5.063
REMARK INTRA:                  -0.611
REMARK UNBOUND:                -0.695
REMARK SMILES O=C[C@H](O)[C@@H](O)[C@H](O)CO
REMARK SMILES IDX 7 1 9 2 10 3 5 5 3 6 2 7 1 8 4 9 6 11 8 13
REMARK H PARENT 10 4 4 10 6 12 8 14
REMARK Flexibility Score: inf
ROOT
ATOM      1  C   UNL     1      65.058  50.684  39.027  1.00  0.00     0.171 C 
ENDROOT
BRANCH   1   2
ATOM      2  C   UNL     1      64.420  49.734  38.002  1.00  0.00     0.190 C 
BRANCH   2   3
ATOM      3  O   UNL     1      64.404  48.414  38.478  1.00  0.00    -0.394 OA
ATOM      4  H   UNL     1      64.954  47.878  37.849  1.00  0.00     0.210 HD
ENDBRANCH   2   3
ENDBRANCH   1   2
BRANCH   1   5
ATOM      5  C   UNL     1      65.528  49.924  40.298  1.00  0.00     0.181 C 
BRANCH   5   6
ATOM      6  C   UNL     1      66.491  50.766  41.170  1.00  0.00     0.209 C 
BRANCH   6   7
ATOM      7  C   UNL     1      67.362  49.877  42.019  1.00  0.00     0.258 C 
ATOM      8  O   UNL     1      67.455  48.683  41.779  1.00  0.00    -0.300 OA
ENDBRANCH   6   7
BRANCH   6   9
ATOM      9  O   UNL     1      65.772  51.648  41.994  1.00  0.00    -0.383 OA
ATOM     10  H   UNL     1      64.869  51.254  42.118  1.00  0.00     0.211 HD
ENDBRANCH   6   9
ENDBRANCH   5   6
BRANCH   5  11
ATOM     11  O   UNL     1      64.435  49.450  41.049  1.00  0.00    -0.387 OA
ATOM     12  H   UNL     1      63.606  49.828  40.657  1.00  0.00     0.211 HD
ENDBRANCH   5  11
ENDBRANCH   1   5
BRANCH   1  13
ATOM     13  O   UNL     1      64.120  51.676  39.362  1.00  0.00    -0.388 OA
ATOM     14  H   UNL     1      64.197  52.397  38.685  1.00  0.00     0.211 HD
ENDBRANCH   1  13
TORSDOF 8
ENDMDL
MODEL 5
REMARK VINA RESULT:    -3.682      1.521      2.609
REMARK INTER + INTRA:          -5.669
REMARK INTER:                  -5.371
REMARK INTRA:                  -0.297
REMARK UNBOUND:                -0.695
REMARK SMILES O=C[C@H](O)[C@@H](O)[C@H](O)CO
REMARK SMILES IDX 7 1 9 2 10 3 5 5 3 6 2 7 1 8 4 9 6 11 8 13
REMARK H PARENT 10 4 4 10 6 12 8 14
REMARK Flexibility Score: inf
ROOT
ATOM      1  C   UNL     1      66.566  49.837  40.914  1.00  0.00     0.171 C 
ENDROOT
BRANCH   1   2
ATOM      2  C   UNL     1      66.769  50.963  41.939  1.00  0.00     0.190 C 
BRANCH   2   3
ATOM      3  O   UNL     1      65.678  51.052  42.816  1.00  0.00    -0.394 OA
ATOM      4  H   UNL     1      64.866  51.140  42.252  1.00  0.00     0.210 HD
ENDBRANCH   2   3
ENDBRANCH   1   2
BRANCH   1   5
ATOM      5  C   UNL     1      65.202  49.968  40.183  1.00  0.00     0.181 C 
BRANCH   5   6
ATOM      6  C   UNL     1      65.239  49.384  38.749  1.00  0.00     0.209 C 
BRANCH   6   7
ATOM      7  C   UNL     1      64.793  50.409  37.740  1.00  0.00     0.258 C 
ATOM      8  O   UNL     1      63.745  50.268  37.130  1.00  0.00    -0.300 OA
ENDBRANCH   6   7
BRANCH   6   9
ATOM      9  O   UNL     1      64.425  48.243  38.655  1.00  0.00    -0.383 OA
ATOM     10  H   UNL     1      65.010  47.458  38.821  1.00  0.00     0.211 HD
ENDBRANCH   6   9
ENDBRANCH   5   6
BRANCH   5  11
ATOM     11  O   UNL     1      64.155  49.407  40.939  1.00  0.00    -0.387 OA
ATOM     12  H   UNL     1      63.512  48.989  40.311  1.00  0.00     0.211 HD
ENDBRANCH   5  11
ENDBRANCH   1   5
BRANCH   1  13
ATOM     13  O   UNL     1      66.652  48.602  41.583  1.00  0.00    -0.388 OA
ATOM     14  H   UNL     1      65.759  48.413  41.972  1.00  0.00     0.211 HD
ENDBRANCH   1  13
TORSDOF 8
ENDMDL
MODEL 6
REMARK VINA RESULT:    -3.666      1.033      4.213
REMARK INTER + INTRA:          -5.647
REMARK INTER:                  -5.235
REMARK INTRA:                  -0.412
REMARK UNBOUND:                -0.695
REMARK SMILES O=C[C@H](O)[C@@H](O)[C@H](O)CO
REMARK SMILES IDX 7 1 9 2 10 3 5 5 3 6 2 7 1 8 4 9 6 11 8 13
REMARK H PARENT 10 4 4 10 6 12 8 14
REMARK Flexibility Score: inf
ROOT
ATOM      1  C   UNL     1      65.061  50.847  38.116  1.00  0.00     0.171 C 
ENDROOT
BRANCH   1   2
ATOM      2  C   UNL     1      64.484  50.482  36.739  1.00  0.00     0.190 C 
BRANCH   2   3
ATOM      3  O   UNL     1      63.088  50.358  36.793  1.00  0.00    -0.394 OA
ATOM      4  H   UNL     1      62.842  50.313  37.754  1.00  0.00     0.210 HD
ENDBRANCH   2   3
ENDBRANCH   1   2
BRANCH   1   5
ATOM      5  C   UNL     1      65.373  49.580  38.960  1.00  0.00     0.181 C 
BRANCH   5   6
ATOM      6  C   UNL     1      65.392  49.871  40.481  1.00  0.00     0.209 C 
BRANCH   6   7
ATOM      7  C   UNL     1      66.594  49.241  41.132  1.00  0.00     0.258 C 
ATOM      8  O   UNL     1      66.765  49.323  42.338  1.00  0.00    -0.300 OA
ENDBRANCH   6   7
BRANCH   6   9
ATOM      9  O   UNL     1      64.220  49.396  41.092  1.00  0.00    -0.383 OA
ATOM     10  H   UNL     1      63.605  50.172  41.177  1.00  0.00     0.211 HD
ENDBRANCH   6   9
ENDBRANCH   5   6
BRANCH   5  11
ATOM     11  O   UNL     1      64.494  48.525  38.649  1.00  0.00    -0.387 OA
ATOM     12  H   UNL     1      64.377  47.973  39.464  1.00  0.00     0.211 HD
ENDBRANCH   5  11
ENDBRANCH   1   5
BRANCH   1  13
ATOM     13  O   UNL     1      64.138  51.672  38.784  1.00  0.00    -0.388 OA
ATOM     14  H   UNL     1      64.633  52.154  39.495  1.00  0.00     0.211 HD
ENDBRANCH   1  13
TORSDOF 8
ENDMDL
MODEL 7
REMARK VINA RESULT:    -3.605      1.675      3.815
REMARK INTER + INTRA:          -5.564
REMARK INTER:                  -5.139
REMARK INTRA:                  -0.425
REMARK UNBOUND:                -0.695
REMARK SMILES O=C[C@H](O)[C@@H](O)[C@H](O)CO
REMARK SMILES IDX 7 1 9 2 10 3 5 5 3 6 2 7 1 8 4 9 6 11 8 13
REMARK H PARENT 10 4 4 10 6 12 8 14
REMARK Flexibility Score: inf
ROOT
ATOM      1  C   UNL     1      64.554  50.568  37.782  1.00  0.00     0.171 C 
ENDROOT
BRANCH   1   2
ATOM      2  C   UNL     1      65.581  51.055  36.748  1.00  0.00     0.190 C 
BRANCH   2   3
ATOM      3  O   UNL     1      66.808  50.395  36.906  1.00  0.00    -0.394 OA
ATOM      4  H   UNL     1      66.989  50.359  37.881  1.00  0.00     0.210 HD
ENDBRANCH   2   3
ENDBRANCH   1   2
BRANCH   1   5
ATOM      5  C   UNL     1      65.111  49.396  38.635  1.00  0.00     0.181 C 
BRANCH   5   6
ATOM      6  C   UNL     1      65.237  49.761  40.135  1.00  0.00     0.209 C 
BRANCH   6   7
ATOM      7  C   UNL     1      66.673  50.023  40.505  1.00  0.00     0.258 C 
ATOM      8  O   UNL     1      67.347  50.813  39.863  1.00  0.00    -0.300 OA
ENDBRANCH   6   7
BRANCH   6   9
ATOM      9  O   UNL     1      64.722  48.732  40.941  1.00  0.00    -0.383 OA
ATOM     10  H   UNL     1      65.362  48.607  41.691  1.00  0.00     0.211 HD
ENDBRANCH   6   9
ENDBRANCH   5   6
BRANCH   5  11
ATOM     11  O   UNL     1      64.356  48.221  38.453  1.00  0.00    -0.387 OA
ATOM     12  H   UNL     1      64.924  47.561  37.979  1.00  0.00     0.211 HD
ENDBRANCH   5  11
ENDBRANCH   1   5
BRANCH   1  13
ATOM     13  O   UNL     1      63.386  50.176  37.103  1.00  0.00    -0.388 OA
ATOM     14  H   UNL     1      62.863  49.603  37.722  1.00  0.00     0.211 HD
ENDBRANCH   1  13
TORSDOF 8
ENDMDL
MODEL 8
REMARK VINA RESULT:    -3.513      1.113      1.467
REMARK INTER + INTRA:          -5.440
REMARK INTER:                  -5.106
REMARK INTRA:                  -0.334
REMARK UNBOUND:                -0.695
REMARK SMILES O=C[C@H](O)[C@@H](O)[C@H](O)CO
REMARK SMILES IDX 7 1 9 2 10 3 5 5 3 6 2 7 1 8 4 9 6 11 8 13
REMARK H PARENT 10 4 4 10 6 12 8 14
REMARK Flexibility Score: inf
ROOT
ATOM      1  C   UNL     1      65.950  49.838  39.463  1.00  0.00     0.171 C 
ENDROOT
BRANCH   1   2
ATOM      2  C   UNL     1      65.661  49.760  40.970  1.00  0.00     0.190 C 
BRANCH   2   3
ATOM      3  O   UNL     1      64.304  49.500  41.211  1.00  0.00    -0.394 OA
ATOM      4  H   UNL     1      64.205  48.513  41.250  1.00  0.00     0.210 HD
ENDBRANCH   2   3
ENDBRANCH   1   2
BRANCH   1   5
ATOM      5  C   UNL     1      64.660  49.637  38.621  1.00  0.00     0.181 C 
BRANCH   5   6
ATOM      6  C   UNL     1      64.712  50.388  37.268  1.00  0.00     0.209 C 
BRANCH   6   7
ATOM      7  C   UNL     1      65.333  51.750  37.434  1.00  0.00     0.258 C 
ATOM      8  O   UNL     1      64.898  52.712  36.821  1.00  0.00    -0.300 OA
ENDBRANCH   6   7
BRANCH   6   9
ATOM      9  O   UNL     1      63.424  50.519  36.723  1.00  0.00    -0.383 OA
ATOM     10  H   UNL     1      63.413  51.373  36.214  1.00  0.00     0.211 HD
ENDBRANCH   6   9
ENDBRANCH   5   6
BRANCH   5  11
ATOM     11  O   UNL     1      64.371  48.270  38.440  1.00  0.00    -0.387 OA
ATOM     12  H   UNL     1      63.871  47.954  39.235  1.00  0.00     0.211 HD
ENDBRANCH   5  11
ENDBRANCH   1   5
BRANCH   1  13
ATOM     13  O   UNL     1      66.910  48.861  39.140  1.00  0.00    -0.388 OA
ATOM     14  H   UNL     1      66.940  48.216  39.894  1.00  0.00     0.211 HD
ENDBRANCH   1  13
TORSDOF 8
ENDMDL
MODEL 9
REMARK VINA RESULT:    -3.452      2.482      4.585
REMARK INTER + INTRA:          -5.358
REMARK INTER:                  -4.659
REMARK INTRA:                  -0.699
REMARK UNBOUND:                -0.695
REMARK SMILES O=C[C@H](O)[C@@H](O)[C@H](O)CO
REMARK SMILES IDX 7 1 9 2 10 3 5 5 3 6 2 7 1 8 4 9 6 11 8 13
REMARK H PARENT 10 4 4 10 6 12 8 14
REMARK Flexibility Score: inf
ROOT
ATOM      1  C   UNL     1      65.084  50.148  39.907  1.00  0.00     0.171 C 
ENDROOT
BRANCH   1   2
ATOM      2  C   UNL     1      64.739  49.612  38.509  1.00  0.00     0.190 C 
BRANCH   2   3
ATOM      3  O   UNL     1      64.420  48.247  38.556  1.00  0.00    -0.394 OA
ATOM      4  H   UNL     1      64.426  47.986  39.513  1.00  0.00     0.210 HD
ENDBRANCH   2   3
ENDBRANCH   1   2
BRANCH   1   5
ATOM      5  C   UNL     1      66.602  50.019  40.211  1.00  0.00     0.181 C 
BRANCH   5   6
ATOM      6  C   UNL     1      66.929  50.254  41.706  1.00  0.00     0.209 C 
BRANCH   6   7
ATOM      7  C   UNL     1      68.363  50.681  41.881  1.00  0.00     0.258 C 
ATOM      8  O   UNL     1      69.274  50.002  41.434  1.00  0.00    -0.300 OA
ENDBRANCH   6   7
BRANCH   6   9
ATOM      9  O   UNL     1      66.687  49.091  42.456  1.00  0.00    -0.383 OA
ATOM     10  H   UNL     1      66.776  48.323  41.832  1.00  0.00     0.211 HD
ENDBRANCH   6   9
ENDBRANCH   5   6
BRANCH   5  11
ATOM     11  O   UNL     1      67.115  48.788  39.760  1.00  0.00    -0.387 OA
ATOM     12  H   UNL     1      66.613  48.526  38.946  1.00  0.00     0.211 HD
ENDBRANCH   5  11
ENDBRANCH   1   5
BRANCH   1  13
ATOM     13  O   UNL     1      64.327  49.440  40.857  1.00  0.00    -0.388 OA
ATOM     14  H   UNL     1      64.889  48.691  41.185  1.00  0.00     0.211 HD
ENDBRANCH   1  13
TORSDOF 8
ENDMDL
