MODEL 1
REMARK VINA RESULT:    -2.890      0.000      0.000
REMARK INTER + INTRA:          -2.637
REMARK INTER:                  -4.073
REMARK INTRA:                   1.436
REMARK UNBOUND:                 1.436
REMARK SMILES CC1=CCC(=C(C)C)C(=O)CC(C)=CCC1
REMARK SMILES IDX 12 1 14 2 13 3 15 4 16 5 2 6 1 7 3 8 11 10 9 11 10 12 5 13
REMARK SMILES IDX 6 14 7 15 8 16 4 17
REMARK H PARENT
REMARK Flexibility Score: 60.00
ROOT
ATOM      1  C   UNL     1      13.901  21.281   0.391  1.00  0.00    -0.070 C 
ATOM      2  C   UNL     1      15.235  21.502   0.402  1.00  0.00    -0.027 C 
ATOM      3  C   UNL     1      13.423  19.852   0.365  1.00  0.00     0.039 C 
ENDROOT
BRANCH   2   4
ATOM      4  C   UNL     1      15.907  22.856   0.331  1.00  0.00     0.032 C 
BRANCH   4   5
ATOM      5  C   UNL     1      16.044  23.437  -1.092  1.00  0.00     0.034 C 
BRANCH   5   6
ATOM      6  C   UNL     1      14.926  24.398  -1.454  1.00  0.00    -0.077 C 
ATOM      7  C   UNL     1      14.959  25.775  -0.838  1.00  0.00     0.039 C 
ATOM      8  C   UNL     1      13.868  24.080  -2.239  1.00  0.00    -0.023 CG0
ATOM      9  G   UNL     1      13.635  22.775  -2.974  1.00  0.00     0.000 G0
ENDBRANCH   5   6
ENDBRANCH   4   5
ENDBRANCH   2   4
BRANCH   1  10
ATOM     10  C   UNL     1      12.876  22.394   0.311  1.00  0.00     0.111 C 
BRANCH  10  11
ATOM     11  C   UNL     1      12.095  22.338  -0.976  1.00  0.00     0.163 C 
ATOM     12  O   UNL     1      10.880  22.672  -0.948  1.00  0.00    -0.294 OA
BRANCH  11  13
ATOM     13  C   UNL     1      12.690  21.846  -2.254  1.00  0.00    -0.002 C 
ATOM     14  C   UNL     1      12.439  20.578  -2.700  1.00  0.00    -0.069 C 
ATOM     15  C   UNL     1      13.150  19.997  -3.903  1.00  0.00     0.039 C 
ATOM     16  C   UNL     1      11.434  19.687  -2.004  1.00  0.00     0.039 C 
BRANCH  13  17
ATOM     17  C   UNL     1      13.651  22.777  -2.977  1.00  0.00     0.066 CG0
ATOM     18  G   UNL     1      13.862  24.079  -2.231  1.00  0.00     0.000 G0
ENDBRANCH  13  17
ENDBRANCH  11  13
ENDBRANCH  10  11
ENDBRANCH   1  10
TORSDOF 0
ENDMDL
MODEL 2
REMARK VINA RESULT:    -2.705      1.558      3.567
REMARK INTER + INTRA:          -2.376
REMARK INTER:                  -4.567
REMARK INTRA:                   2.191
REMARK UNBOUND:                 1.436
REMARK SMILES CC1=CCC(=C(C)C)C(=O)CC(C)=CCC1
REMARK SMILES IDX 12 1 14 2 13 3 15 4 16 5 2 6 1 7 3 8 11 10 9 11 10 12 5 13
REMARK SMILES IDX 6 14 7 15 8 16 4 17
REMARK H PARENT
REMARK Flexibility Score: 60.00
ROOT
ATOM      1  C   UNL     1      12.396  20.344  -2.589  1.00  0.00    -0.070 C 
ATOM      2  C   UNL     1      13.010  20.730  -3.731  1.00  0.00    -0.027 C 
ATOM      3  C   UNL     1      12.061  18.884  -2.427  1.00  0.00     0.039 C 
ENDROOT
BRANCH   2   4
ATOM      4  C   UNL     1      13.338  22.155  -4.120  1.00  0.00     0.032 C 
BRANCH   4   5
ATOM      5  C   UNL     1      14.085  22.965  -3.040  1.00  0.00     0.034 C 
BRANCH   5   6
ATOM      6  C   UNL     1      13.519  24.360  -2.841  1.00  0.00    -0.077 C 
ATOM      7  C   UNL     1      13.527  25.294  -4.025  1.00  0.00     0.039 C 
ATOM      8  C   UNL     1      13.073  24.842  -1.655  1.00  0.00    -0.023 CG0
ATOM      9  G   UNL     1      12.956  24.085  -0.347  1.00  0.00     0.000 G0
ENDBRANCH   5   6
ENDBRANCH   4   5
ENDBRANCH   2   4
BRANCH   1  10
ATOM     10  C   UNL     1      11.950  21.318  -1.517  1.00  0.00     0.111 C 
BRANCH  10  11
ATOM     11  C   UNL     1      13.012  21.513  -0.467  1.00  0.00     0.163 C 
ATOM     12  O   UNL     1      13.229  20.569   0.340  1.00  0.00    -0.294 OA
BRANCH  11  13
ATOM     13  C   UNL     1      13.763  22.795  -0.315  1.00  0.00    -0.002 C 
ATOM     14  C   UNL     1      15.111  22.793  -0.088  1.00  0.00    -0.069 C 
ATOM     15  C   UNL     1      15.871  24.062   0.228  1.00  0.00     0.039 C 
ATOM     16  C   UNL     1      15.913  21.511  -0.139  1.00  0.00     0.039 C 
BRANCH  13  17
ATOM     17  C   UNL     1      12.952  24.081  -0.328  1.00  0.00     0.066 CG0
ATOM     18  G   UNL     1      13.091  24.836  -1.635  1.00  0.00     0.000 G0
ENDBRANCH  13  17
ENDBRANCH  11  13
ENDBRANCH  10  11
ENDBRANCH   1  10
TORSDOF 0
ENDMDL
MODEL 3
REMARK VINA RESULT:    -2.361      1.728      4.595
REMARK INTER + INTRA:          -1.892
REMARK INTER:                  -3.548
REMARK INTRA:                   1.656
REMARK UNBOUND:                 1.436
REMARK SMILES CC1=CCC(=C(C)C)C(=O)CC(C)=CCC1
REMARK SMILES IDX 12 1 14 2 13 3 15 4 16 5 2 6 1 7 3 8 11 10 9 11 10 12 5 13
REMARK SMILES IDX 6 14 7 15 8 16 4 17
REMARK H PARENT
REMARK Flexibility Score: 60.00
ROOT
ATOM      1  C   UNL     1      13.252  23.550  -2.766  1.00  0.00    -0.070 C 
ATOM      2  C   UNL     1      13.638  22.773  -3.802  1.00  0.00    -0.027 C 
ATOM      3  C   UNL     1      13.985  24.849  -2.547  1.00  0.00     0.039 C 
ENDROOT
BRANCH   2   4
ATOM      4  C   UNL     1      13.095  21.398  -4.125  1.00  0.00     0.032 C 
BRANCH   4   5
ATOM      5  C   UNL     1      13.456  20.302  -3.101  1.00  0.00     0.034 C 
BRANCH   5   6
ATOM      6  C   UNL     1      12.364  20.058  -2.075  1.00  0.00    -0.077 C 
ATOM      7  C   UNL     1      11.012  19.621  -2.582  1.00  0.00     0.039 C 
ATOM      8  C   UNL     1      12.503  20.274  -0.744  1.00  0.00    -0.023 CG0
ATOM      9  G   UNL     1      13.763  20.693  -0.013  1.00  0.00     0.000 G0
ENDBRANCH   5   6
ENDBRANCH   4   5
ENDBRANCH   2   4
BRANCH   1  10
ATOM     10  C   UNL     1      12.190  23.137  -1.767  1.00  0.00     0.111 C 
BRANCH  10  11
ATOM     11  C   UNL     1      12.745  23.048  -0.370  1.00  0.00     0.163 C 
ATOM     12  O   UNL     1      12.201  23.743   0.530  1.00  0.00    -0.294 OA
BRANCH  11  13
ATOM     13  C   UNL     1      13.943  22.222  -0.035  1.00  0.00    -0.002 C 
ATOM     14  C   UNL     1      15.165  22.806   0.150  1.00  0.00    -0.069 C 
ATOM     15  C   UNL     1      16.424  21.987   0.334  1.00  0.00     0.039 C 
ATOM     16  C   UNL     1      15.320  24.311   0.177  1.00  0.00     0.039 C 
BRANCH  13  17
ATOM     17  C   UNL     1      13.760  20.713  -0.003  1.00  0.00     0.066 CG0
ATOM     18  G   UNL     1      12.511  20.269  -0.738  1.00  0.00     0.000 G0
ENDBRANCH  13  17
ENDBRANCH  11  13
ENDBRANCH  10  11
ENDBRANCH   1  10
TORSDOF 0
ENDMDL
MODEL 4
REMARK VINA RESULT:    -2.358      1.621      3.403
REMARK INTER + INTRA:          -1.887
REMARK INTER:                  -2.334
REMARK INTRA:                   0.447
REMARK UNBOUND:                 1.436
REMARK SMILES CC1=CCC(=C(C)C)C(=O)CC(C)=CCC1
REMARK SMILES IDX 12 1 14 2 13 3 15 4 16 5 2 6 1 7 3 8 11 10 9 11 10 12 5 13
REMARK SMILES IDX 6 14 7 15 8 16 4 17
REMARK H PARENT
REMARK Flexibility Score: 60.00
ROOT
ATOM      1  C   UNL     1      13.827  24.655  -2.672  1.00  0.00    -0.070 C 
ATOM      2  C   UNL     1      14.809  25.188  -1.910  1.00  0.00    -0.027 C 
ATOM      3  C   UNL     1      12.893  25.601  -3.382  1.00  0.00     0.039 C 
ENDROOT
BRANCH   2   4
ATOM      4  C   UNL     1      15.779  24.410  -1.048  1.00  0.00     0.032 C 
BRANCH   4   5
ATOM      5  C   UNL     1      15.146  23.720   0.179  1.00  0.00     0.034 C 
BRANCH   5   6
ATOM      6  C   UNL     1      15.597  22.281   0.355  1.00  0.00    -0.077 C 
ATOM      7  C   UNL     1      17.079  22.018   0.444  1.00  0.00     0.039 C 
ATOM      8  C   UNL     1      14.761  21.215   0.367  1.00  0.00    -0.023 CG0
ATOM      9  G   UNL     1      13.246  21.240   0.311  1.00  0.00     0.000 G0
ENDBRANCH   5   6
ENDBRANCH   4   5
ENDBRANCH   2   4
BRANCH   1  10
ATOM     10  C   UNL     1      13.567  23.165  -2.769  1.00  0.00     0.111 C 
BRANCH  10  11
ATOM     11  C   UNL     1      12.611  22.698  -1.703  1.00  0.00     0.163 C 
ATOM     12  O   UNL     1      11.749  23.514  -1.280  1.00  0.00    -0.294 OA
BRANCH  11  13
ATOM     13  C   UNL     1      12.692  21.337  -1.094  1.00  0.00    -0.002 C 
ATOM     14  C   UNL     1      12.211  20.244  -1.760  1.00  0.00    -0.069 C 
ATOM     15  C   UNL     1      12.133  18.880  -1.108  1.00  0.00     0.039 C 
ATOM     16  C   UNL     1      11.725  20.346  -3.189  1.00  0.00     0.039 C 
BRANCH  13  17
ATOM     17  C   UNL     1      13.241  21.239   0.320  1.00  0.00     0.066 CG0
ATOM     18  G   UNL     1      14.756  21.201   0.349  1.00  0.00     0.000 G0
ENDBRANCH  13  17
ENDBRANCH  11  13
ENDBRANCH  10  11
ENDBRANCH   1  10
TORSDOF 0
ENDMDL
MODEL 5
REMARK VINA RESULT:    -1.920      1.753      3.947
REMARK INTER + INTRA:          -1.271
REMARK INTER:                  -2.061
REMARK INTRA:                   0.790
REMARK UNBOUND:                 1.436
REMARK SMILES CC1=CCC(=C(C)C)C(=O)CC(C)=CCC1
REMARK SMILES IDX 12 1 14 2 13 3 15 4 16 5 2 6 1 7 3 8 11 10 9 11 10 12 5 13
REMARK SMILES IDX 6 14 7 15 8 16 4 17
REMARK H PARENT
REMARK Flexibility Score: 60.00
ROOT
ATOM      1  C   UNL     1      12.469  21.150  -1.161  1.00  0.00    -0.070 C 
ATOM      2  C   UNL     1      11.761  22.299  -1.236  1.00  0.00    -0.027 C 
ATOM      3  C   UNL     1      11.923  19.937  -1.870  1.00  0.00     0.039 C 
ENDROOT
BRANCH   2   4
ATOM      4  C   UNL     1      12.091  23.588  -0.516  1.00  0.00     0.032 C 
BRANCH   4   5
ATOM      5  C   UNL     1      12.200  24.829  -1.428  1.00  0.00     0.034 C 
BRANCH   5   6
ATOM      6  C   UNL     1      13.456  24.835  -2.281  1.00  0.00    -0.077 C 
ATOM      7  C   UNL     1      13.301  25.116  -3.754  1.00  0.00     0.039 C 
ATOM      8  C   UNL     1      14.695  24.536  -1.819  1.00  0.00    -0.023 CG0
ATOM      9  G   UNL     1      15.090  24.242  -0.386  1.00  0.00     0.000 G0
ENDBRANCH   5   6
ENDBRANCH   4   5
ENDBRANCH   2   4
BRANCH   1  10
ATOM     10  C   UNL     1      13.726  21.001  -0.327  1.00  0.00     0.111 C 
BRANCH  10  11
ATOM     11  C   UNL     1      14.887  21.740  -0.937  1.00  0.00     0.163 C 
ATOM     12  O   UNL     1      15.284  21.383  -2.079  1.00  0.00    -0.294 OA
BRANCH  11  13
ATOM     13  C   UNL     1      15.615  22.826  -0.215  1.00  0.00    -0.002 C 
ATOM     14  C   UNL     1      16.643  22.533   0.637  1.00  0.00    -0.069 C 
ATOM     15  C   UNL     1      17.293  23.592   1.501  1.00  0.00     0.039 C 
ATOM     16  C   UNL     1      17.181  21.125   0.761  1.00  0.00     0.039 C 
BRANCH  13  17
ATOM     17  C   UNL     1      15.102  24.246  -0.398  1.00  0.00     0.066 CG0
ATOM     18  G   UNL     1      14.693  24.531  -1.829  1.00  0.00     0.000 G0
ENDBRANCH  13  17
ENDBRANCH  11  13
ENDBRANCH  10  11
ENDBRANCH   1  10
TORSDOF 0
ENDMDL
MODEL 6
REMARK VINA RESULT:    -1.789      1.881      4.174
REMARK INTER + INTRA:          -1.085
REMARK INTER:                  -2.175
REMARK INTRA:                   1.090
REMARK UNBOUND:                 1.436
REMARK SMILES CC1=CCC(=C(C)C)C(=O)CC(C)=CCC1
REMARK SMILES IDX 12 1 14 2 13 3 15 4 16 5 2 6 1 7 3 8 11 10 9 11 10 12 5 13
REMARK SMILES IDX 6 14 7 15 8 16 4 17
REMARK H PARENT
REMARK Flexibility Score: 60.00
ROOT
ATOM      1  C   UNL     1      12.289  20.762  -2.285  1.00  0.00    -0.070 C 
ATOM      2  C   UNL     1      11.733  21.223  -1.142  1.00  0.00    -0.027 C 
ATOM      3  C   UNL     1      12.120  19.301  -2.613  1.00  0.00     0.039 C 
ENDROOT
BRANCH   2   4
ATOM      4  C   UNL     1      11.875  22.626  -0.594  1.00  0.00     0.032 C 
BRANCH   4   5
ATOM      5  C   UNL     1      12.771  22.746   0.657  1.00  0.00     0.034 C 
BRANCH   5   6
ATOM      6  C   UNL     1      13.727  21.578   0.821  1.00  0.00    -0.077 C 
ATOM      7  C   UNL     1      13.252  20.391   1.621  1.00  0.00     0.039 C 
ATOM      8  C   UNL     1      15.000  21.561   0.356  1.00  0.00    -0.023 CG0
ATOM      9  G   UNL     1      15.681  22.625  -0.482  1.00  0.00     0.000 G0
ENDBRANCH   5   6
ENDBRANCH   4   5
ENDBRANCH   2   4
BRANCH   1  10
ATOM     10  C   UNL     1      13.145  21.618  -3.197  1.00  0.00     0.111 C 
BRANCH  10  11
ATOM     11  C   UNL     1      14.534  21.800  -2.644  1.00  0.00     0.163 C 
ATOM     12  O   UNL     1      15.400  20.923  -2.915  1.00  0.00    -0.294 OA
BRANCH  11  13
ATOM     13  C   UNL     1      14.899  22.936  -1.747  1.00  0.00    -0.002 C 
ATOM     14  C   UNL     1      14.604  24.225  -2.095  1.00  0.00    -0.069 C 
ATOM     15  C   UNL     1      15.098  25.405  -1.288  1.00  0.00     0.039 C 
ATOM     16  C   UNL     1      13.767  24.535  -3.316  1.00  0.00     0.039 C 
BRANCH  13  17
ATOM     17  C   UNL     1      15.686  22.603  -0.489  1.00  0.00     0.066 CG0
ATOM     18  G   UNL     1      15.005  21.543   0.354  1.00  0.00     0.000 G0
ENDBRANCH  13  17
ENDBRANCH  11  13
ENDBRANCH  10  11
ENDBRANCH   1  10
TORSDOF 0
ENDMDL
MODEL 7
REMARK VINA RESULT:    -1.788      2.185      4.794
REMARK INTER + INTRA:          -1.084
REMARK INTER:                  -1.765
REMARK INTRA:                   0.681
REMARK UNBOUND:                 1.436
REMARK SMILES CC1=CCC(=C(C)C)C(=O)CC(C)=CCC1
REMARK SMILES IDX 12 1 14 2 13 3 15 4 16 5 2 6 1 7 3 8 11 10 9 11 10 12 5 13
REMARK SMILES IDX 6 14 7 15 8 16 4 17
REMARK H PARENT
REMARK Flexibility Score: 60.00
ROOT
ATOM      1  C   UNL     1      14.059  22.228  -3.394  1.00  0.00    -0.070 C 
ATOM      2  C   UNL     1      13.584  21.174  -4.096  1.00  0.00    -0.027 C 
ATOM      3  C   UNL     1      13.633  23.609  -3.820  1.00  0.00     0.039 C 
ENDROOT
BRANCH   2   4
ATOM      4  C   UNL     1      13.970  19.727  -3.886  1.00  0.00     0.032 C 
BRANCH   4   5
ATOM      5  C   UNL     1      12.963  18.902  -3.057  1.00  0.00     0.034 C 
BRANCH   5   6
ATOM      6  C   UNL     1      11.614  19.582  -2.907  1.00  0.00    -0.077 C 
ATOM      7  C   UNL     1      10.609  19.399  -4.017  1.00  0.00     0.039 C 
ATOM      8  C   UNL     1      11.279  20.397  -1.877  1.00  0.00    -0.023 CG0
ATOM      9  G   UNL     1      12.114  20.711  -0.651  1.00  0.00     0.000 G0
ENDBRANCH   5   6
ENDBRANCH   4   5
ENDBRANCH   2   4
BRANCH   1  10
ATOM     10  C   UNL     1      15.064  22.091  -2.267  1.00  0.00     0.111 C 
BRANCH  10  11
ATOM     11  C   UNL     1      14.385  21.870  -0.942  1.00  0.00     0.163 C 
ATOM     12  O   UNL     1      15.095  21.508   0.035  1.00  0.00    -0.294 OA
BRANCH  11  13
ATOM     13  C   UNL     1      12.908  22.003  -0.765  1.00  0.00    -0.002 C 
ATOM     14  C   UNL     1      12.328  23.234  -0.634  1.00  0.00    -0.069 C 
ATOM     15  C   UNL     1      10.862  23.395  -0.296  1.00  0.00     0.039 C 
ATOM     16  C   UNL     1      13.130  24.503  -0.818  1.00  0.00     0.039 C 
BRANCH  13  17
ATOM     17  C   UNL     1      12.104  20.718  -0.644  1.00  0.00     0.066 CG0
ATOM     18  G   UNL     1      11.294  20.425  -1.891  1.00  0.00     0.000 G0
ENDBRANCH  13  17
ENDBRANCH  11  13
ENDBRANCH  10  11
ENDBRANCH   1  10
TORSDOF 0
ENDMDL
MODEL 8
REMARK VINA RESULT:    -1.774      1.539      3.369
REMARK INTER + INTRA:          -1.065
REMARK INTER:                  -2.388
REMARK INTRA:                   1.323
REMARK UNBOUND:                 1.436
REMARK SMILES CC1=CCC(=C(C)C)C(=O)CC(C)=CCC1
REMARK SMILES IDX 12 1 14 2 13 3 15 4 16 5 2 6 1 7 3 8 11 10 9 11 10 12 5 13
REMARK SMILES IDX 6 14 7 15 8 16 4 17
REMARK H PARENT
REMARK Flexibility Score: 60.00
ROOT
ATOM      1  C   UNL     1      12.734  20.446  -1.880  1.00  0.00    -0.070 C 
ATOM      2  C   UNL     1      12.876  20.091  -0.583  1.00  0.00    -0.027 C 
ATOM      3  C   UNL     1      11.491  19.994  -2.603  1.00  0.00     0.039 C 
ENDROOT
BRANCH   2   4
ATOM      4  C   UNL     1      14.088  20.364   0.280  1.00  0.00     0.032 C 
BRANCH   4   5
ATOM      5  C   UNL     1      14.346  21.856   0.582  1.00  0.00     0.034 C 
BRANCH   5   6
ATOM      6  C   UNL     1      15.690  22.345   0.074  1.00  0.00    -0.077 C 
ATOM      7  C   UNL     1      16.923  21.610   0.536  1.00  0.00     0.039 C 
ATOM      8  C   UNL     1      15.859  23.438  -0.710  1.00  0.00    -0.023 CG0
ATOM      9  G   UNL     1      14.773  24.313  -1.305  1.00  0.00     0.000 G0
ENDBRANCH   5   6
ENDBRANCH   4   5
ENDBRANCH   2   4
BRANCH   1  10
ATOM     10  C   UNL     1      13.799  21.191  -2.659  1.00  0.00     0.111 C 
BRANCH  10  11
ATOM     11  C   UNL     1      13.480  22.658  -2.775  1.00  0.00     0.163 C 
ATOM     12  O   UNL     1      13.247  23.126  -3.922  1.00  0.00    -0.294 OA
BRANCH  11  13
ATOM     13  C   UNL     1      13.491  23.577  -1.597  1.00  0.00    -0.002 C 
ATOM     14  C   UNL     1      12.356  23.788  -0.865  1.00  0.00    -0.069 C 
ATOM     15  C   UNL     1      12.294  24.829   0.232  1.00  0.00     0.039 C 
ATOM     16  C   UNL     1      11.098  22.989  -1.119  1.00  0.00     0.039 C 
BRANCH  13  17
ATOM     17  C   UNL     1      14.782  24.328  -1.314  1.00  0.00     0.066 CG0
ATOM     18  G   UNL     1      15.849  23.433  -0.715  1.00  0.00     0.000 G0
ENDBRANCH  13  17
ENDBRANCH  11  13
ENDBRANCH  10  11
ENDBRANCH   1  10
TORSDOF 0
ENDMDL
MODEL 9
REMARK VINA RESULT:    -1.630      1.799      4.051
REMARK INTER + INTRA:          -0.862
REMARK INTER:                  -3.852
REMARK INTRA:                   2.990
REMARK UNBOUND:                 1.436
REMARK SMILES CC1=CCC(=C(C)C)C(=O)CC(C)=CCC1
REMARK SMILES IDX 12 1 14 2 13 3 15 4 16 5 2 6 1 7 3 8 11 10 9 11 10 12 5 13
REMARK SMILES IDX 6 14 7 15 8 16 4 17
REMARK H PARENT
REMARK Flexibility Score: 60.00
ROOT
ATOM      1  C   UNL     1      13.048  20.250  -3.263  1.00  0.00    -0.070 C 
ATOM      2  C   UNL     1      12.019  20.076  -2.404  1.00  0.00    -0.027 C 
ATOM      3  C   UNL     1      13.513  19.056  -4.058  1.00  0.00     0.039 C 
ENDROOT
BRANCH   2   4
ATOM      4  C   UNL     1      11.476  21.121  -1.454  1.00  0.00     0.032 C 
BRANCH   4   5
ATOM      5  C   UNL     1      12.550  21.922  -0.689  1.00  0.00     0.034 C 
BRANCH   5   6
ATOM      6  C   UNL     1      12.277  23.415  -0.663  1.00  0.00    -0.077 C 
ATOM      7  C   UNL     1      10.999  23.882  -0.012  1.00  0.00     0.039 C 
ATOM      8  C   UNL     1      13.070  24.347  -1.245  1.00  0.00    -0.023 CG0
ATOM      9  G   UNL     1      14.401  24.115  -1.934  1.00  0.00     0.000 G0
ENDBRANCH   5   6
ENDBRANCH   4   5
ENDBRANCH   2   4
BRANCH   1  10
ATOM     10  C   UNL     1      13.810  21.553  -3.395  1.00  0.00     0.111 C 
BRANCH  10  11
ATOM     11  C   UNL     1      14.919  21.653  -2.381  1.00  0.00     0.163 C 
ATOM     12  O   UNL     1      15.679  20.658  -2.233  1.00  0.00    -0.294 OA
BRANCH  11  13
ATOM     13  C   UNL     1      15.106  22.853  -1.513  1.00  0.00    -0.002 C 
ATOM     14  C   UNL     1      15.803  22.765  -0.340  1.00  0.00    -0.069 C 
ATOM     15  C   UNL     1      15.876  23.920   0.636  1.00  0.00     0.039 C 
ATOM     16  C   UNL     1      16.538  21.500   0.044  1.00  0.00     0.039 C 
BRANCH  13  17
ATOM     17  C   UNL     1      14.414  24.137  -1.943  1.00  0.00     0.066 CG0
ATOM     18  G   UNL     1      13.081  24.333  -1.248  1.00  0.00     0.000 G0
ENDBRANCH  13  17
ENDBRANCH  11  13
ENDBRANCH  10  11
ENDBRANCH   1  10
TORSDOF 0
ENDMDL
