MODEL 1
REMARK VINA RESULT:    -4.829      0.000      0.000
REMARK INTER + INTRA:          -4.971
REMARK INTER:                  -4.971
REMARK INTRA:                   0.000
REMARK UNBOUND:                 0.000
REMARK SMILES Nc1ncnc2nc[nH]c12
REMARK SMILES IDX 8 1 7 2 6 3 5 4 4 5 3 6 2 7 10 8 9 9 1 11
REMARK H PARENT 9 10 1 12 1 13
REMARK Flexibility Score: inf
ROOT
ATOM      1  C   UNL     1       9.517  -4.533  17.652  1.00  0.00     0.199 A 
ATOM      2  N   UNL     1      10.141  -4.020  18.749  1.00  0.00    -0.217 NA
ATOM      3  C   UNL     1      11.385  -3.801  18.292  1.00  0.00     0.182 A 
ATOM      4  N   UNL     1      12.425  -3.288  18.994  1.00  0.00    -0.215 NA
ATOM      5  C   UNL     1      13.624  -3.138  18.353  1.00  0.00     0.226 A 
ATOM      6  N   UNL     1      13.760  -3.498  17.037  1.00  0.00    -0.217 NA
ATOM      7  C   UNL     1      12.713  -4.016  16.328  1.00  0.00     0.152 A 
ATOM      8  C   UNL     1      11.499  -4.163  16.993  1.00  0.00     0.127 A 
ATOM      9  N   UNL     1      10.321  -4.632  16.564  1.00  0.00    -0.340 N 
ATOM     10  H   UNL     1      10.068  -4.992  15.617  1.00  0.00     0.168 HD
ENDROOT
BRANCH   7  11
ATOM     11  N   UNL     1      12.878  -4.384  14.958  1.00  0.00    -0.382 N 
ATOM     12  H   UNL     1      12.261  -5.113  14.535  1.00  0.00     0.158 HD
ATOM     13  H   UNL     1      13.607  -3.939  14.359  1.00  0.00     0.158 HD
ENDBRANCH   7  11
TORSDOF 1
ENDMDL
MODEL 2
REMARK VINA RESULT:    -4.813     11.956     13.714
REMARK INTER + INTRA:          -4.954
REMARK INTER:                  -4.954
REMARK INTRA:                   0.000
REMARK UNBOUND:                 0.000
REMARK SMILES Nc1ncnc2nc[nH]c12
REMARK SMILES IDX 8 1 7 2 6 3 5 4 4 5 3 6 2 7 10 8 9 9 1 11
REMARK H PARENT 9 10 1 12 1 13
REMARK Flexibility Score: inf
ROOT
ATOM      1  C   UNL     1      11.461  -3.781   4.124  1.00  0.00     0.199 A 
ATOM      2  N   UNL     1      10.609  -3.999   3.085  1.00  0.00    -0.217 NA
ATOM      3  C   UNL     1       9.848  -5.005   3.546  1.00  0.00     0.182 A 
ATOM      4  N   UNL     1       8.827  -5.611   2.894  1.00  0.00    -0.215 NA
ATOM      5  C   UNL     1       8.166  -6.625   3.530  1.00  0.00     0.226 A 
ATOM      6  N   UNL     1       8.533  -7.010   4.795  1.00  0.00    -0.217 NA
ATOM      7  C   UNL     1       9.563  -6.399   5.455  1.00  0.00     0.152 A 
ATOM      8  C   UNL     1      10.226  -5.370   4.793  1.00  0.00     0.127 A 
ATOM      9  N   UNL     1      11.252  -4.604   5.182  1.00  0.00    -0.340 N 
ATOM     10  H   UNL     1      11.777  -4.624   6.085  1.00  0.00     0.168 HD
ENDROOT
BRANCH   7  11
ATOM     11  N   UNL     1       9.927  -6.817   6.770  1.00  0.00    -0.382 N 
ATOM     12  H   UNL     1      10.054  -7.832   6.980  1.00  0.00     0.158 HD
ATOM     13  H   UNL     1      10.073  -6.127   7.540  1.00  0.00     0.158 HD
ENDBRANCH   7  11
TORSDOF 1
ENDMDL
MODEL 3
REMARK VINA RESULT:    -4.730      2.328      3.348
REMARK INTER + INTRA:          -4.868
REMARK INTER:                  -4.868
REMARK INTRA:                   0.000
REMARK UNBOUND:                 0.000
REMARK SMILES Nc1ncnc2nc[nH]c12
REMARK SMILES IDX 8 1 7 2 6 3 5 4 4 5 3 6 2 7 10 8 9 9 1 11
REMARK H PARENT 9 10 1 12 1 13
REMARK Flexibility Score: inf
ROOT
ATOM      1  C   UNL     1       8.229  -4.994  19.509  1.00  0.00     0.199 A 
ATOM      2  N   UNL     1       8.489  -4.318  18.356  1.00  0.00    -0.217 NA
ATOM      3  C   UNL     1       9.653  -4.861  17.963  1.00  0.00     0.182 A 
ATOM      4  N   UNL     1      10.360  -4.539  16.854  1.00  0.00    -0.215 NA
ATOM      5  C   UNL     1      11.532  -5.205  16.620  1.00  0.00     0.226 A 
ATOM      6  N   UNL     1      11.970  -6.171  17.490  1.00  0.00    -0.217 NA
ATOM      7  C   UNL     1      11.257  -6.497  18.610  1.00  0.00     0.152 A 
ATOM      8  C   UNL     1      10.068  -5.810  18.835  1.00  0.00     0.127 A 
ATOM      9  N   UNL     1       9.176  -5.913  19.828  1.00  0.00    -0.340 N 
ATOM     10  H   UNL     1       9.193  -6.546  20.658  1.00  0.00     0.168 HD
ENDROOT
BRANCH   7  11
ATOM     11  N   UNL     1      11.732  -7.505  19.502  1.00  0.00    -0.382 N 
ATOM     12  H   UNL     1      12.679  -7.416  19.935  1.00  0.00     0.158 HD
ATOM     13  H   UNL     1      11.153  -8.341  19.737  1.00  0.00     0.158 HD
ENDBRANCH   7  11
TORSDOF 1
ENDMDL
MODEL 4
REMARK VINA RESULT:    -4.684      5.195      7.127
REMARK INTER + INTRA:          -4.821
REMARK INTER:                  -4.821
REMARK INTRA:                   0.000
REMARK UNBOUND:                 0.000
REMARK SMILES Nc1ncnc2nc[nH]c12
REMARK SMILES IDX 8 1 7 2 6 3 5 4 4 5 3 6 2 7 10 8 9 9 1 11
REMARK H PARENT 9 10 1 12 1 13
REMARK Flexibility Score: inf
ROOT
ATOM      1  C   UNL     1      19.072  -1.479  13.324  1.00  0.00     0.199 A 
ATOM      2  N   UNL     1      19.037  -2.557  14.154  1.00  0.00    -0.217 NA
ATOM      3  C   UNL     1      17.813  -2.457  14.699  1.00  0.00     0.182 A 
ATOM      4  N   UNL     1      17.263  -3.296  15.610  1.00  0.00    -0.215 NA
ATOM      5  C   UNL     1      15.997  -3.028  16.051  1.00  0.00     0.226 A 
ATOM      6  N   UNL     1      15.310  -1.940  15.579  1.00  0.00    -0.217 NA
ATOM      7  C   UNL     1      15.863  -1.092  14.660  1.00  0.00     0.152 A 
ATOM      8  C   UNL     1      17.153  -1.377  14.221  1.00  0.00     0.127 A 
ATOM      9  N   UNL     1      17.935  -0.738  13.343  1.00  0.00    -0.340 N 
ATOM     10  H   UNL     1      17.731   0.126  12.794  1.00  0.00     0.168 HD
ENDROOT
BRANCH   7  11
ATOM     11  N   UNL     1      15.130   0.036  14.182  1.00  0.00    -0.382 N 
ATOM     12  H   UNL     1      14.894   0.114  13.168  1.00  0.00     0.158 HD
ATOM     13  H   UNL     1      14.817   0.795  14.827  1.00  0.00     0.158 HD
ENDBRANCH   7  11
TORSDOF 1
ENDMDL
MODEL 5
REMARK VINA RESULT:    -4.630      3.123      4.941
REMARK INTER + INTRA:          -4.765
REMARK INTER:                  -4.765
REMARK INTRA:                   0.000
REMARK UNBOUND:                 0.000
REMARK SMILES Nc1ncnc2nc[nH]c12
REMARK SMILES IDX 8 1 7 2 6 3 5 4 4 5 3 6 2 7 10 8 9 9 1 11
REMARK H PARENT 9 10 1 12 1 13
REMARK Flexibility Score: inf
ROOT
ATOM      1  C   UNL     1      17.043  -5.818  14.760  1.00  0.00     0.199 A 
ATOM      2  N   UNL     1      17.584  -4.967  15.675  1.00  0.00    -0.217 NA
ATOM      3  C   UNL     1      16.517  -4.248  16.061  1.00  0.00     0.182 A 
ATOM      4  N   UNL     1      16.506  -3.246  16.974  1.00  0.00    -0.215 NA
ATOM      5  C   UNL     1      15.315  -2.627  17.236  1.00  0.00     0.226 A 
ATOM      6  N   UNL     1      14.170  -3.015  16.589  1.00  0.00    -0.217 NA
ATOM      7  C   UNL     1      14.180  -4.025  15.668  1.00  0.00     0.152 A 
ATOM      8  C   UNL     1      15.399  -4.646  15.411  1.00  0.00     0.127 A 
ATOM      9  N   UNL     1      15.710  -5.646  14.577  1.00  0.00    -0.340 N 
ATOM     10  H   UNL     1      15.083  -6.176  13.932  1.00  0.00     0.168 HD
ENDROOT
BRANCH   7  11
ATOM     11  N   UNL     1      12.976  -4.413  15.006  1.00  0.00    -0.382 N 
ATOM     12  H   UNL     1      12.094  -3.879  15.172  1.00  0.00     0.158 HD
ATOM     13  H   UNL     1      12.951  -5.227  14.352  1.00  0.00     0.158 HD
ENDBRANCH   7  11
TORSDOF 1
ENDMDL
MODEL 6
REMARK VINA RESULT:    -4.551     12.350     13.977
REMARK INTER + INTRA:          -4.684
REMARK INTER:                  -4.684
REMARK INTRA:                   0.000
REMARK UNBOUND:                 0.000
REMARK SMILES Nc1ncnc2nc[nH]c12
REMARK SMILES IDX 8 1 7 2 6 3 5 4 4 5 3 6 2 7 10 8 9 9 1 11
REMARK H PARENT 9 10 1 12 1 13
REMARK Flexibility Score: inf
ROOT
ATOM      1  C   UNL     1       9.775  -6.593   6.028  1.00  0.00     0.199 A 
ATOM      2  N   UNL     1       8.772  -6.948   5.178  1.00  0.00    -0.217 NA
ATOM      3  C   UNL     1       8.996  -6.147   4.123  1.00  0.00     0.182 A 
ATOM      4  N   UNL     1       8.272  -6.097   2.979  1.00  0.00    -0.215 NA
ATOM      5  C   UNL     1       8.656  -5.210   2.011  1.00  0.00     0.226 A 
ATOM      6  N   UNL     1       9.746  -4.400   2.201  1.00  0.00    -0.217 NA
ATOM      7  C   UNL     1      10.478  -4.449   3.355  1.00  0.00     0.152 A 
ATOM      8  C   UNL     1      10.074  -5.356   4.330  1.00  0.00     0.127 A 
ATOM      9  N   UNL     1      10.587  -5.622   5.538  1.00  0.00    -0.340 N 
ATOM     10  H   UNL     1      11.417  -5.192   6.004  1.00  0.00     0.168 HD
ENDROOT
BRANCH   7  11
ATOM     11  N   UNL     1      11.608  -3.596   3.531  1.00  0.00    -0.382 N 
ATOM     12  H   UNL     1      12.252  -3.742   4.341  1.00  0.00     0.158 HD
ATOM     13  H   UNL     1      11.814  -2.820   2.864  1.00  0.00     0.158 HD
ENDBRANCH   7  11
TORSDOF 1
ENDMDL
MODEL 7
REMARK VINA RESULT:    -4.527      2.085      3.114
REMARK INTER + INTRA:          -4.659
REMARK INTER:                  -4.659
REMARK INTRA:                   0.000
REMARK UNBOUND:                 0.000
REMARK SMILES Nc1ncnc2nc[nH]c12
REMARK SMILES IDX 8 1 7 2 6 3 5 4 4 5 3 6 2 7 10 8 9 9 1 11
REMARK H PARENT 9 10 1 12 1 13
REMARK Flexibility Score: inf
ROOT
ATOM      1  C   UNL     1      10.996  -6.697  19.860  1.00  0.00     0.199 A 
ATOM      2  N   UNL     1      11.633  -7.109  18.730  1.00  0.00    -0.217 NA
ATOM      3  C   UNL     1      11.713  -5.974  18.017  1.00  0.00     0.182 A 
ATOM      4  N   UNL     1      12.268  -5.827  16.790  1.00  0.00    -0.215 NA
ATOM      5  C   UNL     1      12.254  -4.584  16.219  1.00  0.00     0.226 A 
ATOM      6  N   UNL     1      11.692  -3.521  16.879  1.00  0.00    -0.217 NA
ATOM      7  C   UNL     1      11.131  -3.667  18.117  1.00  0.00     0.152 A 
ATOM      8  C   UNL     1      11.153  -4.938  18.684  1.00  0.00     0.127 A 
ATOM      9  N   UNL     1      10.689  -5.375  19.861  1.00  0.00    -0.340 N 
ATOM     10  H   UNL     1      10.204  -4.836  20.613  1.00  0.00     0.168 HD
ENDROOT
BRANCH   7  11
ATOM     11  N   UNL     1      10.551  -2.547  18.785  1.00  0.00    -0.382 N 
ATOM     12  H   UNL     1      11.053  -2.098  19.584  1.00  0.00     0.158 HD
ATOM     13  H   UNL     1       9.627  -2.157  18.494  1.00  0.00     0.158 HD
ENDBRANCH   7  11
TORSDOF 1
ENDMDL
MODEL 8
REMARK VINA RESULT:    -4.440     12.312     14.050
REMARK INTER + INTRA:          -4.570
REMARK INTER:                  -4.570
REMARK INTRA:                   0.000
REMARK UNBOUND:                 0.000
REMARK SMILES Nc1ncnc2nc[nH]c12
REMARK SMILES IDX 8 1 7 2 6 3 5 4 4 5 3 6 2 7 10 8 9 9 1 11
REMARK H PARENT 9 10 1 12 1 13
REMARK Flexibility Score: inf
ROOT
ATOM      1  C   UNL     1      10.415  -9.257   3.275  1.00  0.00     0.199 A 
ATOM      2  N   UNL     1      10.427  -8.248   2.361  1.00  0.00    -0.217 NA
ATOM      3  C   UNL     1      10.287  -7.160   3.136  1.00  0.00     0.182 A 
ATOM      4  N   UNL     1      10.237  -5.871   2.719  1.00  0.00    -0.215 NA
ATOM      5  C   UNL     1      10.090  -4.893   3.663  1.00  0.00     0.226 A 
ATOM      6  N   UNL     1       9.997  -5.216   4.993  1.00  0.00    -0.217 NA
ATOM      7  C   UNL     1      10.046  -6.515   5.415  1.00  0.00     0.152 A 
ATOM      8  C   UNL     1      10.196  -7.499   4.443  1.00  0.00     0.127 A 
ATOM      9  N   UNL     1      10.276  -8.831   4.556  1.00  0.00    -0.340 N 
ATOM     10  H   UNL     1      10.240  -9.416   5.420  1.00  0.00     0.168 HD
ENDROOT
BRANCH   7  11
ATOM     11  N   UNL     1       9.947  -6.828   6.805  1.00  0.00    -0.382 N 
ATOM     12  H   UNL     1       9.055  -6.652   7.317  1.00  0.00     0.158 HD
ATOM     13  H   UNL     1      10.753  -7.234   7.331  1.00  0.00     0.158 HD
ENDBRANCH   7  11
TORSDOF 1
ENDMDL
MODEL 9
REMARK VINA RESULT:    -4.440      1.704      3.471
REMARK INTER + INTRA:          -4.570
REMARK INTER:                  -4.570
REMARK INTRA:                   0.000
REMARK UNBOUND:                 0.000
REMARK SMILES Nc1ncnc2nc[nH]c12
REMARK SMILES IDX 8 1 7 2 6 3 5 4 4 5 3 6 2 7 10 8 9 9 1 11
REMARK H PARENT 9 10 1 12 1 13
REMARK Flexibility Score: inf
ROOT
ATOM      1  C   UNL     1      13.604  -3.705  16.106  1.00  0.00     0.199 A 
ATOM      2  N   UNL     1      13.756  -4.977  16.568  1.00  0.00    -0.217 NA
ATOM      3  C   UNL     1      12.827  -5.043  17.535  1.00  0.00     0.182 A 
ATOM      4  N   UNL     1      12.555  -6.111  18.323  1.00  0.00    -0.215 NA
ATOM      5  C   UNL     1      11.566  -5.986  19.260  1.00  0.00     0.226 A 
ATOM      6  N   UNL     1      10.873  -4.810  19.389  1.00  0.00    -0.217 NA
ATOM      7  C   UNL     1      11.146  -3.732  18.594  1.00  0.00     0.152 A 
ATOM      8  C   UNL     1      12.155  -3.874  17.647  1.00  0.00     0.127 A 
ATOM      9  N   UNL     1      12.633  -3.006  16.746  1.00  0.00    -0.340 N 
ATOM     10  H   UNL     1      12.337  -2.021  16.568  1.00  0.00     0.168 HD
ENDROOT
BRANCH   7  11
ATOM     11  N   UNL     1      10.411  -2.517  18.746  1.00  0.00    -0.382 N 
ATOM     12  H   UNL     1      10.626  -1.872  19.539  1.00  0.00     0.158 HD
ATOM     13  H   UNL     1       9.655  -2.250  18.078  1.00  0.00     0.158 HD
ENDBRANCH   7  11
TORSDOF 1
ENDMDL
