MODEL 1
REMARK VINA RESULT:   162.599      0.000      0.000
REMARK INTER + INTRA:         177.725
REMARK INTER:                 176.857
REMARK INTRA:                   0.868
REMARK UNBOUND:                 0.868
REMARK SMILES C[C@H]1[C@H]2C3=CC[C@@H]4[C@]5(C)CC[C@H](O)C(C)(C)[C@@H]5CC[C@]4(C)[C@]3(C)CC[C@@]2(C(=O)[O-])CC[C@@H]1C
REMARK SMILES IDX 26 1 30 2 25 3 3 4 31 5 24 6 4 7 2 8 32 9 22 10 5 11 1 12
REMARK SMILES IDX 33 13 23 14 20 15 6 16 7 17 19 18 21 19 8 20 18 21 17 22
REMARK SMILES IDX 10 23 9 24 14 25 11 26 12 27 15 28 16 29 27 30 28 31 29 32
REMARK SMILES IDX 13 33
REMARK H PARENT 13 34
REMARK Flexibility Score: inf
ROOT
ATOM      1  C   UNL     1      10.952   5.958  27.761  1.00  0.00     0.017 C 
ATOM      2  C   UNL     1      10.192   7.322  27.752  1.00  0.00     0.014 C 
ATOM      3  C   UNL     1      10.232   5.011  28.746  1.00  0.00     0.014 C 
ATOM      4  C   UNL     1      12.456   6.142  28.199  1.00  0.00     0.030 C 
ATOM      5  C   UNL     1      11.106   8.473  27.339  1.00  0.00     0.004 C 
ATOM      6  C   UNL     1      10.858   3.618  28.759  1.00  0.00     0.013 C 
ATOM      7  C   UNL     1      13.125   4.883  28.772  1.00  0.00    -0.063 C 
ATOM      8  C   UNL     1      12.720   7.414  29.082  1.00  0.00    -0.003 C 
ATOM      9  C   UNL     1      12.184   8.729  28.414  1.00  0.00    -0.011 C 
ATOM     10  C   UNL     1      12.375   3.595  29.180  1.00  0.00    -0.006 C 
ATOM     11  C   UNL     1      14.476   4.868  28.818  1.00  0.00    -0.027 C 
ATOM     12  C   UNL     1      12.226   7.289  30.534  1.00  0.00     0.008 C 
ATOM     13  C   UNL     1      13.328   9.560  27.810  1.00  0.00     0.008 C 
ATOM     14  C   UNL     1      12.365   3.520  30.745  1.00  0.00     0.017 C 
ATOM     15  C   UNL     1      13.150   2.342  28.517  1.00  0.00    -0.020 C 
ATOM     16  C   UNL     1      15.249   3.710  29.375  1.00  0.00     0.032 C 
ATOM     17  C   UNL     1      14.678   2.304  28.967  1.00  0.00     0.006 C 
ATOM     18  C   UNL     1      13.191   2.475  26.968  1.00  0.00     0.008 C 
ATOM     19  C   UNL     1      12.411   1.003  28.908  1.00  0.00     0.012 C 
ATOM     20  C   UNL     1      15.693   1.421  28.050  1.00  0.00    -0.025 C 
ATOM     21  C   UNL     1      13.821   1.271  26.260  1.00  0.00     0.005 C 
ATOM     22  C   UNL     1      14.898   0.471  27.063  1.00  0.00     0.003 C 
ATOM     23  C   UNL     1      16.675   2.264  27.163  1.00  0.00     0.010 C 
ATOM     24  C   UNL     1      16.539   0.612  29.082  1.00  0.00     0.012 C 
ATOM     25  C   UNL     1      15.787  -0.414  26.074  1.00  0.00    -0.006 C 
ATOM     26  C   UNL     1      17.584   1.435  26.230  1.00  0.00     0.033 C 
ATOM     27  C   UNL     1      16.837   0.461  25.309  1.00  0.00     0.120 C 
ATOM     28  C   UNL     1      14.881  -1.153  25.042  1.00  0.00     0.014 C 
ATOM     29  C   UNL     1      16.527  -1.558  26.836  1.00  0.00     0.014 C 
ENDROOT
BRANCH   1  30
ATOM     30  C   UNL     1      10.852   5.374  26.346  1.00  0.00     0.048 C 
ATOM     31  O   UNL     1      11.008   6.125  25.345  1.00  0.00    -0.550 OA
ATOM     32  O   UNL     1      10.646   4.015  26.126  1.00  0.00    -0.550 OA
ENDBRANCH   1  30
BRANCH  27  33
ATOM     33  O   UNL     1      16.257   1.198  24.261  1.00  0.00    -0.393 OA
ATOM     34  H   UNL     1      16.923   1.873  23.962  1.00  0.00     0.210 HD
ENDBRANCH  27  33
TORSDOF 2
ENDMDL
MODEL 2
REMARK VINA RESULT:   164.400      7.042      9.055
REMARK INTER + INTRA:         179.684
REMARK INTER:                 179.792
REMARK INTRA:                  -0.108
REMARK UNBOUND:                 0.868
REMARK SMILES C[C@H]1[C@H]2C3=CC[C@@H]4[C@]5(C)CC[C@H](O)C(C)(C)[C@@H]5CC[C@]4(C)[C@]3(C)CC[C@@]2(C(=O)[O-])CC[C@@H]1C
REMARK SMILES IDX 26 1 30 2 25 3 3 4 31 5 24 6 4 7 2 8 32 9 22 10 5 11 1 12
REMARK SMILES IDX 33 13 23 14 20 15 6 16 7 17 19 18 21 19 8 20 18 21 17 22
REMARK SMILES IDX 10 23 9 24 14 25 11 26 12 27 15 28 16 29 27 30 28 31 29 32
REMARK SMILES IDX 13 33
REMARK H PARENT 13 34
REMARK Flexibility Score: inf
ROOT
ATOM      1  C   UNL     1      15.911   3.377  34.912  1.00  0.00     0.017 C 
ATOM      2  C   UNL     1      16.832   4.601  35.212  1.00  0.00     0.014 C 
ATOM      3  C   UNL     1      14.477   3.899  34.673  1.00  0.00     0.014 C 
ATOM      4  C   UNL     1      15.913   2.351  36.110  1.00  0.00     0.030 C 
ATOM      5  C   UNL     1      18.050   4.199  36.040  1.00  0.00     0.004 C 
ATOM      6  C   UNL     1      13.517   2.776  34.288  1.00  0.00     0.013 C 
ATOM      7  C   UNL     1      14.678   1.438  36.186  1.00  0.00    -0.063 C 
ATOM      8  C   UNL     1      16.277   2.981  37.501  1.00  0.00    -0.003 C 
ATOM      9  C   UNL     1      17.630   3.775  37.463  1.00  0.00    -0.011 C 
ATOM     10  C   UNL     1      13.381   1.643  35.372  1.00  0.00    -0.006 C 
ATOM     11  C   UNL     1      14.782   0.320  36.939  1.00  0.00    -0.027 C 
ATOM     12  C   UNL     1      15.155   3.832  38.122  1.00  0.00     0.008 C 
ATOM     13  C   UNL     1      18.768   2.977  38.121  1.00  0.00     0.008 C 
ATOM     14  C   UNL     1      12.271   2.148  36.355  1.00  0.00     0.017 C 
ATOM     15  C   UNL     1      12.994   0.227  34.697  1.00  0.00    -0.020 C 
ATOM     16  C   UNL     1      13.643  -0.640  37.114  1.00  0.00     0.032 C 
ATOM     17  C   UNL     1      12.829  -0.913  35.799  1.00  0.00     0.006 C 
ATOM     18  C   UNL     1      14.139  -0.274  33.771  1.00  0.00     0.008 C 
ATOM     19  C   UNL     1      11.672   0.393  33.851  1.00  0.00     0.012 C 
ATOM     20  C   UNL     1      12.910  -2.454  35.281  1.00  0.00    -0.025 C 
ATOM     21  C   UNL     1      13.804  -1.563  33.014  1.00  0.00     0.005 C 
ATOM     22  C   UNL     1      12.795  -2.538  33.703  1.00  0.00     0.003 C 
ATOM     23  C   UNL     1      14.230  -3.208  35.671  1.00  0.00     0.010 C 
ATOM     24  C   UNL     1      11.715  -3.163  35.991  1.00  0.00     0.012 C 
ATOM     25  C   UNL     1      12.909  -4.000  33.069  1.00  0.00    -0.006 C 
ATOM     26  C   UNL     1      14.349  -4.643  35.114  1.00  0.00     0.033 C 
ATOM     27  C   UNL     1      14.177  -4.754  33.594  1.00  0.00     0.120 C 
ATOM     28  C   UNL     1      12.966  -3.914  31.513  1.00  0.00     0.014 C 
ATOM     29  C   UNL     1      11.639  -4.856  33.368  1.00  0.00     0.014 C 
ENDROOT
BRANCH   1  30
ATOM     30  C   UNL     1      16.426   2.727  33.621  1.00  0.00     0.048 C 
ATOM     31  O   UNL     1      16.612   3.435  32.594  1.00  0.00    -0.550 OA
ATOM     32  O   UNL     1      16.751   1.375  33.560  1.00  0.00    -0.550 OA
ENDBRANCH   1  30
BRANCH  27  33
ATOM     33  O   UNL     1      15.360  -4.305  32.978  1.00  0.00    -0.393 OA
ATOM     34  H   UNL     1      15.466  -3.341  33.198  1.00  0.00     0.210 HD
ENDBRANCH  27  33
TORSDOF 2
ENDMDL
MODEL 3
REMARK VINA RESULT:   164.578      1.637      7.420
REMARK INTER + INTRA:         179.877
REMARK INTER:                 178.656
REMARK INTRA:                   1.221
REMARK UNBOUND:                 0.868
REMARK SMILES C[C@H]1[C@H]2C3=CC[C@@H]4[C@]5(C)CC[C@H](O)C(C)(C)[C@@H]5CC[C@]4(C)[C@]3(C)CC[C@@]2(C(=O)[O-])CC[C@@H]1C
REMARK SMILES IDX 26 1 30 2 25 3 3 4 31 5 24 6 4 7 2 8 32 9 22 10 5 11 1 12
REMARK SMILES IDX 33 13 23 14 20 15 6 16 7 17 19 18 21 19 8 20 18 21 17 22
REMARK SMILES IDX 10 23 9 24 14 25 11 26 12 27 15 28 16 29 27 30 28 31 29 32
REMARK SMILES IDX 13 33
REMARK H PARENT 13 34
REMARK Flexibility Score: inf
ROOT
ATOM      1  C   UNL     1      16.220   1.098  27.165  1.00  0.00     0.017 C 
ATOM      2  C   UNL     1      17.178   0.053  26.511  1.00  0.00     0.014 C 
ATOM      3  C   UNL     1      15.819   0.576  28.562  1.00  0.00     0.014 C 
ATOM      4  C   UNL     1      14.929   1.319  26.286  1.00  0.00     0.030 C 
ATOM      5  C   UNL     1      17.140   0.130  24.986  1.00  0.00     0.004 C 
ATOM      6  C   UNL     1      14.945   1.576  29.315  1.00  0.00     0.013 C 
ATOM      7  C   UNL     1      13.709   1.859  27.050  1.00  0.00    -0.063 C 
ATOM      8  C   UNL     1      14.565   0.110  25.355  1.00  0.00    -0.003 C 
ATOM      9  C   UNL     1      15.769  -0.332  24.449  1.00  0.00    -0.011 C 
ATOM     10  C   UNL     1      13.593   1.927  28.589  1.00  0.00    -0.006 C 
ATOM     11  C   UNL     1      12.715   2.408  26.317  1.00  0.00    -0.027 C 
ATOM     12  C   UNL     1      13.957  -1.096  26.093  1.00  0.00     0.008 C 
ATOM     13  C   UNL     1      15.591   0.153  23.001  1.00  0.00     0.008 C 
ATOM     14  C   UNL     1      12.583   0.820  29.046  1.00  0.00     0.017 C 
ATOM     15  C   UNL     1      13.084   3.410  28.979  1.00  0.00    -0.020 C 
ATOM     16  C   UNL     1      11.461   2.948  26.938  1.00  0.00     0.032 C 
ATOM     17  C   UNL     1      11.701   3.753  28.265  1.00  0.00     0.006 C 
ATOM     18  C   UNL     1      14.079   4.489  28.464  1.00  0.00     0.008 C 
ATOM     19  C   UNL     1      12.955   3.524  30.548  1.00  0.00     0.012 C 
ATOM     20  C   UNL     1      11.295   5.326  28.166  1.00  0.00    -0.025 C 
ATOM     21  C   UNL     1      13.717   5.917  28.885  1.00  0.00     0.005 C 
ATOM     22  C   UNL     1      12.199   6.216  29.114  1.00  0.00     0.003 C 
ATOM     23  C   UNL     1      11.416   5.944  26.728  1.00  0.00     0.010 C 
ATOM     24  C   UNL     1       9.794   5.365  28.589  1.00  0.00     0.012 C 
ATOM     25  C   UNL     1      11.928   7.789  29.068  1.00  0.00    -0.006 C 
ATOM     26  C   UNL     1      11.111   7.455  26.641  1.00  0.00     0.033 C 
ATOM     27  C   UNL     1      11.932   8.329  27.598  1.00  0.00     0.120 C 
ATOM     28  C   UNL     1      13.004   8.551  29.901  1.00  0.00     0.014 C 
ATOM     29  C   UNL     1      10.572   8.158  29.749  1.00  0.00     0.014 C 
ENDROOT
BRANCH   1  30
ATOM     30  C   UNL     1      17.014   2.401  27.328  1.00  0.00     0.048 C 
ATOM     31  O   UNL     1      16.523   3.354  27.992  1.00  0.00    -0.550 OA
ATOM     32  O   UNL     1      18.296   2.549  26.807  1.00  0.00    -0.550 OA
ENDBRANCH   1  30
BRANCH  27  33
ATOM     33  O   UNL     1      13.234   8.455  27.078  1.00  0.00    -0.393 OA
ATOM     34  H   UNL     1      13.166   8.928  26.207  1.00  0.00     0.210 HD
ENDBRANCH  27  33
TORSDOF 2
ENDMDL
MODEL 4
REMARK VINA RESULT:   165.436      7.532     10.990
REMARK INTER + INTRA:         180.811
REMARK INTER:                 180.445
REMARK INTRA:                   0.366
REMARK UNBOUND:                 0.868
REMARK SMILES C[C@H]1[C@H]2C3=CC[C@@H]4[C@]5(C)CC[C@H](O)C(C)(C)[C@@H]5CC[C@]4(C)[C@]3(C)CC[C@@]2(C(=O)[O-])CC[C@@H]1C
REMARK SMILES IDX 26 1 30 2 25 3 3 4 31 5 24 6 4 7 2 8 32 9 22 10 5 11 1 12
REMARK SMILES IDX 33 13 23 14 20 15 6 16 7 17 19 18 21 19 8 20 18 21 17 22
REMARK SMILES IDX 10 23 9 24 14 25 11 26 12 27 15 28 16 29 27 30 28 31 29 32
REMARK SMILES IDX 13 33
REMARK H PARENT 13 34
REMARK Flexibility Score: inf
ROOT
ATOM      1  C   UNL     1      14.270  -4.300  33.704  1.00  0.00     0.017 C 
ATOM      2  C   UNL     1      14.101  -5.533  32.763  1.00  0.00     0.014 C 
ATOM      3  C   UNL     1      14.039  -4.767  35.158  1.00  0.00     0.014 C 
ATOM      4  C   UNL     1      13.245  -3.157  33.341  1.00  0.00     0.030 C 
ATOM      5  C   UNL     1      13.697  -5.114  31.351  1.00  0.00     0.004 C 
ATOM      6  C   UNL     1      14.266  -3.641  36.163  1.00  0.00     0.013 C 
ATOM      7  C   UNL     1      12.932  -2.178  34.484  1.00  0.00    -0.063 C 
ATOM      8  C   UNL     1      11.948  -3.660  32.612  1.00  0.00    -0.003 C 
ATOM      9  C   UNL     1      12.272  -4.523  31.342  1.00  0.00    -0.011 C 
ATOM     10  C   UNL     1      13.323  -2.396  35.962  1.00  0.00    -0.006 C 
ATOM     11  C   UNL     1      12.371  -0.995  34.147  1.00  0.00    -0.027 C 
ATOM     12  C   UNL     1      10.946  -4.381  33.531  1.00  0.00     0.008 C 
ATOM     13  C   UNL     1      12.052  -3.723  30.048  1.00  0.00     0.008 C 
ATOM     14  C   UNL     1      12.019  -2.738  36.760  1.00  0.00     0.017 C 
ATOM     15  C   UNL     1      14.020  -1.039  36.494  1.00  0.00    -0.020 C 
ATOM     16  C   UNL     1      11.995   0.037  35.169  1.00  0.00     0.032 C 
ATOM     17  C   UNL     1      13.054   0.216  36.316  1.00  0.00     0.006 C 
ATOM     18  C   UNL     1      15.280  -0.698  35.647  1.00  0.00     0.008 C 
ATOM     19  C   UNL     1      14.439  -1.222  38.005  1.00  0.00     0.012 C 
ATOM     20  C   UNL     1      13.746   1.688  36.352  1.00  0.00    -0.025 C 
ATOM     21  C   UNL     1      16.055   0.522  36.155  1.00  0.00     0.005 C 
ATOM     22  C   UNL     1      15.227   1.615  36.907  1.00  0.00     0.003 C 
ATOM     23  C   UNL     1      13.827   2.407  34.959  1.00  0.00     0.010 C 
ATOM     24  C   UNL     1      12.816   2.528  37.281  1.00  0.00     0.012 C 
ATOM     25  C   UNL     1      16.031   2.995  36.945  1.00  0.00    -0.006 C 
ATOM     26  C   UNL     1      14.555   3.769  34.971  1.00  0.00     0.033 C 
ATOM     27  C   UNL     1      15.969   3.732  35.564  1.00  0.00     0.120 C 
ATOM     28  C   UNL     1      17.521   2.747  37.332  1.00  0.00     0.014 C 
ATOM     29  C   UNL     1      15.489   3.944  38.060  1.00  0.00     0.014 C 
ENDROOT
BRANCH   1  30
ATOM     30  C   UNL     1      15.719  -3.815  33.562  1.00  0.00     0.048 C 
ATOM     31  O   UNL     1      16.121  -3.360  32.456  1.00  0.00    -0.550 OA
ATOM     32  O   UNL     1      16.599  -3.809  34.639  1.00  0.00    -0.550 OA
ENDBRANCH   1  30
BRANCH  27  33
ATOM     33  O   UNL     1      16.835   3.159  34.614  1.00  0.00    -0.393 OA
ATOM     34  H   UNL     1      16.329   2.451  34.134  1.00  0.00     0.210 HD
ENDBRANCH  27  33
TORSDOF 2
ENDMDL
