MODEL 1
REMARK VINA RESULT:    -5.298      0.000      0.000
REMARK INTER + INTRA:          -5.298
REMARK INTER:                  -5.298
REMARK INTRA:                   0.000
REMARK UNBOUND:                 0.000
REMARK SMILES c1ccc2ccccc2c1
REMARK SMILES IDX 2 1 1 2 10 3 9 4 8 5 7 6 6 7 5 8 4 9 3 10
REMARK H PARENT
REMARK Flexibility Score: inf
ROOT
ATOM      1  C   UNL     1       1.574  21.158  43.143  1.00  0.00     0.001 A 
ATOM      2  C   UNL     1       1.888  21.229  41.783  1.00  0.00     0.001 A 
ATOM      3  C   UNL     1       2.649  22.293  41.290  1.00  0.00     0.009 A 
ATOM      4  C   UNL     1       3.102  23.296  42.161  1.00  0.00    -0.018 A 
ATOM      5  C   UNL     1       3.868  24.370  41.680  1.00  0.00     0.009 A 
ATOM      6  C   UNL     1       4.311  25.364  42.558  1.00  0.00     0.001 A 
ATOM      7  C   UNL     1       3.998  25.292  43.918  1.00  0.00     0.001 A 
ATOM      8  C   UNL     1       3.236  24.229  44.410  1.00  0.00     0.009 A 
ATOM      9  C   UNL     1       2.784  23.225  43.540  1.00  0.00    -0.018 A 
ATOM     10  C   UNL     1       2.018  22.151  44.020  1.00  0.00     0.009 A 
ENDROOT
TORSDOF 0
ENDMDL
MODEL 2
REMARK VINA RESULT:    -5.297      0.164      3.440
REMARK INTER + INTRA:          -5.297
REMARK INTER:                  -5.297
REMARK INTRA:                   0.000
REMARK UNBOUND:                 0.000
REMARK SMILES c1ccc2ccccc2c1
REMARK SMILES IDX 2 1 1 2 10 3 9 4 8 5 7 6 6 7 5 8 4 9 3 10
REMARK H PARENT
REMARK Flexibility Score: inf
ROOT
ATOM      1  C   UNL     1       3.888  25.298  44.112  1.00  0.00     0.001 A 
ATOM      2  C   UNL     1       4.263  25.375  42.769  1.00  0.00     0.001 A 
ATOM      3  C   UNL     1       3.866  24.383  41.868  1.00  0.00     0.009 A 
ATOM      4  C   UNL     1       3.088  23.301  42.311  1.00  0.00    -0.018 A 
ATOM      5  C   UNL     1       2.681  22.298  41.418  1.00  0.00     0.009 A 
ATOM      6  C   UNL     1       1.907  21.226  41.872  1.00  0.00     0.001 A 
ATOM      7  C   UNL     1       1.531  21.149  43.216  1.00  0.00     0.001 A 
ATOM      8  C   UNL     1       1.929  22.141  44.116  1.00  0.00     0.009 A 
ATOM      9  C   UNL     1       2.707  23.223  43.674  1.00  0.00    -0.018 A 
ATOM     10  C   UNL     1       3.114  24.226  44.566  1.00  0.00     0.009 A 
ENDROOT
TORSDOF 0
ENDMDL
MODEL 3
REMARK VINA RESULT:    -5.259      0.142      2.085
REMARK INTER + INTRA:          -5.259
REMARK INTER:                  -5.259
REMARK INTRA:                   0.000
REMARK UNBOUND:                 0.000
REMARK SMILES c1ccc2ccccc2c1
REMARK SMILES IDX 2 1 1 2 10 3 9 4 8 5 7 6 6 7 5 8 4 9 3 10
REMARK H PARENT
REMARK Flexibility Score: inf
ROOT
ATOM      1  C   UNL     1       1.978  21.270  41.794  1.00  0.00     0.001 A 
ATOM      2  C   UNL     1       1.620  21.155  43.140  1.00  0.00     0.001 A 
ATOM      3  C   UNL     1       2.014  22.130  44.059  1.00  0.00     0.009 A 
ATOM      4  C   UNL     1       2.775  23.231  43.635  1.00  0.00    -0.018 A 
ATOM      5  C   UNL     1       3.178  24.218  44.548  1.00  0.00     0.009 A 
ATOM      6  C   UNL     1       3.937  25.309  44.112  1.00  0.00     0.001 A 
ATOM      7  C   UNL     1       4.295  25.424  42.766  1.00  0.00     0.001 A 
ATOM      8  C   UNL     1       3.900  24.448  41.846  1.00  0.00     0.009 A 
ATOM      9  C   UNL     1       3.140  23.348  42.271  1.00  0.00    -0.018 A 
ATOM     10  C   UNL     1       2.736  22.360  41.358  1.00  0.00     0.009 A 
ENDROOT
TORSDOF 0
ENDMDL
MODEL 4
REMARK VINA RESULT:    -5.255      0.251      4.022
REMARK INTER + INTRA:          -5.255
REMARK INTER:                  -5.255
REMARK INTRA:                   0.000
REMARK UNBOUND:                 0.000
REMARK SMILES c1ccc2ccccc2c1
REMARK SMILES IDX 2 1 1 2 10 3 9 4 8 5 7 6 6 7 5 8 4 9 3 10
REMARK H PARENT
REMARK Flexibility Score: inf
ROOT
ATOM      1  C   UNL     1       4.199  25.418  42.886  1.00  0.00     0.001 A 
ATOM      2  C   UNL     1       3.828  25.305  44.229  1.00  0.00     0.001 A 
ATOM      3  C   UNL     1       3.077  24.208  44.662  1.00  0.00     0.009 A 
ATOM      4  C   UNL     1       2.690  23.216  43.748  1.00  0.00    -0.018 A 
ATOM      5  C   UNL     1       1.936  22.109  44.169  1.00  0.00     0.009 A 
ATOM      6  C   UNL     1       1.556  21.128  43.248  1.00  0.00     0.001 A 
ATOM      7  C   UNL     1       1.926  21.242  41.906  1.00  0.00     0.001 A 
ATOM      8  C   UNL     1       2.678  22.338  41.473  1.00  0.00     0.009 A 
ATOM      9  C   UNL     1       3.065  23.331  42.386  1.00  0.00    -0.018 A 
ATOM     10  C   UNL     1       3.819  24.437  41.966  1.00  0.00     0.009 A 
ENDROOT
TORSDOF 0
ENDMDL
MODEL 5
REMARK VINA RESULT:    -4.995      1.943      3.508
REMARK INTER + INTRA:          -4.995
REMARK INTER:                  -4.995
REMARK INTRA:                   0.000
REMARK UNBOUND:                 0.000
REMARK SMILES c1ccc2ccccc2c1
REMARK SMILES IDX 2 1 1 2 10 3 9 4 8 5 7 6 6 7 5 8 4 9 3 10
REMARK H PARENT
REMARK Flexibility Score: inf
ROOT
ATOM      1  C   UNL     1       3.420  23.487  42.796  1.00  0.00     0.001 A 
ATOM      2  C   UNL     1       2.754  22.400  43.369  1.00  0.00     0.001 A 
ATOM      3  C   UNL     1       2.154  22.524  44.625  1.00  0.00     0.009 A 
ATOM      4  C   UNL     1       2.218  23.742  45.319  1.00  0.00    -0.018 A 
ATOM      5  C   UNL     1       1.620  23.881  46.581  1.00  0.00     0.009 A 
ATOM      6  C   UNL     1       1.692  25.100  47.261  1.00  0.00     0.001 A 
ATOM      7  C   UNL     1       2.358  26.187  46.689  1.00  0.00     0.001 A 
ATOM      8  C   UNL     1       2.958  26.063  45.433  1.00  0.00     0.009 A 
ATOM      9  C   UNL     1       2.894  24.845  44.739  1.00  0.00    -0.018 A 
ATOM     10  C   UNL     1       3.492  24.706  43.477  1.00  0.00     0.009 A 
ENDROOT
TORSDOF 0
ENDMDL
MODEL 6
REMARK VINA RESULT:    -4.986      1.868      3.882
REMARK INTER + INTRA:          -4.986
REMARK INTER:                  -4.986
REMARK INTRA:                   0.000
REMARK UNBOUND:                 0.000
REMARK SMILES c1ccc2ccccc2c1
REMARK SMILES IDX 2 1 1 2 10 3 9 4 8 5 7 6 6 7 5 8 4 9 3 10
REMARK H PARENT
REMARK Flexibility Score: inf
ROOT
ATOM      1  C   UNL     1       1.705  24.990  47.154  1.00  0.00     0.001 A 
ATOM      2  C   UNL     1       2.375  26.081  46.594  1.00  0.00     0.001 A 
ATOM      3  C   UNL     1       2.974  25.969  45.336  1.00  0.00     0.009 A 
ATOM      4  C   UNL     1       2.907  24.758  44.629  1.00  0.00    -0.018 A 
ATOM      5  C   UNL     1       3.503  24.631  43.365  1.00  0.00     0.009 A 
ATOM      6  C   UNL     1       3.429  23.419  42.673  1.00  0.00     0.001 A 
ATOM      7  C   UNL     1       2.759  22.328  43.233  1.00  0.00     0.001 A 
ATOM      8  C   UNL     1       2.160  22.440  44.491  1.00  0.00     0.009 A 
ATOM      9  C   UNL     1       2.228  23.651  45.198  1.00  0.00    -0.018 A 
ATOM     10  C   UNL     1       1.631  23.778  46.462  1.00  0.00     0.009 A 
ENDROOT
TORSDOF 0
ENDMDL
MODEL 7
REMARK VINA RESULT:    -4.982      1.866      4.172
REMARK INTER + INTRA:          -4.982
REMARK INTER:                  -4.982
REMARK INTRA:                   0.000
REMARK UNBOUND:                 0.000
REMARK SMILES c1ccc2ccccc2c1
REMARK SMILES IDX 2 1 1 2 10 3 9 4 8 5 7 6 6 7 5 8 4 9 3 10
REMARK H PARENT
REMARK Flexibility Score: inf
ROOT
ATOM      1  C   UNL     1       2.381  26.109  46.592  1.00  0.00     0.001 A 
ATOM      2  C   UNL     1       1.697  25.022  47.143  1.00  0.00     0.001 A 
ATOM      3  C   UNL     1       1.620  23.813  46.446  1.00  0.00     0.009 A 
ATOM      4  C   UNL     1       2.229  23.685  45.188  1.00  0.00    -0.018 A 
ATOM      5  C   UNL     1       2.159  22.477  44.477  1.00  0.00     0.009 A 
ATOM      6  C   UNL     1       2.770  22.364  43.224  1.00  0.00     0.001 A 
ATOM      7  C   UNL     1       3.454  23.451  42.674  1.00  0.00     0.001 A 
ATOM      8  C   UNL     1       3.531  24.660  43.371  1.00  0.00     0.009 A 
ATOM      9  C   UNL     1       2.922  24.788  44.629  1.00  0.00    -0.018 A 
ATOM     10  C   UNL     1       2.991  25.996  45.340  1.00  0.00     0.009 A 
ENDROOT
TORSDOF 0
ENDMDL
MODEL 8
REMARK VINA RESULT:    -4.980      1.843      2.992
REMARK INTER + INTRA:          -4.980
REMARK INTER:                  -4.980
REMARK INTRA:                   0.000
REMARK UNBOUND:                 0.000
REMARK SMILES c1ccc2ccccc2c1
REMARK SMILES IDX 2 1 1 2 10 3 9 4 8 5 7 6 6 7 5 8 4 9 3 10
REMARK H PARENT
REMARK Flexibility Score: inf
ROOT
ATOM      1  C   UNL     1       2.726  22.277  43.271  1.00  0.00     0.001 A 
ATOM      2  C   UNL     1       3.403  23.339  42.664  1.00  0.00     0.001 A 
ATOM      3  C   UNL     1       3.511  24.570  43.317  1.00  0.00     0.009 A 
ATOM      4  C   UNL     1       2.939  24.746  44.586  1.00  0.00    -0.018 A 
ATOM      5  C   UNL     1       3.040  25.977  45.254  1.00  0.00     0.009 A 
ATOM      6  C   UNL     1       2.464  26.139  46.517  1.00  0.00     0.001 A 
ATOM      7  C   UNL     1       1.788  25.078  47.124  1.00  0.00     0.001 A 
ATOM      8  C   UNL     1       1.679  23.847  46.471  1.00  0.00     0.009 A 
ATOM      9  C   UNL     1       2.252  23.670  45.202  1.00  0.00    -0.018 A 
ATOM     10  C   UNL     1       2.150  22.440  44.534  1.00  0.00     0.009 A 
ENDROOT
TORSDOF 0
ENDMDL
MODEL 9
REMARK VINA RESULT:    -4.966      1.605      2.345
REMARK INTER + INTRA:          -4.966
REMARK INTER:                  -4.966
REMARK INTRA:                   0.000
REMARK UNBOUND:                 0.000
REMARK SMILES c1ccc2ccccc2c1
REMARK SMILES IDX 2 1 1 2 10 3 9 4 8 5 7 6 6 7 5 8 4 9 3 10
REMARK H PARENT
REMARK Flexibility Score: inf
ROOT
ATOM      1  C   UNL     1       2.024  23.401  45.784  1.00  0.00     0.001 A 
ATOM      2  C   UNL     1       2.553  22.342  45.043  1.00  0.00     0.001 A 
ATOM      3  C   UNL     1       3.188  22.584  43.822  1.00  0.00     0.009 A 
ATOM      4  C   UNL     1       3.296  23.896  43.333  1.00  0.00    -0.018 A 
ATOM      5  C   UNL     1       3.931  24.155  42.108  1.00  0.00     0.009 A 
ATOM      6  C   UNL     1       4.031  25.465  41.633  1.00  0.00     0.001 A 
ATOM      7  C   UNL     1       3.502  26.525  42.374  1.00  0.00     0.001 A 
ATOM      8  C   UNL     1       2.867  26.282  43.595  1.00  0.00     0.009 A 
ATOM      9  C   UNL     1       2.759  24.971  44.084  1.00  0.00    -0.018 A 
ATOM     10  C   UNL     1       2.124  24.712  45.309  1.00  0.00     0.009 A 
ENDROOT
TORSDOF 0
ENDMDL
