MODEL 1
REMARK VINA RESULT:    -3.345      0.000      0.000
REMARK INTER + INTRA:          -5.322
REMARK INTER:                  -5.105
REMARK INTRA:                  -0.217
REMARK UNBOUND:                -0.217
REMARK SMILES CC1=CCC[C@H](C)C(=O)C[C@@H](C(C)C)C(=O)C1
REMARK SMILES IDX 8 1 9 2 6 3 7 4 5 5 4 6 3 7 2 8 1 9 10 11 11 12 15 13 16 14
REMARK SMILES IDX 17 15 12 17 13 18 14 19
REMARK H PARENT
REMARK Flexibility Score: 70.00
ROOT
ATOM      1  C   UNL     1     128.882 120.485  99.598  1.00  0.00     0.136 C 
ATOM      2  O   UNL     1     128.334 119.643 100.297  1.00  0.00    -0.299 OA
ENDROOT
BRANCH   1   3
ATOM      3  C   UNL     1     128.261 121.855  99.450  1.00  0.00     0.053 C 
ATOM      4  C   UNL     1     128.323 122.610 100.782  1.00  0.00     0.016 C 
BRANCH   3   5
ATOM      5  C   UNL     1     128.946 122.665  98.332  1.00  0.00     0.015 C 
BRANCH   5   6
ATOM      6  C   UNL     1     129.763 123.859  98.870  1.00  0.00     0.028 C 
BRANCH   6   7
ATOM      7  C   UNL     1     130.910 124.207  97.948  1.00  0.00    -0.028 C 
ATOM      8  C   UNL     1     132.176 123.727  97.992  1.00  0.00    -0.070 CG0
ATOM      9  C   UNL     1     133.127 124.184  96.912  1.00  0.00     0.039 C 
ATOM     10  G   UNL     1     132.708 122.776  99.051  1.00  0.00     0.000 G0
ENDBRANCH   6   7
ENDBRANCH   5   6
ENDBRANCH   3   5
ENDBRANCH   1   3
BRANCH   1  11
ATOM     11  C   UNL     1     130.128 120.136  98.817  1.00  0.00     0.087 C 
BRANCH  11  12
ATOM     12  C   UNL     1     131.443 120.466  99.567  1.00  0.00     0.066 C 
BRANCH  12  13
ATOM     13  C   UNL     1     132.410 121.323  98.761  1.00  0.00     0.140 C 
ATOM     14  O   UNL     1     132.914 120.833  97.761  1.00  0.00    -0.299 OA
BRANCH  13  15
ATOM     15  C   UNL     1     132.709 122.772  99.083  1.00  0.00     0.106 CG0
ATOM     16  G   UNL     1     132.170 123.696  98.004  1.00  0.00     0.000 G0
ENDBRANCH  13  15
ENDBRANCH  12  13
BRANCH  12  17
ATOM     17  C   UNL     1     132.166 119.219 100.164  1.00  0.00    -0.006 C 
ATOM     18  C   UNL     1     131.963 117.930  99.352  1.00  0.00     0.008 C 
ATOM     19  C   UNL     1     131.786 118.980 101.634  1.00  0.00     0.008 C 
ENDBRANCH  12  17
ENDBRANCH  11  12
ENDBRANCH   1  11
TORSDOF 1
ENDMDL
MODEL 2
REMARK VINA RESULT:    -3.323     13.892     16.608
REMARK INTER + INTRA:          -5.289
REMARK INTER:                  -5.328
REMARK INTRA:                   0.040
REMARK UNBOUND:                -0.217
REMARK SMILES CC1=CCC[C@H](C)C(=O)C[C@@H](C(C)C)C(=O)C1
REMARK SMILES IDX 8 1 9 2 6 3 7 4 5 5 4 6 3 7 2 8 1 9 10 11 11 12 15 13 16 14
REMARK SMILES IDX 17 15 12 17 13 18 14 19
REMARK H PARENT
REMARK Flexibility Score: 70.00
ROOT
ATOM      1  C   UNL     1     119.124 126.254 107.758  1.00  0.00     0.136 C 
ATOM      2  O   UNL     1     119.537 126.214 108.909  1.00  0.00    -0.299 OA
ENDROOT
BRANCH   1   3
ATOM      3  C   UNL     1     120.087 126.523 106.625  1.00  0.00     0.053 C 
ATOM      4  C   UNL     1     121.255 127.384 107.117  1.00  0.00     0.016 C 
BRANCH   3   5
ATOM      5  C   UNL     1     120.602 125.211 106.001  1.00  0.00     0.015 C 
BRANCH   5   6
ATOM      6  C   UNL     1     119.467 124.318 105.459  1.00  0.00     0.028 C 
BRANCH   6   7
ATOM      7  C   UNL     1     119.327 123.047 106.267  1.00  0.00    -0.028 C 
ATOM      8  C   UNL     1     118.208 122.571 106.865  1.00  0.00    -0.070 CG0
ATOM      9  C   UNL     1     118.312 121.237 107.564  1.00  0.00     0.039 C 
ATOM     10  G   UNL     1     116.867 123.285 106.890  1.00  0.00     0.000 G0
ENDBRANCH   6   7
ENDBRANCH   5   6
ENDBRANCH   3   5
ENDBRANCH   1   3
BRANCH   1  11
ATOM     11  C   UNL     1     117.646 126.120 107.472  1.00  0.00     0.087 C 
BRANCH  11  12
ATOM     12  C   UNL     1     116.864 125.371 108.581  1.00  0.00     0.066 C 
BRANCH  12  13
ATOM     13  C   UNL     1     116.584 123.910 108.253  1.00  0.00     0.140 C 
ATOM     14  O   UNL     1     116.045 123.224 109.110  1.00  0.00    -0.299 OA
BRANCH  13  15
ATOM     15  C   UNL     1     116.854 123.291 106.899  1.00  0.00     0.106 CG0
ATOM     16  G   UNL     1     118.200 122.586 106.877  1.00  0.00     0.000 G0
ENDBRANCH  13  15
ENDBRANCH  12  13
BRANCH  12  17
ATOM     17  C   UNL     1     115.565 126.099 109.047  1.00  0.00    -0.006 C 
ATOM     18  C   UNL     1     114.586 126.423 107.907  1.00  0.00     0.008 C 
ATOM     19  C   UNL     1     115.873 127.371 109.853  1.00  0.00     0.008 C 
ENDBRANCH  12  17
ENDBRANCH  11  12
ENDBRANCH   1  11
TORSDOF 1
ENDMDL
MODEL 3
REMARK VINA RESULT:    -3.194     14.876     17.223
REMARK INTER + INTRA:          -5.092
REMARK INTER:                  -4.864
REMARK INTRA:                  -0.227
REMARK UNBOUND:                -0.217
REMARK SMILES CC1=CCC[C@H](C)C(=O)C[C@@H](C(C)C)C(=O)C1
REMARK SMILES IDX 8 1 9 2 6 3 7 4 5 5 4 6 3 7 2 8 1 9 10 11 11 12 15 13 16 14
REMARK SMILES IDX 17 15 12 17 13 18 14 19
REMARK H PARENT
REMARK Flexibility Score: 70.00
ROOT
ATOM      1  C   UNL     1     117.092 126.238 109.874  1.00  0.00     0.136 C 
ATOM      2  O   UNL     1     117.306 127.319 110.406  1.00  0.00    -0.299 OA
ENDROOT
BRANCH   1   3
ATOM      3  C   UNL     1     115.669 125.788 109.636  1.00  0.00     0.053 C 
ATOM      4  C   UNL     1     114.907 125.722 110.965  1.00  0.00     0.016 C 
BRANCH   3   5
ATOM      5  C   UNL     1     114.945 126.713 108.639  1.00  0.00     0.015 C 
BRANCH   5   6
ATOM      6  C   UNL     1     114.887 126.130 107.212  1.00  0.00     0.028 C 
BRANCH   6   7
ATOM      7  C   UNL     1     114.875 124.618 107.230  1.00  0.00    -0.028 C 
ATOM      8  C   UNL     1     115.865 123.782 106.834  1.00  0.00    -0.070 CG0
ATOM      9  C   UNL     1     115.632 122.301 107.013  1.00  0.00     0.039 C 
ATOM     10  G   UNL     1     117.180 124.225 106.216  1.00  0.00     0.000 G0
ENDBRANCH   6   7
ENDBRANCH   5   6
ENDBRANCH   3   5
ENDBRANCH   1   3
BRANCH   1  11
ATOM     11  C   UNL     1     118.238 125.314 109.530  1.00  0.00     0.087 C 
BRANCH  11  12
ATOM     12  C   UNL     1     118.699 125.420 108.054  1.00  0.00     0.066 C 
BRANCH  12  13
ATOM     13  C   UNL     1     118.327 124.209 107.208  1.00  0.00     0.140 C 
ATOM     14  O   UNL     1     118.932 123.165 107.403  1.00  0.00    -0.299 OA
BRANCH  13  15
ATOM     15  C   UNL     1     117.192 124.207 106.206  1.00  0.00     0.106 CG0
ATOM     16  G   UNL     1     115.884 123.791 106.859  1.00  0.00     0.000 G0
ENDBRANCH  13  15
ENDBRANCH  12  13
BRANCH  12  17
ATOM     17  C   UNL     1     120.207 125.780 107.881  1.00  0.00    -0.006 C 
ATOM     18  C   UNL     1     121.114 125.224 108.990  1.00  0.00     0.008 C 
ATOM     19  C   UNL     1     120.425 127.294 107.733  1.00  0.00     0.008 C 
ENDBRANCH  12  17
ENDBRANCH  11  12
ENDBRANCH   1  11
TORSDOF 1
ENDMDL
MODEL 4
REMARK VINA RESULT:    -3.151     15.120     17.430
REMARK INTER + INTRA:          -5.025
REMARK INTER:                  -4.766
REMARK INTRA:                  -0.259
REMARK UNBOUND:                -0.217
REMARK SMILES CC1=CCC[C@H](C)C(=O)C[C@@H](C(C)C)C(=O)C1
REMARK SMILES IDX 8 1 9 2 6 3 7 4 5 5 4 6 3 7 2 8 1 9 10 11 11 12 15 13 16 14
REMARK SMILES IDX 17 15 12 17 13 18 14 19
REMARK H PARENT
REMARK Flexibility Score: 70.00
ROOT
ATOM      1  C   UNL     1     118.475 126.412 108.242  1.00  0.00     0.136 C 
ATOM      2  O   UNL     1     118.291 127.102 109.236  1.00  0.00    -0.299 OA
ENDROOT
BRANCH   1   3
ATOM      3  C   UNL     1     119.861 126.307 107.649  1.00  0.00     0.053 C 
ATOM      4  C   UNL     1     120.464 127.704 107.464  1.00  0.00     0.016 C 
BRANCH   3   5
ATOM      5  C   UNL     1     120.780 125.428 108.519  1.00  0.00     0.015 C 
BRANCH   5   6
ATOM      6  C   UNL     1     120.466 123.923 108.396  1.00  0.00     0.028 C 
BRANCH   6   7
ATOM      7  C   UNL     1     119.760 123.400 109.627  1.00  0.00    -0.028 C 
ATOM      8  C   UNL     1     118.493 122.926 109.712  1.00  0.00    -0.070 CG0
ATOM      9  C   UNL     1     118.041 122.399 111.052  1.00  0.00     0.039 C 
ATOM     10  G   UNL     1     117.499 122.898 108.563  1.00  0.00     0.000 G0
ENDBRANCH   6   7
ENDBRANCH   5   6
ENDBRANCH   3   5
ENDBRANCH   1   3
BRANCH   1  11
ATOM     11  C   UNL     1     117.311 125.733 107.557  1.00  0.00     0.087 C 
BRANCH  11  12
ATOM     12  C   UNL     1     116.211 125.248 108.535  1.00  0.00     0.066 C 
BRANCH  12  13
ATOM     13  C   UNL     1     116.269 123.755 108.830  1.00  0.00     0.140 C 
ATOM     14  O   UNL     1     115.254 123.212 109.243  1.00  0.00    -0.299 OA
BRANCH  13  15
ATOM     15  C   UNL     1     117.484 122.895 108.554  1.00  0.00     0.106 CG0
ATOM     16  G   UNL     1     118.463 122.940 109.715  1.00  0.00     0.000 G0
ENDBRANCH  13  15
ENDBRANCH  12  13
BRANCH  12  17
ATOM     17  C   UNL     1     114.767 125.684 108.137  1.00  0.00    -0.006 C 
ATOM     18  C   UNL     1     114.684 126.419 106.790  1.00  0.00     0.008 C 
ATOM     19  C   UNL     1     114.094 126.523 109.236  1.00  0.00     0.008 C 
ENDBRANCH  12  17
ENDBRANCH  11  12
ENDBRANCH   1  11
TORSDOF 1
ENDMDL
MODEL 5
REMARK VINA RESULT:    -3.083     12.830     15.758
REMARK INTER + INTRA:          -4.921
REMARK INTER:                  -4.697
REMARK INTRA:                  -0.224
REMARK UNBOUND:                -0.217
REMARK SMILES CC1=CCC[C@H](C)C(=O)C[C@@H](C(C)C)C(=O)C1
REMARK SMILES IDX 8 1 9 2 6 3 7 4 5 5 4 6 3 7 2 8 1 9 10 11 11 12 15 13 16 14
REMARK SMILES IDX 17 15 12 17 13 18 14 19
REMARK H PARENT
REMARK Flexibility Score: 70.00
ROOT
ATOM      1  C   UNL     1     119.159 123.919 105.674  1.00  0.00     0.136 C 
ATOM      2  O   UNL     1     118.850 123.998 104.493  1.00  0.00    -0.299 OA
ENDROOT
BRANCH   1   3
ATOM      3  C   UNL     1     120.425 124.583 106.164  1.00  0.00     0.053 C 
ATOM      4  C   UNL     1     121.572 124.326 105.179  1.00  0.00     0.016 C 
BRANCH   3   5
ATOM      5  C   UNL     1     120.221 126.095 106.379  1.00  0.00     0.015 C 
BRANCH   5   6
ATOM      6  C   UNL     1     120.010 126.468 107.861  1.00  0.00     0.028 C 
BRANCH   6   7
ATOM      7  C   UNL     1     120.758 125.531 108.781  1.00  0.00    -0.028 C 
ATOM      8  C   UNL     1     120.233 124.699 109.714  1.00  0.00    -0.070 CG0
ATOM      9  C   UNL     1     121.194 123.810 110.466  1.00  0.00     0.039 C 
ATOM     10  G   UNL     1     118.757 124.606 110.061  1.00  0.00     0.000 G0
ENDBRANCH   6   7
ENDBRANCH   5   6
ENDBRANCH   3   5
ENDBRANCH   1   3
BRANCH   1  11
ATOM     11  C   UNL     1     118.328 123.093 106.628  1.00  0.00     0.087 C 
BRANCH  11  12
ATOM     12  C   UNL     1     117.620 123.932 107.722  1.00  0.00     0.066 C 
BRANCH  12  13
ATOM     13  C   UNL     1     118.072 123.599 109.138  1.00  0.00     0.140 C 
ATOM     14  O   UNL     1     117.935 122.449 109.529  1.00  0.00    -0.299 OA
BRANCH  13  15
ATOM     15  C   UNL     1     118.761 124.592 110.049  1.00  0.00     0.106 CG0
ATOM     16  G   UNL     1     120.243 124.695 109.729  1.00  0.00     0.000 G0
ENDBRANCH  13  15
ENDBRANCH  12  13
BRANCH  12  17
ATOM     17  C   UNL     1     116.063 123.932 107.619  1.00  0.00    -0.006 C 
ATOM     18  C   UNL     1     115.492 122.780 106.776  1.00  0.00     0.008 C 
ATOM     19  C   UNL     1     115.519 125.276 107.109  1.00  0.00     0.008 C 
ENDBRANCH  12  17
ENDBRANCH  11  12
ENDBRANCH   1  11
TORSDOF 1
ENDMDL
MODEL 6
REMARK VINA RESULT:    -3.061      1.781      4.178
REMARK INTER + INTRA:          -4.889
REMARK INTER:                  -4.629
REMARK INTRA:                  -0.260
REMARK UNBOUND:                -0.217
REMARK SMILES CC1=CCC[C@H](C)C(=O)C[C@@H](C(C)C)C(=O)C1
REMARK SMILES IDX 8 1 9 2 6 3 7 4 5 5 4 6 3 7 2 8 1 9 10 11 11 12 15 13 16 14
REMARK SMILES IDX 17 15 12 17 13 18 14 19
REMARK H PARENT
REMARK Flexibility Score: 70.00
ROOT
ATOM      1  C   UNL     1     128.521 122.486 100.533  1.00  0.00     0.136 C 
ATOM      2  O   UNL     1     127.330 122.707 100.358  1.00  0.00    -0.299 OA
ENDROOT
BRANCH   1   3
ATOM      3  C   UNL     1     128.984 121.085 100.858  1.00  0.00     0.053 C 
ATOM      4  C   UNL     1     128.129 120.494 101.985  1.00  0.00     0.016 C 
BRANCH   3   5
ATOM      5  C   UNL     1     128.948 120.177  99.614  1.00  0.00     0.015 C 
BRANCH   5   6
ATOM      6  C   UNL     1     130.350 119.893  99.036  1.00  0.00     0.028 C 
BRANCH   6   7
ATOM      7  C   UNL     1     131.408 119.906 100.116  1.00  0.00    -0.028 C 
ATOM      8  C   UNL     1     132.404 120.810 100.282  1.00  0.00    -0.070 CG0
ATOM      9  C   UNL     1     133.300 120.639 101.485  1.00  0.00     0.039 C 
ATOM     10  G   UNL     1     132.688 121.971  99.344  1.00  0.00     0.000 G0
ENDBRANCH   6   7
ENDBRANCH   5   6
ENDBRANCH   3   5
ENDBRANCH   1   3
BRANCH   1  11
ATOM     11  C   UNL     1     129.520 123.620 100.507  1.00  0.00     0.087 C 
BRANCH  11  12
ATOM     12  C   UNL     1     130.527 123.534  99.333  1.00  0.00     0.066 C 
BRANCH  12  13
ATOM     13  C   UNL     1     131.953 123.223  99.769  1.00  0.00     0.140 C 
ATOM     14  O   UNL     1     132.493 123.989 100.554  1.00  0.00    -0.299 OA
BRANCH  13  15
ATOM     15  C   UNL     1     132.699 121.973  99.354  1.00  0.00     0.106 CG0
ATOM     16  G   UNL     1     132.412 120.822 100.303  1.00  0.00     0.000 G0
ENDBRANCH  13  15
ENDBRANCH  12  13
BRANCH  12  17
ATOM     17  C   UNL     1     130.493 124.764  98.372  1.00  0.00    -0.006 C 
ATOM     18  C   UNL     1     129.123 125.008  97.718  1.00  0.00     0.008 C 
ATOM     19  C   UNL     1     131.584 124.683  97.292  1.00  0.00     0.008 C 
ENDBRANCH  12  17
ENDBRANCH  11  12
ENDBRANCH   1  11
TORSDOF 1
ENDMDL
MODEL 7
REMARK VINA RESULT:    -3.061      8.659     11.666
REMARK INTER + INTRA:          -4.888
REMARK INTER:                  -4.637
REMARK INTRA:                  -0.250
REMARK UNBOUND:                -0.217
REMARK SMILES CC1=CCC[C@H](C)C(=O)C[C@@H](C(C)C)C(=O)C1
REMARK SMILES IDX 8 1 9 2 6 3 7 4 5 5 4 6 3 7 2 8 1 9 10 11 11 12 15 13 16 14
REMARK SMILES IDX 17 15 12 17 13 18 14 19
REMARK H PARENT
REMARK Flexibility Score: 70.00
ROOT
ATOM      1  C   UNL     1     123.454 122.405 103.216  1.00  0.00     0.136 C 
ATOM      2  O   UNL     1     124.310 121.826 103.872  1.00  0.00    -0.299 OA
ENDROOT
BRANCH   1   3
ATOM      3  C   UNL     1     123.062 121.869 101.858  1.00  0.00     0.053 C 
ATOM      4  C   UNL     1     124.308 121.679 100.985  1.00  0.00     0.016 C 
BRANCH   3   5
ATOM      5  C   UNL     1     122.275 120.550 101.979  1.00  0.00     0.015 C 
BRANCH   5   6
ATOM      6  C   UNL     1     120.748 120.764 102.035  1.00  0.00     0.028 C 
BRANCH   6   7
ATOM      7  C   UNL     1     120.197 120.466 103.411  1.00  0.00    -0.028 C 
ATOM      8  C   UNL     1     119.839 121.359 104.366  1.00  0.00    -0.070 CG0
ATOM      9  C   UNL     1     119.250 120.808 105.642  1.00  0.00     0.039 C 
ATOM     10  G   UNL     1     119.997 122.866 104.248  1.00  0.00     0.000 G0
ENDBRANCH   6   7
ENDBRANCH   5   6
ENDBRANCH   3   5
ENDBRANCH   1   3
BRANCH   1  11
ATOM     11  C   UNL     1     122.849 123.695 103.717  1.00  0.00     0.087 C 
BRANCH  11  12
ATOM     12  C   UNL     1     122.377 123.628 105.192  1.00  0.00     0.066 C 
BRANCH  12  13
ATOM     13  C   UNL     1     120.873 123.445 105.347  1.00  0.00     0.140 C 
ATOM     14  O   UNL     1     120.350 123.840 106.379  1.00  0.00    -0.299 OA
BRANCH  13  15
ATOM     15  C   UNL     1     119.983 122.884 104.259  1.00  0.00     0.106 CG0
ATOM     16  G   UNL     1     119.851 121.375 104.381  1.00  0.00     0.000 G0
ENDBRANCH  13  15
ENDBRANCH  12  13
BRANCH  12  17
ATOM     17  C   UNL     1     122.891 124.803 106.081  1.00  0.00    -0.006 C 
ATOM     18  C   UNL     1     123.565 125.936 105.290  1.00  0.00     0.008 C 
ATOM     19  C   UNL     1     123.825 124.315 107.199  1.00  0.00     0.008 C 
ENDBRANCH  12  17
ENDBRANCH  11  12
ENDBRANCH   1  11
TORSDOF 1
ENDMDL
MODEL 8
REMARK VINA RESULT:    -2.963     12.548     15.400
REMARK INTER + INTRA:          -4.738
REMARK INTER:                  -4.391
REMARK INTRA:                  -0.347
REMARK UNBOUND:                -0.217
REMARK SMILES CC1=CCC[C@H](C)C(=O)C[C@@H](C(C)C)C(=O)C1
REMARK SMILES IDX 8 1 9 2 6 3 7 4 5 5 4 6 3 7 2 8 1 9 10 11 11 12 15 13 16 14
REMARK SMILES IDX 17 15 12 17 13 18 14 19
REMARK H PARENT
REMARK Flexibility Score: 70.00
ROOT
ATOM      1  C   UNL     1     119.414 123.495 110.096  1.00  0.00     0.136 C 
ATOM      2  O   UNL     1     118.634 122.985 110.889  1.00  0.00    -0.299 OA
ENDROOT
BRANCH   1   3
ATOM      3  C   UNL     1     120.350 122.619 109.296  1.00  0.00     0.053 C 
ATOM      4  C   UNL     1     121.063 121.625 110.221  1.00  0.00     0.016 C 
BRANCH   3   5
ATOM      5  C   UNL     1     119.602 121.876 108.172  1.00  0.00     0.015 C 
BRANCH   5   6
ATOM      6  C   UNL     1     119.597 122.652 106.839  1.00  0.00     0.028 C 
BRANCH   6   7
ATOM      7  C   UNL     1     120.911 123.363 106.606  1.00  0.00    -0.028 C 
ATOM      8  C   UNL     1     121.109 124.693 106.435  1.00  0.00    -0.070 CG0
ATOM      9  C   UNL     1     122.534 125.166 106.283  1.00  0.00     0.039 C 
ATOM     10  G   UNL     1     120.004 125.734 106.378  1.00  0.00     0.000 G0
ENDBRANCH   6   7
ENDBRANCH   5   6
ENDBRANCH   3   5
ENDBRANCH   1   3
BRANCH   1  11
ATOM     11  C   UNL     1     119.507 124.999 109.975  1.00  0.00     0.087 C 
BRANCH  11  12
ATOM     12  C   UNL     1     118.761 125.569 108.741  1.00  0.00     0.066 C 
BRANCH  12  13
ATOM     13  C   UNL     1     119.671 126.286 107.752  1.00  0.00     0.140 C 
ATOM     14  O   UNL     1     120.223 127.312 108.121  1.00  0.00    -0.299 OA
BRANCH  13  15
ATOM     15  C   UNL     1     119.995 125.748 106.375  1.00  0.00     0.106 CG0
ATOM     16  G   UNL     1     121.102 124.710 106.438  1.00  0.00     0.000 G0
ENDBRANCH  13  15
ENDBRANCH  12  13
BRANCH  12  17
ATOM     17  C   UNL     1     117.520 126.446 109.096  1.00  0.00    -0.006 C 
ATOM     18  C   UNL     1     117.273 126.599 110.606  1.00  0.00     0.008 C 
ATOM     19  C   UNL     1     116.243 125.946 108.403  1.00  0.00     0.008 C 
ENDBRANCH  12  17
ENDBRANCH  11  12
ENDBRANCH   1  11
TORSDOF 1
ENDMDL
MODEL 9
REMARK VINA RESULT:    -2.915     14.297     17.058
REMARK INTER + INTRA:          -4.666
REMARK INTER:                  -4.306
REMARK INTRA:                  -0.360
REMARK UNBOUND:                -0.217
REMARK SMILES CC1=CCC[C@H](C)C(=O)C[C@@H](C(C)C)C(=O)C1
REMARK SMILES IDX 8 1 9 2 6 3 7 4 5 5 4 6 3 7 2 8 1 9 10 11 11 12 15 13 16 14
REMARK SMILES IDX 17 15 12 17 13 18 14 19
REMARK H PARENT
REMARK Flexibility Score: 70.00
ROOT
ATOM      1  C   UNL     1     118.997 123.141 107.130  1.00  0.00     0.136 C 
ATOM      2  O   UNL     1     119.093 122.747 105.975  1.00  0.00    -0.299 OA
ENDROOT
BRANCH   1   3
ATOM      3  C   UNL     1     119.502 124.517 107.498  1.00  0.00     0.053 C 
ATOM      4  C   UNL     1     121.010 124.612 107.242  1.00  0.00     0.016 C 
BRANCH   3   5
ATOM      5  C   UNL     1     118.748 125.618 106.726  1.00  0.00     0.015 C 
BRANCH   5   6
ATOM      6  C   UNL     1     117.260 125.716 107.119  1.00  0.00     0.028 C 
BRANCH   6   7
ATOM      7  C   UNL     1     117.092 125.958 108.602  1.00  0.00    -0.028 C 
ATOM      8  C   UNL     1     116.345 125.239 109.475  1.00  0.00    -0.070 CG0
ATOM      9  C   UNL     1     116.394 125.647 110.928  1.00  0.00     0.039 C 
ATOM     10  G   UNL     1     115.457 124.066 109.095  1.00  0.00     0.000 G0
ENDBRANCH   6   7
ENDBRANCH   5   6
ENDBRANCH   3   5
ENDBRANCH   1   3
BRANCH   1  11
ATOM     11  C   UNL     1     118.454 122.228 108.205  1.00  0.00     0.087 C 
BRANCH  11  12
ATOM     12  C   UNL     1     116.917 122.039 108.142  1.00  0.00     0.066 C 
BRANCH  12  13
ATOM     13  C   UNL     1     116.167 122.735 109.270  1.00  0.00     0.140 C 
ATOM     14  O   UNL     1     116.212 122.234 110.384  1.00  0.00    -0.299 OA
BRANCH  13  15
ATOM     15  C   UNL     1     115.447 124.056 109.104  1.00  0.00     0.106 CG0
ATOM     16  G   UNL     1     116.347 125.223 109.474  1.00  0.00     0.000 G0
ENDBRANCH  13  15
ENDBRANCH  12  13
BRANCH  12  17
ATOM     17  C   UNL     1     116.462 120.553 108.003  1.00  0.00    -0.006 C 
ATOM     18  C   UNL     1     117.563 119.607 107.497  1.00  0.00     0.008 C 
ATOM     19  C   UNL     1     115.206 120.414 107.127  1.00  0.00     0.008 C 
ENDBRANCH  12  17
ENDBRANCH  11  12
ENDBRANCH   1  11
TORSDOF 1
ENDMDL
