MODEL 1
REMARK VINA RESULT:    -8.406      0.000      0.000
REMARK INTER + INTRA:          -9.107
REMARK INTER:                  -9.144
REMARK INTRA:                   0.037
REMARK UNBOUND:                 0.037
REMARK SMILES C[C@@H]1[C@H]2C3=CC[C@H]4[C@@]5(C)CC[C@@H](O)C(C)(C)[C@@H]5CC[C@@]4(C)[C@@]3(C)CC[C@]2(C(=O)[O-])CC[C@@H]1C
REMARK SMILES IDX 26 1 30 2 25 3 3 4 31 5 24 6 4 7 2 8 32 9 22 10 5 11 1 12
REMARK SMILES IDX 33 13 23 14 20 15 6 16 7 17 19 18 21 19 8 20 18 21 17 22
REMARK SMILES IDX 10 23 9 24 14 25 11 26 12 27 15 28 16 29 27 30 28 31 29 32
REMARK SMILES IDX 13 33
REMARK H PARENT 13 34
REMARK Flexibility Score: inf
ROOT
ATOM      1  C   UNL     1      -8.264  10.032 -37.522  1.00  0.00     0.017 C 
ATOM      2  C   UNL     1      -9.517  10.930 -37.257  1.00  0.00     0.014 C 
ATOM      3  C   UNL     1      -8.237   8.864 -36.474  1.00  0.00     0.014 C 
ATOM      4  C   UNL     1      -8.386   9.481 -38.971  1.00  0.00     0.030 C 
ATOM      5  C   UNL     1      -9.943  11.834 -38.444  1.00  0.00     0.004 C 
ATOM      6  C   UNL     1      -8.610   7.475 -37.040  1.00  0.00     0.013 C 
ATOM      7  C   UNL     1      -7.461   8.259 -39.143  1.00  0.00    -0.063 C 
ATOM      8  C   UNL     1      -8.344  10.614 -40.067  1.00  0.00    -0.003 C 
ATOM      9  C   UNL     1      -8.844  11.994 -39.513  1.00  0.00    -0.011 C 
ATOM     10  C   UNL     1      -7.785   7.018 -38.312  1.00  0.00    -0.006 C 
ATOM     11  C   UNL     1      -6.504   8.200 -40.080  1.00  0.00    -0.027 C 
ATOM     12  C   UNL     1      -9.136  10.144 -41.311  1.00  0.00     0.008 C 
ATOM     13  C   UNL     1      -9.302  12.983 -40.605  1.00  0.00     0.008 C 
ATOM     14  C   UNL     1      -8.759   6.189 -39.206  1.00  0.00     0.017 C 
ATOM     15  C   UNL     1      -6.477   6.134 -37.945  1.00  0.00    -0.020 C 
ATOM     16  C   UNL     1      -5.347   7.267 -40.015  1.00  0.00     0.032 C 
ATOM     17  C   UNL     1      -5.528   5.944 -39.215  1.00  0.00     0.006 C 
ATOM     18  C   UNL     1      -5.648   6.807 -36.814  1.00  0.00     0.008 C 
ATOM     19  C   UNL     1      -6.977   4.740 -37.426  1.00  0.00     0.012 C 
ATOM     20  C   UNL     1      -4.106   5.247 -38.909  1.00  0.00    -0.025 C 
ATOM     21  C   UNL     1      -4.310   6.121 -36.479  1.00  0.00     0.005 C 
ATOM     22  C   UNL     1      -3.397   6.005 -37.719  1.00  0.00     0.003 C 
ATOM     23  C   UNL     1      -3.149   5.333 -40.154  1.00  0.00     0.010 C 
ATOM     24  C   UNL     1      -4.343   3.724 -38.626  1.00  0.00     0.012 C 
ATOM     25  C   UNL     1      -1.907   5.563 -37.400  1.00  0.00    -0.006 C 
ATOM     26  C   UNL     1      -1.711   4.856 -39.880  1.00  0.00     0.033 C 
ATOM     27  C   UNL     1      -1.058   5.617 -38.717  1.00  0.00     0.120 C 
ATOM     28  C   UNL     1      -1.267   6.542 -36.374  1.00  0.00     0.014 C 
ATOM     29  C   UNL     1      -1.798   4.150 -36.766  1.00  0.00     0.014 C 
ENDROOT
BRANCH   1  30
ATOM     30  C   UNL     1      -6.971  10.833 -37.333  1.00  0.00     0.048 C 
ATOM     31  O   UNL     1      -6.994  11.961 -36.766  1.00  0.00    -0.550 OA
ATOM     32  O   UNL     1      -5.742  10.261 -37.642  1.00  0.00    -0.550 OA
ENDBRANCH   1  30
BRANCH  27  33
ATOM     33  O   UNL     1      -0.840   6.950 -39.125  1.00  0.00    -0.393 OA
ATOM     34  H   UNL     1       0.094   7.177 -38.888  1.00  0.00     0.210 HD
ENDBRANCH  27  33
TORSDOF 2
ENDMDL
MODEL 2
REMARK VINA RESULT:    -7.428     13.008     17.234
REMARK INTER + INTRA:          -8.043
REMARK INTER:                  -8.192
REMARK INTRA:                   0.148
REMARK UNBOUND:                 0.037
REMARK SMILES C[C@@H]1[C@H]2C3=CC[C@H]4[C@@]5(C)CC[C@@H](O)C(C)(C)[C@@H]5CC[C@@]4(C)[C@@]3(C)CC[C@]2(C(=O)[O-])CC[C@@H]1C
REMARK SMILES IDX 26 1 30 2 25 3 3 4 31 5 24 6 4 7 2 8 32 9 22 10 5 11 1 12
REMARK SMILES IDX 33 13 23 14 20 15 6 16 7 17 19 18 21 19 8 20 18 21 17 22
REMARK SMILES IDX 10 23 9 24 14 25 11 26 12 27 15 28 16 29 27 30 28 31 29 32
REMARK SMILES IDX 13 33
REMARK H PARENT 13 34
REMARK Flexibility Score: inf
ROOT
ATOM      1  C   UNL     1     -13.736  11.748 -25.863  1.00  0.00     0.017 C 
ATOM      2  C   UNL     1     -14.010  10.219 -25.675  1.00  0.00     0.014 C 
ATOM      3  C   UNL     1     -14.298  12.528 -24.622  1.00  0.00     0.014 C 
ATOM      4  C   UNL     1     -12.196  11.931 -25.988  1.00  0.00     0.030 C 
ATOM      5  C   UNL     1     -13.142   9.281 -26.555  1.00  0.00     0.004 C 
ATOM      6  C   UNL     1     -13.221  13.063 -23.649  1.00  0.00     0.013 C 
ATOM      7  C   UNL     1     -11.823  13.403 -25.720  1.00  0.00    -0.063 C 
ATOM      8  C   UNL     1     -11.594  11.225 -27.263  1.00  0.00    -0.003 C 
ATOM      9  C   UNL     1     -12.463  10.006 -27.733  1.00  0.00    -0.011 C 
ATOM     10  C   UNL     1     -12.085  13.942 -24.314  1.00  0.00    -0.006 C 
ATOM     11  C   UNL     1     -11.157  14.156 -26.607  1.00  0.00    -0.027 C 
ATOM     12  C   UNL     1     -10.122  10.838 -26.979  1.00  0.00     0.008 C 
ATOM     13  C   UNL     1     -11.705   8.995 -28.617  1.00  0.00     0.008 C 
ATOM     14  C   UNL     1     -10.770  13.647 -23.528  1.00  0.00     0.017 C 
ATOM     15  C   UNL     1     -12.404  15.531 -24.286  1.00  0.00    -0.020 C 
ATOM     16  C   UNL     1     -11.151  15.644 -26.582  1.00  0.00     0.032 C 
ATOM     17  C   UNL     1     -11.388  16.345 -25.212  1.00  0.00     0.006 C 
ATOM     18  C   UNL     1     -13.850  15.818 -24.782  1.00  0.00     0.008 C 
ATOM     19  C   UNL     1     -12.289  16.012 -22.798  1.00  0.00     0.012 C 
ATOM     20  C   UNL     1     -11.741  17.907 -25.408  1.00  0.00    -0.025 C 
ATOM     21  C   UNL     1     -14.215  17.308 -24.927  1.00  0.00     0.005 C 
ATOM     22  C   UNL     1     -13.244  18.049 -25.871  1.00  0.00     0.003 C 
ATOM     23  C   UNL     1     -10.845  18.558 -26.523  1.00  0.00     0.010 C 
ATOM     24  C   UNL     1     -11.424  18.665 -24.074  1.00  0.00     0.012 C 
ATOM     25  C   UNL     1     -13.711  19.508 -26.283  1.00  0.00    -0.006 C 
ATOM     26  C   UNL     1     -11.247  19.996 -26.898  1.00  0.00     0.033 C 
ATOM     27  C   UNL     1     -12.714  20.092 -27.342  1.00  0.00     0.120 C 
ATOM     28  C   UNL     1     -15.125  19.454 -26.930  1.00  0.00     0.014 C 
ATOM     29  C   UNL     1     -13.829  20.486 -25.083  1.00  0.00     0.014 C 
ENDROOT
BRANCH   1  30
ATOM     30  C   UNL     1     -14.467  12.284 -27.097  1.00  0.00     0.048 C 
ATOM     31  O   UNL     1     -15.123  11.503 -27.842  1.00  0.00    -0.550 OA
ATOM     32  O   UNL     1     -14.548  13.654 -27.324  1.00  0.00    -0.550 OA
ENDBRANCH   1  30
BRANCH  27  33
ATOM     33  O   UNL     1     -12.847  19.429 -28.582  1.00  0.00    -0.393 OA
ATOM     34  H   UNL     1     -13.119  20.110 -29.247  1.00  0.00     0.210 HD
ENDBRANCH  27  33
TORSDOF 2
ENDMDL
MODEL 3
REMARK VINA RESULT:    -7.302     12.218     16.396
REMARK INTER + INTRA:          -7.905
REMARK INTER:                  -8.056
REMARK INTRA:                   0.151
REMARK UNBOUND:                 0.037
REMARK SMILES C[C@@H]1[C@H]2C3=CC[C@H]4[C@@]5(C)CC[C@@H](O)C(C)(C)[C@@H]5CC[C@@]4(C)[C@@]3(C)CC[C@]2(C(=O)[O-])CC[C@@H]1C
REMARK SMILES IDX 26 1 30 2 25 3 3 4 31 5 24 6 4 7 2 8 32 9 22 10 5 11 1 12
REMARK SMILES IDX 33 13 23 14 20 15 6 16 7 17 19 18 21 19 8 20 18 21 17 22
REMARK SMILES IDX 10 23 9 24 14 25 11 26 12 27 15 28 16 29 27 30 28 31 29 32
REMARK SMILES IDX 13 33
REMARK H PARENT 13 34
REMARK Flexibility Score: inf
ROOT
ATOM      1  C   UNL     1     -13.522  10.296 -26.453  1.00  0.00     0.017 C 
ATOM      2  C   UNL     1     -13.749   8.752 -26.339  1.00  0.00     0.014 C 
ATOM      3  C   UNL     1     -14.218  11.010 -25.241  1.00  0.00     0.014 C 
ATOM      4  C   UNL     1     -11.985  10.541 -26.439  1.00  0.00     0.030 C 
ATOM      5  C   UNL     1     -12.772   7.880 -27.170  1.00  0.00     0.004 C 
ATOM      6  C   UNL     1     -13.251  11.550 -24.162  1.00  0.00     0.013 C 
ATOM      7  C   UNL     1     -11.697  12.015 -26.092  1.00  0.00    -0.063 C 
ATOM      8  C   UNL     1     -11.249   9.904 -27.680  1.00  0.00    -0.003 C 
ATOM      9  C   UNL     1     -12.026   8.671 -28.262  1.00  0.00    -0.011 C 
ATOM     10  C   UNL     1     -12.098  12.494 -24.698  1.00  0.00    -0.006 C 
ATOM     11  C   UNL     1     -10.989  12.824 -26.894  1.00  0.00    -0.027 C 
ATOM     12  C   UNL     1      -9.793   9.562 -27.282  1.00  0.00     0.008 C 
ATOM     13  C   UNL     1     -11.155   7.721 -29.109  1.00  0.00     0.008 C 
ATOM     14  C   UNL     1     -10.844  12.220 -23.811  1.00  0.00     0.017 C 
ATOM     15  C   UNL     1     -12.483  14.068 -24.647  1.00  0.00    -0.020 C 
ATOM     16  C   UNL     1     -11.045  14.309 -26.821  1.00  0.00     0.032 C 
ATOM     17  C   UNL     1     -11.426  14.952 -25.454  1.00  0.00     0.006 C 
ATOM     18  C   UNL     1     -13.892  14.318 -25.256  1.00  0.00     0.008 C 
ATOM     19  C   UNL     1     -12.514  14.500 -23.139  1.00  0.00     0.012 C 
ATOM     20  C   UNL     1     -11.823  16.505 -25.630  1.00  0.00    -0.025 C 
ATOM     21  C   UNL     1     -14.303  15.797 -25.384  1.00  0.00     0.005 C 
ATOM     22  C   UNL     1     -13.286  16.607 -26.216  1.00  0.00     0.003 C 
ATOM     23  C   UNL     1     -10.862  17.229 -26.642  1.00  0.00     0.010 C 
ATOM     24  C   UNL     1     -11.652  17.227 -24.250  1.00  0.00     0.012 C 
ATOM     25  C   UNL     1     -13.774  18.062 -26.619  1.00  0.00    -0.006 C 
ATOM     26  C   UNL     1     -11.289  18.663 -27.004  1.00  0.00     0.033 C 
ATOM     27  C   UNL     1     -12.716  18.719 -27.569  1.00  0.00     0.120 C 
ATOM     28  C   UNL     1     -15.125  17.978 -27.388  1.00  0.00     0.014 C 
ATOM     29  C   UNL     1     -14.033  18.992 -25.403  1.00  0.00     0.014 C 
ENDROOT
BRANCH   1  30
ATOM     30  C   UNL     1     -14.167  10.848 -27.728  1.00  0.00     0.048 C 
ATOM     31  O   UNL     1     -14.719  10.070 -28.555  1.00  0.00    -0.550 OA
ATOM     32  O   UNL     1     -14.289  12.221 -27.914  1.00  0.00    -0.550 OA
ENDBRANCH   1  30
BRANCH  27  33
ATOM     33  O   UNL     1     -12.716  18.097 -28.836  1.00  0.00    -0.393 OA
ATOM     34  H   UNL     1     -12.225  18.696 -29.454  1.00  0.00     0.210 HD
ENDBRANCH  27  33
TORSDOF 2
ENDMDL
MODEL 4
REMARK VINA RESULT:    -7.170      2.014      7.461
REMARK INTER + INTRA:          -7.762
REMARK INTER:                  -7.812
REMARK INTRA:                   0.050
REMARK UNBOUND:                 0.037
REMARK SMILES C[C@@H]1[C@H]2C3=CC[C@H]4[C@@]5(C)CC[C@@H](O)C(C)(C)[C@@H]5CC[C@@]4(C)[C@@]3(C)CC[C@]2(C(=O)[O-])CC[C@@H]1C
REMARK SMILES IDX 26 1 30 2 25 3 3 4 31 5 24 6 4 7 2 8 32 9 22 10 5 11 1 12
REMARK SMILES IDX 33 13 23 14 20 15 6 16 7 17 19 18 21 19 8 20 18 21 17 22
REMARK SMILES IDX 10 23 9 24 14 25 11 26 12 27 15 28 16 29 27 30 28 31 29 32
REMARK SMILES IDX 13 33
REMARK H PARENT 13 34
REMARK Flexibility Score: inf
ROOT
ATOM      1  C   UNL     1      -5.478   5.772 -38.563  1.00  0.00     0.017 C 
ATOM      2  C   UNL     1      -4.999   4.294 -38.749  1.00  0.00     0.014 C 
ATOM      3  C   UNL     1      -6.727   5.793 -37.614  1.00  0.00     0.014 C 
ATOM      4  C   UNL     1      -4.292   6.568 -37.946  1.00  0.00     0.030 C 
ATOM      5  C   UNL     1      -3.545   4.132 -39.265  1.00  0.00     0.004 C 
ATOM      6  C   UNL     1      -6.453   6.332 -36.191  1.00  0.00     0.013 C 
ATOM      7  C   UNL     1      -4.815   7.879 -37.323  1.00  0.00    -0.063 C 
ATOM      8  C   UNL     1      -3.036   6.638 -38.896  1.00  0.00    -0.003 C 
ATOM      9  C   UNL     1      -2.971   5.421 -39.885  1.00  0.00    -0.011 C 
ATOM     10  C   UNL     1      -5.759   7.754 -36.128  1.00  0.00    -0.006 C 
ATOM     11  C   UNL     1      -4.361   9.087 -37.688  1.00  0.00    -0.027 C 
ATOM     12  C   UNL     1      -1.758   6.780 -38.035  1.00  0.00     0.008 C 
ATOM     13  C   UNL     1      -1.568   5.155 -40.465  1.00  0.00     0.008 C 
ATOM     14  C   UNL     1      -4.818   7.741 -34.883  1.00  0.00     0.017 C 
ATOM     15  C   UNL     1      -6.814   8.979 -36.014  1.00  0.00    -0.020 C 
ATOM     16  C   UNL     1      -5.105  10.352 -37.444  1.00  0.00     0.032 C 
ATOM     17  C   UNL     1      -6.098  10.388 -36.245  1.00  0.00     0.006 C 
ATOM     18  C   UNL     1      -7.952   8.834 -37.065  1.00  0.00     0.008 C 
ATOM     19  C   UNL     1      -7.454   8.922 -34.584  1.00  0.00     0.012 C 
ATOM     20  C   UNL     1      -7.092  11.654 -36.346  1.00  0.00    -0.025 C 
ATOM     21  C   UNL     1      -8.937  10.016 -37.138  1.00  0.00     0.005 C 
ATOM     22  C   UNL     1      -8.214  11.352 -37.416  1.00  0.00     0.003 C 
ATOM     23  C   UNL     1      -6.328  12.942 -36.822  1.00  0.00     0.010 C 
ATOM     24  C   UNL     1      -7.657  11.965 -34.919  1.00  0.00     0.012 C 
ATOM     25  C   UNL     1      -9.178  12.560 -37.774  1.00  0.00    -0.006 C 
ATOM     26  C   UNL     1      -7.242  14.145 -37.122  1.00  0.00     0.033 C 
ATOM     27  C   UNL     1      -8.318  13.811 -38.165  1.00  0.00     0.120 C 
ATOM     28  C   UNL     1     -10.070  12.188 -38.994  1.00  0.00     0.014 C 
ATOM     29  C   UNL     1     -10.157  12.937 -36.629  1.00  0.00     0.014 C 
ENDROOT
BRANCH   1  30
ATOM     30  C   UNL     1      -5.921   6.372 -39.901  1.00  0.00     0.048 C 
ATOM     31  O   UNL     1      -6.228   5.622 -40.869  1.00  0.00    -0.550 OA
ATOM     32  O   UNL     1      -6.142   7.740 -40.016  1.00  0.00    -0.550 OA
ENDBRANCH   1  30
BRANCH  27  33
ATOM     33  O   UNL     1      -7.684  13.620 -39.412  1.00  0.00    -0.393 OA
ATOM     34  H   UNL     1      -8.155  12.877 -39.866  1.00  0.00     0.210 HD
ENDBRANCH  27  33
TORSDOF 2
ENDMDL
MODEL 5
REMARK VINA RESULT:    -6.953      2.785      7.169
REMARK INTER + INTRA:          -7.526
REMARK INTER:                  -7.562
REMARK INTRA:                   0.036
REMARK UNBOUND:                 0.037
REMARK SMILES C[C@@H]1[C@H]2C3=CC[C@H]4[C@@]5(C)CC[C@@H](O)C(C)(C)[C@@H]5CC[C@@]4(C)[C@@]3(C)CC[C@]2(C(=O)[O-])CC[C@@H]1C
REMARK SMILES IDX 26 1 30 2 25 3 3 4 31 5 24 6 4 7 2 8 32 9 22 10 5 11 1 12
REMARK SMILES IDX 33 13 23 14 20 15 6 16 7 17 19 18 21 19 8 20 18 21 17 22
REMARK SMILES IDX 10 23 9 24 14 25 11 26 12 27 15 28 16 29 27 30 28 31 29 32
REMARK SMILES IDX 13 33
REMARK H PARENT 13 34
REMARK Flexibility Score: inf
ROOT
ATOM      1  C   UNL     1      -3.241   7.272 -37.780  1.00  0.00     0.017 C 
ATOM      2  C   UNL     1      -1.907   7.733 -38.455  1.00  0.00     0.014 C 
ATOM      3  C   UNL     1      -4.364   8.325 -38.087  1.00  0.00     0.014 C 
ATOM      4  C   UNL     1      -3.603   5.879 -38.372  1.00  0.00     0.030 C 
ATOM      5  C   UNL     1      -0.843   6.619 -38.640  1.00  0.00     0.004 C 
ATOM      6  C   UNL     1      -5.423   7.865 -39.115  1.00  0.00     0.013 C 
ATOM      7  C   UNL     1      -5.092   5.575 -38.112  1.00  0.00    -0.063 C 
ATOM      8  C   UNL     1      -2.538   4.768 -38.027  1.00  0.00    -0.003 C 
ATOM      9  C   UNL     1      -1.112   5.370 -37.777  1.00  0.00    -0.011 C 
ATOM     10  C   UNL     1      -6.117   6.477 -38.797  1.00  0.00    -0.006 C 
ATOM     11  C   UNL     1      -5.505   4.485 -37.449  1.00  0.00    -0.027 C 
ATOM     12  C   UNL     1      -2.550   3.694 -39.142  1.00  0.00     0.008 C 
ATOM     13  C   UNL     1       0.038   4.354 -37.937  1.00  0.00     0.008 C 
ATOM     14  C   UNL     1      -6.394   5.788 -40.170  1.00  0.00     0.017 C 
ATOM     15  C   UNL     1      -7.498   6.628 -37.962  1.00  0.00    -0.020 C 
ATOM     16  C   UNL     1      -6.847   4.366 -36.818  1.00  0.00     0.032 C 
ATOM     17  C   UNL     1      -8.006   5.215 -37.418  1.00  0.00     0.006 C 
ATOM     18  C   UNL     1      -7.313   7.580 -36.746  1.00  0.00     0.008 C 
ATOM     19  C   UNL     1      -8.567   7.258 -38.922  1.00  0.00     0.012 C 
ATOM     20  C   UNL     1      -9.264   5.281 -36.411  1.00  0.00    -0.025 C 
ATOM     21  C   UNL     1      -8.526   7.688 -35.802  1.00  0.00     0.005 C 
ATOM     22  C   UNL     1      -8.954   6.310 -35.253  1.00  0.00     0.003 C 
ATOM     23  C   UNL     1      -9.529   3.886 -35.736  1.00  0.00     0.010 C 
ATOM     24  C   UNL     1     -10.550   5.635 -37.234  1.00  0.00     0.012 C 
ATOM     25  C   UNL     1     -10.012   6.371 -34.073  1.00  0.00    -0.006 C 
ATOM     26  C   UNL     1     -10.594   3.912 -34.624  1.00  0.00     0.033 C 
ATOM     27  C   UNL     1     -10.255   4.925 -33.520  1.00  0.00     0.120 C 
ATOM     28  C   UNL     1      -9.464   7.246 -32.909  1.00  0.00     0.014 C 
ATOM     29  C   UNL     1     -11.368   7.008 -34.483  1.00  0.00     0.014 C 
ENDROOT
BRANCH   1  30
ATOM     30  C   UNL     1      -3.088   7.211 -36.257  1.00  0.00     0.048 C 
ATOM     31  O   UNL     1      -2.099   7.755 -35.691  1.00  0.00    -0.550 OA
ATOM     32  O   UNL     1      -4.112   6.696 -35.470  1.00  0.00    -0.550 OA
ENDBRANCH   1  30
BRANCH  27  33
ATOM     33  O   UNL     1      -9.125   4.454 -32.817  1.00  0.00    -0.393 OA
ATOM     34  H   UNL     1      -8.327   4.731 -33.333  1.00  0.00     0.210 HD
ENDBRANCH  27  33
TORSDOF 2
ENDMDL
MODEL 6
REMARK VINA RESULT:    -6.923      2.661      4.753
REMARK INTER + INTRA:          -7.494
REMARK INTER:                  -7.526
REMARK INTRA:                   0.032
REMARK UNBOUND:                 0.037
REMARK SMILES C[C@@H]1[C@H]2C3=CC[C@H]4[C@@]5(C)CC[C@@H](O)C(C)(C)[C@@H]5CC[C@@]4(C)[C@@]3(C)CC[C@]2(C(=O)[O-])CC[C@@H]1C
REMARK SMILES IDX 26 1 30 2 25 3 3 4 31 5 24 6 4 7 2 8 32 9 22 10 5 11 1 12
REMARK SMILES IDX 33 13 23 14 20 15 6 16 7 17 19 18 21 19 8 20 18 21 17 22
REMARK SMILES IDX 10 23 9 24 14 25 11 26 12 27 15 28 16 29 27 30 28 31 29 32
REMARK SMILES IDX 13 33
REMARK H PARENT 13 34
REMARK Flexibility Score: inf
ROOT
ATOM      1  C   UNL     1      -9.092   7.210 -37.287  1.00  0.00     0.017 C 
ATOM      2  C   UNL     1     -10.594   7.647 -37.253  1.00  0.00     0.014 C 
ATOM      3  C   UNL     1      -8.343   8.027 -38.399  1.00  0.00     0.014 C 
ATOM      4  C   UNL     1      -8.493   7.501 -35.881  1.00  0.00     0.030 C 
ATOM      5  C   UNL     1     -11.354   7.290 -35.949  1.00  0.00     0.004 C 
ATOM      6  C   UNL     1      -7.392   9.126 -37.869  1.00  0.00     0.013 C 
ATOM      7  C   UNL     1      -6.953   7.530 -35.966  1.00  0.00    -0.063 C 
ATOM      8  C   UNL     1      -9.165   6.647 -34.737  1.00  0.00    -0.003 C 
ATOM      9  C   UNL     1     -10.634   6.229 -35.094  1.00  0.00    -0.011 C 
ATOM     10  C   UNL     1      -6.324   8.641 -36.806  1.00  0.00    -0.006 C 
ATOM     11  C   UNL     1      -6.170   6.730 -35.229  1.00  0.00    -0.027 C 
ATOM     12  C   UNL     1      -9.069   7.426 -33.403  1.00  0.00     0.008 C 
ATOM     13  C   UNL     1     -11.496   5.854 -33.872  1.00  0.00     0.008 C 
ATOM     14  C   UNL     1      -6.118   9.821 -35.805  1.00  0.00     0.017 C 
ATOM     15  C   UNL     1      -4.906   8.219 -37.468  1.00  0.00    -0.020 C 
ATOM     16  C   UNL     1      -4.755   6.423 -35.570  1.00  0.00     0.032 C 
ATOM     17  C   UNL     1      -3.970   7.472 -36.411  1.00  0.00     0.006 C 
ATOM     18  C   UNL     1      -5.118   7.273 -38.684  1.00  0.00     0.008 C 
ATOM     19  C   UNL     1      -4.212   9.529 -37.978  1.00  0.00     0.012 C 
ATOM     20  C   UNL     1      -2.618   6.838 -37.021  1.00  0.00    -0.025 C 
ATOM     21  C   UNL     1      -3.831   6.700 -39.306  1.00  0.00     0.005 C 
ATOM     22  C   UNL     1      -2.979   5.938 -38.268  1.00  0.00     0.003 C 
ATOM     23  C   UNL     1      -1.896   5.916 -35.973  1.00  0.00     0.010 C 
ATOM     24  C   UNL     1      -1.624   8.002 -37.358  1.00  0.00     0.012 C 
ATOM     25  C   UNL     1      -1.786   5.093 -38.886  1.00  0.00    -0.006 C 
ATOM     26  C   UNL     1      -0.701   5.128 -36.540  1.00  0.00     0.033 C 
ATOM     27  C   UNL     1      -1.093   4.267 -37.749  1.00  0.00     0.120 C 
ATOM     28  C   UNL     1      -2.334   4.092 -39.944  1.00  0.00     0.014 C 
ATOM     29  C   UNL     1      -0.728   5.957 -39.624  1.00  0.00     0.014 C 
ENDROOT
BRANCH   1  30
ATOM     30  C   UNL     1      -8.964   5.729 -37.657  1.00  0.00     0.048 C 
ATOM     31  O   UNL     1      -9.946   5.104 -38.143  1.00  0.00    -0.550 OA
ATOM     32  O   UNL     1      -7.724   5.100 -37.608  1.00  0.00    -0.550 OA
ENDBRANCH   1  30
BRANCH  27  33
ATOM     33  O   UNL     1      -1.930   3.223 -37.298  1.00  0.00    -0.393 OA
ATOM     34  H   UNL     1      -2.258   2.747 -38.102  1.00  0.00     0.210 HD
ENDBRANCH  27  33
TORSDOF 2
ENDMDL
MODEL 7
REMARK VINA RESULT:    -6.840     12.657     15.786
REMARK INTER + INTRA:          -7.403
REMARK INTER:                  -7.459
REMARK INTRA:                   0.055
REMARK UNBOUND:                 0.037
REMARK SMILES C[C@@H]1[C@H]2C3=CC[C@H]4[C@@]5(C)CC[C@@H](O)C(C)(C)[C@@H]5CC[C@@]4(C)[C@@]3(C)CC[C@]2(C(=O)[O-])CC[C@@H]1C
REMARK SMILES IDX 26 1 30 2 25 3 3 4 31 5 24 6 4 7 2 8 32 9 22 10 5 11 1 12
REMARK SMILES IDX 33 13 23 14 20 15 6 16 7 17 19 18 21 19 8 20 18 21 17 22
REMARK SMILES IDX 10 23 9 24 14 25 11 26 12 27 15 28 16 29 27 30 28 31 29 32
REMARK SMILES IDX 13 33
REMARK H PARENT 13 34
REMARK Flexibility Score: inf
ROOT
ATOM      1  C   UNL     1     -11.737  17.068 -25.235  1.00  0.00     0.017 C 
ATOM      2  C   UNL     1     -11.562  18.560 -24.799  1.00  0.00     0.014 C 
ATOM      3  C   UNL     1     -11.383  16.133 -24.025  1.00  0.00     0.014 C 
ATOM      4  C   UNL     1     -13.220  16.884 -25.669  1.00  0.00     0.030 C 
ATOM      5  C   UNL     1     -12.289  19.598 -25.694  1.00  0.00     0.004 C 
ATOM      6  C   UNL     1     -12.598  15.456 -23.349  1.00  0.00     0.013 C 
ATOM      7  C   UNL     1     -13.578  15.383 -25.672  1.00  0.00    -0.063 C 
ATOM      8  C   UNL     1     -13.605  17.749 -26.930  1.00  0.00    -0.003 C 
ATOM      9  C   UNL     1     -12.711  19.032 -27.064  1.00  0.00    -0.011 C 
ATOM     10  C   UNL     1     -13.558  14.660 -24.326  1.00  0.00    -0.006 C 
ATOM     11  C   UNL     1     -14.040  14.750 -26.759  1.00  0.00    -0.027 C 
ATOM     12  C   UNL     1     -15.117  18.074 -26.877  1.00  0.00     0.008 C 
ATOM     13  C   UNL     1     -13.333  20.145 -27.932  1.00  0.00     0.008 C 
ATOM     14  C   UNL     1     -15.006  14.828 -23.768  1.00  0.00     0.017 C 
ATOM     15  C   UNL     1     -13.188  13.087 -24.449  1.00  0.00    -0.020 C 
ATOM     16  C   UNL     1     -13.993  13.273 -26.933  1.00  0.00     0.032 C 
ATOM     17  C   UNL     1     -13.985  12.394 -25.647  1.00  0.00     0.006 C 
ATOM     18  C   UNL     1     -11.666  12.890 -24.699  1.00  0.00     0.008 C 
ATOM     19  C   UNL     1     -13.556  12.405 -23.085  1.00  0.00     0.012 C 
ATOM     20  C   UNL     1     -13.542  10.879 -25.978  1.00  0.00    -0.025 C 
ATOM     21  C   UNL     1     -11.224  11.440 -24.968  1.00  0.00     0.005 C 
ATOM     22  C   UNL     1     -11.975  10.821 -26.167  1.00  0.00     0.003 C 
ATOM     23  C   UNL     1     -14.193  10.374 -27.318  1.00  0.00     0.010 C 
ATOM     24  C   UNL     1     -14.069   9.941 -24.839  1.00  0.00     0.012 C 
ATOM     25  C   UNL     1     -11.385   9.438 -26.673  1.00  0.00    -0.006 C 
ATOM     26  C   UNL     1     -13.673   9.006 -27.797  1.00  0.00     0.033 C 
ATOM     27  C   UNL     1     -12.146   8.993 -27.968  1.00  0.00     0.120 C 
ATOM     28  C   UNL     1      -9.879   9.600 -27.031  1.00  0.00     0.014 C 
ATOM     29  C   UNL     1     -11.451   8.307 -25.612  1.00  0.00     0.014 C 
ENDROOT
BRANCH   1  30
ATOM     30  C   UNL     1     -10.772  16.716 -26.370  1.00  0.00     0.048 C 
ATOM     31  O   UNL     1      -9.746  17.421 -26.581  1.00  0.00    -0.550 OA
ATOM     32  O   UNL     1     -10.928  15.530 -27.081  1.00  0.00    -0.550 OA
ENDBRANCH   1  30
BRANCH  27  33
ATOM     33  O   UNL     1     -11.814   9.820 -29.062  1.00  0.00    -0.393 OA
ATOM     34  H   UNL     1     -11.101   9.357 -29.570  1.00  0.00     0.210 HD
ENDBRANCH  27  33
TORSDOF 2
ENDMDL
MODEL 8
REMARK VINA RESULT:    -6.830     12.525     15.448
REMARK INTER + INTRA:          -7.393
REMARK INTER:                  -7.430
REMARK INTRA:                   0.037
REMARK UNBOUND:                 0.037
REMARK SMILES C[C@@H]1[C@H]2C3=CC[C@H]4[C@@]5(C)CC[C@@H](O)C(C)(C)[C@@H]5CC[C@@]4(C)[C@@]3(C)CC[C@]2(C(=O)[O-])CC[C@@H]1C
REMARK SMILES IDX 26 1 30 2 25 3 3 4 31 5 24 6 4 7 2 8 32 9 22 10 5 11 1 12
REMARK SMILES IDX 33 13 23 14 20 15 6 16 7 17 19 18 21 19 8 20 18 21 17 22
REMARK SMILES IDX 10 23 9 24 14 25 11 26 12 27 15 28 16 29 27 30 28 31 29 32
REMARK SMILES IDX 13 33
REMARK H PARENT 13 34
REMARK Flexibility Score: inf
ROOT
ATOM      1  C   UNL     1     -11.449  15.251 -25.033  1.00  0.00     0.017 C 
ATOM      2  C   UNL     1     -11.210  16.725 -24.564  1.00  0.00     0.014 C 
ATOM      3  C   UNL     1     -10.162  14.402 -24.737  1.00  0.00     0.014 C 
ATOM      4  C   UNL     1     -12.673  14.707 -24.241  1.00  0.00     0.030 C 
ATOM      5  C   UNL     1     -12.496  17.568 -24.361  1.00  0.00     0.004 C 
ATOM      6  C   UNL     1     -10.292  13.416 -23.553  1.00  0.00     0.013 C 
ATOM      7  C   UNL     1     -12.687  13.166 -24.302  1.00  0.00    -0.063 C 
ATOM      8  C   UNL     1     -14.008  15.483 -24.561  1.00  0.00    -0.003 C 
ATOM      9  C   UNL     1     -13.740  16.955 -25.033  1.00  0.00    -0.011 C 
ATOM     10  C   UNL     1     -11.531  12.431 -23.626  1.00  0.00    -0.006 C 
ATOM     11  C   UNL     1     -13.728  12.468 -24.781  1.00  0.00    -0.027 C 
ATOM     12  C   UNL     1     -14.944  15.407 -23.330  1.00  0.00     0.008 C 
ATOM     13  C   UNL     1     -14.951  17.897 -24.875  1.00  0.00     0.008 C 
ATOM     14  C   UNL     1     -12.012  12.206 -22.158  1.00  0.00     0.017 C 
ATOM     15  C   UNL     1     -11.180  11.010 -24.320  1.00  0.00    -0.020 C 
ATOM     16  C   UNL     1     -13.628  11.058 -25.246  1.00  0.00     0.032 C 
ATOM     17  C   UNL     1     -12.503  10.172 -24.633  1.00  0.00     0.006 C 
ATOM     18  C   UNL     1     -10.409  11.217 -25.656  1.00  0.00     0.008 C 
ATOM     19  C   UNL     1     -10.254  10.216 -23.335  1.00  0.00     0.012 C 
ATOM     20  C   UNL     1     -12.277   8.832 -25.500  1.00  0.00    -0.025 C 
ATOM     21  C   UNL     1     -10.144   9.937 -26.470  1.00  0.00     0.005 C 
ATOM     22  C   UNL     1     -11.451   9.183 -26.800  1.00  0.00     0.003 C 
ATOM     23  C   UNL     1     -13.646   8.218 -25.970  1.00  0.00     0.010 C 
ATOM     24  C   UNL     1     -11.587   7.756 -24.594  1.00  0.00     0.012 C 
ATOM     25  C   UNL     1     -11.288   8.013 -27.859  1.00  0.00    -0.006 C 
ATOM     26  C   UNL     1     -13.508   7.044 -26.957  1.00  0.00     0.033 C 
ATOM     27  C   UNL     1     -12.699   7.427 -28.205  1.00  0.00     0.120 C 
ATOM     28  C   UNL     1     -10.661   8.566 -29.172  1.00  0.00     0.014 C 
ATOM     29  C   UNL     1     -10.348   6.871 -27.387  1.00  0.00     0.014 C 
ENDROOT
BRANCH   1  30
ATOM     30  C   UNL     1     -11.687  15.193 -26.545  1.00  0.00     0.048 C 
ATOM     31  O   UNL     1     -11.437  16.194 -27.271  1.00  0.00    -0.550 OA
ATOM     32  O   UNL     1     -12.029  13.990 -27.154  1.00  0.00    -0.550 OA
ENDBRANCH   1  30
BRANCH  27  33
ATOM     33  O   UNL     1     -13.458   8.344 -28.962  1.00  0.00    -0.393 OA
ATOM     34  H   UNL     1     -12.941   8.540 -29.784  1.00  0.00     0.210 HD
ENDBRANCH  27  33
TORSDOF 2
ENDMDL
MODEL 9
REMARK VINA RESULT:    -6.666     13.003     16.631
REMARK INTER + INTRA:          -7.214
REMARK INTER:                  -7.249
REMARK INTRA:                   0.036
REMARK UNBOUND:                 0.037
REMARK SMILES C[C@@H]1[C@H]2C3=CC[C@H]4[C@@]5(C)CC[C@@H](O)C(C)(C)[C@@H]5CC[C@@]4(C)[C@@]3(C)CC[C@]2(C(=O)[O-])CC[C@@H]1C
REMARK SMILES IDX 26 1 30 2 25 3 3 4 31 5 24 6 4 7 2 8 32 9 22 10 5 11 1 12
REMARK SMILES IDX 33 13 23 14 20 15 6 16 7 17 19 18 21 19 8 20 18 21 17 22
REMARK SMILES IDX 10 23 9 24 14 25 11 26 12 27 15 28 16 29 27 30 28 31 29 32
REMARK SMILES IDX 13 33
REMARK H PARENT 13 34
REMARK Flexibility Score: inf
ROOT
ATOM      1  C   UNL     1     -13.258  10.716 -26.395  1.00  0.00     0.017 C 
ATOM      2  C   UNL     1     -13.900   9.292 -26.488  1.00  0.00     0.014 C 
ATOM      3  C   UNL     1     -14.383  11.769 -26.096  1.00  0.00     0.014 C 
ATOM      4  C   UNL     1     -12.209  10.678 -25.247  1.00  0.00     0.030 C 
ATOM      5  C   UNL     1     -12.908   8.111 -26.324  1.00  0.00     0.004 C 
ATOM      6  C   UNL     1     -14.383  12.328 -24.654  1.00  0.00     0.013 C 
ATOM      7  C   UNL     1     -11.875  12.115 -24.799  1.00  0.00    -0.063 C 
ATOM      8  C   UNL     1     -11.017   9.686 -25.536  1.00  0.00    -0.003 C 
ATOM      9  C   UNL     1     -11.434   8.523 -26.503  1.00  0.00    -0.011 C 
ATOM     10  C   UNL     1     -13.002  12.924 -24.160  1.00  0.00    -0.006 C 
ATOM     11  C   UNL     1     -10.628  12.608 -24.813  1.00  0.00    -0.027 C 
ATOM     12  C   UNL     1     -10.450   9.173 -24.190  1.00  0.00     0.008 C 
ATOM     13  C   UNL     1     -10.520   7.283 -26.428  1.00  0.00     0.008 C 
ATOM     14  C   UNL     1     -12.896  12.609 -22.635  1.00  0.00     0.017 C 
ATOM     15  C   UNL     1     -12.866  14.520 -24.408  1.00  0.00    -0.020 C 
ATOM     16  C   UNL     1     -10.319  14.063 -24.804  1.00  0.00     0.032 C 
ATOM     17  C   UNL     1     -11.369  15.022 -24.167  1.00  0.00     0.006 C 
ATOM     18  C   UNL     1     -13.276  14.895 -25.862  1.00  0.00     0.008 C 
ATOM     19  C   UNL     1     -13.847  15.240 -23.419  1.00  0.00     0.012 C 
ATOM     20  C   UNL     1     -11.085  16.555 -24.578  1.00  0.00    -0.025 C 
ATOM     21  C   UNL     1     -13.055  16.369 -26.250  1.00  0.00     0.005 C 
ATOM     22  C   UNL     1     -11.586  16.802 -26.056  1.00  0.00     0.003 C 
ATOM     23  C   UNL     1      -9.547  16.879 -24.546  1.00  0.00     0.010 C 
ATOM     24  C   UNL     1     -11.766  17.493 -23.523  1.00  0.00     0.012 C 
ATOM     25  C   UNL     1     -11.225  18.212 -26.687  1.00  0.00    -0.006 C 
ATOM     26  C   UNL     1      -9.182  18.267 -25.104  1.00  0.00     0.033 C 
ATOM     27  C   UNL     1      -9.686  18.466 -26.541  1.00  0.00     0.120 C 
ATOM     28  C   UNL     1     -11.573  18.222 -28.204  1.00  0.00     0.014 C 
ATOM     29  C   UNL     1     -12.012  19.395 -26.061  1.00  0.00     0.014 C 
ENDROOT
BRANCH   1  30
ATOM     30  C   UNL     1     -12.618  11.112 -27.729  1.00  0.00     0.048 C 
ATOM     31  O   UNL     1     -12.904  10.487 -28.788  1.00  0.00    -0.550 OA
ATOM     32  O   UNL     1     -11.837  12.260 -27.817  1.00  0.00    -0.550 OA
ENDBRANCH   1  30
BRANCH  27  33
ATOM     33  O   UNL     1      -8.948  17.616 -27.392  1.00  0.00    -0.393 OA
ATOM     34  H   UNL     1      -7.992  17.738 -27.166  1.00  0.00     0.210 HD
ENDBRANCH  27  33
TORSDOF 2
ENDMDL
