MODEL 1
REMARK VINA RESULT:    -5.088      0.000      0.000
REMARK INTER + INTRA:         -11.081
REMARK INTER:                  -9.252
REMARK INTRA:                  -1.829
REMARK UNBOUND:                -1.829
REMARK SMILES CCCCCCCCCCCCCC[C@H](C)C(=O)[O-]
REMARK SMILES IDX 9 1 10 2 11 3 12 4 13 5 14 6 15 7 16 8 17 9 18 10 19 11 8 12
REMARK SMILES IDX 7 13 6 14 5 15 4 16 3 17 2 18 1 19
REMARK H PARENT
REMARK Flexibility Score: inf
ROOT
ATOM      1  C   UNL     1      -0.097  48.157   8.266  1.00  0.00     0.000 C 
ENDROOT
BRANCH   1   2
ATOM      2  C   UNL     1       0.125  46.882   7.431  1.00  0.00     0.000 C 
BRANCH   2   3
ATOM      3  C   UNL     1       0.627  45.695   8.267  1.00  0.00     0.000 C 
BRANCH   3   4
ATOM      4  C   UNL     1       0.362  45.926   9.763  1.00  0.00     0.000 C 
BRANCH   4   5
ATOM      5  C   UNL     1       1.576  45.584  10.642  1.00  0.00     0.001 C 
BRANCH   5   6
ATOM      6  C   UNL     1       1.381  44.282  11.440  1.00  0.00     0.009 C 
BRANCH   6   7
ATOM      7  C   UNL     1       2.700  43.503  11.638  1.00  0.00     0.032 C 
ATOM      8  C   UNL     1       3.741  44.307  12.429  1.00  0.00     0.014 C 
BRANCH   7   9
ATOM      9  C   UNL     1       3.272  43.127  10.298  1.00  0.00     0.044 C 
ATOM     10  O   UNL     1       4.472  43.393  10.024  1.00  0.00    -0.550 OA
ATOM     11  O   UNL     1       2.480  42.483   9.354  1.00  0.00    -0.550 OA
ENDBRANCH   7   9
ENDBRANCH   6   7
ENDBRANCH   5   6
ENDBRANCH   4   5
ENDBRANCH   3   4
ENDBRANCH   2   3
ENDBRANCH   1   2
BRANCH   1  12
ATOM     12  C   UNL     1       0.569  49.429   7.711  1.00  0.00     0.000 C 
BRANCH  12  13
ATOM     13  C   UNL     1       1.822  49.845   8.501  1.00  0.00    -0.000 C 
BRANCH  13  14
ATOM     14  C   UNL     1       3.108  49.791   7.658  1.00  0.00    -0.000 C 
BRANCH  14  15
ATOM     15  C   UNL     1       3.775  48.407   7.564  1.00  0.00    -0.000 C 
BRANCH  15  16
ATOM     16  C   UNL     1       3.749  47.634   8.892  1.00  0.00    -0.000 C 
BRANCH  16  17
ATOM     17  C   UNL     1       5.157  47.157   9.277  1.00  0.00    -0.000 C 
BRANCH  17  18
ATOM     18  C   UNL     1       6.252  48.148   8.858  1.00  0.00    -0.003 C 
ATOM     19  C   UNL     1       7.558  47.948   9.628  1.00  0.00     0.004 C 
ENDBRANCH  17  18
ENDBRANCH  16  17
ENDBRANCH  15  16
ENDBRANCH  14  15
ENDBRANCH  13  14
ENDBRANCH  12  13
ENDBRANCH   1  12
TORSDOF 14
ENDMDL
MODEL 2
REMARK VINA RESULT:    -4.975      0.857      1.449
REMARK INTER + INTRA:         -10.877
REMARK INTER:                  -8.998
REMARK INTRA:                  -1.878
REMARK UNBOUND:                -1.829
REMARK SMILES CCCCCCCCCCCCCC[C@H](C)C(=O)[O-]
REMARK SMILES IDX 9 1 10 2 11 3 12 4 13 5 14 6 15 7 16 8 17 9 18 10 19 11 8 12
REMARK SMILES IDX 7 13 6 14 5 15 4 16 3 17 2 18 1 19
REMARK H PARENT
REMARK Flexibility Score: inf
ROOT
ATOM      1  C   UNL     1       0.283  48.970   7.937  1.00  0.00     0.000 C 
ENDROOT
BRANCH   1   2
ATOM      2  C   UNL     1      -0.369  47.602   8.212  1.00  0.00     0.000 C 
BRANCH   2   3
ATOM      3  C   UNL     1       0.271  46.458   7.411  1.00  0.00     0.000 C 
BRANCH   3   4
ATOM      4  C   UNL     1       0.504  45.228   8.302  1.00  0.00     0.000 C 
BRANCH   4   5
ATOM      5  C   UNL     1       0.330  45.535   9.799  1.00  0.00     0.001 C 
BRANCH   5   6
ATOM      6  C   UNL     1       1.640  45.378  10.591  1.00  0.00     0.009 C 
BRANCH   6   7
ATOM      7  C   UNL     1       2.136  43.916  10.637  1.00  0.00     0.032 C 
ATOM      8  C   UNL     1       1.772  43.216  11.953  1.00  0.00     0.014 C 
BRANCH   7   9
ATOM      9  C   UNL     1       3.628  43.881  10.447  1.00  0.00     0.044 C 
ATOM     10  O   UNL     1       4.393  44.269  11.370  1.00  0.00    -0.550 OA
ATOM     11  O   UNL     1       4.173  43.421   9.253  1.00  0.00    -0.550 OA
ENDBRANCH   7   9
ENDBRANCH   6   7
ENDBRANCH   5   6
ENDBRANCH   4   5
ENDBRANCH   3   4
ENDBRANCH   2   3
ENDBRANCH   1   2
BRANCH   1  12
ATOM     12  C   UNL     1       1.570  49.256   8.733  1.00  0.00     0.000 C 
BRANCH  12  13
ATOM     13  C   UNL     1       2.750  49.673   7.837  1.00  0.00    -0.000 C 
BRANCH  13  14
ATOM     14  C   UNL     1       3.757  48.533   7.601  1.00  0.00    -0.000 C 
BRANCH  14  15
ATOM     15  C   UNL     1       3.681  47.370   8.608  1.00  0.00    -0.000 C 
BRANCH  15  16
ATOM     16  C   UNL     1       4.981  47.177   9.404  1.00  0.00    -0.000 C 
BRANCH  16  17
ATOM     17  C   UNL     1       6.104  48.061   8.843  1.00  0.00    -0.000 C 
BRANCH  17  18
ATOM     18  C   UNL     1       7.434  47.871   9.589  1.00  0.00    -0.003 C 
ATOM     19  C   UNL     1       8.210  49.177   9.757  1.00  0.00     0.004 C 
ENDBRANCH  17  18
ENDBRANCH  16  17
ENDBRANCH  15  16
ENDBRANCH  14  15
ENDBRANCH  13  14
ENDBRANCH  12  13
ENDBRANCH   1  12
TORSDOF 14
ENDMDL
MODEL 3
REMARK VINA RESULT:    -4.951      1.044      4.024
REMARK INTER + INTRA:         -10.833
REMARK INTER:                  -8.979
REMARK INTRA:                  -1.854
REMARK UNBOUND:                -1.829
REMARK SMILES CCCCCCCCCCCCCC[C@H](C)C(=O)[O-]
REMARK SMILES IDX 9 1 10 2 11 3 12 4 13 5 14 6 15 7 16 8 17 9 18 10 19 11 8 12
REMARK SMILES IDX 7 13 6 14 5 15 4 16 3 17 2 18 1 19
REMARK H PARENT
REMARK Flexibility Score: inf
ROOT
ATOM      1  C   UNL     1       3.847  48.441   7.757  1.00  0.00     0.000 C 
ENDROOT
BRANCH   1   2
ATOM      2  C   UNL     1       5.257  48.425   8.375  1.00  0.00     0.000 C 
BRANCH   2   3
ATOM      3  C   UNL     1       5.420  47.364   9.473  1.00  0.00     0.000 C 
BRANCH   3   4
ATOM      4  C   UNL     1       4.209  46.419   9.507  1.00  0.00     0.000 C 
BRANCH   4   5
ATOM      5  C   UNL     1       3.546  46.349  10.892  1.00  0.00     0.001 C 
BRANCH   5   6
ATOM      6  C   UNL     1       2.307  45.435  10.910  1.00  0.00     0.009 C 
BRANCH   6   7
ATOM      7  C   UNL     1       2.630  44.005  11.396  1.00  0.00     0.032 C 
ATOM      8  C   UNL     1       3.611  43.996  12.577  1.00  0.00     0.014 C 
BRANCH   7   9
ATOM      9  C   UNL     1       3.206  43.203  10.261  1.00  0.00     0.044 C 
ATOM     10  O   UNL     1       4.403  42.812  10.304  1.00  0.00    -0.550 OA
ATOM     11  O   UNL     1       2.422  42.886   9.157  1.00  0.00    -0.550 OA
ENDBRANCH   7   9
ENDBRANCH   6   7
ENDBRANCH   5   6
ENDBRANCH   4   5
ENDBRANCH   3   4
ENDBRANCH   2   3
ENDBRANCH   1   2
BRANCH   1  12
ATOM     12  C   UNL     1       3.365  49.816   7.257  1.00  0.00     0.000 C 
BRANCH  12  13
ATOM     13  C   UNL     1       2.124  50.327   8.010  1.00  0.00    -0.000 C 
BRANCH  13  14
ATOM     14  C   UNL     1       1.378  49.213   8.766  1.00  0.00    -0.000 C 
BRANCH  14  15
ATOM     15  C   UNL     1       0.127  48.662   8.058  1.00  0.00    -0.000 C 
BRANCH  15  16
ATOM     16  C   UNL     1      -0.201  47.214   8.454  1.00  0.00    -0.000 C 
BRANCH  16  17
ATOM     17  C   UNL     1       0.693  46.222   7.697  1.00  0.00    -0.000 C 
BRANCH  17  18
ATOM     18  C   UNL     1       0.008  44.866   7.467  1.00  0.00    -0.003 C 
ATOM     19  C   UNL     1      -1.034  44.912   6.349  1.00  0.00     0.004 C 
ENDBRANCH  17  18
ENDBRANCH  16  17
ENDBRANCH  15  16
ENDBRANCH  14  15
ENDBRANCH  13  14
ENDBRANCH  12  13
ENDBRANCH   1  12
TORSDOF 14
ENDMDL
MODEL 4
REMARK VINA RESULT:    -4.929      1.671      4.976
REMARK INTER + INTRA:         -10.793
REMARK INTER:                  -8.653
REMARK INTRA:                  -2.140
REMARK UNBOUND:                -1.829
REMARK SMILES CCCCCCCCCCCCCC[C@H](C)C(=O)[O-]
REMARK SMILES IDX 9 1 10 2 11 3 12 4 13 5 14 6 15 7 16 8 17 9 18 10 19 11 8 12
REMARK SMILES IDX 7 13 6 14 5 15 4 16 3 17 2 18 1 19
REMARK H PARENT
REMARK Flexibility Score: inf
ROOT
ATOM      1  C   UNL     1       4.200  48.433   7.770  1.00  0.00     0.000 C 
ENDROOT
BRANCH   1   2
ATOM      2  C   UNL     1       3.938  49.941   7.597  1.00  0.00     0.000 C 
BRANCH   2   3
ATOM      3  C   UNL     1       2.444  50.293   7.569  1.00  0.00     0.000 C 
BRANCH   3   4
ATOM      4  C   UNL     1       1.672  49.495   8.632  1.00  0.00     0.000 C 
BRANCH   4   5
ATOM      5  C   UNL     1       0.394  48.846   8.077  1.00  0.00     0.001 C 
BRANCH   5   6
ATOM      6  C   UNL     1       0.641  47.430   7.524  1.00  0.00     0.009 C 
BRANCH   6   7
ATOM      7  C   UNL     1      -0.576  46.498   7.713  1.00  0.00     0.032 C 
ATOM      8  C   UNL     1      -0.991  46.368   9.185  1.00  0.00     0.014 C 
BRANCH   7   9
ATOM      9  C   UNL     1      -0.261  45.135   7.160  1.00  0.00     0.044 C 
ATOM     10  O   UNL     1       0.477  44.344   7.806  1.00  0.00    -0.550 OA
ATOM     11  O   UNL     1      -0.780  44.738   5.933  1.00  0.00    -0.550 OA
ENDBRANCH   7   9
ENDBRANCH   6   7
ENDBRANCH   5   6
ENDBRANCH   4   5
ENDBRANCH   3   4
ENDBRANCH   2   3
ENDBRANCH   1   2
BRANCH   1  12
ATOM     12  C   UNL     1       5.349  48.072   8.728  1.00  0.00     0.000 C 
BRANCH  12  13
ATOM     13  C   UNL     1       4.977  46.956   9.720  1.00  0.00    -0.000 C 
BRANCH  13  14
ATOM     14  C   UNL     1       3.627  46.290   9.396  1.00  0.00    -0.000 C 
BRANCH  14  15
ATOM     15  C   UNL     1       2.570  46.370  10.512  1.00  0.00    -0.000 C 
BRANCH  15  16
ATOM     16  C   UNL     1       2.026  44.994  10.927  1.00  0.00    -0.000 C 
BRANCH  16  17
ATOM     17  C   UNL     1       3.036  44.249  11.812  1.00  0.00    -0.000 C 
BRANCH  17  18
ATOM     18  C   UNL     1       3.736  43.100  11.072  1.00  0.00    -0.003 C 
ATOM     19  C   UNL     1       2.964  42.633   9.837  1.00  0.00     0.004 C 
ENDBRANCH  17  18
ENDBRANCH  16  17
ENDBRANCH  15  16
ENDBRANCH  14  15
ENDBRANCH  13  14
ENDBRANCH  12  13
ENDBRANCH   1  12
TORSDOF 14
ENDMDL
MODEL 5
REMARK VINA RESULT:    -4.916      2.594      5.192
REMARK INTER + INTRA:         -10.769
REMARK INTER:                  -9.193
REMARK INTRA:                  -1.576
REMARK UNBOUND:                -1.829
REMARK SMILES CCCCCCCCCCCCCC[C@H](C)C(=O)[O-]
REMARK SMILES IDX 9 1 10 2 11 3 12 4 13 5 14 6 15 7 16 8 17 9 18 10 19 11 8 12
REMARK SMILES IDX 7 13 6 14 5 15 4 16 3 17 2 18 1 19
REMARK H PARENT
REMARK Flexibility Score: inf
ROOT
ATOM      1  C   UNL     1       2.279  43.262   9.996  1.00  0.00     0.000 C 
ENDROOT
BRANCH   1   2
ATOM      2  C   UNL     1       1.672  43.885   8.725  1.00  0.00     0.000 C 
BRANCH   2   3
ATOM      3  C   UNL     1       0.764  45.088   9.020  1.00  0.00     0.000 C 
BRANCH   3   4
ATOM      4  C   UNL     1       0.002  45.523   7.758  1.00  0.00     0.000 C 
BRANCH   4   5
ATOM      5  C   UNL     1       0.246  46.996   7.393  1.00  0.00     0.001 C 
BRANCH   5   6
ATOM      6  C   UNL     1       1.688  47.449   7.689  1.00  0.00     0.009 C 
BRANCH   6   7
ATOM      7  C   UNL     1       1.756  48.886   8.251  1.00  0.00     0.032 C 
ATOM      8  C   UNL     1       0.460  49.672   8.006  1.00  0.00     0.014 C 
BRANCH   7   9
ATOM      9  C   UNL     1       2.911  49.620   7.626  1.00  0.00     0.044 C 
ATOM     10  O   UNL     1       3.958  48.998   7.306  1.00  0.00    -0.550 OA
ATOM     11  O   UNL     1       2.830  50.989   7.397  1.00  0.00    -0.550 OA
ENDBRANCH   7   9
ENDBRANCH   6   7
ENDBRANCH   5   6
ENDBRANCH   4   5
ENDBRANCH   3   4
ENDBRANCH   2   3
ENDBRANCH   1   2
BRANCH   1  12
ATOM     12  C   UNL     1       1.826  43.901  11.321  1.00  0.00     0.000 C 
BRANCH  12  13
ATOM     13  C   UNL     1       2.977  44.074  12.329  1.00  0.00    -0.000 C 
BRANCH  13  14
ATOM     14  C   UNL     1       4.109  44.971  11.798  1.00  0.00    -0.000 C 
BRANCH  14  15
ATOM     15  C   UNL     1       3.651  46.216  11.016  1.00  0.00    -0.000 C 
BRANCH  15  16
ATOM     16  C   UNL     1       4.565  46.551   9.827  1.00  0.00    -0.000 C 
BRANCH  16  17
ATOM     17  C   UNL     1       5.801  47.335  10.289  1.00  0.00    -0.000 C 
BRANCH  17  18
ATOM     18  C   UNL     1       6.580  47.954   9.119  1.00  0.00    -0.003 C 
ATOM     19  C   UNL     1       7.880  48.626   9.562  1.00  0.00     0.004 C 
ENDBRANCH  17  18
ENDBRANCH  16  17
ENDBRANCH  15  16
ENDBRANCH  14  15
ENDBRANCH  13  14
ENDBRANCH  12  13
ENDBRANCH   1  12
TORSDOF 14
ENDMDL
MODEL 6
REMARK VINA RESULT:    -4.791      2.568      6.495
REMARK INTER + INTRA:         -10.540
REMARK INTER:                  -8.727
REMARK INTRA:                  -1.813
REMARK UNBOUND:                -1.829
REMARK SMILES CCCCCCCCCCCCCC[C@H](C)C(=O)[O-]
REMARK SMILES IDX 9 1 10 2 11 3 12 4 13 5 14 6 15 7 16 8 17 9 18 10 19 11 8 12
REMARK SMILES IDX 7 13 6 14 5 15 4 16 3 17 2 18 1 19
REMARK H PARENT
REMARK Flexibility Score: inf
ROOT
ATOM      1  C   UNL     1       4.572  45.501  11.885  1.00  0.00     0.000 C 
ENDROOT
BRANCH   1   2
ATOM      2  C   UNL     1       3.761  46.346  10.887  1.00  0.00     0.000 C 
BRANCH   2   3
ATOM      3  C   UNL     1       4.294  46.256   9.449  1.00  0.00     0.000 C 
BRANCH   3   4
ATOM      4  C   UNL     1       5.357  47.335   9.190  1.00  0.00     0.000 C 
BRANCH   4   5
ATOM      5  C   UNL     1       4.838  48.483   8.308  1.00  0.00     0.001 C 
BRANCH   5   6
ATOM      6  C   UNL     1       3.525  48.128   7.587  1.00  0.00     0.009 C 
BRANCH   6   7
ATOM      7  C   UNL     1       2.617  49.359   7.366  1.00  0.00     0.032 C 
ATOM      8  C   UNL     1       3.340  50.679   7.666  1.00  0.00     0.014 C 
BRANCH   7   9
ATOM      9  C   UNL     1       1.394  49.249   8.235  1.00  0.00     0.044 C 
ATOM     10  O   UNL     1       1.445  48.617   9.323  1.00  0.00    -0.550 OA
ATOM     11  O   UNL     1       0.200  49.844   7.844  1.00  0.00    -0.550 OA
ENDBRANCH   7   9
ENDBRANCH   6   7
ENDBRANCH   5   6
ENDBRANCH   4   5
ENDBRANCH   3   4
ENDBRANCH   2   3
ENDBRANCH   1   2
BRANCH   1  12
ATOM     12  C   UNL     1       3.773  44.414  12.627  1.00  0.00     0.000 C 
BRANCH  12  13
ATOM     13  C   UNL     1       3.609  43.123  11.807  1.00  0.00    -0.000 C 
BRANCH  13  14
ATOM     14  C   UNL     1       2.359  43.137  10.908  1.00  0.00    -0.000 C 
BRANCH  14  15
ATOM     15  C   UNL     1       2.615  42.827   9.422  1.00  0.00    -0.000 C 
BRANCH  15  16
ATOM     16  C   UNL     1       1.719  43.639   8.474  1.00  0.00    -0.000 C 
BRANCH  16  17
ATOM     17  C   UNL     1       1.006  44.771   9.228  1.00  0.00    -0.000 C 
BRANCH  17  18
ATOM     18  C   UNL     1       0.161  45.658   8.302  1.00  0.00    -0.003 C 
ATOM     19  C   UNL     1      -0.200  44.966   6.987  1.00  0.00     0.004 C 
ENDBRANCH  17  18
ENDBRANCH  16  17
ENDBRANCH  15  16
ENDBRANCH  14  15
ENDBRANCH  13  14
ENDBRANCH  12  13
ENDBRANCH   1  12
TORSDOF 14
ENDMDL
MODEL 7
REMARK VINA RESULT:    -4.786      2.459      5.007
REMARK INTER + INTRA:         -10.532
REMARK INTER:                  -8.570
REMARK INTRA:                  -1.962
REMARK UNBOUND:                -1.829
REMARK SMILES CCCCCCCCCCCCCC[C@H](C)C(=O)[O-]
REMARK SMILES IDX 9 1 10 2 11 3 12 4 13 5 14 6 15 7 16 8 17 9 18 10 19 11 8 12
REMARK SMILES IDX 7 13 6 14 5 15 4 16 3 17 2 18 1 19
REMARK H PARENT
REMARK Flexibility Score: inf
ROOT
ATOM      1  C   UNL     1       4.060  42.970  10.292  1.00  0.00     0.000 C 
ENDROOT
BRANCH   1   2
ATOM      2  C   UNL     1       3.319  43.481   9.042  1.00  0.00     0.000 C 
BRANCH   2   3
ATOM      3  C   UNL     1       1.808  43.212   9.086  1.00  0.00     0.000 C 
BRANCH   3   4
ATOM      4  C   UNL     1       1.026  44.366   8.438  1.00  0.00     0.000 C 
BRANCH   4   5
ATOM      5  C   UNL     1       0.620  45.451   9.449  1.00  0.00     0.001 C 
BRANCH   5   6
ATOM      6  C   UNL     1       1.451  46.738   9.301  1.00  0.00     0.009 C 
BRANCH   6   7
ATOM      7  C   UNL     1       1.373  47.336   7.878  1.00  0.00     0.032 C 
ATOM      8  C   UNL     1       2.327  48.523   7.690  1.00  0.00     0.014 C 
BRANCH   7   9
ATOM      9  C   UNL     1      -0.037  47.776   7.590  1.00  0.00     0.044 C 
ATOM     10  O   UNL     1      -0.793  47.059   6.883  1.00  0.00    -0.550 OA
ATOM     11  O   UNL     1      -0.514  48.978   8.102  1.00  0.00    -0.550 OA
ENDBRANCH   7   9
ENDBRANCH   6   7
ENDBRANCH   5   6
ENDBRANCH   4   5
ENDBRANCH   3   4
ENDBRANCH   2   3
ENDBRANCH   1   2
BRANCH   1  12
ATOM     12  C   UNL     1       3.337  43.215  11.629  1.00  0.00     0.000 C 
BRANCH  12  13
ATOM     13  C   UNL     1       3.229  44.707  11.989  1.00  0.00    -0.000 C 
BRANCH  13  14
ATOM     14  C   UNL     1       4.538  45.479  11.748  1.00  0.00    -0.000 C 
BRANCH  14  15
ATOM     15  C   UNL     1       4.407  46.738  10.872  1.00  0.00    -0.000 C 
BRANCH  15  16
ATOM     16  C   UNL     1       5.150  46.619   9.531  1.00  0.00    -0.000 C 
BRANCH  16  17
ATOM     17  C   UNL     1       5.866  47.931   9.183  1.00  0.00    -0.000 C 
BRANCH  17  18
ATOM     18  C   UNL     1       7.394  47.815   9.284  1.00  0.00    -0.003 C 
ATOM     19  C   UNL     1       8.059  49.117   9.733  1.00  0.00     0.004 C 
ENDBRANCH  17  18
ENDBRANCH  16  17
ENDBRANCH  15  16
ENDBRANCH  14  15
ENDBRANCH  13  14
ENDBRANCH  12  13
ENDBRANCH   1  12
TORSDOF 14
ENDMDL
MODEL 8
REMARK VINA RESULT:    -4.667      2.346      4.971
REMARK INTER + INTRA:         -10.316
REMARK INTER:                  -8.414
REMARK INTRA:                  -1.902
REMARK UNBOUND:                -1.829
REMARK SMILES CCCCCCCCCCCCCC[C@H](C)C(=O)[O-]
REMARK SMILES IDX 9 1 10 2 11 3 12 4 13 5 14 6 15 7 16 8 17 9 18 10 19 11 8 12
REMARK SMILES IDX 7 13 6 14 5 15 4 16 3 17 2 18 1 19
REMARK H PARENT
REMARK Flexibility Score: inf
ROOT
ATOM      1  C   UNL     1      -0.373  47.178   7.156  1.00  0.00     0.000 C 
ENDROOT
BRANCH   1   2
ATOM      2  C   UNL     1      -0.426  48.357   8.146  1.00  0.00     0.000 C 
BRANCH   2   3
ATOM      3  C   UNL     1       0.953  48.736   8.704  1.00  0.00     0.000 C 
BRANCH   3   4
ATOM      4  C   UNL     1       2.067  48.372   7.710  1.00  0.00     0.000 C 
BRANCH   4   5
ATOM      5  C   UNL     1       3.166  47.501   8.340  1.00  0.00     0.001 C 
BRANCH   5   6
ATOM      6  C   UNL     1       4.549  48.177   8.306  1.00  0.00     0.009 C 
BRANCH   6   7
ATOM      7  C   UNL     1       5.624  47.370   9.066  1.00  0.00     0.032 C 
ATOM      8  C   UNL     1       5.161  46.954  10.469  1.00  0.00     0.014 C 
BRANCH   7   9
ATOM      9  C   UNL     1       6.885  48.183   9.176  1.00  0.00     0.044 C 
ATOM     10  O   UNL     1       7.877  47.732   9.807  1.00  0.00    -0.550 OA
ATOM     11  O   UNL     1       6.964  49.438   8.582  1.00  0.00    -0.550 OA
ENDBRANCH   7   9
ENDBRANCH   6   7
ENDBRANCH   5   6
ENDBRANCH   4   5
ENDBRANCH   3   4
ENDBRANCH   2   3
ENDBRANCH   1   2
BRANCH   1  12
ATOM     12  C   UNL     1      -0.723  45.803   7.754  1.00  0.00     0.000 C 
BRANCH  12  13
ATOM     13  C   UNL     1       0.384  44.756   7.541  1.00  0.00    -0.000 C 
BRANCH  13  14
ATOM     14  C   UNL     1       1.221  44.500   8.807  1.00  0.00    -0.000 C 
BRANCH  14  15
ATOM     15  C   UNL     1       0.756  45.255  10.066  1.00  0.00    -0.000 C 
BRANCH  15  16
ATOM     16  C   UNL     1       1.189  44.571  11.372  1.00  0.00    -0.000 C 
BRANCH  16  17
ATOM     17  C   UNL     1       2.694  44.753  11.614  1.00  0.00    -0.000 C 
BRANCH  17  18
ATOM     18  C   UNL     1       3.466  43.426  11.557  1.00  0.00    -0.003 C 
ATOM     19  C   UNL     1       4.197  43.224  10.229  1.00  0.00     0.004 C 
ENDBRANCH  17  18
ENDBRANCH  16  17
ENDBRANCH  15  16
ENDBRANCH  14  15
ENDBRANCH  13  14
ENDBRANCH  12  13
ENDBRANCH   1  12
TORSDOF 14
ENDMDL
MODEL 9
REMARK VINA RESULT:    -4.500      1.958      4.554
REMARK INTER + INTRA:         -10.012
REMARK INTER:                  -8.465
REMARK INTRA:                  -1.547
REMARK UNBOUND:                -1.829
REMARK SMILES CCCCCCCCCCCCCC[C@H](C)C(=O)[O-]
REMARK SMILES IDX 9 1 10 2 11 3 12 4 13 5 14 6 15 7 16 8 17 9 18 10 19 11 8 12
REMARK SMILES IDX 7 13 6 14 5 15 4 16 3 17 2 18 1 19
REMARK H PARENT
REMARK Flexibility Score: inf
ROOT
ATOM      1  C   UNL     1       1.836  43.252   9.124  1.00  0.00     0.000 C 
ENDROOT
BRANCH   1   2
ATOM      2  C   UNL     1       3.362  43.264   8.917  1.00  0.00     0.000 C 
BRANCH   2   3
ATOM      3  C   UNL     1       4.148  43.047  10.219  1.00  0.00     0.000 C 
BRANCH   3   4
ATOM      4  C   UNL     1       3.235  43.211  11.444  1.00  0.00     0.000 C 
BRANCH   4   5
ATOM      5  C   UNL     1       3.491  44.522  12.206  1.00  0.00     0.001 C 
BRANCH   5   6
ATOM      6  C   UNL     1       4.634  45.350  11.592  1.00  0.00     0.009 C 
BRANCH   6   7
ATOM      7  C   UNL     1       4.140  46.675  10.969  1.00  0.00     0.032 C 
ATOM      8  C   UNL     1       2.659  46.616  10.571  1.00  0.00     0.014 C 
BRANCH   7   9
ATOM      9  C   UNL     1       4.970  47.007   9.760  1.00  0.00     0.044 C 
ATOM     10  O   UNL     1       6.161  47.394   9.896  1.00  0.00    -0.550 OA
ATOM     11  O   UNL     1       4.429  46.890   8.484  1.00  0.00    -0.550 OA
ENDBRANCH   7   9
ENDBRANCH   6   7
ENDBRANCH   5   6
ENDBRANCH   4   5
ENDBRANCH   3   4
ENDBRANCH   2   3
ENDBRANCH   1   2
BRANCH   1  12
ATOM     12  C   UNL     1       1.120  44.577   8.806  1.00  0.00     0.000 C 
BRANCH  12  13
ATOM     13  C   UNL     1       0.346  44.538   7.477  1.00  0.00    -0.000 C 
BRANCH  13  14
ATOM     14  C   UNL     1      -0.526  45.786   7.252  1.00  0.00    -0.000 C 
BRANCH  14  15
ATOM     15  C   UNL     1      -0.546  46.792   8.417  1.00  0.00    -0.000 C 
BRANCH  15  16
ATOM     16  C   UNL     1      -0.212  48.227   7.980  1.00  0.00    -0.000 C 
BRANCH  16  17
ATOM     17  C   UNL     1       1.299  48.399   7.768  1.00  0.00    -0.000 C 
BRANCH  17  18
ATOM     18  C   UNL     1       1.734  49.872   7.784  1.00  0.00    -0.003 C 
ATOM     19  C   UNL     1       3.235  50.048   7.552  1.00  0.00     0.004 C 
ENDBRANCH  17  18
ENDBRANCH  16  17
ENDBRANCH  15  16
ENDBRANCH  14  15
ENDBRANCH  13  14
ENDBRANCH  12  13
ENDBRANCH   1  12
TORSDOF 14
ENDMDL
