MODEL 1
REMARK VINA RESULT:    -5.228      0.000      0.000
REMARK INTER + INTRA:          -9.659
REMARK INTER:                  -7.979
REMARK INTRA:                  -1.680
REMARK UNBOUND:                -1.680
REMARK SMILES CCCCCCCCCC=CC(=O)[O-]
REMARK SMILES IDX 7 1 8 2 9 3 10 4 11 5 12 6 13 7 14 8 6 9 5 10 4 11 3 12 2 13
REMARK SMILES IDX 1 14
REMARK H PARENT
REMARK Flexibility Score: inf
ROOT
ATOM      1  C   UNL     1       7.345  22.669  46.201  1.00  0.00     0.000 C 
ENDROOT
BRANCH   1   2
ATOM      2  C   UNL     1       6.721  21.287  45.970  1.00  0.00     0.004 C 
BRANCH   2   3
ATOM      3  C   UNL     1       5.193  21.382  45.880  1.00  0.00     0.027 C 
BRANCH   3   4
ATOM      4  C   UNL     1       4.762  22.698  45.300  1.00  0.00    -0.025 C 
ATOM      5  C   UNL     1       3.941  22.764  44.247  1.00  0.00     0.020 C 
BRANCH   5   6
ATOM      6  C   UNL     1       3.496  24.043  43.672  1.00  0.00     0.064 C 
ATOM      7  O   UNL     1       2.485  24.645  44.124  1.00  0.00    -0.545 OA
ATOM      8  O   UNL     1       4.202  24.598  42.612  1.00  0.00    -0.545 OA
ENDBRANCH   5   6
ENDBRANCH   3   4
ENDBRANCH   2   3
ENDBRANCH   1   2
BRANCH   1   9
ATOM      9  C   UNL     1       8.406  22.978  45.134  1.00  0.00     0.000 C 
BRANCH   9  10
ATOM     10  C   UNL     1       8.072  24.241  44.317  1.00  0.00     0.000 C 
BRANCH  10  11
ATOM     11  C   UNL     1       7.760  23.952  42.836  1.00  0.00    -0.000 C 
BRANCH  11  12
ATOM     12  C   UNL     1       7.841  22.450  42.478  1.00  0.00    -0.000 C 
BRANCH  12  13
ATOM     13  C   UNL     1       6.552  21.903  41.842  1.00  0.00    -0.003 C 
ATOM     14  C   UNL     1       6.203  20.497  42.325  1.00  0.00     0.004 C 
ENDBRANCH  12  13
ENDBRANCH  11  12
ENDBRANCH  10  11
ENDBRANCH   9  10
ENDBRANCH   1   9
TORSDOF 9
ENDMDL
MODEL 2
REMARK VINA RESULT:    -5.225      0.878      2.602
REMARK INTER + INTRA:          -9.653
REMARK INTER:                  -7.960
REMARK INTRA:                  -1.693
REMARK UNBOUND:                -1.680
REMARK SMILES CCCCCCCCCC=CC(=O)[O-]
REMARK SMILES IDX 7 1 8 2 9 3 10 4 11 5 12 6 13 7 14 8 6 9 5 10 4 11 3 12 2 13
REMARK SMILES IDX 1 14
REMARK H PARENT
REMARK Flexibility Score: inf
ROOT
ATOM      1  C   UNL     1       6.009  20.256  43.651  1.00  0.00     0.000 C 
ENDROOT
BRANCH   1   2
ATOM      2  C   UNL     1       4.687  20.717  44.278  1.00  0.00     0.004 C 
BRANCH   2   3
ATOM      3  C   UNL     1       4.937  21.695  45.433  1.00  0.00     0.027 C 
BRANCH   3   4
ATOM      4  C   UNL     1       4.553  23.096  45.052  1.00  0.00    -0.025 C 
ATOM      5  C   UNL     1       3.756  23.343  44.006  1.00  0.00     0.020 C 
BRANCH   5   6
ATOM      6  C   UNL     1       3.357  24.707  43.624  1.00  0.00     0.064 C 
ATOM      7  O   UNL     1       2.436  25.312  44.236  1.00  0.00    -0.545 OA
ATOM      8  O   UNL     1       4.006  25.339  42.571  1.00  0.00    -0.545 OA
ENDBRANCH   5   6
ENDBRANCH   3   4
ENDBRANCH   2   3
ENDBRANCH   1   2
BRANCH   1   9
ATOM      9  C   UNL     1       5.990  20.450  42.127  1.00  0.00     0.000 C 
BRANCH   9  10
ATOM     10  C   UNL     1       6.131  21.929  41.719  1.00  0.00     0.000 C 
BRANCH  10  11
ATOM     11  C   UNL     1       7.468  22.562  42.150  1.00  0.00    -0.000 C 
BRANCH  11  12
ATOM     12  C   UNL     1       7.303  23.968  42.771  1.00  0.00    -0.000 C 
BRANCH  12  13
ATOM     13  C   UNL     1       8.022  24.129  44.121  1.00  0.00    -0.003 C 
ATOM     14  C   UNL     1       8.487  22.797  44.707  1.00  0.00     0.004 C 
ENDBRANCH  12  13
ENDBRANCH  11  12
ENDBRANCH  10  11
ENDBRANCH   9  10
ENDBRANCH   1   9
TORSDOF 9
ENDMDL
MODEL 3
REMARK VINA RESULT:    -5.222      1.386      3.869
REMARK INTER + INTRA:          -9.650
REMARK INTER:                  -7.973
REMARK INTRA:                  -1.677
REMARK UNBOUND:                -1.680
REMARK SMILES CCCCCCCCCC=CC(=O)[O-]
REMARK SMILES IDX 7 1 8 2 9 3 10 4 11 5 12 6 13 7 14 8 6 9 5 10 4 11 3 12 2 13
REMARK SMILES IDX 1 14
REMARK H PARENT
REMARK Flexibility Score: inf
ROOT
ATOM      1  C   UNL     1       6.559  20.951  42.603  1.00  0.00     0.000 C 
ENDROOT
BRANCH   1   2
ATOM      2  C   UNL     1       7.846  21.724  42.917  1.00  0.00     0.004 C 
BRANCH   2   3
ATOM      3  C   UNL     1       7.700  23.207  42.558  1.00  0.00     0.027 C 
BRANCH   3   4
ATOM      4  C   UNL     1       6.319  23.709  42.870  1.00  0.00    -0.025 C 
ATOM      5  C   UNL     1       6.124  24.842  43.554  1.00  0.00     0.020 C 
BRANCH   5   6
ATOM      6  C   UNL     1       4.781  25.358  43.858  1.00  0.00     0.064 C 
ATOM      7  O   UNL     1       4.187  25.044  44.924  1.00  0.00    -0.545 OA
ATOM      8  O   UNL     1       4.156  26.209  42.956  1.00  0.00    -0.545 OA
ENDBRANCH   5   6
ENDBRANCH   3   4
ENDBRANCH   2   3
ENDBRANCH   1   2
BRANCH   1   9
ATOM      9  C   UNL     1       6.070  20.174  43.835  1.00  0.00     0.000 C 
BRANCH   9  10
ATOM     10  C   UNL     1       4.670  20.621  44.297  1.00  0.00     0.000 C 
BRANCH  10  11
ATOM     11  C   UNL     1       4.676  21.377  45.640  1.00  0.00    -0.000 C 
BRANCH  11  12
ATOM     12  C   UNL     1       6.083  21.481  46.273  1.00  0.00    -0.000 C 
BRANCH  12  13
ATOM     13  C   UNL     1       6.490  22.922  46.625  1.00  0.00    -0.003 C 
ATOM     14  C   UNL     1       7.973  23.195  46.383  1.00  0.00     0.004 C 
ENDBRANCH  12  13
ENDBRANCH  11  12
ENDBRANCH  10  11
ENDBRANCH   9  10
ENDBRANCH   1   9
TORSDOF 9
ENDMDL
MODEL 4
REMARK VINA RESULT:    -5.217      3.191      4.931
REMARK INTER + INTRA:          -9.642
REMARK INTER:                  -7.919
REMARK INTRA:                  -1.723
REMARK UNBOUND:                -1.680
REMARK SMILES CCCCCCCCCC=CC(=O)[O-]
REMARK SMILES IDX 7 1 8 2 9 3 10 4 11 5 12 6 13 7 14 8 6 9 5 10 4 11 3 12 2 13
REMARK SMILES IDX 1 14
REMARK H PARENT
REMARK Flexibility Score: inf
ROOT
ATOM      1  C   UNL     1       6.640  24.053  42.803  1.00  0.00     0.000 C 
ENDROOT
BRANCH   1   2
ATOM      2  C   UNL     1       7.498  22.836  42.435  1.00  0.00     0.004 C 
BRANCH   2   3
ATOM      3  C   UNL     1       6.623  21.608  42.159  1.00  0.00     0.027 C 
BRANCH   3   4
ATOM      4  C   UNL     1       7.026  20.447  43.022  1.00  0.00    -0.025 C 
ATOM      5  C   UNL     1       8.110  20.500  43.804  1.00  0.00     0.020 C 
BRANCH   5   6
ATOM      6  C   UNL     1       8.515  19.380  44.667  1.00  0.00     0.064 C 
ATOM      7  O   UNL     1       8.851  18.268  44.178  1.00  0.00    -0.545 OA
ATOM      8  O   UNL     1       8.529  19.550  46.046  1.00  0.00    -0.545 OA
ENDBRANCH   5   6
ENDBRANCH   3   4
ENDBRANCH   2   3
ENDBRANCH   1   2
BRANCH   1   9
ATOM      9  C   UNL     1       7.075  24.643  44.153  1.00  0.00     0.000 C 
BRANCH   9  10
ATOM     10  C   UNL     1       8.282  23.902  44.759  1.00  0.00     0.000 C 
BRANCH  10  11
ATOM     11  C   UNL     1       8.009  23.323  46.162  1.00  0.00    -0.000 C 
BRANCH  11  12
ATOM     12  C   UNL     1       6.508  23.300  46.529  1.00  0.00    -0.000 C 
BRANCH  12  13
ATOM     13  C   UNL     1       5.871  21.905  46.414  1.00  0.00    -0.003 C 
ATOM     14  C   UNL     1       4.677  21.873  45.463  1.00  0.00     0.004 C 
ENDBRANCH  12  13
ENDBRANCH  11  12
ENDBRANCH  10  11
ENDBRANCH   9  10
ENDBRANCH   1   9
TORSDOF 9
ENDMDL
MODEL 5
REMARK VINA RESULT:    -5.204      3.461      5.268
REMARK INTER + INTRA:          -9.622
REMARK INTER:                  -8.011
REMARK INTRA:                  -1.612
REMARK UNBOUND:                -1.680
REMARK SMILES CCCCCCCCCC=CC(=O)[O-]
REMARK SMILES IDX 7 1 8 2 9 3 10 4 11 5 12 6 13 7 14 8 6 9 5 10 4 11 3 12 2 13
REMARK SMILES IDX 1 14
REMARK H PARENT
REMARK Flexibility Score: inf
ROOT
ATOM      1  C   UNL     1       4.675  21.461  44.371  1.00  0.00     0.000 C 
ENDROOT
BRANCH   1   2
ATOM      2  C   UNL     1       5.162  20.198  43.649  1.00  0.00     0.004 C 
BRANCH   2   3
ATOM      3  C   UNL     1       6.261  20.534  42.634  1.00  0.00     0.027 C 
BRANCH   3   4
ATOM      4  C   UNL     1       7.627  20.293  43.210  1.00  0.00    -0.025 C 
ATOM      5  C   UNL     1       7.818  19.443  44.225  1.00  0.00     0.020 C 
BRANCH   5   6
ATOM      6  C   UNL     1       9.149  19.182  44.795  1.00  0.00     0.064 C 
ATOM      7  O   UNL     1      10.000  18.491  44.175  1.00  0.00    -0.545 OA
ATOM      8  O   UNL     1       9.473  19.708  46.040  1.00  0.00    -0.545 OA
ENDBRANCH   5   6
ENDBRANCH   3   4
ENDBRANCH   2   3
ENDBRANCH   1   2
BRANCH   1   9
ATOM      9  C   UNL     1       4.648  21.247  45.893  1.00  0.00     0.000 C 
BRANCH   9  10
ATOM     10  C   UNL     1       6.025  21.474  46.545  1.00  0.00     0.000 C 
BRANCH  10  11
ATOM     11  C   UNL     1       6.535  22.923  46.420  1.00  0.00    -0.000 C 
BRANCH  11  12
ATOM     12  C   UNL     1       8.061  23.014  46.192  1.00  0.00    -0.000 C 
BRANCH  12  13
ATOM     13  C   UNL     1       8.440  23.500  44.783  1.00  0.00    -0.003 C 
ATOM     14  C   UNL     1       7.267  24.133  44.037  1.00  0.00     0.004 C 
ENDBRANCH  12  13
ENDBRANCH  11  12
ENDBRANCH  10  11
ENDBRANCH   9  10
ENDBRANCH   1   9
TORSDOF 9
ENDMDL
MODEL 6
REMARK VINA RESULT:    -5.199      3.430      4.892
REMARK INTER + INTRA:          -9.614
REMARK INTER:                  -7.968
REMARK INTRA:                  -1.647
REMARK UNBOUND:                -1.680
REMARK SMILES CCCCCCCCCC=CC(=O)[O-]
REMARK SMILES IDX 7 1 8 2 9 3 10 4 11 5 12 6 13 7 14 8 6 9 5 10 4 11 3 12 2 13
REMARK SMILES IDX 1 14
REMARK H PARENT
REMARK Flexibility Score: inf
ROOT
ATOM      1  C   UNL     1       7.536  24.351  43.907  1.00  0.00     0.000 C 
ENDROOT
BRANCH   1   2
ATOM      2  C   UNL     1       8.518  23.924  45.005  1.00  0.00     0.004 C 
BRANCH   2   3
ATOM      3  C   UNL     1       7.848  22.970  46.002  1.00  0.00     0.027 C 
BRANCH   3   4
ATOM      4  C   UNL     1       8.252  21.546  45.749  1.00  0.00    -0.025 C 
ATOM      5  C   UNL     1       9.435  21.241  45.202  1.00  0.00     0.020 C 
BRANCH   5   6
ATOM      6  C   UNL     1       9.856  19.853  44.959  1.00  0.00     0.064 C 
ATOM      7  O   UNL     1       9.351  19.172  44.026  1.00  0.00    -0.545 OA
ATOM      8  O   UNL     1      10.829  19.282  45.769  1.00  0.00    -0.545 OA
ENDBRANCH   5   6
ENDBRANCH   3   4
ENDBRANCH   2   3
ENDBRANCH   1   2
BRANCH   1   9
ATOM      9  C   UNL     1       8.109  24.054  42.513  1.00  0.00     0.000 C 
BRANCH   9  10
ATOM     10  C   UNL     1       8.062  22.555  42.162  1.00  0.00     0.000 C 
BRANCH  10  11
ATOM     11  C   UNL     1       6.630  22.002  42.015  1.00  0.00    -0.000 C 
BRANCH  11  12
ATOM     12  C   UNL     1       6.470  20.572  42.579  1.00  0.00    -0.000 C 
BRANCH  12  13
ATOM     13  C   UNL     1       5.355  20.452  43.632  1.00  0.00    -0.003 C 
ATOM     14  C   UNL     1       4.800  21.806  44.065  1.00  0.00     0.004 C 
ENDBRANCH  12  13
ENDBRANCH  11  12
ENDBRANCH  10  11
ENDBRANCH   9  10
ENDBRANCH   1   9
TORSDOF 9
ENDMDL
MODEL 7
REMARK VINA RESULT:    -5.160      3.616      5.152
REMARK INTER + INTRA:          -9.555
REMARK INTER:                  -7.941
REMARK INTRA:                  -1.614
REMARK UNBOUND:                -1.680
REMARK SMILES CCCCCCCCCC=CC(=O)[O-]
REMARK SMILES IDX 7 1 8 2 9 3 10 4 11 5 12 6 13 7 14 8 6 9 5 10 4 11 3 12 2 13
REMARK SMILES IDX 1 14
REMARK H PARENT
REMARK Flexibility Score: inf
ROOT
ATOM      1  C   UNL     1       5.992  21.835  46.678  1.00  0.00     0.000 C 
ENDROOT
BRANCH   1   2
ATOM      2  C   UNL     1       6.696  22.981  45.940  1.00  0.00     0.004 C 
BRANCH   2   3
ATOM      3  C   UNL     1       8.207  22.733  45.851  1.00  0.00     0.027 C 
BRANCH   3   4
ATOM      4  C   UNL     1       8.512  21.267  45.746  1.00  0.00    -0.025 C 
ATOM      5  C   UNL     1       9.632  20.826  45.161  1.00  0.00     0.020 C 
BRANCH   5   6
ATOM      6  C   UNL     1       9.957  19.395  45.060  1.00  0.00     0.064 C 
ATOM      7  O   UNL     1      10.909  18.894  45.716  1.00  0.00    -0.545 OA
ATOM      8  O   UNL     1       9.201  18.580  44.226  1.00  0.00    -0.545 OA
ENDBRANCH   5   6
ENDBRANCH   3   4
ENDBRANCH   2   3
ENDBRANCH   1   2
BRANCH   1   9
ATOM      9  C   UNL     1       4.782  21.329  45.878  1.00  0.00     0.000 C 
BRANCH   9  10
ATOM     10  C   UNL     1       4.925  21.583  44.366  1.00  0.00     0.000 C 
BRANCH  10  11
ATOM     11  C   UNL     1       5.319  20.327  43.564  1.00  0.00    -0.000 C 
BRANCH  11  12
ATOM     12  C   UNL     1       6.583  20.528  42.699  1.00  0.00    -0.000 C 
BRANCH  12  13
ATOM     13  C   UNL     1       6.721  21.954  42.140  1.00  0.00    -0.003 C 
ATOM     14  C   UNL     1       8.161  22.463  42.161  1.00  0.00     0.004 C 
ENDBRANCH  12  13
ENDBRANCH  11  12
ENDBRANCH  10  11
ENDBRANCH   9  10
ENDBRANCH   1   9
TORSDOF 9
ENDMDL
MODEL 8
REMARK VINA RESULT:    -5.156      0.981      2.162
REMARK INTER + INTRA:          -9.549
REMARK INTER:                  -7.827
REMARK INTRA:                  -1.722
REMARK UNBOUND:                -1.680
REMARK SMILES CCCCCCCCCC=CC(=O)[O-]
REMARK SMILES IDX 7 1 8 2 9 3 10 4 11 5 12 6 13 7 14 8 6 9 5 10 4 11 3 12 2 13
REMARK SMILES IDX 1 14
REMARK H PARENT
REMARK Flexibility Score: inf
ROOT
ATOM      1  C   UNL     1       8.578  21.968  45.791  1.00  0.00     0.000 C 
ENDROOT
BRANCH   1   2
ATOM      2  C   UNL     1       7.728  23.138  46.300  1.00  0.00     0.004 C 
BRANCH   2   3
ATOM      3  C   UNL     1       6.244  22.755  46.361  1.00  0.00     0.027 C 
BRANCH   3   4
ATOM      4  C   UNL     1       5.434  23.558  45.383  1.00  0.00    -0.025 C 
ATOM      5  C   UNL     1       4.384  23.030  44.745  1.00  0.00     0.020 C 
BRANCH   5   6
ATOM      6  C   UNL     1       3.569  23.803  43.794  1.00  0.00     0.064 C 
ATOM      7  O   UNL     1       2.415  24.205  44.101  1.00  0.00    -0.545 OA
ATOM      8  O   UNL     1       4.081  24.095  42.536  1.00  0.00    -0.545 OA
ENDBRANCH   5   6
ENDBRANCH   3   4
ENDBRANCH   2   3
ENDBRANCH   1   2
BRANCH   1   9
ATOM      9  C   UNL     1       7.695  20.762  45.434  1.00  0.00     0.000 C 
BRANCH   9  10
ATOM     10  C   UNL     1       7.858  20.326  43.965  1.00  0.00     0.000 C 
BRANCH  10  11
ATOM     11  C   UNL     1       6.570  20.477  43.131  1.00  0.00    -0.000 C 
BRANCH  11  12
ATOM     12  C   UNL     1       6.628  21.654  42.132  1.00  0.00    -0.000 C 
BRANCH  12  13
ATOM     13  C   UNL     1       7.959  22.423  42.168  1.00  0.00    -0.003 C 
ATOM     14  C   UNL     1       7.788  23.888  42.564  1.00  0.00     0.004 C 
ENDBRANCH  12  13
ENDBRANCH  11  12
ENDBRANCH  10  11
ENDBRANCH   9  10
ENDBRANCH   1   9
TORSDOF 9
ENDMDL
MODEL 9
REMARK VINA RESULT:    -5.077      1.320      2.901
REMARK INTER + INTRA:          -9.428
REMARK INTER:                  -7.764
REMARK INTRA:                  -1.664
REMARK UNBOUND:                -1.680
REMARK SMILES CCCCCCCCCC=CC(=O)[O-]
REMARK SMILES IDX 7 1 8 2 9 3 10 4 11 5 12 6 13 7 14 8 6 9 5 10 4 11 3 12 2 13
REMARK SMILES IDX 1 14
REMARK H PARENT
REMARK Flexibility Score: inf
ROOT
ATOM      1  C   UNL     1       8.446  23.093  45.292  1.00  0.00     0.000 C 
ENDROOT
BRANCH   1   2
ATOM      2  C   UNL     1       8.449  24.296  44.340  1.00  0.00     0.004 C 
BRANCH   2   3
ATOM      3  C   UNL     1       7.952  23.895  42.946  1.00  0.00     0.027 C 
BRANCH   3   4
ATOM      4  C   UNL     1       6.458  24.012  42.846  1.00  0.00    -0.025 C 
ATOM      5  C   UNL     1       5.778  24.917  43.559  1.00  0.00     0.020 C 
BRANCH   5   6
ATOM      6  C   UNL     1       4.316  25.057  43.466  1.00  0.00     0.064 C 
ATOM      7  O   UNL     1       3.546  24.146  43.871  1.00  0.00    -0.545 OA
ATOM      8  O   UNL     1       3.775  26.216  42.922  1.00  0.00    -0.545 OA
ENDBRANCH   5   6
ENDBRANCH   3   4
ENDBRANCH   2   3
ENDBRANCH   1   2
BRANCH   1   9
ATOM      9  C   UNL     1       7.590  23.379  46.535  1.00  0.00     0.000 C 
BRANCH   9  10
ATOM     10  C   UNL     1       6.287  22.558  46.556  1.00  0.00     0.000 C 
BRANCH  10  11
ATOM     11  C   UNL     1       6.365  21.258  45.732  1.00  0.00    -0.000 C 
BRANCH  11  12
ATOM     12  C   UNL     1       5.156  21.062  44.789  1.00  0.00    -0.000 C 
BRANCH  12  13
ATOM     13  C   UNL     1       5.533  20.447  43.431  1.00  0.00    -0.003 C 
ATOM     14  C   UNL     1       7.040  20.273  43.256  1.00  0.00     0.004 C 
ENDBRANCH  12  13
ENDBRANCH  11  12
ENDBRANCH  10  11
ENDBRANCH   9  10
ENDBRANCH   1   9
TORSDOF 9
ENDMDL
