MODEL 1
REMARK VINA RESULT:    -4.091      0.000      0.000
REMARK INTER + INTRA:          -6.413
REMARK INTER:                  -6.004
REMARK INTRA:                  -0.409
REMARK UNBOUND:                -0.409
REMARK SMILES O=C([O-])CCCCCCCC(=O)[O-]
REMARK SMILES IDX 7 1 6 2 5 3 4 4 2 5 1 6 3 7 8 8 9 9 10 10 11 11 12 12 13 13
REMARK H PARENT
REMARK Flexibility Score: inf
ROOT
ATOM      1  C   UNL     1      38.125  -7.926   9.989  1.00  0.00     0.000 C 
ENDROOT
BRANCH   1   2
ATOM      2  C   UNL     1      38.640  -6.569   9.482  1.00  0.00     0.000 C 
BRANCH   2   3
ATOM      3  C   UNL     1      40.171  -6.449   9.566  1.00  0.00     0.006 C 
BRANCH   3   4
ATOM      4  C   UNL     1      40.871  -7.793   9.318  1.00  0.00     0.053 C 
BRANCH   4   5
ATOM      5  C   UNL     1      41.601  -7.810   8.011  1.00  0.00     0.041 C 
ATOM      6  O   UNL     1      41.084  -7.285   6.990  1.00  0.00    -0.550 OA
ATOM      7  O   UNL     1      42.839  -8.433   7.912  1.00  0.00    -0.550 OA
ENDBRANCH   4   5
ENDBRANCH   3   4
ENDBRANCH   2   3
ENDBRANCH   1   2
BRANCH   1   8
ATOM      8  C   UNL     1      36.932  -7.789  10.945  1.00  0.00     0.000 C 
BRANCH   8   9
ATOM      9  C   UNL     1      37.388  -7.888  12.408  1.00  0.00     0.006 C 
BRANCH   9  10
ATOM     10  C   UNL     1      37.057  -6.620  13.208  1.00  0.00     0.053 C 
BRANCH  10  11
ATOM     11  C   UNL     1      35.857  -6.811  14.083  1.00  0.00     0.041 C 
ATOM     12  O   UNL     1      35.913  -6.517  15.306  1.00  0.00    -0.550 OA
ATOM     13  O   UNL     1      34.668  -7.281  13.542  1.00  0.00    -0.550 OA
ENDBRANCH  10  11
ENDBRANCH   9  10
ENDBRANCH   8   9
ENDBRANCH   1   8
TORSDOF 8
ENDMDL
MODEL 2
REMARK VINA RESULT:    -4.081      0.718      7.122
REMARK INTER + INTRA:          -6.399
REMARK INTER:                  -6.047
REMARK INTRA:                  -0.352
REMARK UNBOUND:                -0.409
REMARK SMILES O=C([O-])CCCCCCCC(=O)[O-]
REMARK SMILES IDX 7 1 6 2 5 3 4 4 2 5 1 6 3 7 8 8 9 9 10 10 11 11 12 12 13 13
REMARK H PARENT
REMARK Flexibility Score: inf
ROOT
ATOM      1  C   UNL     1      37.967  -7.439  10.132  1.00  0.00     0.000 C 
ENDROOT
BRANCH   1   2
ATOM      2  C   UNL     1      36.842  -7.733  11.138  1.00  0.00     0.000 C 
BRANCH   2   3
ATOM      3  C   UNL     1      37.335  -7.730  12.594  1.00  0.00     0.006 C 
BRANCH   3   4
ATOM      4  C   UNL     1      36.837  -6.503  13.371  1.00  0.00     0.053 C 
BRANCH   4   5
ATOM      5  C   UNL     1      35.665  -6.832  14.243  1.00  0.00     0.041 C 
ATOM      6  O   UNL     1      34.601  -7.272  13.734  1.00  0.00    -0.550 OA
ATOM      7  O   UNL     1      35.737  -6.624  15.615  1.00  0.00    -0.550 OA
ENDBRANCH   4   5
ENDBRANCH   3   4
ENDBRANCH   2   3
ENDBRANCH   1   2
BRANCH   1   8
ATOM      8  C   UNL     1      39.357  -7.427  10.785  1.00  0.00     0.000 C 
BRANCH   8   9
ATOM      9  C   UNL     1      40.401  -6.813   9.839  1.00  0.00     0.006 C 
BRANCH   9  10
ATOM     10  C   UNL     1      40.017  -6.979   8.362  1.00  0.00     0.053 C 
BRANCH  10  11
ATOM     11  C   UNL     1      41.157  -7.505   7.547  1.00  0.00     0.041 C 
ATOM     12  O   UNL     1      41.123  -7.432   6.290  1.00  0.00    -0.550 OA
ATOM     13  O   UNL     1      42.272  -8.046   8.174  1.00  0.00    -0.550 OA
ENDBRANCH  10  11
ENDBRANCH   9  10
ENDBRANCH   8   9
ENDBRANCH   1   8
TORSDOF 8
ENDMDL
MODEL 3
REMARK VINA RESULT:    -4.079      1.135      7.024
REMARK INTER + INTRA:          -6.396
REMARK INTER:                  -5.953
REMARK INTRA:                  -0.443
REMARK UNBOUND:                -0.409
REMARK SMILES O=C([O-])CCCCCCCC(=O)[O-]
REMARK SMILES IDX 7 1 6 2 5 3 4 4 2 5 1 6 3 7 8 8 9 9 10 10 11 11 12 12 13 13
REMARK H PARENT
REMARK Flexibility Score: inf
ROOT
ATOM      1  C   UNL     1      37.022  -7.734  11.332  1.00  0.00     0.000 C 
ENDROOT
BRANCH   1   2
ATOM      2  C   UNL     1      37.648  -7.398  12.695  1.00  0.00     0.000 C 
BRANCH   2   3
ATOM      3  C   UNL     1      36.734  -6.516  13.563  1.00  0.00     0.006 C 
BRANCH   3   4
ATOM      4  C   UNL     1      35.247  -6.812  13.323  1.00  0.00     0.053 C 
BRANCH   4   5
ATOM      5  C   UNL     1      34.697  -7.769  14.335  1.00  0.00     0.041 C 
ATOM      6  O   UNL     1      34.315  -8.915  13.982  1.00  0.00    -0.550 OA
ATOM      7  O   UNL     1      34.578  -7.383  15.665  1.00  0.00    -0.550 OA
ENDBRANCH   4   5
ENDBRANCH   3   4
ENDBRANCH   2   3
ENDBRANCH   1   2
BRANCH   1   8
ATOM      8  C   UNL     1      38.024  -7.613  10.174  1.00  0.00     0.000 C 
BRANCH   8   9
ATOM      9  C   UNL     1      39.450  -7.397  10.703  1.00  0.00     0.006 C 
BRANCH   9  10
ATOM     10  C   UNL     1      40.313  -6.580   9.732  1.00  0.00     0.053 C 
BRANCH  10  11
ATOM     11  C   UNL     1      40.706  -7.380   8.528  1.00  0.00     0.041 C 
ATOM     12  O   UNL     1      41.387  -8.431   8.662  1.00  0.00    -0.550 OA
ATOM     13  O   UNL     1      40.292  -6.985   7.263  1.00  0.00    -0.550 OA
ENDBRANCH  10  11
ENDBRANCH   9  10
ENDBRANCH   8   9
ENDBRANCH   1   8
TORSDOF 8
ENDMDL
MODEL 4
REMARK VINA RESULT:    -4.070      1.000      1.654
REMARK INTER + INTRA:          -6.381
REMARK INTER:                  -5.987
REMARK INTRA:                  -0.394
REMARK UNBOUND:                -0.409
REMARK SMILES O=C([O-])CCCCCCCC(=O)[O-]
REMARK SMILES IDX 7 1 6 2 5 3 4 4 2 5 1 6 3 7 8 8 9 9 10 10 11 11 12 12 13 13
REMARK H PARENT
REMARK Flexibility Score: inf
ROOT
ATOM      1  C   UNL     1      37.024  -7.710  11.082  1.00  0.00     0.000 C 
ENDROOT
BRANCH   1   2
ATOM      2  C   UNL     1      38.048  -7.400   9.977  1.00  0.00     0.000 C 
BRANCH   2   3
ATOM      3  C   UNL     1      39.496  -7.401  10.496  1.00  0.00     0.006 C 
BRANCH   3   4
ATOM      4  C   UNL     1      40.433  -6.582   9.598  1.00  0.00     0.053 C 
BRANCH   4   5
ATOM      5  C   UNL     1      40.776  -7.312   8.335  1.00  0.00     0.041 C 
ATOM      6  O   UNL     1      41.552  -8.303   8.368  1.00  0.00    -0.550 OA
ATOM      7  O   UNL     1      40.264  -6.878   7.119  1.00  0.00    -0.550 OA
ENDBRANCH   4   5
ENDBRANCH   3   4
ENDBRANCH   2   3
ENDBRANCH   1   2
BRANCH   1   8
ATOM      8  C   UNL     1      37.632  -7.637  12.491  1.00  0.00     0.000 C 
BRANCH   8   9
ATOM      9  C   UNL     1      36.871  -6.628  13.365  1.00  0.00     0.006 C 
BRANCH   9  10
ATOM     10  C   UNL     1      35.349  -6.760  13.213  1.00  0.00     0.053 C 
BRANCH  10  11
ATOM     11  C   UNL     1      34.727  -7.427  14.400  1.00  0.00     0.041 C 
ATOM     12  O   UNL     1      35.117  -7.142  15.563  1.00  0.00    -0.550 OA
ATOM     13  O   UNL     1      33.692  -8.336  14.226  1.00  0.00    -0.550 OA
ENDBRANCH  10  11
ENDBRANCH   9  10
ENDBRANCH   8   9
ENDBRANCH   1   8
TORSDOF 8
ENDMDL
MODEL 5
REMARK VINA RESULT:    -3.972      0.857      7.056
REMARK INTER + INTRA:          -6.238
REMARK INTER:                  -5.897
REMARK INTRA:                  -0.340
REMARK UNBOUND:                -0.409
REMARK SMILES O=C([O-])CCCCCCCC(=O)[O-]
REMARK SMILES IDX 7 1 6 2 5 3 4 4 2 5 1 6 3 7 8 8 9 9 10 10 11 11 12 12 13 13
REMARK H PARENT
REMARK Flexibility Score: inf
ROOT
ATOM      1  C   UNL     1      38.934  -7.317  10.411  1.00  0.00     0.000 C 
ENDROOT
BRANCH   1   2
ATOM      2  C   UNL     1      37.740  -8.243  10.699  1.00  0.00     0.000 C 
BRANCH   2   3
ATOM      3  C   UNL     1      37.427  -8.352  12.201  1.00  0.00     0.006 C 
BRANCH   3   4
ATOM      4  C   UNL     1      37.506  -6.993  12.909  1.00  0.00     0.053 C 
BRANCH   4   5
ATOM      5  C   UNL     1      36.192  -6.598  13.509  1.00  0.00     0.041 C 
ATOM      6  O   UNL     1      36.129  -6.233  14.713  1.00  0.00    -0.550 OA
ATOM      7  O   UNL     1      35.031  -6.664  12.749  1.00  0.00    -0.550 OA
ENDBRANCH   4   5
ENDBRANCH   3   4
ENDBRANCH   2   3
ENDBRANCH   1   2
BRANCH   1   8
ATOM      8  C   UNL     1      38.759  -6.510   9.116  1.00  0.00     0.000 C 
BRANCH   8   9
ATOM      9  C   UNL     1      39.806  -6.920   8.069  1.00  0.00     0.006 C 
BRANCH   9  10
ATOM     10  C   UNL     1      40.979  -7.691   8.691  1.00  0.00     0.053 C 
BRANCH  10  11
ATOM     11  C   UNL     1      42.107  -7.864   7.721  1.00  0.00     0.041 C 
ATOM     12  O   UNL     1      43.174  -8.424   8.086  1.00  0.00    -0.550 OA
ATOM     13  O   UNL     1      41.968  -7.438   6.407  1.00  0.00    -0.550 OA
ENDBRANCH  10  11
ENDBRANCH   9  10
ENDBRANCH   8   9
ENDBRANCH   1   8
TORSDOF 8
ENDMDL
MODEL 6
REMARK VINA RESULT:    -3.924      1.990      3.069
REMARK INTER + INTRA:          -6.168
REMARK INTER:                  -5.852
REMARK INTRA:                  -0.316
REMARK UNBOUND:                -0.409
REMARK SMILES O=C([O-])CCCCCCCC(=O)[O-]
REMARK SMILES IDX 7 1 6 2 5 3 4 4 2 5 1 6 3 7 8 8 9 9 10 10 11 11 12 12 13 13
REMARK H PARENT
REMARK Flexibility Score: inf
ROOT
ATOM      1  C   UNL     1      36.544  -7.273  12.396  1.00  0.00     0.000 C 
ENDROOT
BRANCH   1   2
ATOM      2  C   UNL     1      37.700  -8.286  12.363  1.00  0.00     0.000 C 
BRANCH   2   3
ATOM      3  C   UNL     1      38.859  -7.831  11.460  1.00  0.00     0.006 C 
BRANCH   3   4
ATOM      4  C   UNL     1      38.360  -7.180  10.162  1.00  0.00     0.053 C 
BRANCH   4   5
ATOM      5  C   UNL     1      39.485  -6.615   9.352  1.00  0.00     0.041 C 
ATOM      6  O   UNL     1      40.623  -6.460   9.869  1.00  0.00    -0.550 OA
ATOM      7  O   UNL     1      39.270  -6.232   8.034  1.00  0.00    -0.550 OA
ENDBRANCH   4   5
ENDBRANCH   3   4
ENDBRANCH   2   3
ENDBRANCH   1   2
BRANCH   1   8
ATOM      8  C   UNL     1      36.582  -6.371  13.639  1.00  0.00     0.000 C 
BRANCH   8   9
ATOM      9  C   UNL     1      35.733  -6.964  14.773  1.00  0.00     0.006 C 
BRANCH   9  10
ATOM     10  C   UNL     1      34.482  -7.682  14.248  1.00  0.00     0.053 C 
BRANCH  10  11
ATOM     11  C   UNL     1      33.439  -7.832  15.312  1.00  0.00     0.041 C 
ATOM     12  O   UNL     1      33.679  -7.459  16.490  1.00  0.00    -0.550 OA
ATOM     13  O   UNL     1      32.190  -8.350  14.995  1.00  0.00    -0.550 OA
ENDBRANCH  10  11
ENDBRANCH   9  10
ENDBRANCH   8   9
ENDBRANCH   1   8
TORSDOF 8
ENDMDL
MODEL 7
REMARK VINA RESULT:    -3.914      1.747      2.579
REMARK INTER + INTRA:          -6.154
REMARK INTER:                  -5.527
REMARK INTRA:                  -0.627
REMARK UNBOUND:                -0.409
REMARK SMILES O=C([O-])CCCCCCCC(=O)[O-]
REMARK SMILES IDX 7 1 6 2 5 3 4 4 2 5 1 6 3 7 8 8 9 9 10 10 11 11 12 12 13 13
REMARK H PARENT
REMARK Flexibility Score: inf
ROOT
ATOM      1  C   UNL     1      36.924  -9.500  11.059  1.00  0.00     0.000 C 
ENDROOT
BRANCH   1   2
ATOM      2  C   UNL     1      38.268  -8.883  11.482  1.00  0.00     0.000 C 
BRANCH   2   3
ATOM      3  C   UNL     1      38.332  -7.369  11.219  1.00  0.00     0.006 C 
BRANCH   3   4
ATOM      4  C   UNL     1      38.146  -7.032   9.733  1.00  0.00     0.053 C 
BRANCH   4   5
ATOM      5  C   UNL     1      39.429  -6.597   9.094  1.00  0.00     0.041 C 
ATOM      6  O   UNL     1      39.476  -6.378   7.855  1.00  0.00    -0.550 OA
ATOM      7  O   UNL     1      40.580  -6.465   9.861  1.00  0.00    -0.550 OA
ENDBRANCH   4   5
ENDBRANCH   3   4
ENDBRANCH   2   3
ENDBRANCH   1   2
BRANCH   1   8
ATOM      8  C   UNL     1      36.185 -10.169  12.227  1.00  0.00     0.000 C 
BRANCH   8   9
ATOM      9  C   UNL     1      36.556  -9.505  13.562  1.00  0.00     0.006 C 
BRANCH   9  10
ATOM     10  C   UNL     1      35.418  -8.635  14.115  1.00  0.00     0.053 C 
BRANCH  10  11
ATOM     11  C   UNL     1      35.606  -7.190  13.773  1.00  0.00     0.041 C 
ATOM     12  O   UNL     1      35.090  -6.715  12.727  1.00  0.00    -0.550 OA
ATOM     13  O   UNL     1      36.322  -6.359  14.625  1.00  0.00    -0.550 OA
ENDBRANCH  10  11
ENDBRANCH   9  10
ENDBRANCH   8   9
ENDBRANCH   1   8
TORSDOF 8
ENDMDL
MODEL 8
REMARK VINA RESULT:    -3.906      1.355      1.954
REMARK INTER + INTRA:          -6.142
REMARK INTER:                  -5.710
REMARK INTRA:                  -0.432
REMARK UNBOUND:                -0.409
REMARK SMILES O=C([O-])CCCCCCCC(=O)[O-]
REMARK SMILES IDX 7 1 6 2 5 3 4 4 2 5 1 6 3 7 8 8 9 9 10 10 11 11 12 12 13 13
REMARK H PARENT
REMARK Flexibility Score: inf
ROOT
ATOM      1  C   UNL     1      40.027  -7.137  10.330  1.00  0.00     0.000 C 
ENDROOT
BRANCH   1   2
ATOM      2  C   UNL     1      39.480  -6.482   9.051  1.00  0.00     0.000 C 
BRANCH   2   3
ATOM      3  C   UNL     1      40.139  -7.035   7.776  1.00  0.00     0.006 C 
BRANCH   3   4
ATOM      4  C   UNL     1      41.150  -8.148   8.084  1.00  0.00     0.053 C 
BRANCH   4   5
ATOM      5  C   UNL     1      42.453  -7.931   7.378  1.00  0.00     0.041 C 
ATOM      6  O   UNL     1      43.535  -8.267   7.927  1.00  0.00    -0.550 OA
ATOM      7  O   UNL     1      42.474  -7.328   6.126  1.00  0.00    -0.550 OA
ENDBRANCH   4   5
ENDBRANCH   3   4
ENDBRANCH   2   3
ENDBRANCH   1   2
BRANCH   1   8
ATOM      8  C   UNL     1      38.923  -7.470  11.345  1.00  0.00     0.000 C 
BRANCH   8   9
ATOM      9  C   UNL     1      37.579  -7.701  10.636  1.00  0.00     0.006 C 
BRANCH   9  10
ATOM     10  C   UNL     1      36.656  -8.635  11.431  1.00  0.00     0.053 C 
BRANCH  10  11
ATOM     11  C   UNL     1      36.061  -7.948  12.621  1.00  0.00     0.041 C 
ATOM     12  O   UNL     1      36.394  -8.297  13.785  1.00  0.00    -0.550 OA
ATOM     13  O   UNL     1      35.166  -6.901  12.447  1.00  0.00    -0.550 OA
ENDBRANCH  10  11
ENDBRANCH   9  10
ENDBRANCH   8   9
ENDBRANCH   1   8
TORSDOF 8
ENDMDL
MODEL 9
REMARK VINA RESULT:    -3.898      1.714      6.063
REMARK INTER + INTRA:          -6.130
REMARK INTER:                  -5.435
REMARK INTRA:                  -0.695
REMARK UNBOUND:                -0.409
REMARK SMILES O=C([O-])CCCCCCCC(=O)[O-]
REMARK SMILES IDX 7 1 6 2 5 3 4 4 2 5 1 6 3 7 8 8 9 9 10 10 11 11 12 12 13 13
REMARK H PARENT
REMARK Flexibility Score: inf
ROOT
ATOM      1  C   UNL     1      37.882  -9.759  10.505  1.00  0.00     0.000 C 
ENDROOT
BRANCH   1   2
ATOM      2  C   UNL     1      36.812  -8.802  11.057  1.00  0.00     0.000 C 
BRANCH   2   3
ATOM      3  C   UNL     1      36.075  -9.378  12.278  1.00  0.00     0.006 C 
BRANCH   3   4
ATOM      4  C   UNL     1      36.415  -8.621  13.569  1.00  0.00     0.053 C 
BRANCH   4   5
ATOM      5  C   UNL     1      36.129  -7.155  13.448  1.00  0.00     0.041 C 
ATOM      6  O   UNL     1      34.973  -6.758  13.149  1.00  0.00    -0.550 OA
ATOM      7  O   UNL     1      37.148  -6.230  13.636  1.00  0.00    -0.550 OA
ENDBRANCH   4   5
ENDBRANCH   3   4
ENDBRANCH   2   3
ENDBRANCH   1   2
BRANCH   1   8
ATOM      8  C   UNL     1      39.312  -9.266  10.769  1.00  0.00     0.000 C 
BRANCH   8   9
ATOM      9  C   UNL     1      39.317  -7.776  11.143  1.00  0.00     0.006 C 
BRANCH   9  10
ATOM     10  C   UNL     1      40.216  -6.947  10.216  1.00  0.00     0.053 C 
BRANCH  10  11
ATOM     11  C   UNL     1      39.615  -6.788   8.854  1.00  0.00     0.041 C 
ATOM     12  O   UNL     1      40.269  -7.120   7.831  1.00  0.00    -0.550 OA
ATOM     13  O   UNL     1      38.320  -6.305   8.716  1.00  0.00    -0.550 OA
ENDBRANCH  10  11
ENDBRANCH   9  10
ENDBRANCH   8   9
ENDBRANCH   1   8
TORSDOF 8
ENDMDL
