MODEL 1
REMARK VINA RESULT:    -5.420      0.000      0.000
REMARK INTER + INTRA:         -11.305
REMARK INTER:                  -9.855
REMARK INTRA:                  -1.450
REMARK UNBOUND:                -1.450
REMARK SMILES CCCCCCCCCCCCCC[C@@H](C)C(=O)[O-]
REMARK SMILES IDX 9 1 10 2 11 3 12 4 13 5 14 6 15 7 16 8 17 9 18 10 19 11 8 12
REMARK SMILES IDX 7 13 6 14 5 15 4 16 3 17 2 18 1 19
REMARK H PARENT
REMARK Flexibility Score: inf
ROOT
ATOM      1  C   UNL     1       5.629 -34.476  19.985  1.00  0.00     0.000 C 
ENDROOT
BRANCH   1   2
ATOM      2  C   UNL     1       4.320 -33.713  20.281  1.00  0.00     0.000 C 
BRANCH   2   3
ATOM      3  C   UNL     1       4.009 -33.577  21.781  1.00  0.00     0.000 C 
BRANCH   3   4
ATOM      4  C   UNL     1       5.277 -33.467  22.643  1.00  0.00     0.000 C 
BRANCH   4   5
ATOM      5  C   UNL     1       5.462 -34.659  23.598  1.00  0.00     0.001 C 
BRANCH   5   6
ATOM      6  C   UNL     1       4.661 -35.930  23.244  1.00  0.00     0.009 C 
BRANCH   6   7
ATOM      7  C   UNL     1       5.170 -37.217  23.942  1.00  0.00     0.032 C 
ATOM      8  C   UNL     1       4.560 -37.354  25.342  1.00  0.00     0.014 C 
BRANCH   7   9
ATOM      9  C   UNL     1       4.854 -38.454  23.144  1.00  0.00     0.044 C 
ATOM     10  O   UNL     1       4.206 -39.403  23.660  1.00  0.00    -0.550 OA
ATOM     11  O   UNL     1       5.323 -38.577  21.842  1.00  0.00    -0.550 OA
ENDBRANCH   7   9
ENDBRANCH   6   7
ENDBRANCH   5   6
ENDBRANCH   4   5
ENDBRANCH   3   4
ENDBRANCH   2   3
ENDBRANCH   1   2
BRANCH   1  12
ATOM     12  C   UNL     1       5.371 -35.941  19.591  1.00  0.00     0.000 C 
BRANCH  12  13
ATOM     13  C   UNL     1       3.865 -36.277  19.532  1.00  0.00    -0.000 C 
BRANCH  13  14
ATOM     14  C   UNL     1       3.493 -37.245  18.396  1.00  0.00    -0.000 C 
BRANCH  14  15
ATOM     15  C   UNL     1       1.989 -37.239  18.077  1.00  0.00    -0.000 C 
BRANCH  15  16
ATOM     16  C   UNL     1       1.698 -36.858  16.616  1.00  0.00    -0.000 C 
BRANCH  16  17
ATOM     17  C   UNL     1       2.817 -36.003  15.995  1.00  0.00    -0.000 C 
BRANCH  17  18
ATOM     18  C   UNL     1       3.227 -36.496  14.600  1.00  0.00    -0.003 C 
ATOM     19  C   UNL     1       3.698 -37.950  14.602  1.00  0.00     0.004 C 
ENDBRANCH  17  18
ENDBRANCH  16  17
ENDBRANCH  15  16
ENDBRANCH  14  15
ENDBRANCH  13  14
ENDBRANCH  12  13
ENDBRANCH   1  12
TORSDOF 14
ENDMDL
MODEL 2
REMARK VINA RESULT:    -5.352      2.704      6.084
REMARK INTER + INTRA:         -11.183
REMARK INTER:                  -9.650
REMARK INTRA:                  -1.532
REMARK UNBOUND:                -1.450
REMARK SMILES CCCCCCCCCCCCCC[C@@H](C)C(=O)[O-]
REMARK SMILES IDX 9 1 10 2 11 3 12 4 13 5 14 6 15 7 16 8 17 9 18 10 19 11 8 12
REMARK SMILES IDX 7 13 6 14 5 15 4 16 3 17 2 18 1 19
REMARK H PARENT
REMARK Flexibility Score: inf
ROOT
ATOM      1  C   UNL     1       4.430 -33.885  22.553  1.00  0.00     0.000 C 
ENDROOT
BRANCH   1   2
ATOM      2  C   UNL     1       4.238 -33.661  21.038  1.00  0.00     0.000 C 
BRANCH   2   3
ATOM      3  C   UNL     1       5.230 -34.449  20.166  1.00  0.00     0.000 C 
BRANCH   3   4
ATOM      4  C   UNL     1       5.033 -34.193  18.663  1.00  0.00     0.000 C 
BRANCH   4   5
ATOM      5  C   UNL     1       4.421 -35.395  17.922  1.00  0.00     0.001 C 
BRANCH   5   6
ATOM      6  C   UNL     1       3.742 -36.455  18.814  1.00  0.00     0.009 C 
BRANCH   6   7
ATOM      7  C   UNL     1       2.831 -37.445  18.044  1.00  0.00     0.032 C 
ATOM      8  C   UNL     1       1.480 -37.604  18.751  1.00  0.00     0.014 C 
BRANCH   7   9
ATOM      9  C   UNL     1       2.594 -37.005  16.623  1.00  0.00     0.044 C 
ATOM     10  O   UNL     1       1.698 -36.163  16.352  1.00  0.00    -0.550 OA
ATOM     11  O   UNL     1       3.336 -37.567  15.592  1.00  0.00    -0.550 OA
ENDBRANCH   7   9
ENDBRANCH   6   7
ENDBRANCH   5   6
ENDBRANCH   4   5
ENDBRANCH   3   4
ENDBRANCH   2   3
ENDBRANCH   1   2
BRANCH   1  12
ATOM     12  C   UNL     1       5.861 -34.334  22.897  1.00  0.00     0.000 C 
BRANCH  12  13
ATOM     13  C   UNL     1       6.006 -34.748  24.378  1.00  0.00    -0.000 C 
BRANCH  13  14
ATOM     14  C   UNL     1       6.125 -36.267  24.585  1.00  0.00    -0.000 C 
BRANCH  14  15
ATOM     15  C   UNL     1       4.759 -36.967  24.663  1.00  0.00    -0.000 C 
BRANCH  15  16
ATOM     16  C   UNL     1       4.624 -38.112  23.647  1.00  0.00    -0.000 C 
BRANCH  16  17
ATOM     17  C   UNL     1       4.695 -37.621  22.191  1.00  0.00    -0.000 C 
BRANCH  17  18
ATOM     18  C   UNL     1       5.256 -38.686  21.237  1.00  0.00    -0.003 C 
ATOM     19  C   UNL     1       5.790 -39.915  21.973  1.00  0.00     0.004 C 
ENDBRANCH  17  18
ENDBRANCH  16  17
ENDBRANCH  15  16
ENDBRANCH  14  15
ENDBRANCH  13  14
ENDBRANCH  12  13
ENDBRANCH   1  12
TORSDOF 14
ENDMDL
MODEL 3
REMARK VINA RESULT:    -5.131      1.376      2.597
REMARK INTER + INTRA:         -10.781
REMARK INTER:                  -9.276
REMARK INTRA:                  -1.505
REMARK UNBOUND:                -1.450
REMARK SMILES CCCCCCCCCCCCCC[C@@H](C)C(=O)[O-]
REMARK SMILES IDX 9 1 10 2 11 3 12 4 13 5 14 6 15 7 16 8 17 9 18 10 19 11 8 12
REMARK SMILES IDX 7 13 6 14 5 15 4 16 3 17 2 18 1 19
REMARK H PARENT
REMARK Flexibility Score: inf
ROOT
ATOM      1  C   UNL     1       4.513 -33.953  20.983  1.00  0.00     0.000 C 
ENDROOT
BRANCH   1   2
ATOM      2  C   UNL     1       4.582 -33.670  22.499  1.00  0.00     0.000 C 
BRANCH   2   3
ATOM      3  C   UNL     1       5.975 -33.902  23.108  1.00  0.00     0.000 C 
BRANCH   3   4
ATOM      4  C   UNL     1       5.974 -34.983  24.201  1.00  0.00     0.000 C 
BRANCH   4   5
ATOM      5  C   UNL     1       5.980 -36.413  23.632  1.00  0.00     0.001 C 
BRANCH   5   6
ATOM      6  C   UNL     1       4.596 -37.076  23.474  1.00  0.00     0.009 C 
BRANCH   6   7
ATOM      7  C   UNL     1       4.507 -38.093  22.308  1.00  0.00     0.032 C 
ATOM      8  C   UNL     1       5.242 -37.566  21.069  1.00  0.00     0.014 C 
BRANCH   7   9
ATOM      9  C   UNL     1       5.077 -39.435  22.685  1.00  0.00     0.044 C 
ATOM     10  O   UNL     1       5.021 -39.846  23.874  1.00  0.00    -0.550 OA
ATOM     11  O   UNL     1       5.717 -40.210  21.725  1.00  0.00    -0.550 OA
ENDBRANCH   7   9
ENDBRANCH   6   7
ENDBRANCH   5   6
ENDBRANCH   4   5
ENDBRANCH   3   4
ENDBRANCH   2   3
ENDBRANCH   1   2
BRANCH   1  12
ATOM     12  C   UNL     1       5.859 -34.444  20.422  1.00  0.00     0.000 C 
BRANCH  12  13
ATOM     13  C   UNL     1       5.950 -34.282  18.889  1.00  0.00    -0.000 C 
BRANCH  13  14
ATOM     14  C   UNL     1       4.585 -34.334  18.181  1.00  0.00    -0.000 C 
BRANCH  14  15
ATOM     15  C   UNL     1       4.095 -35.770  17.935  1.00  0.00    -0.000 C 
BRANCH  15  16
ATOM     16  C   UNL     1       3.168 -35.876  16.714  1.00  0.00    -0.000 C 
BRANCH  16  17
ATOM     17  C   UNL     1       2.102 -36.973  16.875  1.00  0.00    -0.000 C 
BRANCH  17  18
ATOM     18  C   UNL     1       2.040 -37.527  18.306  1.00  0.00    -0.003 C 
ATOM     19  C   UNL     1       0.610 -37.639  18.834  1.00  0.00     0.004 C 
ENDBRANCH  17  18
ENDBRANCH  16  17
ENDBRANCH  15  16
ENDBRANCH  14  15
ENDBRANCH  13  14
ENDBRANCH  12  13
ENDBRANCH   1  12
TORSDOF 14
ENDMDL
MODEL 4
REMARK VINA RESULT:    -5.056      2.589      6.351
REMARK INTER + INTRA:         -10.645
REMARK INTER:                  -9.169
REMARK INTRA:                  -1.476
REMARK UNBOUND:                -1.450
REMARK SMILES CCCCCCCCCCCCCC[C@@H](C)C(=O)[O-]
REMARK SMILES IDX 9 1 10 2 11 3 12 4 13 5 14 6 15 7 16 8 17 9 18 10 19 11 8 12
REMARK SMILES IDX 7 13 6 14 5 15 4 16 3 17 2 18 1 19
REMARK H PARENT
REMARK Flexibility Score: inf
ROOT
ATOM      1  C   UNL     1       4.144 -38.146  24.654  1.00  0.00     0.000 C 
ENDROOT
BRANCH   1   2
ATOM      2  C   UNL     1       5.043 -38.930  23.674  1.00  0.00     0.000 C 
BRANCH   2   3
ATOM      3  C   UNL     1       4.461 -39.040  22.254  1.00  0.00     0.000 C 
BRANCH   3   4
ATOM      4  C   UNL     1       4.811 -37.830  21.373  1.00  0.00     0.000 C 
BRANCH   4   5
ATOM      5  C   UNL     1       4.384 -38.010  19.906  1.00  0.00     0.001 C 
BRANCH   5   6
ATOM      6  C   UNL     1       3.366 -36.980  19.374  1.00  0.00     0.009 C 
BRANCH   6   7
ATOM      7  C   UNL     1       2.467 -37.509  18.228  1.00  0.00     0.032 C 
ATOM      8  C   UNL     1       1.008 -37.620  18.687  1.00  0.00     0.014 C 
BRANCH   7   9
ATOM      9  C   UNL     1       2.534 -36.630  17.007  1.00  0.00     0.044 C 
ATOM     10  O   UNL     1       1.684 -36.747  16.084  1.00  0.00    -0.550 OA
ATOM     11  O   UNL     1       3.569 -35.714  16.869  1.00  0.00    -0.550 OA
ENDBRANCH   7   9
ENDBRANCH   6   7
ENDBRANCH   5   6
ENDBRANCH   4   5
ENDBRANCH   3   4
ENDBRANCH   2   3
ENDBRANCH   1   2
BRANCH   1  12
ATOM     12  C   UNL     1       4.890 -36.974  25.315  1.00  0.00     0.000 C 
BRANCH  12  13
ATOM     13  C   UNL     1       5.799 -36.220  24.321  1.00  0.00    -0.000 C 
BRANCH  13  14
ATOM     14  C   UNL     1       6.125 -34.780  24.753  1.00  0.00    -0.000 C 
BRANCH  14  15
ATOM     15  C   UNL     1       5.972 -33.765  23.608  1.00  0.00    -0.000 C 
BRANCH  15  16
ATOM     16  C   UNL     1       5.896 -34.439  22.229  1.00  0.00    -0.000 C 
BRANCH  16  17
ATOM     17  C   UNL     1       4.504 -34.315  21.588  1.00  0.00    -0.000 C 
BRANCH  17  18
ATOM     18  C   UNL     1       4.567 -33.834  20.131  1.00  0.00    -0.003 C 
ATOM     19  C   UNL     1       5.811 -34.336  19.397  1.00  0.00     0.004 C 
ENDBRANCH  17  18
ENDBRANCH  16  17
ENDBRANCH  15  16
ENDBRANCH  14  15
ENDBRANCH  13  14
ENDBRANCH  12  13
ENDBRANCH   1  12
TORSDOF 14
ENDMDL
MODEL 5
REMARK VINA RESULT:    -5.031      2.053      3.576
REMARK INTER + INTRA:         -10.599
REMARK INTER:                  -9.482
REMARK INTRA:                  -1.117
REMARK UNBOUND:                -1.450
REMARK SMILES CCCCCCCCCCCCCC[C@@H](C)C(=O)[O-]
REMARK SMILES IDX 9 1 10 2 11 3 12 4 13 5 14 6 15 7 16 8 17 9 18 10 19 11 8 12
REMARK SMILES IDX 7 13 6 14 5 15 4 16 3 17 2 18 1 19
REMARK H PARENT
REMARK Flexibility Score: inf
ROOT
ATOM      1  C   UNL     1       4.419 -38.760  21.982  1.00  0.00     0.000 C 
ENDROOT
BRANCH   1   2
ATOM      2  C   UNL     1       4.997 -38.782  23.413  1.00  0.00     0.000 C 
BRANCH   2   3
ATOM      3  C   UNL     1       4.111 -38.071  24.449  1.00  0.00     0.000 C 
BRANCH   3   4
ATOM      4  C   UNL     1       4.762 -36.798  25.014  1.00  0.00     0.000 C 
BRANCH   4   5
ATOM      5  C   UNL     1       6.104 -36.459  24.341  1.00  0.00     0.001 C 
BRANCH   5   6
ATOM      6  C   UNL     1       6.010 -35.655  23.027  1.00  0.00     0.009 C 
BRANCH   6   7
ATOM      7  C   UNL     1       5.207 -34.335  23.146  1.00  0.00     0.032 C 
ATOM      8  C   UNL     1       6.093 -33.205  23.685  1.00  0.00     0.014 C 
BRANCH   7   9
ATOM      9  C   UNL     1       4.618 -33.913  21.826  1.00  0.00     0.044 C 
ATOM     10  O   UNL     1       3.441 -33.468  21.761  1.00  0.00    -0.550 OA
ATOM     11  O   UNL     1       5.357 -34.059  20.659  1.00  0.00    -0.550 OA
ENDBRANCH   7   9
ENDBRANCH   6   7
ENDBRANCH   5   6
ENDBRANCH   4   5
ENDBRANCH   3   4
ENDBRANCH   2   3
ENDBRANCH   1   2
BRANCH   1  12
ATOM     12  C   UNL     1       5.472 -38.355  20.936  1.00  0.00     0.000 C 
BRANCH  12  13
ATOM     13  C   UNL     1       4.959 -37.255  19.982  1.00  0.00    -0.000 C 
BRANCH  13  14
ATOM     14  C   UNL     1       3.427 -37.117  19.967  1.00  0.00    -0.000 C 
BRANCH  14  15
ATOM     15  C   UNL     1       2.816 -37.398  18.584  1.00  0.00    -0.000 C 
BRANCH  15  16
ATOM     16  C   UNL     1       3.342 -36.442  17.502  1.00  0.00    -0.000 C 
BRANCH  16  17
ATOM     17  C   UNL     1       2.335 -36.233  16.359  1.00  0.00    -0.000 C 
BRANCH  17  18
ATOM     18  C   UNL     1       2.974 -36.400  14.973  1.00  0.00    -0.003 C 
ATOM     19  C   UNL     1       3.644 -37.762  14.792  1.00  0.00     0.004 C 
ENDBRANCH  17  18
ENDBRANCH  16  17
ENDBRANCH  15  16
ENDBRANCH  14  15
ENDBRANCH  13  14
ENDBRANCH  12  13
ENDBRANCH   1  12
TORSDOF 14
ENDMDL
MODEL 6
REMARK VINA RESULT:    -5.022      2.802      6.948
REMARK INTER + INTRA:         -10.582
REMARK INTER:                  -9.113
REMARK INTRA:                  -1.468
REMARK UNBOUND:                -1.450
REMARK SMILES CCCCCCCCCCCCCC[C@@H](C)C(=O)[O-]
REMARK SMILES IDX 9 1 10 2 11 3 12 4 13 5 14 6 15 7 16 8 17 9 18 10 19 11 8 12
REMARK SMILES IDX 7 13 6 14 5 15 4 16 3 17 2 18 1 19
REMARK H PARENT
REMARK Flexibility Score: inf
ROOT
ATOM      1  C   UNL     1       4.233 -33.919  20.829  1.00  0.00     0.000 C 
ENDROOT
BRANCH   1   2
ATOM      2  C   UNL     1       5.572 -34.537  20.374  1.00  0.00     0.000 C 
BRANCH   2   3
ATOM      3  C   UNL     1       5.410 -35.829  19.556  1.00  0.00     0.000 C 
BRANCH   3   4
ATOM      4  C   UNL     1       4.299 -36.742  20.101  1.00  0.00     0.000 C 
BRANCH   4   5
ATOM      5  C   UNL     1       3.281 -37.159  19.025  1.00  0.00     0.001 C 
BRANCH   5   6
ATOM      6  C   UNL     1       3.503 -36.554  17.623  1.00  0.00     0.009 C 
BRANCH   6   7
ATOM      7  C   UNL     1       2.629 -37.189  16.512  1.00  0.00     0.032 C 
ATOM      8  C   UNL     1       1.284 -36.462  16.394  1.00  0.00     0.014 C 
BRANCH   7   9
ATOM      9  C   UNL     1       3.318 -37.170  15.173  1.00  0.00     0.044 C 
ATOM     10  O   UNL     1       3.351 -36.117  14.482  1.00  0.00    -0.550 OA
ATOM     11  O   UNL     1       3.880 -38.335  14.666  1.00  0.00    -0.550 OA
ENDBRANCH   7   9
ENDBRANCH   6   7
ENDBRANCH   5   6
ENDBRANCH   4   5
ENDBRANCH   3   4
ENDBRANCH   2   3
ENDBRANCH   1   2
BRANCH   1  12
ATOM     12  C   UNL     1       4.253 -33.519  22.315  1.00  0.00     0.000 C 
BRANCH  12  13
ATOM     13  C   UNL     1       5.685 -33.290  22.842  1.00  0.00    -0.000 C 
BRANCH  13  14
ATOM     14  C   UNL     1       6.051 -34.182  24.042  1.00  0.00    -0.000 C 
BRANCH  14  15
ATOM     15  C   UNL     1       5.886 -35.681  23.742  1.00  0.00    -0.000 C 
BRANCH  15  16
ATOM     16  C   UNL     1       5.247 -36.448  24.910  1.00  0.00    -0.000 C 
BRANCH  16  17
ATOM     17  C   UNL     1       4.518 -37.723  24.451  1.00  0.00    -0.000 C 
BRANCH  17  18
ATOM     18  C   UNL     1       5.214 -38.403  23.263  1.00  0.00    -0.003 C 
ATOM     19  C   UNL     1       4.443 -39.615  22.742  1.00  0.00     0.004 C 
ENDBRANCH  17  18
ENDBRANCH  16  17
ENDBRANCH  15  16
ENDBRANCH  14  15
ENDBRANCH  13  14
ENDBRANCH  12  13
ENDBRANCH   1  12
TORSDOF 14
ENDMDL
MODEL 7
REMARK VINA RESULT:    -4.975      2.888      6.873
REMARK INTER + INTRA:         -10.497
REMARK INTER:                  -8.785
REMARK INTRA:                  -1.712
REMARK UNBOUND:                -1.450
REMARK SMILES CCCCCCCCCCCCCC[C@@H](C)C(=O)[O-]
REMARK SMILES IDX 9 1 10 2 11 3 12 4 13 5 14 6 15 7 16 8 17 9 18 10 19 11 8 12
REMARK SMILES IDX 7 13 6 14 5 15 4 16 3 17 2 18 1 19
REMARK H PARENT
REMARK Flexibility Score: inf
ROOT
ATOM      1  C   UNL     1       4.348 -38.571  22.199  1.00  0.00     0.000 C 
ENDROOT
BRANCH   1   2
ATOM      2  C   UNL     1       5.315 -38.043  21.118  1.00  0.00     0.000 C 
BRANCH   2   3
ATOM      3  C   UNL     1       4.619 -37.654  19.803  1.00  0.00     0.000 C 
BRANCH   3   4
ATOM      4  C   UNL     1       3.086 -37.677  19.913  1.00  0.00     0.000 C 
BRANCH   4   5
ATOM      5  C   UNL     1       2.383 -37.231  18.618  1.00  0.00     0.001 C 
BRANCH   5   6
ATOM      6  C   UNL     1       3.293 -37.076  17.382  1.00  0.00     0.009 C 
BRANCH   6   7
ATOM      7  C   UNL     1       2.558 -37.243  16.028  1.00  0.00     0.032 C 
ATOM      8  C   UNL     1       1.649 -36.040  15.750  1.00  0.00     0.014 C 
BRANCH   7   9
ATOM      9  C   UNL     1       3.519 -37.408  14.880  1.00  0.00     0.044 C 
ATOM     10  O   UNL     1       3.879 -36.414  14.195  1.00  0.00    -0.550 OA
ATOM     11  O   UNL     1       3.978 -38.675  14.539  1.00  0.00    -0.550 OA
ENDBRANCH   7   9
ENDBRANCH   6   7
ENDBRANCH   5   6
ENDBRANCH   4   5
ENDBRANCH   3   4
ENDBRANCH   2   3
ENDBRANCH   1   2
BRANCH   1  12
ATOM     12  C   UNL     1       4.674 -38.010  23.594  1.00  0.00     0.000 C 
BRANCH  12  13
ATOM     13  C   UNL     1       5.752 -36.906  23.546  1.00  0.00    -0.000 C 
BRANCH  13  14
ATOM     14  C   UNL     1       5.457 -35.715  24.474  1.00  0.00    -0.000 C 
BRANCH  14  15
ATOM     15  C   UNL     1       6.031 -34.391  23.945  1.00  0.00    -0.000 C 
BRANCH  15  16
ATOM     16  C   UNL     1       5.906 -34.262  22.418  1.00  0.00    -0.000 C 
BRANCH  16  17
ATOM     17  C   UNL     1       4.461 -33.993  21.965  1.00  0.00    -0.000 C 
BRANCH  17  18
ATOM     18  C   UNL     1       4.326 -33.923  20.437  1.00  0.00    -0.003 C 
ATOM     19  C   UNL     1       5.596 -34.371  19.712  1.00  0.00     0.004 C 
ENDBRANCH  17  18
ENDBRANCH  16  17
ENDBRANCH  15  16
ENDBRANCH  14  15
ENDBRANCH  13  14
ENDBRANCH  12  13
ENDBRANCH   1  12
TORSDOF 14
ENDMDL
MODEL 8
REMARK VINA RESULT:    -4.206      1.527      5.025
REMARK INTER + INTRA:          -9.098
REMARK INTER:                  -7.318
REMARK INTRA:                  -1.780
REMARK UNBOUND:                -1.450
REMARK SMILES CCCCCCCCCCCCCC[C@@H](C)C(=O)[O-]
REMARK SMILES IDX 9 1 10 2 11 3 12 4 13 5 14 6 15 7 16 8 17 9 18 10 19 11 8 12
REMARK SMILES IDX 7 13 6 14 5 15 4 16 3 17 2 18 1 19
REMARK H PARENT
REMARK Flexibility Score: inf
ROOT
ATOM      1  C   UNL     1       2.130 -36.573  16.566  1.00  0.00     0.000 C 
ENDROOT
BRANCH   1   2
ATOM      2  C   UNL     1       2.659 -37.614  17.575  1.00  0.00     0.000 C 
BRANCH   2   3
ATOM      3  C   UNL     1       1.903 -37.616  18.915  1.00  0.00     0.000 C 
BRANCH   3   4
ATOM      4  C   UNL     1       2.846 -37.585  20.129  1.00  0.00     0.000 C 
BRANCH   4   5
ATOM      5  C   UNL     1       4.334 -37.637  19.737  1.00  0.00     0.001 C 
BRANCH   5   6
ATOM      6  C   UNL     1       5.314 -37.983  20.877  1.00  0.00     0.009 C 
BRANCH   6   7
ATOM      7  C   UNL     1       4.627 -38.365  22.212  1.00  0.00     0.032 C 
ATOM      8  C   UNL     1       4.979 -39.802  22.614  1.00  0.00     0.014 C 
BRANCH   7   9
ATOM      9  C   UNL     1       5.011 -37.433  23.331  1.00  0.00     0.044 C 
ATOM     10  O   UNL     1       5.991 -36.651  23.208  1.00  0.00    -0.550 OA
ATOM     11  O   UNL     1       4.312 -37.468  24.532  1.00  0.00    -0.550 OA
ENDBRANCH   7   9
ENDBRANCH   6   7
ENDBRANCH   5   6
ENDBRANCH   4   5
ENDBRANCH   3   4
ENDBRANCH   2   3
ENDBRANCH   1   2
BRANCH   1  12
ATOM     12  C   UNL     1       3.065 -35.357  16.441  1.00  0.00     0.000 C 
BRANCH  12  13
ATOM     13  C   UNL     1       4.299 -35.469  17.361  1.00  0.00    -0.000 C 
BRANCH  13  14
ATOM     14  C   UNL     1       4.542 -34.216  18.222  1.00  0.00    -0.000 C 
BRANCH  14  15
ATOM     15  C   UNL     1       5.894 -34.248  18.952  1.00  0.00    -0.000 C 
BRANCH  15  16
ATOM     16  C   UNL     1       5.744 -34.511  20.459  1.00  0.00    -0.000 C 
BRANCH  16  17
ATOM     17  C   UNL     1       4.384 -34.044  21.007  1.00  0.00    -0.000 C 
BRANCH  17  18
ATOM     18  C   UNL     1       4.408 -33.818  22.526  1.00  0.00    -0.003 C 
ATOM     19  C   UNL     1       5.739 -33.250  23.017  1.00  0.00     0.004 C 
ENDBRANCH  17  18
ENDBRANCH  16  17
ENDBRANCH  15  16
ENDBRANCH  14  15
ENDBRANCH  13  14
ENDBRANCH  12  13
ENDBRANCH   1  12
TORSDOF 14
ENDMDL
MODEL 9
REMARK VINA RESULT:    -4.152      2.762      6.473
REMARK INTER + INTRA:          -9.000
REMARK INTER:                  -7.325
REMARK INTRA:                  -1.675
REMARK UNBOUND:                -1.450
REMARK SMILES CCCCCCCCCCCCCC[C@@H](C)C(=O)[O-]
REMARK SMILES IDX 9 1 10 2 11 3 12 4 13 5 14 6 15 7 16 8 17 9 18 10 19 11 8 12
REMARK SMILES IDX 7 13 6 14 5 15 4 16 3 17 2 18 1 19
REMARK H PARENT
REMARK Flexibility Score: inf
ROOT
ATOM      1  C   UNL     1       4.619 -35.308  22.168  1.00  0.00     0.000 C 
ENDROOT
BRANCH   1   2
ATOM      2  C   UNL     1       4.769 -33.873  21.621  1.00  0.00     0.000 C 
BRANCH   2   3
ATOM      3  C   UNL     1       4.228 -33.695  20.193  1.00  0.00     0.000 C 
BRANCH   3   4
ATOM      4  C   UNL     1       5.199 -34.216  19.121  1.00  0.00     0.000 C 
BRANCH   4   5
ATOM      5  C   UNL     1       4.565 -35.271  18.196  1.00  0.00     0.001 C 
BRANCH   5   6
ATOM      6  C   UNL     1       3.368 -36.045  18.785  1.00  0.00     0.009 C 
BRANCH   6   7
ATOM      7  C   UNL     1       2.907 -37.251  17.928  1.00  0.00     0.032 C 
ATOM      8  C   UNL     1       1.615 -37.856  18.490  1.00  0.00     0.014 C 
BRANCH   7   9
ATOM      9  C   UNL     1       2.685 -36.868  16.489  1.00  0.00     0.044 C 
ATOM     10  O   UNL     1       1.942 -35.896  16.189  1.00  0.00    -0.550 OA
ATOM     11  O   UNL     1       3.265 -37.622  15.475  1.00  0.00    -0.550 OA
ENDBRANCH   7   9
ENDBRANCH   6   7
ENDBRANCH   5   6
ENDBRANCH   4   5
ENDBRANCH   3   4
ENDBRANCH   2   3
ENDBRANCH   1   2
BRANCH   1  12
ATOM     12  C   UNL     1       5.801 -36.209  21.769  1.00  0.00     0.000 C 
BRANCH  12  13
ATOM     13  C   UNL     1       5.341 -37.501  21.060  1.00  0.00    -0.000 C 
BRANCH  13  14
ATOM     14  C   UNL     1       4.085 -38.133  21.683  1.00  0.00    -0.000 C 
BRANCH  14  15
ATOM     15  C   UNL     1       4.416 -39.227  22.712  1.00  0.00    -0.000 C 
BRANCH  15  16
ATOM     16  C   UNL     1       5.088 -38.665  23.974  1.00  0.00    -0.000 C 
BRANCH  16  17
ATOM     17  C   UNL     1       4.088 -37.977  24.919  1.00  0.00    -0.000 C 
BRANCH  17  18
ATOM     18  C   UNL     1       4.696 -36.764  25.637  1.00  0.00    -0.003 C 
ATOM     19  C   UNL     1       6.124 -36.464  25.184  1.00  0.00     0.004 C 
ENDBRANCH  17  18
ENDBRANCH  16  17
ENDBRANCH  15  16
ENDBRANCH  14  15
ENDBRANCH  13  14
ENDBRANCH  12  13
ENDBRANCH   1  12
TORSDOF 14
ENDMDL
