MODEL 1
REMARK VINA RESULT:    -6.128      0.000      0.000
REMARK INTER + INTRA:          -8.513
REMARK INTER:                  -7.740
REMARK INTRA:                  -0.773
REMARK UNBOUND:                -0.773
REMARK SMILES Oc1ccc(CCc2cc(O)cc(O)c2)cc1
REMARK SMILES IDX 6 1 5 2 4 3 3 4 2 5 16 6 17 7 1 8 7 10 8 11 15 12 9 13 13 14
REMARK SMILES IDX 10 15 12 16 14 17 11 19
REMARK H PARENT 1 9 14 18 11 20
REMARK Flexibility Score: inf
ROOT
ATOM      1  C   UNL     1       5.416   3.272 -31.423  1.00  0.00     0.040 C 
ENDROOT
BRANCH   1   2
ATOM      2  C   UNL     1       4.160   3.993 -31.012  1.00  0.00    -0.047 A 
ATOM      3  C   UNL     1       3.030   3.979 -31.846  1.00  0.00     0.007 A 
ATOM      4  C   UNL     1       1.876   4.677 -31.480  1.00  0.00     0.046 A 
ATOM      5  C   UNL     1       1.841   5.403 -30.284  1.00  0.00     0.115 A 
ATOM      6  C   UNL     1       4.127   4.734 -29.820  1.00  0.00     0.007 A 
ATOM      7  C   UNL     1       2.971   5.431 -29.455  1.00  0.00     0.046 A 
BRANCH   5   8
ATOM      8  O   UNL     1       0.683   6.093 -29.932  1.00  0.00    -0.508 OA
ATOM      9  H   UNL     1       0.719   6.924 -29.353  1.00  0.00     0.293 HD
ENDBRANCH   5   8
ENDBRANCH   1   2
BRANCH   1  10
ATOM     10  C   UNL     1       5.753   3.567 -32.888  1.00  0.00     0.040 C 
BRANCH  10  11
ATOM     11  C   UNL     1       6.505   4.865 -33.005  1.00  0.00    -0.040 A 
ATOM     12  C   UNL     1       7.569   5.147 -32.134  1.00  0.00     0.050 A 
ATOM     13  C   UNL     1       6.112   5.829 -33.949  1.00  0.00     0.050 A 
ATOM     14  C   UNL     1       8.251   6.370 -32.221  1.00  0.00     0.119 A 
ATOM     15  C   UNL     1       6.790   7.049 -34.037  1.00  0.00     0.119 A 
ATOM     16  C   UNL     1       7.861   7.316 -33.175  1.00  0.00     0.092 A 
BRANCH  14  17
ATOM     17  O   UNL     1       9.312   6.654 -31.365  1.00  0.00    -0.508 OA
ATOM     18  H   UNL     1       9.913   7.456 -31.515  1.00  0.00     0.293 HD
ENDBRANCH  14  17
BRANCH  15  19
ATOM     19  O   UNL     1       6.390   7.989 -34.985  1.00  0.00    -0.508 OA
ATOM     20  H   UNL     1       7.063   8.573 -35.468  1.00  0.00     0.293 HD
ENDBRANCH  15  19
ENDBRANCH  10  11
ENDBRANCH   1  10
TORSDOF 6
ENDMDL
MODEL 2
REMARK VINA RESULT:    -6.127      0.086      2.036
REMARK INTER + INTRA:          -8.512
REMARK INTER:                  -7.742
REMARK INTRA:                  -0.771
REMARK UNBOUND:                -0.773
REMARK SMILES Oc1ccc(CCc2cc(O)cc(O)c2)cc1
REMARK SMILES IDX 6 1 5 2 4 3 3 4 2 5 16 6 17 7 1 8 7 10 8 11 15 12 9 13 13 14
REMARK SMILES IDX 10 15 12 16 14 17 11 19
REMARK H PARENT 1 9 14 18 11 20
REMARK Flexibility Score: inf
ROOT
ATOM      1  C   UNL     1       5.406   3.248 -31.459  1.00  0.00     0.040 C 
ENDROOT
BRANCH   1   2
ATOM      2  C   UNL     1       4.157   3.980 -31.046  1.00  0.00    -0.047 A 
ATOM      3  C   UNL     1       3.050   4.034 -31.909  1.00  0.00     0.007 A 
ATOM      4  C   UNL     1       1.903   4.742 -31.539  1.00  0.00     0.046 A 
ATOM      5  C   UNL     1       1.853   5.410 -30.311  1.00  0.00     0.115 A 
ATOM      6  C   UNL     1       4.109   4.663 -29.821  1.00  0.00     0.007 A 
ATOM      7  C   UNL     1       2.960   5.370 -29.453  1.00  0.00     0.046 A 
BRANCH   5   8
ATOM      8  O   UNL     1       0.703   6.111 -29.955  1.00  0.00    -0.508 OA
ATOM      9  H   UNL     1       0.398   6.173 -28.991  1.00  0.00     0.293 HD
ENDBRANCH   5   8
ENDBRANCH   1   2
BRANCH   1  10
ATOM     10  C   UNL     1       5.784   3.598 -32.902  1.00  0.00     0.040 C 
BRANCH  10  11
ATOM     11  C   UNL     1       6.518   4.910 -32.952  1.00  0.00    -0.040 A 
ATOM     12  C   UNL     1       6.172   5.879 -33.907  1.00  0.00     0.050 A 
ATOM     13  C   UNL     1       7.593   5.154 -32.081  1.00  0.00     0.050 A 
ATOM     14  C   UNL     1       6.877   7.089 -33.976  1.00  0.00     0.119 A 
ATOM     15  C   UNL     1       8.298   6.361 -32.148  1.00  0.00     0.119 A 
ATOM     16  C   UNL     1       7.936   7.328 -33.094  1.00  0.00     0.092 A 
BRANCH  14  17
ATOM     17  O   UNL     1       6.535   8.058 -34.917  1.00  0.00    -0.508 OA
ATOM     18  H   UNL     1       6.954   8.981 -34.904  1.00  0.00     0.293 HD
ENDBRANCH  14  17
BRANCH  15  19
ATOM     19  O   UNL     1       9.356   6.587 -31.271  1.00  0.00    -0.508 OA
ATOM     20  H   UNL     1       9.302   6.317 -30.296  1.00  0.00     0.293 HD
ENDBRANCH  15  19
ENDBRANCH  10  11
ENDBRANCH   1  10
TORSDOF 6
ENDMDL
MODEL 3
REMARK VINA RESULT:    -5.922      1.878      2.807
REMARK INTER + INTRA:          -8.253
REMARK INTER:                  -7.787
REMARK INTRA:                  -0.466
REMARK UNBOUND:                -0.773
REMARK SMILES Oc1ccc(CCc2cc(O)cc(O)c2)cc1
REMARK SMILES IDX 6 1 5 2 4 3 3 4 2 5 16 6 17 7 1 8 7 10 8 11 15 12 9 13 13 14
REMARK SMILES IDX 10 15 12 16 14 17 11 19
REMARK H PARENT 1 9 14 18 11 20
REMARK Flexibility Score: inf
ROOT
ATOM      1  C   UNL     1       6.392   4.406 -31.910  1.00  0.00     0.040 C 
ENDROOT
BRANCH   1   2
ATOM      2  C   UNL     1       5.093   4.685 -31.202  1.00  0.00    -0.047 A 
ATOM      3  C   UNL     1       4.098   3.697 -31.134  1.00  0.00     0.007 A 
ATOM      4  C   UNL     1       2.879   3.968 -30.505  1.00  0.00     0.046 A 
ATOM      5  C   UNL     1       2.639   5.229 -29.947  1.00  0.00     0.115 A 
ATOM      6  C   UNL     1       4.845   5.953 -30.654  1.00  0.00     0.007 A 
ATOM      7  C   UNL     1       3.624   6.221 -30.025  1.00  0.00     0.046 A 
BRANCH   5   8
ATOM      8  O   UNL     1       1.419   5.484 -29.323  1.00  0.00    -0.508 OA
ATOM      9  H   UNL     1       1.375   5.901 -28.401  1.00  0.00     0.293 HD
ENDBRANCH   5   8
ENDBRANCH   1   2
BRANCH   1  10
ATOM     10  C   UNL     1       6.724   5.534 -32.891  1.00  0.00     0.040 C 
BRANCH  10  11
ATOM     11  C   UNL     1       8.206   5.794 -32.916  1.00  0.00    -0.040 A 
ATOM     12  C   UNL     1       8.985   5.348 -33.996  1.00  0.00     0.050 A 
ATOM     13  C   UNL     1       8.832   6.434 -31.834  1.00  0.00     0.050 A 
ATOM     14  C   UNL     1      10.371   5.561 -34.006  1.00  0.00     0.119 A 
ATOM     15  C   UNL     1      10.214   6.648 -31.841  1.00  0.00     0.119 A 
ATOM     16  C   UNL     1      10.981   6.213 -32.929  1.00  0.00     0.092 A 
BRANCH  14  17
ATOM     17  O   UNL     1      11.148   5.127 -35.077  1.00  0.00    -0.508 OA
ATOM     18  H   UNL     1      11.823   4.377 -34.972  1.00  0.00     0.293 HD
ENDBRANCH  14  17
BRANCH  15  19
ATOM     19  O   UNL     1      10.814   7.291 -30.761  1.00  0.00    -0.508 OA
ATOM     20  H   UNL     1      10.279   7.875 -30.129  1.00  0.00     0.293 HD
ENDBRANCH  15  19
ENDBRANCH  10  11
ENDBRANCH   1  10
TORSDOF 6
ENDMDL
MODEL 4
REMARK VINA RESULT:    -5.909      1.923      6.530
REMARK INTER + INTRA:          -8.237
REMARK INTER:                  -7.740
REMARK INTRA:                  -0.497
REMARK UNBOUND:                -0.773
REMARK SMILES Oc1ccc(CCc2cc(O)cc(O)c2)cc1
REMARK SMILES IDX 6 1 5 2 4 3 3 4 2 5 16 6 17 7 1 8 7 10 8 11 15 12 9 13 13 14
REMARK SMILES IDX 10 15 12 16 14 17 11 19
REMARK H PARENT 1 9 14 18 11 20
REMARK Flexibility Score: inf
ROOT
ATOM      1  C   UNL     1       7.025   5.491 -31.372  1.00  0.00     0.040 C 
ENDROOT
BRANCH   1   2
ATOM      2  C   UNL     1       7.833   6.262 -32.381  1.00  0.00    -0.047 A 
ATOM      3  C   UNL     1       9.234   6.286 -32.296  1.00  0.00     0.007 A 
ATOM      4  C   UNL     1       9.982   7.030 -33.214  1.00  0.00     0.046 A 
ATOM      5  C   UNL     1       9.339   7.763 -34.217  1.00  0.00     0.115 A 
ATOM      6  C   UNL     1       7.190   7.010 -33.380  1.00  0.00     0.007 A 
ATOM      7  C   UNL     1       7.940   7.753 -34.297  1.00  0.00     0.046 A 
BRANCH   5   8
ATOM      8  O   UNL     1      10.098   8.499 -35.125  1.00  0.00    -0.508 OA
ATOM      9  H   UNL     1       9.900   9.475 -35.310  1.00  0.00     0.293 HD
ENDBRANCH   5   8
ENDBRANCH   1   2
BRANCH   1  10
ATOM     10  C   UNL     1       5.897   6.360 -30.807  1.00  0.00     0.040 C 
BRANCH  10  11
ATOM     11  C   UNL     1       4.606   5.588 -30.765  1.00  0.00    -0.040 A 
ATOM     12  C   UNL     1       3.480   6.127 -30.123  1.00  0.00     0.050 A 
ATOM     13  C   UNL     1       4.533   4.299 -31.318  1.00  0.00     0.050 A 
ATOM     14  C   UNL     1       2.285   5.396 -30.055  1.00  0.00     0.119 A 
ATOM     15  C   UNL     1       3.342   3.568 -31.252  1.00  0.00     0.119 A 
ATOM     16  C   UNL     1       2.219   4.119 -30.623  1.00  0.00     0.092 A 
BRANCH  14  17
ATOM     17  O   UNL     1       1.162   5.927 -29.426  1.00  0.00    -0.508 OA
ATOM     18  H   UNL     1       1.226   6.746 -28.831  1.00  0.00     0.293 HD
ENDBRANCH  14  17
BRANCH  15  19
ATOM     19  O   UNL     1       3.288   2.293 -31.812  1.00  0.00    -0.508 OA
ATOM     20  H   UNL     1       3.619   2.115 -32.753  1.00  0.00     0.293 HD
ENDBRANCH  15  19
ENDBRANCH  10  11
ENDBRANCH   1  10
TORSDOF 6
ENDMDL
MODEL 5
REMARK VINA RESULT:    -5.843      2.061      6.630
REMARK INTER + INTRA:          -8.153
REMARK INTER:                  -7.713
REMARK INTRA:                  -0.440
REMARK UNBOUND:                -0.773
REMARK SMILES Oc1ccc(CCc2cc(O)cc(O)c2)cc1
REMARK SMILES IDX 6 1 5 2 4 3 3 4 2 5 16 6 17 7 1 8 7 10 8 11 15 12 9 13 13 14
REMARK SMILES IDX 10 15 12 16 14 17 11 19
REMARK H PARENT 1 9 14 18 11 20
REMARK Flexibility Score: inf
ROOT
ATOM      1  C   UNL     1       6.354   6.616 -32.524  1.00  0.00     0.040 C 
ENDROOT
BRANCH   1   2
ATOM      2  C   UNL     1       7.829   6.677 -32.818  1.00  0.00    -0.047 A 
ATOM      3  C   UNL     1       8.285   6.715 -34.146  1.00  0.00     0.007 A 
ATOM      4  C   UNL     1       9.656   6.738 -34.419  1.00  0.00     0.046 A 
ATOM      5  C   UNL     1      10.584   6.714 -33.372  1.00  0.00     0.115 A 
ATOM      6  C   UNL     1       8.762   6.639 -31.770  1.00  0.00     0.007 A 
ATOM      7  C   UNL     1      10.133   6.662 -32.046  1.00  0.00     0.046 A 
BRANCH   5   8
ATOM      8  O   UNL     1      11.946   6.737 -33.659  1.00  0.00    -0.508 OA
ATOM      9  H   UNL     1      12.636   6.903 -32.936  1.00  0.00     0.293 HD
ENDBRANCH   5   8
ENDBRANCH   1   2
BRANCH   1  10
ATOM     10  C   UNL     1       6.111   6.417 -31.025  1.00  0.00     0.040 C 
BRANCH  10  11
ATOM     11  C   UNL     1       4.864   5.608 -30.795  1.00  0.00    -0.040 A 
ATOM     12  C   UNL     1       4.741   4.323 -31.347  1.00  0.00     0.050 A 
ATOM     13  C   UNL     1       3.789   6.153 -30.073  1.00  0.00     0.050 A 
ATOM     14  C   UNL     1       3.566   3.581 -31.160  1.00  0.00     0.119 A 
ATOM     15  C   UNL     1       2.616   5.414 -29.885  1.00  0.00     0.119 A 
ATOM     16  C   UNL     1       2.508   4.127 -30.427  1.00  0.00     0.092 A 
BRANCH  14  17
ATOM     17  O   UNL     1       3.441   2.303 -31.700  1.00  0.00    -0.508 OA
ATOM     18  H   UNL     1       4.197   1.871 -32.220  1.00  0.00     0.293 HD
ENDBRANCH  14  17
BRANCH  15  19
ATOM     19  O   UNL     1       1.564   5.970 -29.160  1.00  0.00    -0.508 OA
ATOM     20  H   UNL     1       1.396   6.969 -29.153  1.00  0.00     0.293 HD
ENDBRANCH  15  19
ENDBRANCH  10  11
ENDBRANCH   1  10
TORSDOF 6
ENDMDL
MODEL 6
REMARK VINA RESULT:    -5.675      1.960      2.552
REMARK INTER + INTRA:          -7.941
REMARK INTER:                  -7.457
REMARK INTRA:                  -0.484
REMARK UNBOUND:                -0.773
REMARK SMILES Oc1ccc(CCc2cc(O)cc(O)c2)cc1
REMARK SMILES IDX 6 1 5 2 4 3 3 4 2 5 16 6 17 7 1 8 7 10 8 11 15 12 9 13 13 14
REMARK SMILES IDX 10 15 12 16 14 17 11 19
REMARK H PARENT 1 9 14 18 11 20
REMARK Flexibility Score: inf
ROOT
ATOM      1  C   UNL     1       6.373   4.459 -32.470  1.00  0.00     0.040 C 
ENDROOT
BRANCH   1   2
ATOM      2  C   UNL     1       5.197   4.684 -31.558  1.00  0.00    -0.047 A 
ATOM      3  C   UNL     1       4.235   3.676 -31.383  1.00  0.00     0.007 A 
ATOM      4  C   UNL     1       3.125   3.897 -30.562  1.00  0.00     0.046 A 
ATOM      5  C   UNL     1       2.960   5.127 -29.916  1.00  0.00     0.115 A 
ATOM      6  C   UNL     1       5.022   5.922 -30.920  1.00  0.00     0.007 A 
ATOM      7  C   UNL     1       3.911   6.140 -30.098  1.00  0.00     0.046 A 
BRANCH   5   8
ATOM      8  O   UNL     1       1.850   5.333 -29.100  1.00  0.00    -0.508 OA
ATOM      9  H   UNL     1       1.027   4.746 -29.170  1.00  0.00     0.293 HD
ENDBRANCH   5   8
ENDBRANCH   1   2
BRANCH   1  10
ATOM     10  C   UNL     1       6.840   5.783 -33.083  1.00  0.00     0.040 C 
BRANCH  10  11
ATOM     11  C   UNL     1       8.338   5.902 -33.008  1.00  0.00    -0.040 A 
ATOM     12  C   UNL     1       8.946   6.473 -31.878  1.00  0.00     0.050 A 
ATOM     13  C   UNL     1       9.136   5.494 -34.089  1.00  0.00     0.050 A 
ATOM     14  C   UNL     1      10.340   6.614 -31.820  1.00  0.00     0.119 A 
ATOM     15  C   UNL     1      10.527   5.633 -34.033  1.00  0.00     0.119 A 
ATOM     16  C   UNL     1      11.127   6.191 -32.896  1.00  0.00     0.092 A 
BRANCH  14  17
ATOM     17  O   UNL     1      10.951   7.173 -30.700  1.00  0.00    -0.508 OA
ATOM     18  H   UNL     1      11.960   7.222 -30.616  1.00  0.00     0.293 HD
ENDBRANCH  14  17
BRANCH  15  19
ATOM     19  O   UNL     1      11.302   5.217 -35.113  1.00  0.00    -0.508 OA
ATOM     20  H   UNL     1      12.263   4.918 -34.990  1.00  0.00     0.293 HD
ENDBRANCH  15  19
ENDBRANCH  10  11
ENDBRANCH   1  10
TORSDOF 6
ENDMDL
MODEL 7
REMARK VINA RESULT:    -5.669      1.685      6.226
REMARK INTER + INTRA:          -7.934
REMARK INTER:                  -7.395
REMARK INTRA:                  -0.539
REMARK UNBOUND:                -0.773
REMARK SMILES Oc1ccc(CCc2cc(O)cc(O)c2)cc1
REMARK SMILES IDX 6 1 5 2 4 3 3 4 2 5 16 6 17 7 1 8 7 10 8 11 15 12 9 13 13 14
REMARK SMILES IDX 10 15 12 16 14 17 11 19
REMARK H PARENT 1 9 14 18 11 20
REMARK Flexibility Score: inf
ROOT
ATOM      1  C   UNL     1       6.291   3.560 -33.051  1.00  0.00     0.040 C 
ENDROOT
BRANCH   1   2
ATOM      2  C   UNL     1       7.431   4.539 -32.970  1.00  0.00    -0.047 A 
ATOM      3  C   UNL     1       7.342   5.661 -32.130  1.00  0.00     0.007 A 
ATOM      4  C   UNL     1       8.388   6.588 -32.081  1.00  0.00     0.046 A 
ATOM      5  C   UNL     1       9.526   6.409 -32.874  1.00  0.00     0.115 A 
ATOM      6  C   UNL     1       8.568   4.370 -33.776  1.00  0.00     0.007 A 
ATOM      7  C   UNL     1       9.613   5.298 -33.724  1.00  0.00     0.046 A 
BRANCH   5   8
ATOM      8  O   UNL     1      10.561   7.341 -32.814  1.00  0.00    -0.508 OA
ATOM      9  H   UNL     1      11.513   7.089 -33.048  1.00  0.00     0.293 HD
ENDBRANCH   5   8
ENDBRANCH   1   2
BRANCH   1  10
ATOM     10  C   UNL     1       5.733   3.266 -31.655  1.00  0.00     0.040 C 
BRANCH  10  11
ATOM     11  C   UNL     1       4.366   3.874 -31.493  1.00  0.00    -0.040 A 
ATOM     12  C   UNL     1       3.512   4.001 -32.601  1.00  0.00     0.050 A 
ATOM     13  C   UNL     1       3.955   4.372 -30.246  1.00  0.00     0.050 A 
ATOM     14  C   UNL     1       2.251   4.597 -32.458  1.00  0.00     0.119 A 
ATOM     15  C   UNL     1       2.697   4.966 -30.101  1.00  0.00     0.119 A 
ATOM     16  C   UNL     1       1.846   5.075 -31.208  1.00  0.00     0.092 A 
BRANCH  14  17
ATOM     17  O   UNL     1       1.396   4.720 -33.551  1.00  0.00    -0.508 OA
ATOM     18  H   UNL     1       0.909   3.918 -33.935  1.00  0.00     0.293 HD
ENDBRANCH  14  17
BRANCH  15  19
ATOM     19  O   UNL     1       2.305   5.448 -28.854  1.00  0.00    -0.508 OA
ATOM     20  H   UNL     1       1.387   5.850 -28.707  1.00  0.00     0.293 HD
ENDBRANCH  15  19
ENDBRANCH  10  11
ENDBRANCH   1  10
TORSDOF 6
ENDMDL
MODEL 8
REMARK VINA RESULT:    -5.642      1.686      5.965
REMARK INTER + INTRA:          -7.899
REMARK INTER:                  -7.379
REMARK INTRA:                  -0.521
REMARK UNBOUND:                -0.773
REMARK SMILES Oc1ccc(CCc2cc(O)cc(O)c2)cc1
REMARK SMILES IDX 6 1 5 2 4 3 3 4 2 5 16 6 17 7 1 8 7 10 8 11 15 12 9 13 13 14
REMARK SMILES IDX 10 15 12 16 14 17 11 19
REMARK H PARENT 1 9 14 18 11 20
REMARK Flexibility Score: inf
ROOT
ATOM      1  C   UNL     1       6.303   3.529 -33.030  1.00  0.00     0.040 C 
ENDROOT
BRANCH   1   2
ATOM      2  C   UNL     1       7.439   4.515 -32.966  1.00  0.00    -0.047 A 
ATOM      3  C   UNL     1       7.366   5.625 -32.110  1.00  0.00     0.007 A 
ATOM      4  C   UNL     1       8.406   6.558 -32.076  1.00  0.00     0.046 A 
ATOM      5  C   UNL     1       9.525   6.397 -32.901  1.00  0.00     0.115 A 
ATOM      6  C   UNL     1       8.556   4.363 -33.804  1.00  0.00     0.007 A 
ATOM      7  C   UNL     1       9.596   5.297 -33.767  1.00  0.00     0.046 A 
BRANCH   5   8
ATOM      8  O   UNL     1      10.554   7.334 -32.855  1.00  0.00    -0.508 OA
ATOM      9  H   UNL     1      11.215   7.357 -32.088  1.00  0.00     0.293 HD
ENDBRANCH   5   8
ENDBRANCH   1   2
BRANCH   1  10
ATOM     10  C   UNL     1       5.733   3.273 -31.632  1.00  0.00     0.040 C 
BRANCH  10  11
ATOM     11  C   UNL     1       4.383   3.921 -31.486  1.00  0.00    -0.040 A 
ATOM     12  C   UNL     1       3.950   4.379 -30.231  1.00  0.00     0.050 A 
ATOM     13  C   UNL     1       3.521   4.022 -32.591  1.00  0.00     0.050 A 
ATOM     14  C   UNL     1       2.679   4.954 -30.087  1.00  0.00     0.119 A 
ATOM     15  C   UNL     1       2.254   4.595 -32.450  1.00  0.00     0.119 A 
ATOM     16  C   UNL     1       1.835   5.063 -31.198  1.00  0.00     0.092 A 
BRANCH  14  17
ATOM     17  O   UNL     1       2.245   5.417 -28.847  1.00  0.00    -0.508 OA
ATOM     18  H   UNL     1       1.912   6.367 -28.723  1.00  0.00     0.293 HD
ENDBRANCH  14  17
BRANCH  15  19
ATOM     19  O   UNL     1       1.417   4.691 -33.560  1.00  0.00    -0.508 OA
ATOM     20  H   UNL     1       1.790   4.744 -34.500  1.00  0.00     0.293 HD
ENDBRANCH  15  19
ENDBRANCH  10  11
ENDBRANCH   1  10
TORSDOF 6
ENDMDL
