MODEL 1
REMARK VINA RESULT:    -4.138      0.000      0.000
REMARK INTER + INTRA:          -4.397
REMARK INTER:                  -4.380
REMARK INTRA:                  -0.016
REMARK UNBOUND:                -0.016
REMARK SMILES O=C([O-])c1cccnc1
REMARK SMILES IDX 4 1 5 2 9 3 6 4 8 5 7 6 2 7 1 8 3 9
REMARK H PARENT
REMARK Flexibility Score: inf
ROOT
ATOM      1  C   UNL     1      -1.653   9.336  23.061  1.00  0.00     0.016 A 
ATOM      2  C   UNL     1      -1.670   8.461  21.961  1.00  0.00     0.013 A 
ATOM      3  C   UNL     1      -2.485  10.467  23.028  1.00  0.00     0.120 A 
ATOM      4  C   UNL     1      -2.499   8.724  20.870  1.00  0.00     0.021 A 
ATOM      5  N   UNL     1      -3.284  10.700  21.951  1.00  0.00    -0.264 NA
ATOM      6  C   UNL     1      -3.307   9.861  20.882  1.00  0.00     0.111 A 
ENDROOT
BRANCH   1   7
ATOM      7  C   UNL     1      -0.782   9.075  24.228  1.00  0.00     0.073 C 
ATOM      8  O   UNL     1       0.452   9.323  24.174  1.00  0.00    -0.545 OA
ATOM      9  O   UNL     1      -1.315   8.554  25.401  1.00  0.00    -0.545 OA
ENDBRANCH   1   7
TORSDOF 1
ENDMDL
MODEL 2
REMARK VINA RESULT:    -4.091      1.640      1.725
REMARK INTER + INTRA:          -4.347
REMARK INTER:                  -4.323
REMARK INTRA:                  -0.024
REMARK UNBOUND:                -0.016
REMARK SMILES O=C([O-])c1cccnc1
REMARK SMILES IDX 4 1 5 2 9 3 6 4 8 5 7 6 2 7 1 8 3 9
REMARK H PARENT
REMARK Flexibility Score: inf
ROOT
ATOM      1  C   UNL     1      -2.581   8.669  22.619  1.00  0.00     0.016 A 
ATOM      2  C   UNL     1      -2.533   8.864  21.227  1.00  0.00     0.013 A 
ATOM      3  C   UNL     1      -3.831   8.444  23.219  1.00  0.00     0.120 A 
ATOM      4  C   UNL     1      -3.708   8.831  20.475  1.00  0.00     0.021 A 
ATOM      5  N   UNL     1      -4.961   8.417  22.461  1.00  0.00    -0.264 NA
ATOM      6  C   UNL     1      -4.926   8.604  21.116  1.00  0.00     0.111 A 
ENDROOT
BRANCH   1   7
ATOM      7  C   UNL     1      -1.347   8.699  23.434  1.00  0.00     0.073 C 
ATOM      8  O   UNL     1      -0.230   8.928  22.898  1.00  0.00    -0.545 OA
ATOM      9  O   UNL     1      -1.404   8.477  24.805  1.00  0.00    -0.545 OA
ENDBRANCH   1   7
TORSDOF 1
ENDMDL
MODEL 3
REMARK VINA RESULT:    -4.060      0.919      1.929
REMARK INTER + INTRA:          -4.314
REMARK INTER:                  -4.298
REMARK INTRA:                  -0.016
REMARK UNBOUND:                -0.016
REMARK SMILES O=C([O-])c1cccnc1
REMARK SMILES IDX 4 1 5 2 9 3 6 4 8 5 7 6 2 7 1 8 3 9
REMARK H PARENT
REMARK Flexibility Score: inf
ROOT
ATOM      1  C   UNL     1      -1.696   9.319  23.050  1.00  0.00     0.016 A 
ATOM      2  C   UNL     1      -2.490  10.478  22.992  1.00  0.00     0.013 A 
ATOM      3  C   UNL     1      -1.721   8.437  21.957  1.00  0.00     0.120 A 
ATOM      4  C   UNL     1      -3.277  10.732  21.868  1.00  0.00     0.021 A 
ATOM      5  N   UNL     1      -2.498   8.708  20.874  1.00  0.00    -0.264 NA
ATOM      6  C   UNL     1      -3.269   9.825  20.807  1.00  0.00     0.111 A 
ENDROOT
BRANCH   1   7
ATOM      7  C   UNL     1      -0.854   9.032  24.232  1.00  0.00     0.073 C 
ATOM      8  O   UNL     1      -1.360   8.539  25.275  1.00  0.00    -0.545 OA
ATOM      9  O   UNL     1       0.509   9.303  24.207  1.00  0.00    -0.545 OA
ENDBRANCH   1   7
TORSDOF 1
ENDMDL
MODEL 4
REMARK VINA RESULT:    -3.985      2.875      3.578
REMARK INTER + INTRA:          -4.234
REMARK INTER:                  -4.216
REMARK INTRA:                  -0.018
REMARK UNBOUND:                -0.016
REMARK SMILES O=C([O-])c1cccnc1
REMARK SMILES IDX 4 1 5 2 9 3 6 4 8 5 7 6 2 7 1 8 3 9
REMARK H PARENT
REMARK Flexibility Score: inf
ROOT
ATOM      1  C   UNL     1      -3.433  10.405  22.374  1.00  0.00     0.016 A 
ATOM      2  C   UNL     1      -3.552   9.867  21.081  1.00  0.00     0.013 A 
ATOM      3  C   UNL     1      -2.421   9.908  23.213  1.00  0.00     0.120 A 
ATOM      4  C   UNL     1      -2.679   8.865  20.655  1.00  0.00     0.021 A 
ATOM      5  N   UNL     1      -1.584   8.930  22.773  1.00  0.00    -0.264 NA
ATOM      6  C   UNL     1      -1.691   8.403  21.525  1.00  0.00     0.111 A 
ENDROOT
BRANCH   1   7
ATOM      7  C   UNL     1      -4.347  11.468  22.844  1.00  0.00     0.073 C 
ATOM      8  O   UNL     1      -5.010  11.320  23.905  1.00  0.00    -0.545 OA
ATOM      9  O   UNL     1      -4.487  12.647  22.120  1.00  0.00    -0.545 OA
ENDBRANCH   1   7
TORSDOF 1
ENDMDL
MODEL 5
REMARK VINA RESULT:    -3.827      8.055      8.838
REMARK INTER + INTRA:          -4.067
REMARK INTER:                  -4.044
REMARK INTRA:                  -0.023
REMARK UNBOUND:                -0.016
REMARK SMILES O=C([O-])c1cccnc1
REMARK SMILES IDX 4 1 5 2 9 3 6 4 8 5 7 6 2 7 1 8 3 9
REMARK H PARENT
REMARK Flexibility Score: inf
ROOT
ATOM      1  C   UNL     1       3.460  15.769  24.102  1.00  0.00     0.016 A 
ATOM      2  C   UNL     1       4.333  16.763  23.625  1.00  0.00     0.013 A 
ATOM      3  C   UNL     1       2.117  16.112  24.327  1.00  0.00     0.120 A 
ATOM      4  C   UNL     1       3.860  18.054  23.386  1.00  0.00     0.021 A 
ATOM      5  N   UNL     1       1.683  17.378  24.085  1.00  0.00    -0.264 NA
ATOM      6  C   UNL     1       2.517  18.347  23.625  1.00  0.00     0.111 A 
ENDROOT
BRANCH   1   7
ATOM      7  C   UNL     1       3.941  14.395  24.361  1.00  0.00     0.073 C 
ATOM      8  O   UNL     1       3.123  13.457  24.561  1.00  0.00    -0.545 OA
ATOM      9  O   UNL     1       5.303  14.118  24.385  1.00  0.00    -0.545 OA
ENDBRANCH   1   7
TORSDOF 1
ENDMDL
MODEL 6
REMARK VINA RESULT:    -3.817      7.977      8.830
REMARK INTER + INTRA:          -4.057
REMARK INTER:                  -4.033
REMARK INTRA:                  -0.023
REMARK UNBOUND:                -0.016
REMARK SMILES O=C([O-])c1cccnc1
REMARK SMILES IDX 4 1 5 2 9 3 6 4 8 5 7 6 2 7 1 8 3 9
REMARK H PARENT
REMARK Flexibility Score: inf
ROOT
ATOM      1  C   UNL     1       2.770  15.758  24.890  1.00  0.00     0.016 A 
ATOM      2  C   UNL     1       2.143  16.349  26.001  1.00  0.00     0.013 A 
ATOM      3  C   UNL     1       3.460  16.588  23.991  1.00  0.00     0.120 A 
ATOM      4  C   UNL     1       2.215  17.730  26.192  1.00  0.00     0.021 A 
ATOM      5  N   UNL     1       3.513  17.931  24.201  1.00  0.00    -0.264 NA
ATOM      6  C   UNL     1       2.912  18.513  25.272  1.00  0.00     0.111 A 
ENDROOT
BRANCH   1   7
ATOM      7  C   UNL     1       2.706  14.296  24.669  1.00  0.00     0.073 C 
ATOM      8  O   UNL     1       3.404  13.753  23.772  1.00  0.00    -0.545 OA
ATOM      9  O   UNL     1       1.876  13.502  25.451  1.00  0.00    -0.545 OA
ENDBRANCH   1   7
TORSDOF 1
ENDMDL
MODEL 7
REMARK VINA RESULT:    -3.770      2.914      3.810
REMARK INTER + INTRA:          -4.006
REMARK INTER:                  -3.983
REMARK INTRA:                  -0.023
REMARK UNBOUND:                -0.016
REMARK SMILES O=C([O-])c1cccnc1
REMARK SMILES IDX 4 1 5 2 9 3 6 4 8 5 7 6 2 7 1 8 3 9
REMARK H PARENT
REMARK Flexibility Score: inf
ROOT
ATOM      1  C   UNL     1      -2.464  10.486  22.997  1.00  0.00     0.016 A 
ATOM      2  C   UNL     1      -1.657   9.334  23.009  1.00  0.00     0.013 A 
ATOM      3  C   UNL     1      -2.615  11.208  24.192  1.00  0.00     0.120 A 
ATOM      4  C   UNL     1      -1.029   8.932  24.189  1.00  0.00     0.021 A 
ATOM      5  N   UNL     1      -1.992  10.793  25.328  1.00  0.00    -0.264 NA
ATOM      6  C   UNL     1      -1.211   9.681  25.351  1.00  0.00     0.111 A 
ENDROOT
BRANCH   1   7
ATOM      7  C   UNL     1      -3.137  10.930  21.757  1.00  0.00     0.073 C 
ATOM      8  O   UNL     1      -3.303  10.131  20.797  1.00  0.00    -0.545 OA
ATOM      9  O   UNL     1      -3.598  12.236  21.635  1.00  0.00    -0.545 OA
ENDBRANCH   1   7
TORSDOF 1
ENDMDL
MODEL 8
REMARK VINA RESULT:    -3.672      8.183      9.029
REMARK INTER + INTRA:          -3.903
REMARK INTER:                  -3.879
REMARK INTRA:                  -0.024
REMARK UNBOUND:                -0.016
REMARK SMILES O=C([O-])c1cccnc1
REMARK SMILES IDX 4 1 5 2 9 3 6 4 8 5 7 6 2 7 1 8 3 9
REMARK H PARENT
REMARK Flexibility Score: inf
ROOT
ATOM      1  C   UNL     1       3.380  16.302  23.974  1.00  0.00     0.016 A 
ATOM      2  C   UNL     1       4.489  15.438  23.976  1.00  0.00     0.013 A 
ATOM      3  C   UNL     1       2.138  15.795  24.389  1.00  0.00     0.120 A 
ATOM      4  C   UNL     1       4.342  14.112  24.383  1.00  0.00     0.021 A 
ATOM      5  N   UNL     1       2.023  14.498  24.781  1.00  0.00    -0.264 NA
ATOM      6  C   UNL     1       3.088  13.654  24.786  1.00  0.00     0.111 A 
ENDROOT
BRANCH   1   7
ATOM      7  C   UNL     1       3.515  17.712  23.547  1.00  0.00     0.073 C 
ATOM      8  O   UNL     1       4.627  18.161  23.161  1.00  0.00    -0.545 OA
ATOM      9  O   UNL     1       2.414  18.561  23.565  1.00  0.00    -0.545 OA
ENDBRANCH   1   7
TORSDOF 1
ENDMDL
MODEL 9
REMARK VINA RESULT:    -3.668      2.229      2.809
REMARK INTER + INTRA:          -3.899
REMARK INTER:                  -3.882
REMARK INTRA:                  -0.017
REMARK UNBOUND:                -0.016
REMARK SMILES O=C([O-])c1cccnc1
REMARK SMILES IDX 4 1 5 2 9 3 6 4 8 5 7 6 2 7 1 8 3 9
REMARK H PARENT
REMARK Flexibility Score: inf
ROOT
ATOM      1  C   UNL     1      -1.754   9.221  24.989  1.00  0.00     0.016 A 
ATOM      2  C   UNL     1      -2.919   8.771  24.344  1.00  0.00     0.013 A 
ATOM      3  C   UNL     1      -0.560   9.275  24.251  1.00  0.00     0.120 A 
ATOM      4  C   UNL     1      -2.874   8.391  23.002  1.00  0.00     0.021 A 
ATOM      5  N   UNL     1      -0.544   8.898  22.943  1.00  0.00    -0.264 NA
ATOM      6  C   UNL     1      -1.665   8.461  22.310  1.00  0.00     0.111 A 
ENDROOT
BRANCH   1   7
ATOM      7  C   UNL     1      -1.780   9.630  26.410  1.00  0.00     0.073 C 
ATOM      8  O   UNL     1      -2.052   8.793  27.312  1.00  0.00    -0.545 OA
ATOM      9  O   UNL     1      -1.504  10.943  26.770  1.00  0.00    -0.545 OA
ENDBRANCH   1   7
TORSDOF 1
ENDMDL
