MODEL 1
REMARK VINA RESULT:    -1.689      0.000      0.000
REMARK INTER + INTRA:          -2.267
REMARK INTER:                  -2.282
REMARK INTRA:                   0.015
REMARK UNBOUND:                 0.015
REMARK SMILES [NH3+]CCCC[C@H]([NH3+])C(=O)[O-]
REMARK SMILES IDX 4 1 3 2 2 3 1 4 5 8 6 9 7 10 8 14 9 15 10 16
REMARK H PARENT 1 5 1 6 1 7 7 11 7 12 7 13
REMARK Flexibility Score: inf
ROOT
ATOM      1  C   UNL     1       0.786  -1.200  -9.527  1.00  0.00     0.012 C 
ENDROOT
BRANCH   1   2
ATOM      2  C   UNL     1       0.409  -2.470 -10.309  1.00  0.00     0.061 C 
BRANCH   2   3
ATOM      3  C   UNL     1      -1.094  -2.787 -10.232  1.00  0.00     0.258 C 
BRANCH   3   4
ATOM      4  N   UNL     1      -1.358  -4.226 -10.302  1.00  0.00    -0.358 N 
ATOM      5  H   UNL     1      -2.289  -4.378 -10.753  1.00  0.00     0.344 HD
ATOM      6  H   UNL     1      -0.625  -4.704 -10.876  1.00  0.00     0.344 HD
ATOM      7  H   UNL     1      -1.386  -4.638  -9.342  1.00  0.00     0.344 HD
ENDBRANCH   3   4
ENDBRANCH   2   3
ENDBRANCH   1   2
BRANCH   1   8
ATOM      8  C   UNL     1       2.226  -0.733  -9.828  1.00  0.00     0.072 C 
BRANCH   8   9
ATOM      9  C   UNL     1       2.709   0.413  -8.909  1.00  0.00     0.227 C 
BRANCH   9  10
ATOM     10  N   UNL     1       4.172   0.544  -8.917  1.00  0.00    -0.350 N 
ATOM     11  H   UNL     1       4.460   1.262  -9.621  1.00  0.00     0.345 HD
ATOM     12  H   UNL     1       4.610  -0.363  -9.194  1.00  0.00     0.345 HD
ATOM     13  H   UNL     1       4.523   0.831  -7.974  1.00  0.00     0.345 HD
ENDBRANCH   9  10
BRANCH   9  14
ATOM     14  C   UNL     1       2.220   0.170  -7.505  1.00  0.00     0.099 C 
ATOM     15  O   UNL     1       2.865  -0.588  -6.732  1.00  0.00    -0.544 OA
ATOM     16  O   UNL     1       1.068   0.798  -7.046  1.00  0.00    -0.544 OA
ENDBRANCH   9  14
ENDBRANCH   8   9
ENDBRANCH   1   8
TORSDOF 7
ENDMDL
MODEL 2
REMARK VINA RESULT:    -1.252      1.950      2.471
REMARK INTER + INTRA:          -1.676
REMARK INTER:                  -1.579
REMARK INTRA:                  -0.098
REMARK UNBOUND:                 0.015
REMARK SMILES [NH3+]CCCC[C@H]([NH3+])C(=O)[O-]
REMARK SMILES IDX 4 1 3 2 2 3 1 4 5 8 6 9 7 10 8 14 9 15 10 16
REMARK H PARENT 1 5 1 6 1 7 7 11 7 12 7 13
REMARK Flexibility Score: inf
ROOT
ATOM      1  C   UNL     1      -0.905  -2.359 -10.468  1.00  0.00     0.012 C 
ENDROOT
BRANCH   1   2
ATOM      2  C   UNL     1      -1.079  -3.887 -10.437  1.00  0.00     0.061 C 
BRANCH   2   3
ATOM      3  C   UNL     1      -1.565  -4.455 -11.780  1.00  0.00     0.258 C 
BRANCH   3   4
ATOM      4  N   UNL     1      -1.542  -5.919 -11.802  1.00  0.00    -0.358 N 
ATOM      5  H   UNL     1      -1.839  -6.277 -10.866  1.00  0.00     0.344 HD
ATOM      6  H   UNL     1      -2.203  -6.284 -12.526  1.00  0.00     0.344 HD
ATOM      7  H   UNL     1      -0.574  -6.264 -11.994  1.00  0.00     0.344 HD
ENDBRANCH   3   4
ENDBRANCH   2   3
ENDBRANCH   1   2
BRANCH   1   8
ATOM      8  C   UNL     1       0.142  -1.868  -9.447  1.00  0.00     0.072 C 
BRANCH   8   9
ATOM      9  C   UNL     1       1.346  -1.145 -10.096  1.00  0.00     0.227 C 
BRANCH   9  10
ATOM     10  N   UNL     1       2.302  -2.091 -10.687  1.00  0.00    -0.350 N 
ATOM     11  H   UNL     1       2.292  -2.988 -10.149  1.00  0.00     0.345 HD
ATOM     12  H   UNL     1       3.269  -1.702 -10.631  1.00  0.00     0.345 HD
ATOM     13  H   UNL     1       2.058  -2.289 -11.685  1.00  0.00     0.345 HD
ENDBRANCH   9  10
BRANCH   9  14
ATOM     14  C   UNL     1       2.036  -0.293  -9.064  1.00  0.00     0.099 C 
ATOM     15  O   UNL     1       1.562  -0.199  -7.900  1.00  0.00    -0.544 OA
ATOM     16  O   UNL     1       3.211   0.379  -9.382  1.00  0.00    -0.544 OA
ENDBRANCH   9  14
ENDBRANCH   8   9
ENDBRANCH   1   8
TORSDOF 7
ENDMDL
MODEL 3
REMARK VINA RESULT:    -1.081      4.193      6.297
REMARK INTER + INTRA:          -1.446
REMARK INTER:                  -1.310
REMARK INTRA:                  -0.136
REMARK UNBOUND:                 0.015
REMARK SMILES [NH3+]CCCC[C@H]([NH3+])C(=O)[O-]
REMARK SMILES IDX 4 1 3 2 2 3 1 4 5 8 6 9 7 10 8 14 9 15 10 16
REMARK H PARENT 1 5 1 6 1 7 7 11 7 12 7 13
REMARK Flexibility Score: inf
ROOT
ATOM      1  C   UNL     1      -0.806  -2.483  -9.882  1.00  0.00     0.012 C 
ENDROOT
BRANCH   1   2
ATOM      2  C   UNL     1       0.631  -1.986 -10.121  1.00  0.00     0.061 C 
BRANCH   2   3
ATOM      3  C   UNL     1       1.068  -0.927  -9.096  1.00  0.00     0.258 C 
BRANCH   3   4
ATOM      4  N   UNL     1       2.384  -0.365  -9.411  1.00  0.00    -0.358 N 
ATOM      5  H   UNL     1       2.343   0.089 -10.351  1.00  0.00     0.344 HD
ATOM      6  H   UNL     1       2.652   0.355  -8.701  1.00  0.00     0.344 HD
ATOM      7  H   UNL     1       3.104  -1.122  -9.442  1.00  0.00     0.344 HD
ENDBRANCH   3   4
ENDBRANCH   2   3
ENDBRANCH   1   2
BRANCH   1   8
ATOM      8  C   UNL     1      -1.420  -3.126 -11.143  1.00  0.00     0.072 C 
BRANCH   8   9
ATOM      9  C   UNL     1      -1.691  -4.641 -10.994  1.00  0.00     0.227 C 
BRANCH   9  10
ATOM     10  N   UNL     1      -1.155  -5.174  -9.735  1.00  0.00    -0.350 N 
ATOM     11  H   UNL     1      -0.956  -4.388  -9.073  1.00  0.00     0.345 HD
ATOM     12  H   UNL     1      -0.254  -5.671  -9.913  1.00  0.00     0.345 HD
ATOM     13  H   UNL     1      -1.837  -5.830  -9.290  1.00  0.00     0.345 HD
ENDBRANCH   9  10
BRANCH   9  14
ATOM     14  C   UNL     1      -1.090  -5.376 -12.162  1.00  0.00     0.099 C 
ATOM     15  O   UNL     1      -0.442  -4.748 -13.041  1.00  0.00    -0.544 OA
ATOM     16  O   UNL     1      -1.227  -6.756 -12.267  1.00  0.00    -0.544 OA
ENDBRANCH   9  14
ENDBRANCH   8   9
ENDBRANCH   1   8
TORSDOF 7
ENDMDL
MODEL 4
REMARK VINA RESULT:    -0.828      3.761      5.264
REMARK INTER + INTRA:          -1.104
REMARK INTER:                  -0.989
REMARK INTRA:                  -0.115
REMARK UNBOUND:                 0.015
REMARK SMILES [NH3+]CCCC[C@H]([NH3+])C(=O)[O-]
REMARK SMILES IDX 4 1 3 2 2 3 1 4 5 8 6 9 7 10 8 14 9 15 10 16
REMARK H PARENT 1 5 1 6 1 7 7 11 7 12 7 13
REMARK Flexibility Score: inf
ROOT
ATOM      1  C   UNL     1       0.103   1.479  -6.501  1.00  0.00     0.012 C 
ENDROOT
BRANCH   1   2
ATOM      2  C   UNL     1      -0.675   2.037  -5.296  1.00  0.00     0.061 C 
BRANCH   2   3
ATOM      3  C   UNL     1      -1.016   3.528  -5.453  1.00  0.00     0.258 C 
BRANCH   3   4
ATOM      4  N   UNL     1      -1.470   4.126  -4.195  1.00  0.00    -0.358 N 
ATOM      5  H   UNL     1      -0.635   4.391  -3.625  1.00  0.00     0.344 HD
ATOM      6  H   UNL     1      -2.036   4.985  -4.382  1.00  0.00     0.344 HD
ATOM      7  H   UNL     1      -2.035   3.437  -3.648  1.00  0.00     0.344 HD
ENDBRANCH   3   4
ENDBRANCH   2   3
ENDBRANCH   1   2
BRANCH   1   8
ATOM      8  C   UNL     1       1.570   1.153  -6.150  1.00  0.00     0.072 C 
BRANCH   8   9
ATOM      9  C   UNL     1       2.082  -0.158  -6.791  1.00  0.00     0.227 C 
BRANCH   9  10
ATOM     10  N   UNL     1       3.487  -0.421  -6.457  1.00  0.00    -0.350 N 
ATOM     11  H   UNL     1       4.109   0.201  -7.022  1.00  0.00     0.345 HD
ATOM     12  H   UNL     1       3.731  -1.409  -6.694  1.00  0.00     0.345 HD
ATOM     13  H   UNL     1       3.665  -0.249  -5.441  1.00  0.00     0.345 HD
ENDBRANCH   9  10
BRANCH   9  14
ATOM     14  C   UNL     1       1.912  -0.085  -8.286  1.00  0.00     0.099 C 
ATOM     15  O   UNL     1       2.658   0.662  -8.973  1.00  0.00    -0.544 OA
ATOM     16  O   UNL     1       0.946  -0.859  -8.920  1.00  0.00    -0.544 OA
ENDBRANCH   9  14
ENDBRANCH   8   9
ENDBRANCH   1   8
TORSDOF 7
ENDMDL
MODEL 5
REMARK VINA RESULT:    -0.825      3.471      5.655
REMARK INTER + INTRA:          -1.100
REMARK INTER:                  -1.038
REMARK INTRA:                  -0.061
REMARK UNBOUND:                 0.015
REMARK SMILES [NH3+]CCCC[C@H]([NH3+])C(=O)[O-]
REMARK SMILES IDX 4 1 3 2 2 3 1 4 5 8 6 9 7 10 8 14 9 15 10 16
REMARK H PARENT 1 5 1 6 1 7 7 11 7 12 7 13
REMARK Flexibility Score: inf
ROOT
ATOM      1  C   UNL     1       1.021  -1.413  -9.601  1.00  0.00     0.012 C 
ENDROOT
BRANCH   1   2
ATOM      2  C   UNL     1       2.321  -0.719 -10.044  1.00  0.00     0.061 C 
BRANCH   2   3
ATOM      3  C   UNL     1       2.740   0.413  -9.092  1.00  0.00     0.258 C 
BRANCH   3   4
ATOM      4  N   UNL     1       4.178   0.399  -8.816  1.00  0.00    -0.358 N 
ATOM      5  H   UNL     1       4.358   0.908  -7.922  1.00  0.00     0.344 HD
ATOM      6  H   UNL     1       4.521  -0.585  -8.717  1.00  0.00     0.344 HD
ATOM      7  H   UNL     1       4.700   0.883  -9.581  1.00  0.00     0.344 HD
ENDBRANCH   3   4
ENDBRANCH   2   3
ENDBRANCH   1   2
BRANCH   1   8
ATOM      8  C   UNL     1       0.622  -2.565 -10.547  1.00  0.00     0.072 C 
BRANCH   8   9
ATOM      9  C   UNL     1      -0.903  -2.812 -10.611  1.00  0.00     0.227 C 
BRANCH   9  10
ATOM     10  N   UNL     1      -1.555  -2.559  -9.320  1.00  0.00    -0.350 N 
ATOM     11  H   UNL     1      -1.899  -3.459  -8.913  1.00  0.00     0.345 HD
ATOM     12  H   UNL     1      -2.385  -1.937  -9.454  1.00  0.00     0.345 HD
ATOM     13  H   UNL     1      -0.888  -2.114  -8.648  1.00  0.00     0.345 HD
ENDBRANCH   9  10
BRANCH   9  14
ATOM     14  C   UNL     1      -1.165  -4.227 -11.052  1.00  0.00     0.099 C 
ATOM     15  O   UNL     1      -1.541  -5.093 -10.217  1.00  0.00    -0.544 OA
ATOM     16  O   UNL     1      -1.017  -4.583 -12.388  1.00  0.00    -0.544 OA
ENDBRANCH   9  14
ENDBRANCH   8   9
ENDBRANCH   1   8
TORSDOF 7
ENDMDL
MODEL 6
REMARK VINA RESULT:    -0.822      1.844      2.186
REMARK INTER + INTRA:          -1.096
REMARK INTER:                  -1.243
REMARK INTRA:                   0.147
REMARK UNBOUND:                 0.015
REMARK SMILES [NH3+]CCCC[C@H]([NH3+])C(=O)[O-]
REMARK SMILES IDX 4 1 3 2 2 3 1 4 5 8 6 9 7 10 8 14 9 15 10 16
REMARK H PARENT 1 5 1 6 1 7 7 11 7 12 7 13
REMARK Flexibility Score: inf
ROOT
ATOM      1  C   UNL     1       0.660  -1.893  -9.741  1.00  0.00     0.012 C 
ENDROOT
BRANCH   1   2
ATOM      2  C   UNL     1      -0.773  -2.379 -10.021  1.00  0.00     0.061 C 
BRANCH   2   3
ATOM      3  C   UNL     1      -0.813  -3.580 -10.980  1.00  0.00     0.258 C 
BRANCH   3   4
ATOM      4  N   UNL     1      -1.837  -4.555 -10.601  1.00  0.00    -0.358 N 
ATOM      5  H   UNL     1      -2.559  -4.599 -11.354  1.00  0.00     0.344 HD
ATOM      6  H   UNL     1      -1.413  -5.504 -10.486  1.00  0.00     0.344 HD
ATOM      7  H   UNL     1      -2.306  -4.264  -9.713  1.00  0.00     0.344 HD
ENDBRANCH   3   4
ENDBRANCH   2   3
ENDBRANCH   1   2
BRANCH   1   8
ATOM      8  C   UNL     1       0.684  -0.543  -8.994  1.00  0.00     0.072 C 
BRANCH   8   9
ATOM      9  C   UNL     1       1.987  -0.303  -8.194  1.00  0.00     0.227 C 
BRANCH   9  10
ATOM     10  N   UNL     1       1.811   0.714  -7.150  1.00  0.00    -0.350 N 
ATOM     11  H   UNL     1       0.814   1.028  -7.124  1.00  0.00     0.345 HD
ATOM     12  H   UNL     1       2.399   1.550  -7.364  1.00  0.00     0.345 HD
ATOM     13  H   UNL     1       2.071   0.330  -6.212  1.00  0.00     0.345 HD
ENDBRANCH   9  10
BRANCH   9  14
ATOM     14  C   UNL     1       3.085   0.111  -9.137  1.00  0.00     0.099 C 
ATOM     15  O   UNL     1       2.866   0.178 -10.376  1.00  0.00    -0.544 OA
ATOM     16  O   UNL     1       4.343   0.443  -8.645  1.00  0.00    -0.544 OA
ENDBRANCH   9  14
ENDBRANCH   8   9
ENDBRANCH   1   8
TORSDOF 7
ENDMDL
MODEL 7
REMARK VINA RESULT:    -0.781      3.580      5.044
REMARK INTER + INTRA:          -1.040
REMARK INTER:                  -0.964
REMARK INTRA:                  -0.075
REMARK UNBOUND:                 0.015
REMARK SMILES [NH3+]CCCC[C@H]([NH3+])C(=O)[O-]
REMARK SMILES IDX 4 1 3 2 2 3 1 4 5 8 6 9 7 10 8 14 9 15 10 16
REMARK H PARENT 1 5 1 6 1 7 7 11 7 12 7 13
REMARK Flexibility Score: inf
ROOT
ATOM      1  C   UNL     1       0.786   1.220  -6.178  1.00  0.00     0.012 C 
ENDROOT
BRANCH   1   2
ATOM      2  C   UNL     1      -0.599   1.885  -6.093  1.00  0.00     0.061 C 
BRANCH   2   3
ATOM      3  C   UNL     1      -0.637   3.045  -5.084  1.00  0.00     0.258 C 
BRANCH   3   4
ATOM      4  N   UNL     1      -1.445   4.167  -5.564  1.00  0.00    -0.358 N 
ATOM      5  H   UNL     1      -1.411   4.936  -4.858  1.00  0.00     0.344 HD
ATOM      6  H   UNL     1      -1.068   4.527  -6.471  1.00  0.00     0.344 HD
ATOM      7  H   UNL     1      -2.441   3.873  -5.683  1.00  0.00     0.344 HD
ENDBRANCH   3   4
ENDBRANCH   2   3
ENDBRANCH   1   2
BRANCH   1   8
ATOM      8  C   UNL     1       1.019   0.525  -7.536  1.00  0.00     0.072 C 
BRANCH   8   9
ATOM      9  C   UNL     1       2.341  -0.275  -7.601  1.00  0.00     0.227 C 
BRANCH   9  10
ATOM     10  N   UNL     1       3.194  -0.023  -6.433  1.00  0.00    -0.350 N 
ATOM     11  H   UNL     1       3.338   1.006  -6.314  1.00  0.00     0.345 HD
ATOM     12  H   UNL     1       4.134  -0.457  -6.578  1.00  0.00     0.345 HD
ATOM     13  H   UNL     1       2.758  -0.410  -5.565  1.00  0.00     0.345 HD
ENDBRANCH   9  10
BRANCH   9  14
ATOM     14  C   UNL     1       3.079   0.078  -8.865  1.00  0.00     0.099 C 
ATOM     15  O   UNL     1       2.502  -0.008  -9.982  1.00  0.00    -0.544 OA
ATOM     16  O   UNL     1       4.395   0.523  -8.807  1.00  0.00    -0.544 OA
ENDBRANCH   9  14
ENDBRANCH   8   9
ENDBRANCH   1   8
TORSDOF 7
ENDMDL
MODEL 8
REMARK VINA RESULT:     0.551      4.598      6.051
REMARK INTER + INTRA:           0.759
REMARK INTER:                   0.829
REMARK INTRA:                  -0.070
REMARK UNBOUND:                 0.015
REMARK SMILES [NH3+]CCCC[C@H]([NH3+])C(=O)[O-]
REMARK SMILES IDX 4 1 3 2 2 3 1 4 5 8 6 9 7 10 8 14 9 15 10 16
REMARK H PARENT 1 5 1 6 1 7 7 11 7 12 7 13
REMARK Flexibility Score: inf
ROOT
ATOM      1  C   UNL     1       0.816   1.458  -6.053  1.00  0.00     0.012 C 
ENDROOT
BRANCH   1   2
ATOM      2  C   UNL     1       2.206   0.887  -5.723  1.00  0.00     0.061 C 
BRANCH   2   3
ATOM      3  C   UNL     1       2.638  -0.219  -6.700  1.00  0.00     0.258 C 
BRANCH   3   4
ATOM      4  N   UNL     1       2.317   0.114  -8.089  1.00  0.00    -0.358 N 
ATOM      5  H   UNL     1       3.205   0.280  -8.613  1.00  0.00     0.344 HD
ATOM      6  H   UNL     1       1.801  -0.674  -8.543  1.00  0.00     0.344 HD
ATOM      7  H   UNL     1       1.743   0.987  -8.130  1.00  0.00     0.344 HD
ENDBRANCH   3   4
ENDBRANCH   2   3
ENDBRANCH   1   2
BRANCH   1   8
ATOM      8  C   UNL     1       0.366   2.527  -5.035  1.00  0.00     0.072 C 
BRANCH   8   9
ATOM      9  C   UNL     1      -1.136   2.882  -5.136  1.00  0.00     0.227 C 
BRANCH   9  10
ATOM     10  N   UNL     1      -1.569   3.050  -6.529  1.00  0.00    -0.350 N 
ATOM     11  H   UNL     1      -1.053   2.380  -7.145  1.00  0.00     0.345 HD
ATOM     12  H   UNL     1      -1.344   4.016  -6.858  1.00  0.00     0.345 HD
ATOM     13  H   UNL     1      -2.596   2.877  -6.622  1.00  0.00     0.345 HD
ENDBRANCH   9  10
BRANCH   9  14
ATOM     14  C   UNL     1      -1.408   4.141  -4.356  1.00  0.00     0.099 C 
ATOM     15  O   UNL     1      -1.261   4.155  -3.105  1.00  0.00    -0.544 OA
ATOM     16  O   UNL     1      -1.801   5.301  -5.013  1.00  0.00    -0.544 OA
ENDBRANCH   9  14
ENDBRANCH   8   9
ENDBRANCH   1   8
TORSDOF 7
ENDMDL
