MODEL 1
REMARK VINA RESULT:    -4.624      0.000      0.000
REMARK INTER + INTRA:         -11.226
REMARK INTER:                  -8.678
REMARK INTRA:                  -2.548
REMARK UNBOUND:                -2.548
REMARK SMILES CCCCCCCCC=CCCCCCCCC(=O)[O-]
REMARK SMILES IDX 10 1 9 2 11 3 12 4 13 5 14 6 15 7 16 8 17 9 18 10 19 11
REMARK SMILES IDX 20 12 8 13 7 14 6 15 5 16 4 17 3 18 2 19 1 20
REMARK H PARENT
REMARK Flexibility Score: inf
ROOT
ATOM      1  C   UNL     1       8.272   6.972  32.223  1.00  0.00    -0.031 C 
ATOM      2  C   UNL     1       7.215   7.473  32.879  1.00  0.00    -0.031 C 
ENDROOT
BRANCH   1   3
ATOM      3  C   UNL     1       8.245   6.765  30.734  1.00  0.00     0.027 C 
BRANCH   3   4
ATOM      4  C   UNL     1       9.561   6.138  30.246  1.00  0.00     0.004 C 
BRANCH   4   5
ATOM      5  C   UNL     1      10.614   7.189  29.866  1.00  0.00     0.000 C 
BRANCH   5   6
ATOM      6  C   UNL     1      11.770   7.262  30.875  1.00  0.00     0.000 C 
BRANCH   6   7
ATOM      7  C   UNL     1      11.975   8.702  31.368  1.00  0.00     0.000 C 
BRANCH   7   8
ATOM      8  C   UNL     1      11.075   9.058  32.565  1.00  0.00     0.006 C 
BRANCH   8   9
ATOM      9  C   UNL     1      10.514  10.489  32.529  1.00  0.00     0.053 C 
BRANCH   9  10
ATOM     10  C   UNL     1       9.153  10.545  31.906  1.00  0.00     0.041 C 
ATOM     11  O   UNL     1       8.150  10.854  32.602  1.00  0.00    -0.550 OA
ATOM     12  O   UNL     1       8.993  10.264  30.554  1.00  0.00    -0.550 OA
ENDBRANCH   9  10
ENDBRANCH   8   9
ENDBRANCH   7   8
ENDBRANCH   6   7
ENDBRANCH   5   6
ENDBRANCH   4   5
ENDBRANCH   3   4
ENDBRANCH   1   3
BRANCH   2  13
ATOM     13  C   UNL     1       7.204   7.609  34.378  1.00  0.00     0.027 C 
BRANCH  13  14
ATOM     14  C   UNL     1       6.523   6.405  35.042  1.00  0.00     0.004 C 
BRANCH  14  15
ATOM     15  C   UNL     1       7.538   5.344  35.499  1.00  0.00     0.000 C 
BRANCH  15  16
ATOM     16  C   UNL     1       7.204   3.935  34.984  1.00  0.00     0.000 C 
BRANCH  16  17
ATOM     17  C   UNL     1       7.009   3.865  33.454  1.00  0.00    -0.000 C 
BRANCH  17  18
ATOM     18  C   UNL     1       8.189   3.171  32.751  1.00  0.00    -0.000 C 
BRANCH  18  19
ATOM     19  C   UNL     1       7.916   2.906  31.263  1.00  0.00    -0.003 C 
ATOM     20  C   UNL     1       6.662   3.616  30.756  1.00  0.00     0.004 C 
ENDBRANCH  18  19
ENDBRANCH  17  18
ENDBRANCH  16  17
ENDBRANCH  15  16
ENDBRANCH  14  15
ENDBRANCH  13  14
ENDBRANCH   2  13
TORSDOF 15
ENDMDL
MODEL 2
REMARK VINA RESULT:    -4.599      2.139      4.370
REMARK INTER + INTRA:         -11.180
REMARK INTER:                  -9.214
REMARK INTRA:                  -1.966
REMARK UNBOUND:                -2.548
REMARK SMILES CCCCCCCCC=CCCCCCCCC(=O)[O-]
REMARK SMILES IDX 10 1 9 2 11 3 12 4 13 5 14 6 15 7 16 8 17 9 18 10 19 11
REMARK SMILES IDX 20 12 8 13 7 14 6 15 5 16 4 17 3 18 2 19 1 20
REMARK H PARENT
REMARK Flexibility Score: inf
ROOT
ATOM      1  C   UNL     1       8.684   7.172  31.177  1.00  0.00    -0.031 C 
ATOM      2  C   UNL     1       7.781   6.183  31.258  1.00  0.00    -0.031 C 
ENDROOT
BRANCH   1   3
ATOM      3  C   UNL     1       8.792   8.225  32.246  1.00  0.00     0.027 C 
BRANCH   3   4
ATOM      4  C   UNL     1       9.801   7.804  33.326  1.00  0.00     0.004 C 
BRANCH   4   5
ATOM      5  C   UNL     1       9.170   7.710  34.723  1.00  0.00     0.000 C 
BRANCH   5   6
ATOM      6  C   UNL     1       9.001   6.259  35.201  1.00  0.00     0.000 C 
BRANCH   6   7
ATOM      7  C   UNL     1       7.585   6.025  35.746  1.00  0.00     0.000 C 
BRANCH   7   8
ATOM      8  C   UNL     1       6.485   6.460  34.760  1.00  0.00     0.006 C 
BRANCH   8   9
ATOM      9  C   UNL     1       5.631   7.642  35.249  1.00  0.00     0.053 C 
BRANCH   9  10
ATOM     10  C   UNL     1       5.776   8.844  34.368  1.00  0.00     0.041 C 
ATOM     11  O   UNL     1       5.303   8.835  33.201  1.00  0.00    -0.550 OA
ATOM     12  O   UNL     1       6.427   9.979  34.837  1.00  0.00    -0.550 OA
ENDBRANCH   9  10
ENDBRANCH   8   9
ENDBRANCH   7   8
ENDBRANCH   6   7
ENDBRANCH   5   6
ENDBRANCH   4   5
ENDBRANCH   3   4
ENDBRANCH   1   3
BRANCH   2  13
ATOM     13  C   UNL     1       7.611   5.173  30.155  1.00  0.00     0.027 C 
BRANCH  13  14
ATOM     14  C   UNL     1       7.251   3.791  30.715  1.00  0.00     0.004 C 
BRANCH  14  15
ATOM     15  C   UNL     1       6.805   3.860  32.185  1.00  0.00     0.000 C 
BRANCH  15  16
ATOM     16  C   UNL     1       7.865   3.316  33.158  1.00  0.00     0.000 C 
BRANCH  16  17
ATOM     17  C   UNL     1       8.861   2.335  32.503  1.00  0.00    -0.000 C 
BRANCH  17  18
ATOM     18  C   UNL     1       9.239   1.178  33.446  1.00  0.00    -0.000 C 
BRANCH  18  19
ATOM     19  C   UNL     1      10.687   0.707  33.251  1.00  0.00    -0.003 C 
ATOM     20  C   UNL     1      10.860  -0.178  32.017  1.00  0.00     0.004 C 
ENDBRANCH  18  19
ENDBRANCH  17  18
ENDBRANCH  16  17
ENDBRANCH  15  16
ENDBRANCH  14  15
ENDBRANCH  13  14
ENDBRANCH   2  13
TORSDOF 15
ENDMDL
MODEL 3
REMARK VINA RESULT:    -4.556      1.400      4.765
REMARK INTER + INTRA:         -11.100
REMARK INTER:                  -8.619
REMARK INTRA:                  -2.481
REMARK UNBOUND:                -2.548
REMARK SMILES CCCCCCCCC=CCCCCCCCC(=O)[O-]
REMARK SMILES IDX 10 1 9 2 11 3 12 4 13 5 14 6 15 7 16 8 17 9 18 10 19 11
REMARK SMILES IDX 20 12 8 13 7 14 6 15 5 16 4 17 3 18 2 19 1 20
REMARK H PARENT
REMARK Flexibility Score: inf
ROOT
ATOM      1  C   UNL     1       7.839   3.307  32.447  1.00  0.00    -0.031 C 
ATOM      2  C   UNL     1       7.089   3.870  31.488  1.00  0.00    -0.031 C 
ENDROOT
BRANCH   1   3
ATOM      3  C   UNL     1       7.510   3.481  33.903  1.00  0.00     0.027 C 
BRANCH   3   4
ATOM      4  C   UNL     1       6.360   4.484  34.088  1.00  0.00     0.004 C 
BRANCH   4   5
ATOM      5  C   UNL     1       6.784   5.734  34.874  1.00  0.00     0.000 C 
BRANCH   5   6
ATOM      6  C   UNL     1       7.515   6.765  34.001  1.00  0.00     0.000 C 
BRANCH   6   7
ATOM      7  C   UNL     1       8.946   6.996  34.510  1.00  0.00     0.000 C 
BRANCH   7   8
ATOM      8  C   UNL     1       9.522   8.356  34.077  1.00  0.00     0.006 C 
BRANCH   8   9
ATOM      9  C   UNL     1       8.458   9.413  33.737  1.00  0.00     0.053 C 
BRANCH   9  10
ATOM     10  C   UNL     1       8.882  10.297  32.606  1.00  0.00     0.041 C 
ATOM     11  O   UNL     1      10.081  10.300  32.219  1.00  0.00    -0.550 OA
ATOM     12  O   UNL     1       7.953  11.113  31.971  1.00  0.00    -0.550 OA
ENDBRANCH   9  10
ENDBRANCH   8   9
ENDBRANCH   7   8
ENDBRANCH   6   7
ENDBRANCH   5   6
ENDBRANCH   4   5
ENDBRANCH   3   4
ENDBRANCH   1   3
BRANCH   2  13
ATOM     13  C   UNL     1       7.458   3.769  30.032  1.00  0.00     0.027 C 
BRANCH  13  14
ATOM     14  C   UNL     1       8.136   5.053  29.537  1.00  0.00     0.004 C 
BRANCH  14  15
ATOM     15  C   UNL     1       7.805   6.263  30.427  1.00  0.00     0.000 C 
BRANCH  15  16
ATOM     16  C   UNL     1       8.985   7.237  30.576  1.00  0.00     0.000 C 
BRANCH  16  17
ATOM     17  C   UNL     1      10.298   6.557  31.017  1.00  0.00    -0.000 C 
BRANCH  17  18
ATOM     18  C   UNL     1      11.539   7.274  30.456  1.00  0.00    -0.000 C 
BRANCH  18  19
ATOM     19  C   UNL     1      12.305   6.417  29.437  1.00  0.00    -0.003 C 
ATOM     20  C   UNL     1      11.802   6.608  28.007  1.00  0.00     0.004 C 
ENDBRANCH  18  19
ENDBRANCH  17  18
ENDBRANCH  16  17
ENDBRANCH  15  16
ENDBRANCH  14  15
ENDBRANCH  13  14
ENDBRANCH   2  13
TORSDOF 15
ENDMDL
MODEL 4
REMARK VINA RESULT:    -4.491      3.592      5.445
REMARK INTER + INTRA:         -10.977
REMARK INTER:                  -8.906
REMARK INTRA:                  -2.071
REMARK UNBOUND:                -2.548
REMARK SMILES CCCCCCCCC=CCCCCCCCC(=O)[O-]
REMARK SMILES IDX 10 1 9 2 11 3 12 4 13 5 14 6 15 7 16 8 17 9 18 10 19 11
REMARK SMILES IDX 20 12 8 13 7 14 6 15 5 16 4 17 3 18 2 19 1 20
REMARK H PARENT
REMARK Flexibility Score: inf
ROOT
ATOM      1  C   UNL     1       6.768   3.881  32.177  1.00  0.00    -0.031 C 
ATOM      2  C   UNL     1       7.258   3.758  33.419  1.00  0.00    -0.031 C 
ENDROOT
BRANCH   1   3
ATOM      3  C   UNL     1       7.534   3.391  30.979  1.00  0.00     0.027 C 
BRANCH   3   4
ATOM      4  C   UNL     1       7.368   4.355  29.794  1.00  0.00     0.004 C 
BRANCH   4   5
ATOM      5  C   UNL     1       8.563   5.306  29.630  1.00  0.00     0.000 C 
BRANCH   5   6
ATOM      6  C   UNL     1       9.073   5.374  28.182  1.00  0.00     0.000 C 
BRANCH   6   7
ATOM      7  C   UNL     1      10.552   5.785  28.142  1.00  0.00     0.000 C 
BRANCH   7   8
ATOM      8  C   UNL     1      11.122   5.828  26.712  1.00  0.00     0.006 C 
BRANCH   8   9
ATOM      9  C   UNL     1      10.078   6.134  25.626  1.00  0.00     0.053 C 
BRANCH   9  10
ATOM     10  C   UNL     1       9.980   5.034  24.614  1.00  0.00     0.041 C 
ATOM     11  O   UNL     1       9.518   5.268  23.466  1.00  0.00    -0.550 OA
ATOM     12  O   UNL     1      10.404   3.750  24.936  1.00  0.00    -0.550 OA
ENDBRANCH   9  10
ENDBRANCH   8   9
ENDBRANCH   7   8
ENDBRANCH   6   7
ENDBRANCH   5   6
ENDBRANCH   4   5
ENDBRANCH   3   4
ENDBRANCH   1   3
BRANCH   2  13
ATOM     13  C   UNL     1       6.536   4.317  34.615  1.00  0.00     0.027 C 
BRANCH  13  14
ATOM     14  C   UNL     1       7.521   4.864  35.657  1.00  0.00     0.004 C 
BRANCH  14  15
ATOM     15  C   UNL     1       7.250   6.341  35.990  1.00  0.00     0.000 C 
BRANCH  15  16
ATOM     16  C   UNL     1       6.110   6.944  35.154  1.00  0.00     0.000 C 
BRANCH  16  17
ATOM     17  C   UNL     1       6.571   8.052  34.183  1.00  0.00    -0.000 C 
BRANCH  17  18
ATOM     18  C   UNL     1       6.996   7.485  32.817  1.00  0.00    -0.000 C 
BRANCH  18  19
ATOM     19  C   UNL     1       8.468   7.776  32.489  1.00  0.00    -0.003 C 
ATOM     20  C   UNL     1       9.402   6.641  32.907  1.00  0.00     0.004 C 
ENDBRANCH  18  19
ENDBRANCH  17  18
ENDBRANCH  16  17
ENDBRANCH  15  16
ENDBRANCH  14  15
ENDBRANCH  13  14
ENDBRANCH   2  13
TORSDOF 15
ENDMDL
MODEL 5
REMARK VINA RESULT:    -4.487      1.495      3.579
REMARK INTER + INTRA:         -10.969
REMARK INTER:                  -8.897
REMARK INTRA:                  -2.072
REMARK UNBOUND:                -2.548
REMARK SMILES CCCCCCCCC=CCCCCCCCC(=O)[O-]
REMARK SMILES IDX 10 1 9 2 11 3 12 4 13 5 14 6 15 7 16 8 17 9 18 10 19 11
REMARK SMILES IDX 20 12 8 13 7 14 6 15 5 16 4 17 3 18 2 19 1 20
REMARK H PARENT
REMARK Flexibility Score: inf
ROOT
ATOM      1  C   UNL     1       8.384   6.439  31.280  1.00  0.00    -0.031 C 
ATOM      2  C   UNL     1       8.653   5.392  30.486  1.00  0.00    -0.031 C 
ENDROOT
BRANCH   1   3
ATOM      3  C   UNL     1       9.481   7.225  31.942  1.00  0.00     0.027 C 
BRANCH   3   4
ATOM      4  C   UNL     1       9.848   8.462  31.108  1.00  0.00     0.004 C 
BRANCH   4   5
ATOM      5  C   UNL     1      10.582   9.534  31.928  1.00  0.00     0.000 C 
BRANCH   5   6
ATOM      6  C   UNL     1      10.128   9.573  33.395  1.00  0.00     0.000 C 
BRANCH   6   7
ATOM      7  C   UNL     1       9.047  10.644  33.605  1.00  0.00     0.000 C 
BRANCH   7   8
ATOM      8  C   UNL     1       9.081  11.745  32.530  1.00  0.00     0.006 C 
BRANCH   8   9
ATOM      9  C   UNL     1       7.732  11.989  31.834  1.00  0.00     0.053 C 
BRANCH   9  10
ATOM     10  C   UNL     1       7.894  12.251  30.368  1.00  0.00     0.041 C 
ATOM     11  O   UNL     1       7.489  13.335  29.869  1.00  0.00    -0.550 OA
ATOM     12  O   UNL     1       8.500  11.303  29.552  1.00  0.00    -0.550 OA
ENDBRANCH   9  10
ENDBRANCH   8   9
ENDBRANCH   7   8
ENDBRANCH   6   7
ENDBRANCH   5   6
ENDBRANCH   4   5
ENDBRANCH   3   4
ENDBRANCH   1   3
BRANCH   2  13
ATOM     13  C   UNL     1       7.560   4.551  29.884  1.00  0.00     0.027 C 
BRANCH  13  14
ATOM     14  C   UNL     1       6.863   3.695  30.950  1.00  0.00     0.004 C 
BRANCH  14  15
ATOM     15  C   UNL     1       7.864   2.869  31.775  1.00  0.00     0.000 C 
BRANCH  15  16
ATOM     16  C   UNL     1       7.846   3.226  33.270  1.00  0.00     0.000 C 
BRANCH  16  17
ATOM     17  C   UNL     1       6.681   4.156  33.670  1.00  0.00    -0.000 C 
BRANCH  17  18
ATOM     18  C   UNL     1       7.120   5.236  34.674  1.00  0.00    -0.000 C 
BRANCH  18  19
ATOM     19  C   UNL     1       6.203   6.469  34.654  1.00  0.00    -0.003 C 
ATOM     20  C   UNL     1       6.981   7.784  34.654  1.00  0.00     0.004 C 
ENDBRANCH  18  19
ENDBRANCH  17  18
ENDBRANCH  16  17
ENDBRANCH  15  16
ENDBRANCH  14  15
ENDBRANCH  13  14
ENDBRANCH   2  13
TORSDOF 15
ENDMDL
MODEL 6
REMARK VINA RESULT:    -4.443      4.229      5.587
REMARK INTER + INTRA:         -10.888
REMARK INTER:                  -9.073
REMARK INTRA:                  -1.814
REMARK UNBOUND:                -2.548
REMARK SMILES CCCCCCCCC=CCCCCCCCC(=O)[O-]
REMARK SMILES IDX 10 1 9 2 11 3 12 4 13 5 14 6 15 7 16 8 17 9 18 10 19 11
REMARK SMILES IDX 20 12 8 13 7 14 6 15 5 16 4 17 3 18 2 19 1 20
REMARK H PARENT
REMARK Flexibility Score: inf
ROOT
ATOM      1  C   UNL     1       9.122   6.488  30.767  1.00  0.00    -0.031 C 
ATOM      2  C   UNL     1       9.827   6.427  31.907  1.00  0.00    -0.031 C 
ENDROOT
BRANCH   1   3
ATOM      3  C   UNL     1       9.751   6.177  29.438  1.00  0.00     0.027 C 
BRANCH   3   4
ATOM      4  C   UNL     1      11.240   6.557  29.435  1.00  0.00     0.004 C 
BRANCH   4   5
ATOM      5  C   UNL     1      11.952   6.161  28.133  1.00  0.00     0.000 C 
BRANCH   5   6
ATOM      6  C   UNL     1      11.023   5.435  27.146  1.00  0.00     0.000 C 
BRANCH   6   7
ATOM      7  C   UNL     1      11.062   6.106  25.765  1.00  0.00     0.000 C 
BRANCH   7   8
ATOM      8  C   UNL     1       9.682   6.152  25.085  1.00  0.00     0.006 C 
BRANCH   8   9
ATOM      9  C   UNL     1       9.458   5.050  24.036  1.00  0.00     0.053 C 
BRANCH   9  10
ATOM     10  C   UNL     1      10.405   5.170  22.882  1.00  0.00     0.041 C 
ATOM     11  O   UNL     1      11.133   4.196  22.555  1.00  0.00    -0.550 OA
ATOM     12  O   UNL     1      10.478   6.357  22.161  1.00  0.00    -0.550 OA
ENDBRANCH   9  10
ENDBRANCH   8   9
ENDBRANCH   7   8
ENDBRANCH   6   7
ENDBRANCH   5   6
ENDBRANCH   4   5
ENDBRANCH   3   4
ENDBRANCH   1   3
BRANCH   2  13
ATOM     13  C   UNL     1       9.228   6.815  33.231  1.00  0.00     0.027 C 
BRANCH  13  14
ATOM     14  C   UNL     1       7.695   6.762  33.188  1.00  0.00     0.004 C 
BRANCH  14  15
ATOM     15  C   UNL     1       7.111   5.939  34.348  1.00  0.00     0.000 C 
BRANCH  15  16
ATOM     16  C   UNL     1       6.501   4.605  33.887  1.00  0.00     0.000 C 
BRANCH  16  17
ATOM     17  C   UNL     1       7.529   3.458  33.782  1.00  0.00    -0.000 C 
BRANCH  17  18
ATOM     18  C   UNL     1       7.957   3.195  32.327  1.00  0.00    -0.000 C 
BRANCH  18  19
ATOM     19  C   UNL     1       6.919   3.689  31.308  1.00  0.00    -0.003 C 
ATOM     20  C   UNL     1       7.127   3.092  29.917  1.00  0.00     0.004 C 
ENDBRANCH  18  19
ENDBRANCH  17  18
ENDBRANCH  16  17
ENDBRANCH  15  16
ENDBRANCH  14  15
ENDBRANCH  13  14
ENDBRANCH   2  13
TORSDOF 15
ENDMDL
MODEL 7
REMARK VINA RESULT:    -4.423      1.742      4.747
REMARK INTER + INTRA:         -10.850
REMARK INTER:                  -8.068
REMARK INTRA:                  -2.782
REMARK UNBOUND:                -2.548
REMARK SMILES CCCCCCCCC=CCCCCCCCC(=O)[O-]
REMARK SMILES IDX 10 1 9 2 11 3 12 4 13 5 14 6 15 7 16 8 17 9 18 10 19 11
REMARK SMILES IDX 20 12 8 13 7 14 6 15 5 16 4 17 3 18 2 19 1 20
REMARK H PARENT
REMARK Flexibility Score: inf
ROOT
ATOM      1  C   UNL     1       7.838   4.858  35.312  1.00  0.00    -0.031 C 
ATOM      2  C   UNL     1       7.182   3.892  34.651  1.00  0.00    -0.031 C 
ENDROOT
BRANCH   1   3
ATOM      3  C   UNL     1       7.130   6.089  35.806  1.00  0.00     0.027 C 
BRANCH   3   4
ATOM      4  C   UNL     1       6.139   6.610  34.753  1.00  0.00     0.004 C 
BRANCH   4   5
ATOM      5  C   UNL     1       5.604   8.011  35.083  1.00  0.00     0.000 C 
BRANCH   5   6
ATOM      6  C   UNL     1       5.616   8.952  33.869  1.00  0.00     0.000 C 
BRANCH   6   7
ATOM      7  C   UNL     1       6.432  10.219  34.166  1.00  0.00     0.000 C 
BRANCH   7   8
ATOM      8  C   UNL     1       6.761  11.029  32.899  1.00  0.00     0.006 C 
BRANCH   8   9
ATOM      9  C   UNL     1       7.880  12.067  33.087  1.00  0.00     0.053 C 
BRANCH   9  10
ATOM     10  C   UNL     1       9.114  11.709  32.318  1.00  0.00     0.041 C 
ATOM     11  O   UNL     1       9.037  11.408  31.098  1.00  0.00    -0.550 OA
ATOM     12  O   UNL     1      10.354  11.716  32.947  1.00  0.00    -0.550 OA
ENDBRANCH   9  10
ENDBRANCH   8   9
ENDBRANCH   7   8
ENDBRANCH   6   7
ENDBRANCH   5   6
ENDBRANCH   4   5
ENDBRANCH   3   4
ENDBRANCH   1   3
BRANCH   2  13
ATOM     13  C   UNL     1       7.897   2.696  34.082  1.00  0.00     0.027 C 
BRANCH  13  14
ATOM     14  C   UNL     1       8.274   2.918  32.612  1.00  0.00     0.004 C 
BRANCH  14  15
ATOM     15  C   UNL     1       7.149   3.608  31.823  1.00  0.00     0.000 C 
BRANCH  15  16
ATOM     16  C   UNL     1       7.665   4.714  30.888  1.00  0.00     0.000 C 
BRANCH  16  17
ATOM     17  C   UNL     1       7.617   6.124  31.513  1.00  0.00    -0.000 C 
BRANCH  17  18
ATOM     18  C   UNL     1       8.968   6.531  32.129  1.00  0.00    -0.000 C 
BRANCH  18  19
ATOM     19  C   UNL     1       9.015   8.015  32.521  1.00  0.00    -0.003 C 
ATOM     20  C   UNL     1       9.579   8.238  33.923  1.00  0.00     0.004 C 
ENDBRANCH  18  19
ENDBRANCH  17  18
ENDBRANCH  16  17
ENDBRANCH  15  16
ENDBRANCH  14  15
ENDBRANCH  13  14
ENDBRANCH   2  13
TORSDOF 15
ENDMDL
MODEL 8
REMARK VINA RESULT:    -4.395      1.588      5.903
REMARK INTER + INTRA:         -10.796
REMARK INTER:                  -8.596
REMARK INTRA:                  -2.200
REMARK UNBOUND:                -2.548
REMARK SMILES CCCCCCCCC=CCCCCCCCC(=O)[O-]
REMARK SMILES IDX 10 1 9 2 11 3 12 4 13 5 14 6 15 7 16 8 17 9 18 10 19 11
REMARK SMILES IDX 20 12 8 13 7 14 6 15 5 16 4 17 3 18 2 19 1 20
REMARK H PARENT
REMARK Flexibility Score: inf
ROOT
ATOM      1  C   UNL     1       7.593   4.343  30.383  1.00  0.00    -0.031 C 
ATOM      2  C   UNL     1       8.463   5.308  30.717  1.00  0.00    -0.031 C 
ENDROOT
BRANCH   1   3
ATOM      3  C   UNL     1       6.762   3.643  31.421  1.00  0.00     0.027 C 
BRANCH   3   4
ATOM      4  C   UNL     1       7.404   3.769  32.812  1.00  0.00     0.004 C 
BRANCH   4   5
ATOM      5  C   UNL     1       6.406   4.224  33.887  1.00  0.00     0.000 C 
BRANCH   5   6
ATOM      6  C   UNL     1       6.750   5.604  34.469  1.00  0.00     0.000 C 
BRANCH   6   7
ATOM      7  C   UNL     1       8.230   5.942  34.239  1.00  0.00     0.000 C 
BRANCH   7   8
ATOM      8  C   UNL     1       8.450   7.408  33.822  1.00  0.00     0.006 C 
BRANCH   8   9
ATOM      9  C   UNL     1       7.361   7.970  32.894  1.00  0.00     0.053 C 
BRANCH   9  10
ATOM     10  C   UNL     1       6.590   9.080  33.540  1.00  0.00     0.041 C 
ATOM     11  O   UNL     1       5.361   9.221  33.301  1.00  0.00    -0.550 OA
ATOM     12  O   UNL     1       7.225   9.955  34.413  1.00  0.00    -0.550 OA
ENDBRANCH   9  10
ENDBRANCH   8   9
ENDBRANCH   7   8
ENDBRANCH   6   7
ENDBRANCH   5   6
ENDBRANCH   4   5
ENDBRANCH   3   4
ENDBRANCH   1   3
BRANCH   2  13
ATOM     13  C   UNL     1       9.357   5.958  29.695  1.00  0.00     0.027 C 
BRANCH  13  14
ATOM     14  C   UNL     1      10.574   6.616  30.357  1.00  0.00     0.004 C 
BRANCH  14  15
ATOM     15  C   UNL     1      10.778   8.065  29.883  1.00  0.00     0.000 C 
BRANCH  15  16
ATOM     16  C   UNL     1      10.471   9.101  30.977  1.00  0.00     0.000 C 
BRANCH  16  17
ATOM     17  C   UNL     1       9.302  10.045  30.624  1.00  0.00    -0.000 C 
BRANCH  17  18
ATOM     18  C   UNL     1       9.123  11.161  31.669  1.00  0.00    -0.000 C 
BRANCH  18  19
ATOM     19  C   UNL     1       8.450  12.413  31.087  1.00  0.00    -0.003 C 
ATOM     20  C   UNL     1       7.185  12.810  31.845  1.00  0.00     0.004 C 
ENDBRANCH  18  19
ENDBRANCH  17  18
ENDBRANCH  16  17
ENDBRANCH  15  16
ENDBRANCH  14  15
ENDBRANCH  13  14
ENDBRANCH   2  13
TORSDOF 15
ENDMDL
MODEL 9
REMARK VINA RESULT:    -4.364      2.485      5.779
REMARK INTER + INTRA:         -10.738
REMARK INTER:                  -8.739
REMARK INTRA:                  -1.999
REMARK UNBOUND:                -2.548
REMARK SMILES CCCCCCCCC=CCCCCCCCC(=O)[O-]
REMARK SMILES IDX 10 1 9 2 11 3 12 4 13 5 14 6 15 7 16 8 17 9 18 10 19 11
REMARK SMILES IDX 20 12 8 13 7 14 6 15 5 16 4 17 3 18 2 19 1 20
REMARK H PARENT
REMARK Flexibility Score: inf
ROOT
ATOM      1  C   UNL     1       8.110   5.660  30.541  1.00  0.00    -0.031 C 
ATOM      2  C   UNL     1       9.313   5.820  31.111  1.00  0.00    -0.031 C 
ENDROOT
BRANCH   1   3
ATOM      3  C   UNL     1       7.496   4.297  30.373  1.00  0.00     0.027 C 
BRANCH   3   4
ATOM      4  C   UNL     1       7.528   3.517  31.697  1.00  0.00     0.004 C 
BRANCH   4   5
ATOM      5  C   UNL     1       6.492   4.025  32.711  1.00  0.00     0.000 C 
BRANCH   5   6
ATOM      6  C   UNL     1       7.068   4.165  34.128  1.00  0.00     0.000 C 
BRANCH   6   7
ATOM      7  C   UNL     1       7.656   5.568  34.344  1.00  0.00     0.000 C 
BRANCH   7   8
ATOM      8  C   UNL     1       6.579   6.667  34.388  1.00  0.00     0.006 C 
BRANCH   8   9
ATOM      9  C   UNL     1       6.784   7.793  33.361  1.00  0.00     0.053 C 
BRANCH   9  10
ATOM     10  C   UNL     1       7.334   9.035  33.991  1.00  0.00     0.041 C 
ATOM     11  O   UNL     1       8.544   9.346  33.829  1.00  0.00    -0.550 OA
ATOM     12  O   UNL     1       6.509   9.856  34.751  1.00  0.00    -0.550 OA
ENDBRANCH   9  10
ENDBRANCH   8   9
ENDBRANCH   7   8
ENDBRANCH   6   7
ENDBRANCH   5   6
ENDBRANCH   4   5
ENDBRANCH   3   4
ENDBRANCH   1   3
BRANCH   2  13
ATOM     13  C   UNL     1       9.970   7.171  31.210  1.00  0.00     0.027 C 
BRANCH  13  14
ATOM     14  C   UNL     1      10.491   7.639  29.845  1.00  0.00     0.004 C 
BRANCH  14  15
ATOM     15  C   UNL     1      11.449   6.618  29.209  1.00  0.00     0.000 C 
BRANCH  15  16
ATOM     16  C   UNL     1      11.249   6.474  27.692  1.00  0.00     0.000 C 
BRANCH  16  17
ATOM     17  C   UNL     1      10.199   5.411  27.305  1.00  0.00    -0.000 C 
BRANCH  17  18
ATOM     18  C   UNL     1      10.094   5.228  25.780  1.00  0.00    -0.000 C 
BRANCH  18  19
ATOM     19  C   UNL     1       9.694   6.522  25.056  1.00  0.00    -0.003 C 
ATOM     20  C   UNL     1      10.548   6.795  23.819  1.00  0.00     0.004 C 
ENDBRANCH  18  19
ENDBRANCH  17  18
ENDBRANCH  16  17
ENDBRANCH  15  16
ENDBRANCH  14  15
ENDBRANCH  13  14
ENDBRANCH   2  13
TORSDOF 15
ENDMDL
