MODEL 1
REMARK VINA RESULT:    -4.785      0.000      0.000
REMARK INTER + INTRA:          -8.332
REMARK INTER:                  -7.442
REMARK INTRA:                  -0.889
REMARK UNBOUND:                -0.889
REMARK SMILES COc1cc(CNC(=O)CCCCC=CC(C)C)ccc1O
REMARK SMILES IDX 11 1 12 2 13 3 14 4 15 5 16 6 17 7 18 8 10 9 8 10 9 11 7 12
REMARK SMILES IDX 6 14 5 15 4 16 19 17 3 18 20 19 21 20 2 21 1 22 22 23
REMARK H PARENT 7 13 22 24
REMARK Flexibility Score: inf
ROOT
ATOM      1  C   UNL     1      34.339 -35.876   7.226  1.00  0.00     0.010 C 
ENDROOT
BRANCH   1   2
ATOM      2  C   UNL     1      35.593 -35.891   6.327  1.00  0.00     0.005 C 
BRANCH   2   3
ATOM      3  C   UNL     1      35.978 -37.286   5.804  1.00  0.00     0.027 C 
BRANCH   3   4
ATOM      4  C   UNL     1      36.383 -37.271   4.354  1.00  0.00    -0.031 C 
ATOM      5  C   UNL     1      35.652 -36.635   3.426  1.00  0.00    -0.028 C 
BRANCH   5   6
ATOM      6  C   UNL     1      36.073 -36.615   1.974  1.00  0.00     0.005 C 
ATOM      7  C   UNL     1      35.959 -38.017   1.366  1.00  0.00     0.012 C 
ATOM      8  C   UNL     1      37.504 -36.086   1.835  1.00  0.00     0.012 C 
ENDBRANCH   5   6
ENDBRANCH   3   4
ENDBRANCH   2   3
ENDBRANCH   1   2
BRANCH   1   9
ATOM      9  C   UNL     1      33.254 -36.884   6.815  1.00  0.00     0.100 C 
BRANCH   9  10
ATOM     10  C   UNL     1      32.953 -37.860   7.913  1.00  0.00     0.220 C 
ATOM     11  O   UNL     1      31.752 -38.135   8.183  1.00  0.00    -0.275 OA
ATOM     12  N   UNL     1      34.020 -38.503   8.625  1.00  0.00    -0.352 N 
ATOM     13  H   UNL     1      35.009 -38.290   8.362  1.00  0.00     0.163 HD
BRANCH  12  14
ATOM     14  C   UNL     1      33.782 -39.466   9.697  1.00  0.00     0.151 C 
BRANCH  14  15
ATOM     15  C   UNL     1      34.224 -38.895  11.017  1.00  0.00    -0.025 A 
ATOM     16  C   UNL     1      34.772 -39.725  12.008  1.00  0.00     0.056 A 
ATOM     17  C   UNL     1      34.057 -37.528  11.277  1.00  0.00     0.009 A 
ATOM     18  C   UNL     1      35.161 -39.192  13.253  1.00  0.00     0.160 A 
ATOM     19  C   UNL     1      34.443 -36.994  12.508  1.00  0.00     0.050 A 
ATOM     20  C   UNL     1      34.994 -37.821  13.496  1.00  0.00     0.157 A 
BRANCH  18  21
ATOM     21  O   UNL     1      35.713 -39.989  14.268  1.00  0.00    -0.493 OA
ATOM     22  C   UNL     1      35.536 -41.398  14.372  1.00  0.00     0.278 C 
ENDBRANCH  18  21
BRANCH  20  23
ATOM     23  O   UNL     1      35.378 -37.286  14.724  1.00  0.00    -0.504 OA
ATOM     24  H   UNL     1      36.258 -36.796  14.838  1.00  0.00     0.293 HD
ENDBRANCH  20  23
ENDBRANCH  14  15
ENDBRANCH  12  14
ENDBRANCH   9  10
ENDBRANCH   1   9
TORSDOF 10
ENDMDL
MODEL 2
REMARK VINA RESULT:    -4.641      9.435     12.892
REMARK INTER + INTRA:          -8.107
REMARK INTER:                  -7.094
REMARK INTRA:                  -1.013
REMARK UNBOUND:                -0.889
REMARK SMILES COc1cc(CNC(=O)CCCCC=CC(C)C)ccc1O
REMARK SMILES IDX 11 1 12 2 13 3 14 4 15 5 16 6 17 7 18 8 10 9 8 10 9 11 7 12
REMARK SMILES IDX 6 14 5 15 4 16 19 17 3 18 20 19 21 20 2 21 1 22 22 23
REMARK H PARENT 7 13 22 24
REMARK Flexibility Score: inf
ROOT
ATOM      1  C   UNL     1      39.707 -37.776  -3.455  1.00  0.00     0.010 C 
ENDROOT
BRANCH   1   2
ATOM      2  C   UNL     1      39.873 -36.573  -2.503  1.00  0.00     0.005 C 
BRANCH   2   3
ATOM      3  C   UNL     1      38.554 -35.875  -2.131  1.00  0.00     0.027 C 
BRANCH   3   4
ATOM      4  C   UNL     1      38.253 -35.950  -0.657  1.00  0.00    -0.031 C 
ATOM      5  C   UNL     1      37.915 -37.106  -0.066  1.00  0.00    -0.028 C 
BRANCH   5   6
ATOM      6  C   UNL     1      37.625 -37.174   1.417  1.00  0.00     0.005 C 
ATOM      7  C   UNL     1      36.886 -35.913   1.875  1.00  0.00     0.012 C 
ATOM      8  C   UNL     1      38.924 -37.351   2.211  1.00  0.00     0.012 C 
ENDBRANCH   5   6
ENDBRANCH   3   4
ENDBRANCH   2   3
ENDBRANCH   1   2
BRANCH   1   9
ATOM      9  C   UNL     1      39.835 -39.146  -2.771  1.00  0.00     0.100 C 
BRANCH   9  10
ATOM     10  C   UNL     1      39.009 -40.193  -3.457  1.00  0.00     0.220 C 
ATOM     11  O   UNL     1      39.297 -41.410  -3.298  1.00  0.00    -0.275 OA
ATOM     12  N   UNL     1      37.878 -39.815  -4.256  1.00  0.00    -0.352 N 
ATOM     13  H   UNL     1      37.633 -38.803  -4.347  1.00  0.00     0.163 HD
BRANCH  12  14
ATOM     14  C   UNL     1      37.037 -40.795  -4.939  1.00  0.00     0.151 C 
BRANCH  14  15
ATOM     15  C   UNL     1      35.693 -40.884  -4.267  1.00  0.00    -0.025 A 
ATOM     16  C   UNL     1      35.407 -40.107  -3.133  1.00  0.00     0.056 A 
ATOM     17  C   UNL     1      34.728 -41.776  -4.754  1.00  0.00     0.009 A 
ATOM     18  C   UNL     1      34.157 -40.213  -2.491  1.00  0.00     0.160 A 
ATOM     19  C   UNL     1      33.486 -41.882  -4.123  1.00  0.00     0.050 A 
ATOM     20  C   UNL     1      33.198 -41.104  -2.994  1.00  0.00     0.157 A 
BRANCH  18  21
ATOM     21  O   UNL     1      33.833 -39.453  -1.355  1.00  0.00    -0.493 OA
ATOM     22  C   UNL     1      34.222 -39.785  -0.027  1.00  0.00     0.278 C 
ENDBRANCH  18  21
BRANCH  20  23
ATOM     23  O   UNL     1      31.959 -41.212  -2.365  1.00  0.00    -0.504 OA
ATOM     24  H   UNL     1      31.591 -40.466  -1.787  1.00  0.00     0.293 HD
ENDBRANCH  20  23
ENDBRANCH  14  15
ENDBRANCH  12  14
ENDBRANCH   9  10
ENDBRANCH   1   9
TORSDOF 10
ENDMDL
MODEL 3
REMARK VINA RESULT:    -4.630      2.555      9.188
REMARK INTER + INTRA:          -8.091
REMARK INTER:                  -7.333
REMARK INTRA:                  -0.758
REMARK UNBOUND:                -0.889
REMARK SMILES COc1cc(CNC(=O)CCCCC=CC(C)C)ccc1O
REMARK SMILES IDX 11 1 12 2 13 3 14 4 15 5 16 6 17 7 18 8 10 9 8 10 9 11 7 12
REMARK SMILES IDX 6 14 5 15 4 16 19 17 3 18 20 19 21 20 2 21 1 22 22 23
REMARK H PARENT 7 13 22 24
REMARK Flexibility Score: inf
ROOT
ATOM      1  C   UNL     1      34.469 -38.097  10.918  1.00  0.00     0.010 C 
ENDROOT
BRANCH   1   2
ATOM      2  C   UNL     1      34.378 -37.012  12.011  1.00  0.00     0.005 C 
BRANCH   2   3
ATOM      3  C   UNL     1      34.762 -37.499  13.419  1.00  0.00     0.027 C 
BRANCH   3   4
ATOM      4  C   UNL     1      34.581 -38.984  13.588  1.00  0.00    -0.031 C 
ATOM      5  C   UNL     1      35.528 -39.749  14.153  1.00  0.00    -0.028 C 
BRANCH   5   6
ATOM      6  C   UNL     1      35.333 -41.238  14.330  1.00  0.00     0.005 C 
ATOM      7  C   UNL     1      36.685 -41.956  14.341  1.00  0.00     0.012 C 
ATOM      8  C   UNL     1      34.438 -41.799  13.219  1.00  0.00     0.012 C 
ENDBRANCH   5   6
ENDBRANCH   3   4
ENDBRANCH   2   3
ENDBRANCH   1   2
BRANCH   1   9
ATOM      9  C   UNL     1      33.339 -38.042   9.878  1.00  0.00     0.100 C 
BRANCH   9  10
ATOM     10  C   UNL     1      33.541 -36.930   8.891  1.00  0.00     0.220 C 
ATOM     11  O   UNL     1      32.850 -35.881   8.992  1.00  0.00    -0.275 OA
ATOM     12  N   UNL     1      34.537 -37.045   7.864  1.00  0.00    -0.352 N 
ATOM     13  H   UNL     1      35.125 -37.908   7.819  1.00  0.00     0.163 HD
BRANCH  12  14
ATOM     14  C   UNL     1      34.779 -35.990   6.884  1.00  0.00     0.151 C 
BRANCH  14  15
ATOM     15  C   UNL     1      34.380 -36.457   5.509  1.00  0.00    -0.025 A 
ATOM     16  C   UNL     1      35.263 -36.326   4.425  1.00  0.00     0.056 A 
ATOM     17  C   UNL     1      33.104 -36.995   5.298  1.00  0.00     0.009 A 
ATOM     18  C   UNL     1      34.877 -36.739   3.135  1.00  0.00     0.160 A 
ATOM     19  C   UNL     1      32.717 -37.408   4.021  1.00  0.00     0.050 A 
ATOM     20  C   UNL     1      33.599 -37.282   2.940  1.00  0.00     0.157 A 
BRANCH  18  21
ATOM     21  O   UNL     1      35.731 -36.624   2.026  1.00  0.00    -0.493 OA
ATOM     22  C   UNL     1      36.750 -37.562   1.694  1.00  0.00     0.278 C 
ENDBRANCH  18  21
BRANCH  20  23
ATOM     23  O   UNL     1      33.212 -37.694   1.666  1.00  0.00    -0.504 OA
ATOM     24  H   UNL     1      32.238 -37.714   1.388  1.00  0.00     0.293 HD
ENDBRANCH  20  23
ENDBRANCH  14  15
ENDBRANCH  12  14
ENDBRANCH   9  10
ENDBRANCH   1   9
TORSDOF 10
ENDMDL
MODEL 4
REMARK VINA RESULT:    -4.510      8.324     12.376
REMARK INTER + INTRA:          -7.904
REMARK INTER:                  -7.014
REMARK INTRA:                  -0.891
REMARK UNBOUND:                -0.889
REMARK SMILES COc1cc(CNC(=O)CCCCC=CC(C)C)ccc1O
REMARK SMILES IDX 11 1 12 2 13 3 14 4 15 5 16 6 17 7 18 8 10 9 8 10 9 11 7 12
REMARK SMILES IDX 6 14 5 15 4 16 19 17 3 18 20 19 21 20 2 21 1 22 22 23
REMARK H PARENT 7 13 22 24
REMARK Flexibility Score: inf
ROOT
ATOM      1  C   UNL     1      33.105 -40.831   0.776  1.00  0.00     0.010 C 
ENDROOT
BRANCH   1   2
ATOM      2  C   UNL     1      33.232 -39.300   0.921  1.00  0.00     0.005 C 
BRANCH   2   3
ATOM      3  C   UNL     1      32.869 -38.766   2.317  1.00  0.00     0.027 C 
BRANCH   3   4
ATOM      4  C   UNL     1      33.754 -37.627   2.751  1.00  0.00    -0.031 C 
ATOM      5  C   UNL     1      34.924 -37.376   2.145  1.00  0.00    -0.028 C 
BRANCH   5   6
ATOM      6  C   UNL     1      35.801 -36.223   2.579  1.00  0.00     0.005 C 
ATOM      7  C   UNL     1      37.235 -36.424   2.078  1.00  0.00     0.012 C 
ATOM      8  C   UNL     1      35.784 -36.078   4.105  1.00  0.00     0.012 C 
ENDBRANCH   5   6
ENDBRANCH   3   4
ENDBRANCH   2   3
ENDBRANCH   1   2
BRANCH   1   9
ATOM      9  C   UNL     1      31.971 -41.285  -0.156  1.00  0.00     0.100 C 
BRANCH   9  10
ATOM     10  C   UNL     1      32.482 -41.676  -1.511  1.00  0.00     0.220 C 
ATOM     11  O   UNL     1      32.857 -42.863  -1.711  1.00  0.00    -0.275 OA
ATOM     12  N   UNL     1      32.509 -40.718  -2.578  1.00  0.00    -0.352 N 
ATOM     13  H   UNL     1      32.160 -39.748  -2.403  1.00  0.00     0.163 HD
BRANCH  12  14
ATOM     14  C   UNL     1      32.991 -41.048  -3.917  1.00  0.00     0.151 C 
BRANCH  14  15
ATOM     15  C   UNL     1      34.477 -40.826  -4.006  1.00  0.00    -0.025 A 
ATOM     16  C   UNL     1      35.110 -39.887  -3.176  1.00  0.00     0.056 A 
ATOM     17  C   UNL     1      35.233 -41.535  -4.948  1.00  0.00     0.009 A 
ATOM     18  C   UNL     1      36.497 -39.661  -3.280  1.00  0.00     0.160 A 
ATOM     19  C   UNL     1      36.609 -41.318  -5.053  1.00  0.00     0.050 A 
ATOM     20  C   UNL     1      37.242 -40.384  -4.223  1.00  0.00     0.157 A 
BRANCH  18  21
ATOM     21  O   UNL     1      37.166 -38.731  -2.469  1.00  0.00    -0.493 OA
ATOM     22  C   UNL     1      37.601 -38.988  -1.138  1.00  0.00     0.278 C 
ENDBRANCH  18  21
BRANCH  20  23
ATOM     23  O   UNL     1      38.615 -40.167  -4.329  1.00  0.00    -0.504 OA
ATOM     24  H   UNL     1      39.112 -39.577  -3.672  1.00  0.00     0.293 HD
ENDBRANCH  20  23
ENDBRANCH  14  15
ENDBRANCH  12  14
ENDBRANCH   9  10
ENDBRANCH   1   9
TORSDOF 10
ENDMDL
MODEL 5
REMARK VINA RESULT:    -4.488      8.041     12.448
REMARK INTER + INTRA:          -7.870
REMARK INTER:                  -7.029
REMARK INTRA:                  -0.841
REMARK UNBOUND:                -0.889
REMARK SMILES COc1cc(CNC(=O)CCCCC=CC(C)C)ccc1O
REMARK SMILES IDX 11 1 12 2 13 3 14 4 15 5 16 6 17 7 18 8 10 9 8 10 9 11 7 12
REMARK SMILES IDX 6 14 5 15 4 16 19 17 3 18 20 19 21 20 2 21 1 22 22 23
REMARK H PARENT 7 13 22 24
REMARK Flexibility Score: inf
ROOT
ATOM      1  C   UNL     1      38.171 -36.254  -1.155  1.00  0.00     0.010 C 
ENDROOT
BRANCH   1   2
ATOM      2  C   UNL     1      39.326 -36.072  -0.148  1.00  0.00     0.005 C 
BRANCH   2   3
ATOM      3  C   UNL     1      38.869 -35.875   1.308  1.00  0.00     0.027 C 
BRANCH   3   4
ATOM      4  C   UNL     1      37.377 -35.994   1.470  1.00  0.00    -0.031 C 
ATOM      5  C   UNL     1      36.829 -36.547   2.562  1.00  0.00    -0.028 C 
BRANCH   5   6
ATOM      6  C   UNL     1      35.329 -36.652   2.720  1.00  0.00     0.005 C 
ATOM      7  C   UNL     1      34.946 -36.630   4.204  1.00  0.00     0.012 C 
ATOM      8  C   UNL     1      34.805 -37.928   2.052  1.00  0.00     0.012 C 
ENDBRANCH   5   6
ENDBRANCH   3   4
ENDBRANCH   2   3
ENDBRANCH   1   2
BRANCH   1   9
ATOM      9  C   UNL     1      38.622 -36.362  -2.620  1.00  0.00     0.100 C 
BRANCH   9  10
ATOM     10  C   UNL     1      38.599 -37.780  -3.109  1.00  0.00     0.220 C 
ATOM     11  O   UNL     1      39.683 -38.345  -3.419  1.00  0.00    -0.275 OA
ATOM     12  N   UNL     1      37.360 -38.499  -3.189  1.00  0.00    -0.352 N 
ATOM     13  H   UNL     1      36.476 -38.026  -2.893  1.00  0.00     0.163 HD
BRANCH  12  14
ATOM     14  C   UNL     1      37.283 -39.883  -3.651  1.00  0.00     0.151 C 
BRANCH  14  15
ATOM     15  C   UNL     1      35.865 -40.379  -3.572  1.00  0.00    -0.025 A 
ATOM     16  C   UNL     1      35.001 -39.920  -2.565  1.00  0.00     0.056 A 
ATOM     17  C   UNL     1      35.408 -41.336  -4.489  1.00  0.00     0.009 A 
ATOM     18  C   UNL     1      33.682 -40.408  -2.477  1.00  0.00     0.160 A 
ATOM     19  C   UNL     1      34.101 -41.820  -4.408  1.00  0.00     0.050 A 
ATOM     20  C   UNL     1      33.237 -41.359  -3.406  1.00  0.00     0.157 A 
BRANCH  18  21
ATOM     21  O   UNL     1      32.788 -39.973  -1.485  1.00  0.00    -0.493 OA
ATOM     22  C   UNL     1      32.797 -40.432  -0.137  1.00  0.00     0.278 C 
ENDBRANCH  18  21
BRANCH  20  23
ATOM     23  O   UNL     1      31.933 -41.844  -3.327  1.00  0.00    -0.504 OA
ATOM     24  H   UNL     1      31.684 -42.760  -3.682  1.00  0.00     0.293 HD
ENDBRANCH  20  23
ENDBRANCH  14  15
ENDBRANCH  12  14
ENDBRANCH   9  10
ENDBRANCH   1   9
TORSDOF 10
ENDMDL
MODEL 6
REMARK VINA RESULT:    -4.470      1.697      2.648
REMARK INTER + INTRA:          -7.842
REMARK INTER:                  -6.938
REMARK INTRA:                  -0.904
REMARK UNBOUND:                -0.889
REMARK SMILES COc1cc(CNC(=O)CCCCC=CC(C)C)ccc1O
REMARK SMILES IDX 11 1 12 2 13 3 14 4 15 5 16 6 17 7 18 8 10 9 8 10 9 11 7 12
REMARK SMILES IDX 6 14 5 15 4 16 19 17 3 18 20 19 21 20 2 21 1 22 22 23
REMARK H PARENT 7 13 22 24
REMARK Flexibility Score: inf
ROOT
ATOM      1  C   UNL     1      34.372 -35.877   7.219  1.00  0.00     0.010 C 
ENDROOT
BRANCH   1   2
ATOM      2  C   UNL     1      35.548 -35.979   6.225  1.00  0.00     0.005 C 
BRANCH   2   3
ATOM      3  C   UNL     1      35.835 -37.407   5.731  1.00  0.00     0.027 C 
BRANCH   3   4
ATOM      4  C   UNL     1      37.277 -37.803   5.907  1.00  0.00    -0.031 C 
ATOM      5  C   UNL     1      37.685 -38.525   6.962  1.00  0.00    -0.028 C 
BRANCH   5   6
ATOM      6  C   UNL     1      39.133 -38.928   7.125  1.00  0.00     0.005 C 
ATOM      7  C   UNL     1      39.921 -37.816   7.824  1.00  0.00     0.012 C 
ATOM      8  C   UNL     1      39.758 -39.251   5.763  1.00  0.00     0.012 C 
ENDBRANCH   5   6
ENDBRANCH   3   4
ENDBRANCH   2   3
ENDBRANCH   1   2
BRANCH   1   9
ATOM      9  C   UNL     1      33.174 -36.775   6.875  1.00  0.00     0.100 C 
BRANCH   9  10
ATOM     10  C   UNL     1      32.769 -37.636   8.035  1.00  0.00     0.220 C 
ATOM     11  O   UNL     1      31.570 -37.622   8.425  1.00  0.00    -0.275 OA
ATOM     12  N   UNL     1      33.727 -38.494   8.670  1.00  0.00    -0.352 N 
ATOM     13  H   UNL     1      34.708 -38.519   8.309  1.00  0.00     0.163 HD
BRANCH  12  14
ATOM     14  C   UNL     1      33.382 -39.357   9.798  1.00  0.00     0.151 C 
BRANCH  14  15
ATOM     15  C   UNL     1      33.947 -38.794  11.074  1.00  0.00    -0.025 A 
ATOM     16  C   UNL     1      34.466 -39.645  12.063  1.00  0.00     0.056 A 
ATOM     17  C   UNL     1      33.924 -37.411  11.297  1.00  0.00     0.009 A 
ATOM     18  C   UNL     1      34.970 -39.118  13.268  1.00  0.00     0.160 A 
ATOM     19  C   UNL     1      34.425 -36.882  12.489  1.00  0.00     0.050 A 
ATOM     20  C   UNL     1      34.947 -37.731  13.474  1.00  0.00     0.157 A 
BRANCH  18  21
ATOM     21  O   UNL     1      35.496 -39.936  14.281  1.00  0.00    -0.493 OA
ATOM     22  C   UNL     1      35.879 -41.295  14.100  1.00  0.00     0.278 C 
ENDBRANCH  18  21
BRANCH  20  23
ATOM     23  O   UNL     1      35.445 -37.202  14.664  1.00  0.00    -0.504 OA
ATOM     24  H   UNL     1      34.834 -36.788  15.358  1.00  0.00     0.293 HD
ENDBRANCH  20  23
ENDBRANCH  14  15
ENDBRANCH  12  14
ENDBRANCH   9  10
ENDBRANCH   1   9
TORSDOF 10
ENDMDL
MODEL 7
REMARK VINA RESULT:    -4.445      2.330      8.904
REMARK INTER + INTRA:          -7.803
REMARK INTER:                  -7.079
REMARK INTRA:                  -0.724
REMARK UNBOUND:                -0.889
REMARK SMILES COc1cc(CNC(=O)CCCCC=CC(C)C)ccc1O
REMARK SMILES IDX 11 1 12 2 13 3 14 4 15 5 16 6 17 7 18 8 10 9 8 10 9 11 7 12
REMARK SMILES IDX 6 14 5 15 4 16 19 17 3 18 20 19 21 20 2 21 1 22 22 23
REMARK H PARENT 7 13 22 24
REMARK Flexibility Score: inf
ROOT
ATOM      1  C   UNL     1      34.114 -38.050  11.933  1.00  0.00     0.010 C 
ENDROOT
BRANCH   1   2
ATOM      2  C   UNL     1      34.688 -37.224  13.103  1.00  0.00     0.005 C 
BRANCH   2   3
ATOM      3  C   UNL     1      35.031 -38.053  14.352  1.00  0.00     0.027 C 
BRANCH   3   4
ATOM      4  C   UNL     1      34.881 -39.534  14.126  1.00  0.00    -0.031 C 
ATOM      5  C   UNL     1      35.876 -40.392  14.394  1.00  0.00    -0.028 C 
BRANCH   5   6
ATOM      6  C   UNL     1      35.712 -41.879  14.175  1.00  0.00     0.005 C 
ATOM      7  C   UNL     1      37.075 -42.577  14.200  1.00  0.00     0.012 C 
ATOM      8  C   UNL     1      34.996 -42.151  12.847  1.00  0.00     0.012 C 
ENDBRANCH   5   6
ENDBRANCH   3   4
ENDBRANCH   2   3
ENDBRANCH   1   2
BRANCH   1   9
ATOM      9  C   UNL     1      34.049 -37.293  10.597  1.00  0.00     0.100 C 
BRANCH   9  10
ATOM     10  C   UNL     1      34.599 -38.107   9.464  1.00  0.00     0.220 C 
ATOM     11  O   UNL     1      34.540 -39.366   9.522  1.00  0.00    -0.275 OA
ATOM     12  N   UNL     1      35.153 -37.461   8.310  1.00  0.00    -0.352 N 
ATOM     13  H   UNL     1      35.161 -36.416   8.264  1.00  0.00     0.163 HD
BRANCH  12  14
ATOM     14  C   UNL     1      35.696 -38.207   7.177  1.00  0.00     0.151 C 
BRANCH  14  15
ATOM     15  C   UNL     1      34.996 -37.804   5.906  1.00  0.00    -0.025 A 
ATOM     16  C   UNL     1      33.594 -37.820   5.826  1.00  0.00     0.056 A 
ATOM     17  C   UNL     1      35.748 -37.444   4.780  1.00  0.00     0.009 A 
ATOM     18  C   UNL     1      32.943 -37.469   4.627  1.00  0.00     0.160 A 
ATOM     19  C   UNL     1      35.107 -37.092   3.590  1.00  0.00     0.050 A 
ATOM     20  C   UNL     1      33.708 -37.103   3.510  1.00  0.00     0.157 A 
BRANCH  18  21
ATOM     21  O   UNL     1      31.544 -37.472   4.507  1.00  0.00    -0.493 OA
ATOM     22  C   UNL     1      30.724 -38.624   4.674  1.00  0.00     0.278 C 
ENDBRANCH  18  21
BRANCH  20  23
ATOM     23  O   UNL     1      33.070 -36.753   2.322  1.00  0.00    -0.504 OA
ATOM     24  H   UNL     1      32.350 -37.337   1.914  1.00  0.00     0.293 HD
ENDBRANCH  20  23
ENDBRANCH  14  15
ENDBRANCH  12  14
ENDBRANCH   9  10
ENDBRANCH   1   9
TORSDOF 10
ENDMDL
MODEL 8
REMARK VINA RESULT:    -4.439      7.334     10.686
REMARK INTER + INTRA:          -7.794
REMARK INTER:                  -6.670
REMARK INTRA:                  -1.125
REMARK UNBOUND:                -0.889
REMARK SMILES COc1cc(CNC(=O)CCCCC=CC(C)C)ccc1O
REMARK SMILES IDX 11 1 12 2 13 3 14 4 15 5 16 6 17 7 18 8 10 9 8 10 9 11 7 12
REMARK SMILES IDX 6 14 5 15 4 16 19 17 3 18 20 19 21 20 2 21 1 22 22 23
REMARK H PARENT 7 13 22 24
REMARK Flexibility Score: inf
ROOT
ATOM      1  C   UNL     1      34.948 -42.254  -4.343  1.00  0.00     0.010 C 
ENDROOT
BRANCH   1   2
ATOM      2  C   UNL     1      36.057 -41.228  -4.657  1.00  0.00     0.005 C 
BRANCH   2   3
ATOM      3  C   UNL     1      36.530 -40.417  -3.439  1.00  0.00     0.027 C 
BRANCH   3   4
ATOM      4  C   UNL     1      37.455 -39.289  -3.816  1.00  0.00    -0.031 C 
ATOM      5  C   UNL     1      37.831 -38.360  -2.926  1.00  0.00    -0.028 C 
BRANCH   5   6
ATOM      6  C   UNL     1      38.769 -37.238  -3.311  1.00  0.00     0.005 C 
ATOM      7  C   UNL     1      40.164 -37.790  -3.619  1.00  0.00     0.012 C 
ATOM      8  C   UNL     1      38.843 -36.191  -2.194  1.00  0.00     0.012 C 
ENDBRANCH   5   6
ENDBRANCH   3   4
ENDBRANCH   2   3
ENDBRANCH   1   2
BRANCH   1   9
ATOM      9  C   UNL     1      33.530 -41.663  -4.319  1.00  0.00     0.100 C 
BRANCH   9  10
ATOM     10  C   UNL     1      32.985 -41.570  -2.925  1.00  0.00     0.220 C 
ATOM     11  O   UNL     1      32.578 -42.616  -2.349  1.00  0.00    -0.275 OA
ATOM     12  N   UNL     1      32.961 -40.310  -2.238  1.00  0.00    -0.352 N 
ATOM     13  H   UNL     1      33.336 -39.461  -2.718  1.00  0.00     0.163 HD
BRANCH  12  14
ATOM     14  C   UNL     1      32.448 -40.167  -0.878  1.00  0.00     0.151 C 
BRANCH  14  15
ATOM     15  C   UNL     1      33.498 -39.558   0.012  1.00  0.00    -0.025 A 
ATOM     16  C   UNL     1      33.132 -38.775   1.118  1.00  0.00     0.056 A 
ATOM     17  C   UNL     1      34.856 -39.743  -0.283  1.00  0.00     0.009 A 
ATOM     18  C   UNL     1      34.117 -38.184   1.934  1.00  0.00     0.160 A 
ATOM     19  C   UNL     1      35.836 -39.162   0.524  1.00  0.00     0.050 A 
ATOM     20  C   UNL     1      35.472 -38.384   1.630  1.00  0.00     0.157 A 
BRANCH  18  21
ATOM     21  O   UNL     1      33.791 -37.395   3.048  1.00  0.00    -0.493 OA
ATOM     22  C   UNL     1      32.583 -37.512   3.793  1.00  0.00     0.278 C 
ENDBRANCH  18  21
BRANCH  20  23
ATOM     23  O   UNL     1      36.452 -37.804   2.434  1.00  0.00    -0.504 OA
ATOM     24  H   UNL     1      36.725 -36.835   2.323  1.00  0.00     0.293 HD
ENDBRANCH  20  23
ENDBRANCH  14  15
ENDBRANCH  12  14
ENDBRANCH   9  10
ENDBRANCH   1   9
TORSDOF 10
ENDMDL
MODEL 9
REMARK VINA RESULT:    -4.388      2.971      7.277
REMARK INTER + INTRA:          -7.715
REMARK INTER:                  -5.323
REMARK INTRA:                  -2.392
REMARK UNBOUND:                -0.889
REMARK SMILES COc1cc(CNC(=O)CCCCC=CC(C)C)ccc1O
REMARK SMILES IDX 11 1 12 2 13 3 14 4 15 5 16 6 17 7 18 8 10 9 8 10 9 11 7 12
REMARK SMILES IDX 6 14 5 15 4 16 19 17 3 18 20 19 21 20 2 21 1 22 22 23
REMARK H PARENT 7 13 22 24
REMARK Flexibility Score: inf
ROOT
ATOM      1  C   UNL     1      34.464 -39.656   9.169  1.00  0.00     0.010 C 
ENDROOT
BRANCH   1   2
ATOM      2  C   UNL     1      33.169 -39.891   8.365  1.00  0.00     0.005 C 
BRANCH   2   3
ATOM      3  C   UNL     1      33.396 -40.448   6.949  1.00  0.00     0.027 C 
BRANCH   3   4
ATOM      4  C   UNL     1      34.833 -40.349   6.511  1.00  0.00    -0.031 C 
ATOM      5  C   UNL     1      35.172 -40.312   5.214  1.00  0.00    -0.028 C 
BRANCH   5   6
ATOM      6  C   UNL     1      36.617 -40.200   4.782  1.00  0.00     0.005 C 
ATOM      7  C   UNL     1      37.291 -39.012   5.476  1.00  0.00     0.012 C 
ATOM      8  C   UNL     1      36.715 -40.056   3.260  1.00  0.00     0.012 C 
ENDBRANCH   5   6
ENDBRANCH   3   4
ENDBRANCH   2   3
ENDBRANCH   1   2
BRANCH   1   9
ATOM      9  C   UNL     1      34.530 -38.293   9.877  1.00  0.00     0.100 C 
BRANCH   9  10
ATOM     10  C   UNL     1      34.234 -37.161   8.939  1.00  0.00     0.220 C 
ATOM     11  O   UNL     1      33.295 -36.364   9.209  1.00  0.00    -0.275 OA
ATOM     12  N   UNL     1      35.034 -36.965   7.764  1.00  0.00    -0.352 N 
ATOM     13  H   UNL     1      35.831 -37.615   7.576  1.00  0.00     0.163 HD
BRANCH  12  14
ATOM     14  C   UNL     1      34.793 -35.875   6.822  1.00  0.00     0.151 C 
BRANCH  14  15
ATOM     15  C   UNL     1      34.489 -36.426   5.455  1.00  0.00    -0.025 A 
ATOM     16  C   UNL     1      35.352 -36.179   4.376  1.00  0.00     0.056 A 
ATOM     17  C   UNL     1      33.316 -37.164   5.246  1.00  0.00     0.009 A 
ATOM     18  C   UNL     1      35.051 -36.674   3.092  1.00  0.00     0.160 A 
ATOM     19  C   UNL     1      33.014 -37.659   3.976  1.00  0.00     0.050 A 
ATOM     20  C   UNL     1      33.877 -37.417   2.899  1.00  0.00     0.157 A 
BRANCH  18  21
ATOM     21  O   UNL     1      35.888 -36.448   1.988  1.00  0.00    -0.493 OA
ATOM     22  C   UNL     1      37.291 -36.691   1.978  1.00  0.00     0.278 C 
ENDBRANCH  18  21
BRANCH  20  23
ATOM     23  O   UNL     1      33.574 -37.911   1.631  1.00  0.00    -0.504 OA
ATOM     24  H   UNL     1      32.619 -37.965   1.297  1.00  0.00     0.293 HD
ENDBRANCH  20  23
ENDBRANCH  14  15
ENDBRANCH  12  14
ENDBRANCH   9  10
ENDBRANCH   1   9
TORSDOF 10
ENDMDL
