MODEL 1
REMARK VINA RESULT:    -1.152      0.000      0.000
REMARK INTER + INTRA:          -1.152
REMARK INTER:                  -1.152
REMARK INTRA:                   0.000
REMARK UNBOUND:                 0.000
REMARK SMILES CC(=O)[O-]
REMARK SMILES IDX 1 1 2 2 3 3 4 4
REMARK H PARENT
REMARK Flexibility Score: inf
ROOT
ATOM      1  C   UNL     1     139.589  57.085 -12.841  1.00  0.00     0.063 C 
ATOM      2  C   UNL     1     141.074  57.076 -12.976  1.00  0.00     0.038 C 
ATOM      3  O   UNL     1     141.604  57.074 -14.118  1.00  0.00    -0.550 OA
ATOM      4  O   UNL     1     141.876  57.125 -11.843  1.00  0.00    -0.550 OA
ENDROOT
TORSDOF 0
ENDMDL
MODEL 2
REMARK VINA RESULT:    -1.131      1.902      2.104
REMARK INTER + INTRA:          -1.131
REMARK INTER:                  -1.131
REMARK INTRA:                   0.000
REMARK UNBOUND:                 0.000
REMARK SMILES CC(=O)[O-]
REMARK SMILES IDX 1 1 2 2 3 3 4 4
REMARK H PARENT
REMARK Flexibility Score: inf
ROOT
ATOM      1  C   UNL     1     139.478  56.780 -11.223  1.00  0.00     0.063 C 
ATOM      2  C   UNL     1     139.873  56.356 -12.597  1.00  0.00     0.038 C 
ATOM      3  O   UNL     1     140.571  57.118 -13.316  1.00  0.00    -0.550 OA
ATOM      4  O   UNL     1     139.517  55.098 -13.067  1.00  0.00    -0.550 OA
ENDROOT
TORSDOF 0
ENDMDL
MODEL 3
REMARK VINA RESULT:    -1.099      1.832      1.917
REMARK INTER + INTRA:          -1.099
REMARK INTER:                  -1.099
REMARK INTRA:                   0.000
REMARK UNBOUND:                 0.000
REMARK SMILES CC(=O)[O-]
REMARK SMILES IDX 1 1 2 2 3 3 4 4
REMARK H PARENT
REMARK Flexibility Score: inf
ROOT
ATOM      1  C   UNL     1     139.723  55.002 -12.870  1.00  0.00     0.063 C 
ATOM      2  C   UNL     1     139.928  56.456 -12.614  1.00  0.00     0.038 C 
ATOM      3  O   UNL     1     140.703  57.124 -13.348  1.00  0.00    -0.550 OA
ATOM      4  O   UNL     1     139.223  57.090 -11.599  1.00  0.00    -0.550 OA
ENDROOT
TORSDOF 0
ENDMDL
MODEL 4
REMARK VINA RESULT:    -1.097      1.852      2.072
REMARK INTER + INTRA:          -1.097
REMARK INTER:                  -1.097
REMARK INTRA:                   0.000
REMARK UNBOUND:                 0.000
REMARK SMILES CC(=O)[O-]
REMARK SMILES IDX 1 1 2 2 3 3 4 4
REMARK H PARENT
REMARK Flexibility Score: inf
ROOT
ATOM      1  C   UNL     1     139.498  56.723 -11.239  1.00  0.00     0.063 C 
ATOM      2  C   UNL     1     139.989  56.263 -12.569  1.00  0.00     0.038 C 
ATOM      3  O   UNL     1     139.702  55.109 -12.984  1.00  0.00    -0.550 OA
ATOM      4  O   UNL     1     140.718  57.125 -13.378  1.00  0.00    -0.550 OA
ENDROOT
TORSDOF 0
ENDMDL
MODEL 5
REMARK VINA RESULT:    -1.027      1.339      1.999
REMARK INTER + INTRA:          -1.027
REMARK INTER:                  -1.027
REMARK INTRA:                   0.000
REMARK UNBOUND:                 0.000
REMARK SMILES CC(=O)[O-]
REMARK SMILES IDX 1 1 2 2 3 3 4 4
REMARK H PARENT
REMARK Flexibility Score: inf
ROOT
ATOM      1  C   UNL     1     141.727  57.067 -11.603  1.00  0.00     0.063 C 
ATOM      2  C   UNL     1     141.017  57.085 -12.914  1.00  0.00     0.038 C 
ATOM      3  O   UNL     1     139.759  57.125 -12.951  1.00  0.00    -0.550 OA
ATOM      4  O   UNL     1     141.743  57.112 -14.098  1.00  0.00    -0.550 OA
ENDROOT
TORSDOF 0
ENDMDL
MODEL 6
REMARK VINA RESULT:    -0.948      2.132      2.750
REMARK INTER + INTRA:          -0.948
REMARK INTER:                  -0.948
REMARK INTRA:                   0.000
REMARK UNBOUND:                 0.000
REMARK SMILES CC(=O)[O-]
REMARK SMILES IDX 1 1 2 2 3 3 4 4
REMARK H PARENT
REMARK Flexibility Score: inf
ROOT
ATOM      1  C   UNL     1     139.592  56.753 -12.624  1.00  0.00     0.063 C 
ATOM      2  C   UNL     1     139.789  56.750 -11.146  1.00  0.00     0.038 C 
ATOM      3  O   UNL     1     140.912  56.457 -10.659  1.00  0.00    -0.550 OA
ATOM      4  O   UNL     1     138.749  57.125 -10.304  1.00  0.00    -0.550 OA
ENDROOT
TORSDOF 0
ENDMDL
MODEL 7
REMARK VINA RESULT:    -0.935      2.710      3.236
REMARK INTER + INTRA:          -0.935
REMARK INTER:                  -0.935
REMARK INTRA:                   0.000
REMARK UNBOUND:                 0.000
REMARK SMILES CC(=O)[O-]
REMARK SMILES IDX 1 1 2 2 3 3 4 4
REMARK H PARENT
REMARK Flexibility Score: inf
ROOT
ATOM      1  C   UNL     1     139.872  56.583 -12.728  1.00  0.00     0.063 C 
ATOM      2  C   UNL     1     139.591  55.172 -12.338  1.00  0.00     0.038 C 
ATOM      3  O   UNL     1     139.602  54.837 -11.124  1.00  0.00    -0.550 OA
ATOM      4  O   UNL     1     139.263  54.234 -13.309  1.00  0.00    -0.550 OA
ENDROOT
TORSDOF 0
ENDMDL
MODEL 8
REMARK VINA RESULT:    -0.791      4.346      4.456
REMARK INTER + INTRA:          -0.791
REMARK INTER:                  -0.791
REMARK INTRA:                   0.000
REMARK UNBOUND:                 0.000
REMARK SMILES CC(=O)[O-]
REMARK SMILES IDX 1 1 2 2 3 3 4 4
REMARK H PARENT
REMARK Flexibility Score: inf
ROOT
ATOM      1  C   UNL     1     139.773  54.680 -12.890  1.00  0.00     0.063 C 
ATOM      2  C   UNL     1     138.985  53.445 -13.168  1.00  0.00     0.038 C 
ATOM      3  O   UNL     1     138.152  53.426 -14.113  1.00  0.00    -0.550 OA
ATOM      4  O   UNL     1     139.206  52.295 -12.420  1.00  0.00    -0.550 OA
ENDROOT
TORSDOF 0
ENDMDL
MODEL 9
REMARK VINA RESULT:    -0.789     19.182     19.255
REMARK INTER + INTRA:          -0.789
REMARK INTER:                  -0.789
REMARK INTRA:                   0.000
REMARK UNBOUND:                 0.000
REMARK SMILES CC(=O)[O-]
REMARK SMILES IDX 1 1 2 2 3 3 4 4
REMARK H PARENT
REMARK Flexibility Score: inf
ROOT
ATOM      1  C   UNL     1     141.209  39.303 -11.985  1.00  0.00     0.063 C 
ATOM      2  C   UNL     1     141.489  37.895 -12.389  1.00  0.00     0.038 C 
ATOM      3  O   UNL     1     141.166  36.944 -11.629  1.00  0.00    -0.550 OA
ATOM      4  O   UNL     1     142.056  37.626 -13.628  1.00  0.00    -0.550 OA
ENDROOT
TORSDOF 0
ENDMDL
