MODEL 1
REMARK VINA RESULT:    -8.383      0.000      0.000
REMARK INTER + INTRA:          -9.892
REMARK INTER:                 -10.344
REMARK INTRA:                   0.452
REMARK UNBOUND:                 0.452
REMARK SMILES Oc1cc(O)c2cc(O)c(-c3cc(O)c(O)c(O)c3)[o+]c2c1
REMARK SMILES IDX 10 1 20 2 21 3 22 4 2 5 3 6 4 7 6 8 7 9 8 10 11 11 12 12
REMARK SMILES IDX 13 13 19 14 15 15 17 16 14 17 16 19 18 21 9 23 1 25 5 27
REMARK H PARENT 14 18 16 20 18 22 9 24 1 26 5 28
REMARK Flexibility Score: inf
ROOT
ATOM      1  C   UNL     1     -12.701 -28.902 -11.022  1.00  0.00     0.402 A 
ATOM      2  O   UNL     1     -13.611 -29.198 -11.947  1.00  0.00    -0.202 OA
ATOM      3  C   UNL     1     -13.515 -30.249 -12.755  1.00  0.00     0.368 A 
ATOM      4  C   UNL     1     -14.521 -30.474 -13.699  1.00  0.00     0.162 A 
ATOM      5  C   UNL     1     -14.445 -31.568 -14.562  1.00  0.00     0.128 A 
ATOM      6  C   UNL     1     -13.356 -32.443 -14.484  1.00  0.00     0.093 A 
ATOM      7  C   UNL     1     -12.335 -32.238 -13.547  1.00  0.00     0.136 A 
ATOM      8  C   UNL     1     -12.410 -31.129 -12.666  1.00  0.00     0.125 A 
ATOM      9  C   UNL     1     -11.441 -30.854 -11.687  1.00  0.00     0.078 A 
ATOM     10  C   UNL     1     -11.585 -29.743 -10.851  1.00  0.00     0.223 A 
ENDROOT
BRANCH   1  11
ATOM     11  C   UNL     1     -12.916 -27.697 -10.189  1.00  0.00     0.091 A 
ATOM     12  C   UNL     1     -11.921 -27.299  -9.282  1.00  0.00     0.068 A 
ATOM     13  C   UNL     1     -12.108 -26.174  -8.468  1.00  0.00     0.162 A 
ATOM     14  C   UNL     1     -14.120 -26.974 -10.245  1.00  0.00     0.068 A 
ATOM     15  C   UNL     1     -13.302 -25.444  -8.543  1.00  0.00     0.200 A 
ATOM     16  C   UNL     1     -14.313 -25.849  -9.431  1.00  0.00     0.162 A 
BRANCH  13  17
ATOM     17  O   UNL     1     -11.112 -25.775  -7.579  1.00  0.00    -0.504 OA
ATOM     18  H   UNL     1     -10.953 -24.796  -7.365  1.00  0.00     0.293 HD
ENDBRANCH  13  17
BRANCH  15  19
ATOM     19  O   UNL     1     -13.469 -24.326  -7.727  1.00  0.00    -0.502 OA
ATOM     20  H   UNL     1     -13.572 -24.402  -6.723  1.00  0.00     0.293 HD
ENDBRANCH  15  19
BRANCH  16  21
ATOM     21  O   UNL     1     -15.508 -25.134  -9.498  1.00  0.00    -0.504 OA
ATOM     22  H   UNL     1     -15.635 -24.371 -10.154  1.00  0.00     0.293 HD
ENDBRANCH  16  21
ENDBRANCH   1  11
BRANCH  10  23
ATOM     23  O   UNL     1     -10.648 -29.497  -9.847  1.00  0.00    -0.500 OA
ATOM     24  H   UNL     1     -10.923 -29.163  -8.932  1.00  0.00     0.294 HD
ENDBRANCH  10  23
BRANCH   5  25
ATOM     25  O   UNL     1     -15.458 -31.776 -15.495  1.00  0.00    -0.507 OA
ATOM     26  H   UNL     1     -15.591 -31.150 -16.281  1.00  0.00     0.293 HD
ENDBRANCH   5  25
BRANCH   7  27
ATOM     27  O   UNL     1     -11.280 -33.156 -13.534  1.00  0.00    -0.507 OA
ATOM     28  H   UNL     1     -10.921 -33.601 -12.703  1.00  0.00     0.293 HD
ENDBRANCH   7  27
TORSDOF 7
ENDMDL
MODEL 2
REMARK VINA RESULT:    -8.150      2.133      7.603
REMARK INTER + INTRA:          -9.604
REMARK INTER:                  -9.547
REMARK INTRA:                  -0.057
REMARK UNBOUND:                 0.452
REMARK SMILES Oc1cc(O)c2cc(O)c(-c3cc(O)c(O)c(O)c3)[o+]c2c1
REMARK SMILES IDX 10 1 20 2 21 3 22 4 2 5 3 6 4 7 6 8 7 9 8 10 11 11 12 12
REMARK SMILES IDX 13 13 19 14 15 15 17 16 14 17 16 19 18 21 9 23 1 25 5 27
REMARK H PARENT 14 18 16 20 18 22 9 24 1 26 5 28
REMARK Flexibility Score: inf
ROOT
ATOM      1  C   UNL     1     -13.700 -30.529 -13.762  1.00  0.00     0.402 A 
ATOM      2  O   UNL     1     -13.698 -30.119 -12.497  1.00  0.00    -0.202 OA
ATOM      3  C   UNL     1     -13.921 -28.859 -12.138  1.00  0.00     0.368 A 
ATOM      4  C   UNL     1     -13.894 -28.524 -10.781  1.00  0.00     0.162 A 
ATOM      5  C   UNL     1     -14.122 -27.209 -10.375  1.00  0.00     0.128 A 
ATOM      6  C   UNL     1     -14.376 -26.219 -11.331  1.00  0.00     0.093 A 
ATOM      7  C   UNL     1     -14.407 -26.529 -12.696  1.00  0.00     0.136 A 
ATOM      8  C   UNL     1     -14.179 -27.866 -13.112  1.00  0.00     0.125 A 
ATOM      9  C   UNL     1     -14.205 -28.271 -14.457  1.00  0.00     0.078 A 
ATOM     10  C   UNL     1     -13.975 -29.609 -14.791  1.00  0.00     0.223 A 
ENDROOT
BRANCH   1  11
ATOM     11  C   UNL     1     -13.428 -31.959 -14.035  1.00  0.00     0.091 A 
ATOM     12  C   UNL     1     -12.265 -32.551 -13.521  1.00  0.00     0.068 A 
ATOM     13  C   UNL     1     -11.975 -33.897 -13.782  1.00  0.00     0.162 A 
ATOM     14  C   UNL     1     -14.284 -32.724 -14.848  1.00  0.00     0.068 A 
ATOM     15  C   UNL     1     -12.842 -34.660 -14.575  1.00  0.00     0.200 A 
ATOM     16  C   UNL     1     -13.997 -34.070 -15.114  1.00  0.00     0.162 A 
BRANCH  13  17
ATOM     17  O   UNL     1     -10.825 -34.484 -13.258  1.00  0.00    -0.504 OA
ATOM     18  H   UNL     1     -10.435 -34.186 -12.370  1.00  0.00     0.293 HD
ENDBRANCH  13  17
BRANCH  15  19
ATOM     19  O   UNL     1     -12.538 -35.999 -14.822  1.00  0.00    -0.502 OA
ATOM     20  H   UNL     1     -11.780 -36.276 -15.433  1.00  0.00     0.293 HD
ENDBRANCH  15  19
BRANCH  16  21
ATOM     21  O   UNL     1     -14.855 -34.822 -15.916  1.00  0.00    -0.504 OA
ATOM     22  H   UNL     1     -15.249 -35.699 -15.596  1.00  0.00     0.293 HD
ENDBRANCH  16  21
ENDBRANCH   1  11
BRANCH  10  23
ATOM     23  O   UNL     1     -14.049 -30.020 -16.122  1.00  0.00    -0.500 OA
ATOM     24  H   UNL     1     -14.905 -29.943 -16.657  1.00  0.00     0.294 HD
ENDBRANCH  10  23
BRANCH   5  25
ATOM     25  O   UNL     1     -14.092 -26.895  -9.018  1.00  0.00    -0.507 OA
ATOM     26  H   UNL     1     -14.886 -26.466  -8.557  1.00  0.00     0.293 HD
ENDBRANCH   5  25
BRANCH   7  27
ATOM     27  O   UNL     1     -14.664 -25.483 -13.588  1.00  0.00    -0.507 OA
ATOM     28  H   UNL     1     -15.385 -25.500 -14.294  1.00  0.00     0.293 HD
ENDBRANCH   7  27
TORSDOF 7
ENDMDL
MODEL 3
REMARK VINA RESULT:    -8.140      2.185      7.841
REMARK INTER + INTRA:          -9.592
REMARK INTER:                  -9.523
REMARK INTRA:                  -0.069
REMARK UNBOUND:                 0.452
REMARK SMILES Oc1cc(O)c2cc(O)c(-c3cc(O)c(O)c(O)c3)[o+]c2c1
REMARK SMILES IDX 10 1 20 2 21 3 22 4 2 5 3 6 4 7 6 8 7 9 8 10 11 11 12 12
REMARK SMILES IDX 13 13 19 14 15 15 17 16 14 17 16 19 18 21 9 23 1 25 5 27
REMARK H PARENT 14 18 16 20 18 22 9 24 1 26 5 28
REMARK Flexibility Score: inf
ROOT
ATOM      1  C   UNL     1     -13.714 -30.521 -13.859  1.00  0.00     0.402 A 
ATOM      2  O   UNL     1     -13.725 -30.138 -12.585  1.00  0.00    -0.202 OA
ATOM      3  C   UNL     1     -13.937 -28.883 -12.202  1.00  0.00     0.368 A 
ATOM      4  C   UNL     1     -13.925 -28.578 -10.838  1.00  0.00     0.162 A 
ATOM      5  C   UNL     1     -14.141 -27.269 -10.407  1.00  0.00     0.128 A 
ATOM      6  C   UNL     1     -14.370 -26.255 -11.344  1.00  0.00     0.093 A 
ATOM      7  C   UNL     1     -14.385 -26.536 -12.716  1.00  0.00     0.136 A 
ATOM      8  C   UNL     1     -14.169 -27.866 -13.159  1.00  0.00     0.125 A 
ATOM      9  C   UNL     1     -14.181 -28.241 -14.512  1.00  0.00     0.078 A 
ATOM     10  C   UNL     1     -13.963 -29.575 -14.872  1.00  0.00     0.223 A 
ENDROOT
BRANCH   1  11
ATOM     11  C   UNL     1     -13.457 -31.948 -14.160  1.00  0.00     0.091 A 
ATOM     12  C   UNL     1     -14.376 -32.665 -14.940  1.00  0.00     0.068 A 
ATOM     13  C   UNL     1     -14.166 -34.022 -15.223  1.00  0.00     0.162 A 
ATOM     14  C   UNL     1     -12.338 -32.616 -13.632  1.00  0.00     0.068 A 
ATOM     15  C   UNL     1     -13.039 -34.678 -14.711  1.00  0.00     0.200 A 
ATOM     16  C   UNL     1     -12.124 -33.974 -13.910  1.00  0.00     0.162 A 
BRANCH  13  17
ATOM     17  O   UNL     1     -15.075 -34.726 -16.010  1.00  0.00    -0.504 OA
ATOM     18  H   UNL     1     -15.975 -35.021 -15.646  1.00  0.00     0.293 HD
ENDBRANCH  13  17
BRANCH  15  19
ATOM     19  O   UNL     1     -12.844 -36.027 -15.005  1.00  0.00    -0.502 OA
ATOM     20  H   UNL     1     -13.542 -36.730 -14.796  1.00  0.00     0.293 HD
ENDBRANCH  15  19
BRANCH  16  21
ATOM     21  O   UNL     1     -11.008 -34.627 -13.387  1.00  0.00    -0.504 OA
ATOM     22  H   UNL     1     -10.072 -34.427 -13.719  1.00  0.00     0.293 HD
ENDBRANCH  16  21
ENDBRANCH   1  11
BRANCH  10  23
ATOM     23  O   UNL     1     -14.024 -29.957 -16.212  1.00  0.00    -0.500 OA
ATOM     24  H   UNL     1     -13.292 -29.715 -16.869  1.00  0.00     0.294 HD
ENDBRANCH  10  23
BRANCH   5  25
ATOM     25  O   UNL     1     -14.127 -26.985  -9.043  1.00  0.00    -0.507 OA
ATOM     26  H   UNL     1     -14.956 -26.656  -8.562  1.00  0.00     0.293 HD
ENDBRANCH   5  25
BRANCH   7  27
ATOM     27  O   UNL     1     -14.617 -25.467 -13.589  1.00  0.00    -0.507 OA
ATOM     28  H   UNL     1     -15.507 -25.004 -13.701  1.00  0.00     0.293 HD
ENDBRANCH   7  27
TORSDOF 7
ENDMDL
MODEL 4
REMARK VINA RESULT:    -8.109      1.199      2.714
REMARK INTER + INTRA:          -9.554
REMARK INTER:                  -9.765
REMARK INTRA:                   0.211
REMARK UNBOUND:                 0.452
REMARK SMILES Oc1cc(O)c2cc(O)c(-c3cc(O)c(O)c(O)c3)[o+]c2c1
REMARK SMILES IDX 10 1 20 2 21 3 22 4 2 5 3 6 4 7 6 8 7 9 8 10 11 11 12 12
REMARK SMILES IDX 13 13 19 14 15 15 17 16 14 17 16 19 18 21 9 23 1 25 5 27
REMARK H PARENT 14 18 16 20 18 22 9 24 1 26 5 28
REMARK Flexibility Score: inf
ROOT
ATOM      1  C   UNL     1     -13.362 -29.003 -12.015  1.00  0.00     0.402 A 
ATOM      2  O   UNL     1     -12.676 -30.139 -12.104  1.00  0.00    -0.202 OA
ATOM      3  C   UNL     1     -12.976 -31.106 -12.966  1.00  0.00     0.368 A 
ATOM      4  C   UNL     1     -12.197 -32.267 -12.982  1.00  0.00     0.162 A 
ATOM      5  C   UNL     1     -12.490 -33.299 -13.873  1.00  0.00     0.128 A 
ATOM      6  C   UNL     1     -13.569 -33.173 -14.756  1.00  0.00     0.093 A 
ATOM      7  C   UNL     1     -14.364 -32.020 -14.758  1.00  0.00     0.136 A 
ATOM      8  C   UNL     1     -14.068 -30.967 -13.855  1.00  0.00     0.125 A 
ATOM      9  C   UNL     1     -14.801 -29.771 -13.797  1.00  0.00     0.078 A 
ATOM     10  C   UNL     1     -14.447 -28.774 -12.882  1.00  0.00     0.223 A 
ENDROOT
BRANCH   1  11
ATOM     11  C   UNL     1     -12.936 -28.005 -11.007  1.00  0.00     0.091 A 
ATOM     12  C   UNL     1     -11.615 -28.022 -10.534  1.00  0.00     0.068 A 
ATOM     13  C   UNL     1     -11.192 -27.102  -9.565  1.00  0.00     0.162 A 
ATOM     14  C   UNL     1     -13.843 -27.075 -10.469  1.00  0.00     0.068 A 
ATOM     15  C   UNL     1     -12.095 -26.164  -9.048  1.00  0.00     0.200 A 
ATOM     16  C   UNL     1     -13.426 -26.153  -9.498  1.00  0.00     0.162 A 
BRANCH  13  17
ATOM     17  O   UNL     1      -9.875 -27.114  -9.109  1.00  0.00    -0.504 OA
ATOM     18  H   UNL     1      -9.369 -27.983  -8.975  1.00  0.00     0.293 HD
ENDBRANCH  13  17
BRANCH  15  19
ATOM     19  O   UNL     1     -11.656 -25.254  -8.087  1.00  0.00    -0.502 OA
ATOM     20  H   UNL     1     -10.877 -24.628  -8.252  1.00  0.00     0.293 HD
ENDBRANCH  15  19
BRANCH  16  21
ATOM     21  O   UNL     1     -14.331 -25.230  -8.976  1.00  0.00    -0.504 OA
ATOM     22  H   UNL     1     -14.772 -24.530  -9.560  1.00  0.00     0.293 HD
ENDBRANCH  16  21
ENDBRANCH   1  11
BRANCH  10  23
ATOM     23  O   UNL     1     -15.144 -27.567 -12.858  1.00  0.00    -0.500 OA
ATOM     24  H   UNL     1     -14.666 -26.676 -12.800  1.00  0.00     0.294 HD
ENDBRANCH  10  23
BRANCH   5  25
ATOM     25  O   UNL     1     -11.702 -34.448 -13.875  1.00  0.00    -0.507 OA
ATOM     26  H   UNL     1     -12.098 -35.361 -14.064  1.00  0.00     0.293 HD
ENDBRANCH   5  25
BRANCH   7  27
ATOM     27  O   UNL     1     -15.426 -31.972 -15.668  1.00  0.00    -0.507 OA
ATOM     28  H   UNL     1     -16.281 -32.500 -15.575  1.00  0.00     0.293 HD
ENDBRANCH   7  27
TORSDOF 7
ENDMDL
MODEL 5
REMARK VINA RESULT:    -8.040      0.865      7.069
REMARK INTER + INTRA:          -9.469
REMARK INTER:                  -9.801
REMARK INTRA:                   0.332
REMARK UNBOUND:                 0.452
REMARK SMILES Oc1cc(O)c2cc(O)c(-c3cc(O)c(O)c(O)c3)[o+]c2c1
REMARK SMILES IDX 10 1 20 2 21 3 22 4 2 5 3 6 4 7 6 8 7 9 8 10 11 11 12 12
REMARK SMILES IDX 13 13 19 14 15 15 17 16 14 17 16 19 18 21 9 23 1 25 5 27
REMARK H PARENT 14 18 16 20 18 22 9 24 1 26 5 28
REMARK Flexibility Score: inf
ROOT
ATOM      1  C   UNL     1     -12.402 -29.407 -11.392  1.00  0.00     0.402 A 
ATOM      2  O   UNL     1     -13.398 -28.543 -11.213  1.00  0.00    -0.202 OA
ATOM      3  C   UNL     1     -13.344 -27.538 -10.345  1.00  0.00     0.368 A 
ATOM      4  C   UNL     1     -14.444 -26.684 -10.226  1.00  0.00     0.162 A 
ATOM      5  C   UNL     1     -14.418 -25.622  -9.321  1.00  0.00     0.128 A 
ATOM      6  C   UNL     1     -13.285 -25.412  -8.527  1.00  0.00     0.093 A 
ATOM      7  C   UNL     1     -12.171 -26.255  -8.627  1.00  0.00     0.136 A 
ATOM      8  C   UNL     1     -12.192 -27.333  -9.548  1.00  0.00     0.125 A 
ATOM      9  C   UNL     1     -11.117 -28.219  -9.726  1.00  0.00     0.078 A 
ATOM     10  C   UNL     1     -11.210 -29.258 -10.657  1.00  0.00     0.223 A 
ENDROOT
BRANCH   1  11
ATOM     11  C   UNL     1     -12.586 -30.492 -12.383  1.00  0.00     0.091 A 
ATOM     12  C   UNL     1     -13.686 -30.452 -13.254  1.00  0.00     0.068 A 
ATOM     13  C   UNL     1     -13.893 -31.477 -14.188  1.00  0.00     0.162 A 
ATOM     14  C   UNL     1     -11.712 -31.592 -12.434  1.00  0.00     0.068 A 
ATOM     15  C   UNL     1     -13.007 -32.560 -14.248  1.00  0.00     0.200 A 
ATOM     16  C   UNL     1     -11.916 -32.620 -13.365  1.00  0.00     0.162 A 
BRANCH  13  17
ATOM     17  O   UNL     1     -14.979 -31.426 -15.059  1.00  0.00    -0.504 OA
ATOM     18  H   UNL     1     -15.642 -30.658 -15.036  1.00  0.00     0.293 HD
ENDBRANCH  13  17
BRANCH  15  19
ATOM     19  O   UNL     1     -13.227 -33.569 -15.185  1.00  0.00    -0.502 OA
ATOM     20  H   UNL     1     -12.592 -34.350 -15.297  1.00  0.00     0.293 HD
ENDBRANCH  15  19
BRANCH  16  21
ATOM     21  O   UNL     1     -11.040 -33.704 -13.412  1.00  0.00    -0.504 OA
ATOM     22  H   UNL     1     -10.104 -33.648 -13.027  1.00  0.00     0.293 HD
ENDBRANCH  16  21
ENDBRANCH   1  11
BRANCH  10  23
ATOM     23  O   UNL     1     -10.125 -30.107 -10.869  1.00  0.00    -0.500 OA
ATOM     24  H   UNL     1      -9.181 -29.837 -10.622  1.00  0.00     0.294 HD
ENDBRANCH  10  23
BRANCH   5  25
ATOM     25  O   UNL     1     -15.523 -24.781  -9.217  1.00  0.00    -0.507 OA
ATOM     26  H   UNL     1     -15.452 -23.863  -8.795  1.00  0.00     0.293 HD
ENDBRANCH   5  25
BRANCH   7  27
ATOM     27  O   UNL     1     -11.079 -25.980  -7.796  1.00  0.00    -0.507 OA
ATOM     28  H   UNL     1     -10.208 -25.580  -8.113  1.00  0.00     0.293 HD
ENDBRANCH   7  27
TORSDOF 7
ENDMDL
MODEL 6
REMARK VINA RESULT:    -8.036      1.219      3.185
REMARK INTER + INTRA:          -9.464
REMARK INTER:                  -9.756
REMARK INTRA:                   0.292
REMARK UNBOUND:                 0.452
REMARK SMILES Oc1cc(O)c2cc(O)c(-c3cc(O)c(O)c(O)c3)[o+]c2c1
REMARK SMILES IDX 10 1 20 2 21 3 22 4 2 5 3 6 4 7 6 8 7 9 8 10 11 11 12 12
REMARK SMILES IDX 13 13 19 14 15 15 17 16 14 17 16 19 18 21 9 23 1 25 5 27
REMARK H PARENT 14 18 16 20 18 22 9 24 1 26 5 28
REMARK Flexibility Score: inf
ROOT
ATOM      1  C   UNL     1     -13.364 -29.026 -12.011  1.00  0.00     0.402 A 
ATOM      2  O   UNL     1     -12.683 -30.163 -12.127  1.00  0.00    -0.202 OA
ATOM      3  C   UNL     1     -12.987 -31.110 -13.008  1.00  0.00     0.368 A 
ATOM      4  C   UNL     1     -12.213 -32.273 -13.052  1.00  0.00     0.162 A 
ATOM      5  C   UNL     1     -12.512 -33.285 -13.964  1.00  0.00     0.128 A 
ATOM      6  C   UNL     1     -13.593 -33.136 -14.841  1.00  0.00     0.093 A 
ATOM      7  C   UNL     1     -14.384 -31.981 -14.816  1.00  0.00     0.136 A 
ATOM      8  C   UNL     1     -14.081 -30.948 -13.892  1.00  0.00     0.125 A 
ATOM      9  C   UNL     1     -14.811 -29.751 -13.806  1.00  0.00     0.078 A 
ATOM     10  C   UNL     1     -14.451 -28.776 -12.871  1.00  0.00     0.223 A 
ENDROOT
BRANCH   1  11
ATOM     11  C   UNL     1     -12.932 -28.052 -10.983  1.00  0.00     0.091 A 
ATOM     12  C   UNL     1     -13.855 -27.122 -10.483  1.00  0.00     0.068 A 
ATOM     13  C   UNL     1     -13.466 -26.176  -9.524  1.00  0.00     0.162 A 
ATOM     14  C   UNL     1     -11.600 -28.002 -10.537  1.00  0.00     0.068 A 
ATOM     15  C   UNL     1     -12.142 -26.144  -9.068  1.00  0.00     0.200 A 
ATOM     16  C   UNL     1     -11.205 -27.057  -9.579  1.00  0.00     0.162 A 
BRANCH  13  17
ATOM     17  O   UNL     1     -14.391 -25.263  -9.020  1.00  0.00    -0.504 OA
ATOM     18  H   UNL     1     -14.237 -24.263  -9.083  1.00  0.00     0.293 HD
ENDBRANCH  13  17
BRANCH  15  19
ATOM     19  O   UNL     1     -11.774 -25.198  -8.111  1.00  0.00    -0.502 OA
ATOM     20  H   UNL     1     -11.862 -25.374  -7.118  1.00  0.00     0.293 HD
ENDBRANCH  15  19
BRANCH  16  21
ATOM     21  O   UNL     1      -9.882 -27.019  -9.138  1.00  0.00    -0.504 OA
ATOM     22  H   UNL     1      -9.569 -27.574  -8.351  1.00  0.00     0.293 HD
ENDBRANCH  16  21
ENDBRANCH   1  11
BRANCH  10  23
ATOM     23  O   UNL     1     -15.143 -27.566 -12.819  1.00  0.00    -0.500 OA
ATOM     24  H   UNL     1     -16.019 -27.433 -13.308  1.00  0.00     0.294 HD
ENDBRANCH  10  23
BRANCH   5  25
ATOM     25  O   UNL     1     -11.728 -34.436 -13.993  1.00  0.00    -0.507 OA
ATOM     26  H   UNL     1     -11.471 -34.923 -13.142  1.00  0.00     0.293 HD
ENDBRANCH   5  25
BRANCH   7  27
ATOM     27  O   UNL     1     -15.448 -31.909 -15.722  1.00  0.00    -0.507 OA
ATOM     28  H   UNL     1     -16.356 -31.527 -15.506  1.00  0.00     0.293 HD
ENDBRANCH   7  27
TORSDOF 7
ENDMDL
MODEL 7
REMARK VINA RESULT:    -7.980      0.870      6.865
REMARK INTER + INTRA:          -9.395
REMARK INTER:                  -9.809
REMARK INTRA:                   0.414
REMARK UNBOUND:                 0.452
REMARK SMILES Oc1cc(O)c2cc(O)c(-c3cc(O)c(O)c(O)c3)[o+]c2c1
REMARK SMILES IDX 10 1 20 2 21 3 22 4 2 5 3 6 4 7 6 8 7 9 8 10 11 11 12 12
REMARK SMILES IDX 13 13 19 14 15 15 17 16 14 17 16 19 18 21 9 23 1 25 5 27
REMARK H PARENT 14 18 16 20 18 22 9 24 1 26 5 28
REMARK Flexibility Score: inf
ROOT
ATOM      1  C   UNL     1     -12.499 -29.448 -11.452  1.00  0.00     0.402 A 
ATOM      2  O   UNL     1     -13.482 -28.575 -11.250  1.00  0.00    -0.202 OA
ATOM      3  C   UNL     1     -13.395 -27.565 -10.391  1.00  0.00     0.368 A 
ATOM      4  C   UNL     1     -14.485 -26.701 -10.245  1.00  0.00     0.162 A 
ATOM      5  C   UNL     1     -14.423 -25.634  -9.349  1.00  0.00     0.128 A 
ATOM      6  C   UNL     1     -13.266 -25.427  -8.590  1.00  0.00     0.093 A 
ATOM      7  C   UNL     1     -12.162 -26.279  -8.717  1.00  0.00     0.136 A 
ATOM      8  C   UNL     1     -12.219 -27.363  -9.630  1.00  0.00     0.125 A 
ATOM      9  C   UNL     1     -11.156 -28.259  -9.833  1.00  0.00     0.078 A 
ATOM     10  C   UNL     1     -11.284 -29.303 -10.754  1.00  0.00     0.223 A 
ENDROOT
BRANCH   1  11
ATOM     11  C   UNL     1     -12.719 -30.538 -12.430  1.00  0.00     0.091 A 
ATOM     12  C   UNL     1     -11.812 -31.606 -12.490  1.00  0.00     0.068 A 
ATOM     13  C   UNL     1     -11.987 -32.640 -13.420  1.00  0.00     0.162 A 
ATOM     14  C   UNL     1     -13.789 -30.497 -13.341  1.00  0.00     0.068 A 
ATOM     15  C   UNL     1     -13.067 -32.605 -14.311  1.00  0.00     0.200 A 
ATOM     16  C   UNL     1     -13.968 -31.528 -14.275  1.00  0.00     0.162 A 
BRANCH  13  17
ATOM     17  O   UNL     1     -11.091 -33.705 -13.465  1.00  0.00    -0.504 OA
ATOM     18  H   UNL     1     -10.402 -33.788 -14.206  1.00  0.00     0.293 HD
ENDBRANCH  13  17
BRANCH  15  19
ATOM     19  O   UNL     1     -13.227 -33.643 -15.228  1.00  0.00    -0.502 OA
ATOM     20  H   UNL     1     -12.464 -33.976 -15.805  1.00  0.00     0.293 HD
ENDBRANCH  15  19
BRANCH  16  21
ATOM     21  O   UNL     1     -15.037 -31.482 -15.171  1.00  0.00    -0.504 OA
ATOM     22  H   UNL     1     -15.221 -30.661 -15.735  1.00  0.00     0.293 HD
ENDBRANCH  16  21
ENDBRANCH   1  11
BRANCH  10  23
ATOM     23  O   UNL     1     -10.212 -30.162 -10.992  1.00  0.00    -0.500 OA
ATOM     24  H   UNL     1      -9.608 -30.050 -11.797  1.00  0.00     0.294 HD
ENDBRANCH  10  23
BRANCH   5  25
ATOM     25  O   UNL     1     -15.519 -24.784  -9.218  1.00  0.00    -0.507 OA
ATOM     26  H   UNL     1     -15.678 -24.252  -8.371  1.00  0.00     0.293 HD
ENDBRANCH   5  25
BRANCH   7  27
ATOM     27  O   UNL     1     -11.044 -26.007  -7.921  1.00  0.00    -0.507 OA
ATOM     28  H   UNL     1     -11.064 -25.936  -6.915  1.00  0.00     0.293 HD
ENDBRANCH   7  27
TORSDOF 7
ENDMDL
MODEL 8
REMARK VINA RESULT:    -7.876      1.244      7.284
REMARK INTER + INTRA:          -9.266
REMARK INTER:                  -9.660
REMARK INTRA:                   0.394
REMARK UNBOUND:                 0.452
REMARK SMILES Oc1cc(O)c2cc(O)c(-c3cc(O)c(O)c(O)c3)[o+]c2c1
REMARK SMILES IDX 10 1 20 2 21 3 22 4 2 5 3 6 4 7 6 8 7 9 8 10 11 11 12 12
REMARK SMILES IDX 13 13 19 14 15 15 17 16 14 17 16 19 18 21 9 23 1 25 5 27
REMARK H PARENT 14 18 16 20 18 22 9 24 1 26 5 28
REMARK Flexibility Score: inf
ROOT
ATOM      1  C   UNL     1     -13.240 -29.399 -11.783  1.00  0.00     0.402 A 
ATOM      2  O   UNL     1     -12.274 -29.365 -10.870  1.00  0.00    -0.202 OA
ATOM      3  C   UNL     1     -12.143 -28.384  -9.982  1.00  0.00     0.368 A 
ATOM      4  C   UNL     1     -11.092 -28.435  -9.062  1.00  0.00     0.162 A 
ATOM      5  C   UNL     1     -10.929 -27.419  -8.121  1.00  0.00     0.128 A 
ATOM      6  C   UNL     1     -11.821 -26.341  -8.097  1.00  0.00     0.093 A 
ATOM      7  C   UNL     1     -12.882 -26.267  -9.008  1.00  0.00     0.136 A 
ATOM      8  C   UNL     1     -13.053 -27.300  -9.965  1.00  0.00     0.125 A 
ATOM      9  C   UNL     1     -14.095 -27.316 -10.907  1.00  0.00     0.078 A 
ATOM     10  C   UNL     1     -14.202 -28.371 -11.817  1.00  0.00     0.223 A 
ENDROOT
BRANCH   1  11
ATOM     11  C   UNL     1     -13.273 -30.541 -12.725  1.00  0.00     0.091 A 
ATOM     12  C   UNL     1     -12.248 -31.498 -12.687  1.00  0.00     0.068 A 
ATOM     13  C   UNL     1     -12.246 -32.577 -13.580  1.00  0.00     0.162 A 
ATOM     14  C   UNL     1     -14.283 -30.658 -13.697  1.00  0.00     0.068 A 
ATOM     15  C   UNL     1     -13.265 -32.700 -14.533  1.00  0.00     0.200 A 
ATOM     16  C   UNL     1     -14.284 -31.735 -14.595  1.00  0.00     0.162 A 
BRANCH  13  17
ATOM     17  O   UNL     1     -11.232 -33.532 -13.529  1.00  0.00    -0.504 OA
ATOM     18  H   UNL     1     -10.920 -34.020 -14.361  1.00  0.00     0.293 HD
ENDBRANCH  13  17
BRANCH  15  19
ATOM     19  O   UNL     1     -13.248 -33.782 -15.413  1.00  0.00    -0.502 OA
ATOM     20  H   UNL     1     -12.646 -34.584 -15.270  1.00  0.00     0.293 HD
ENDBRANCH  15  19
BRANCH  16  21
ATOM     21  O   UNL     1     -15.293 -31.846 -15.551  1.00  0.00    -0.504 OA
ATOM     22  H   UNL     1     -16.067 -32.490 -15.434  1.00  0.00     0.293 HD
ENDBRANCH  16  21
ENDBRANCH   1  11
BRANCH  10  23
ATOM     23  O   UNL     1     -15.264 -28.412 -12.720  1.00  0.00    -0.500 OA
ATOM     24  H   UNL     1     -15.869 -27.614 -12.868  1.00  0.00     0.294 HD
ENDBRANCH  10  23
BRANCH   5  25
ATOM     25  O   UNL     1      -9.875 -27.488  -7.212  1.00  0.00    -0.507 OA
ATOM     26  H   UNL     1      -8.953 -27.135  -7.442  1.00  0.00     0.293 HD
ENDBRANCH   5  25
BRANCH   7  27
ATOM     27  O   UNL     1     -13.728 -25.157  -8.922  1.00  0.00    -0.507 OA
ATOM     28  H   UNL     1     -14.508 -24.984  -9.539  1.00  0.00     0.293 HD
ENDBRANCH   7  27
TORSDOF 7
ENDMDL
MODEL 9
REMARK VINA RESULT:    -7.518      1.501      6.831
REMARK INTER + INTRA:          -8.824
REMARK INTER:                  -8.804
REMARK INTRA:                  -0.020
REMARK UNBOUND:                 0.452
REMARK SMILES Oc1cc(O)c2cc(O)c(-c3cc(O)c(O)c(O)c3)[o+]c2c1
REMARK SMILES IDX 10 1 20 2 21 3 22 4 2 5 3 6 4 7 6 8 7 9 8 10 11 11 12 12
REMARK SMILES IDX 13 13 19 14 15 15 17 16 14 17 16 19 18 21 9 23 1 25 5 27
REMARK H PARENT 14 18 16 20 18 22 9 24 1 26 5 28
REMARK Flexibility Score: inf
ROOT
ATOM      1  C   UNL     1     -12.447 -28.868 -11.527  1.00  0.00     0.402 A 
ATOM      2  O   UNL     1     -13.057 -27.817 -10.987  1.00  0.00    -0.202 OA
ATOM      3  C   UNL     1     -12.619 -27.204  -9.892  1.00  0.00     0.368 A 
ATOM      4  C   UNL     1     -13.331 -26.107  -9.397  1.00  0.00     0.162 A 
ATOM      5  C   UNL     1     -12.897 -25.446  -8.248  1.00  0.00     0.128 A 
ATOM      6  C   UNL     1     -11.744 -25.882  -7.586  1.00  0.00     0.093 A 
ATOM      7  C   UNL     1     -11.014 -26.979  -8.062  1.00  0.00     0.136 A 
ATOM      8  C   UNL     1     -11.450 -27.652  -9.232  1.00  0.00     0.125 A 
ATOM      9  C   UNL     1     -10.775 -28.750  -9.788  1.00  0.00     0.078 A 
ATOM     10  C   UNL     1     -11.263 -29.361 -10.947  1.00  0.00     0.223 A 
ENDROOT
BRANCH   1  11
ATOM     11  C   UNL     1     -13.038 -29.471 -12.744  1.00  0.00     0.091 A 
ATOM     12  C   UNL     1     -13.195 -30.864 -12.818  1.00  0.00     0.068 A 
ATOM     13  C   UNL     1     -13.733 -31.461 -13.967  1.00  0.00     0.162 A 
ATOM     14  C   UNL     1     -13.395 -28.683 -13.852  1.00  0.00     0.068 A 
ATOM     15  C   UNL     1     -14.106 -30.668 -15.060  1.00  0.00     0.200 A 
ATOM     16  C   UNL     1     -13.932 -29.275 -15.004  1.00  0.00     0.162 A 
BRANCH  13  17
ATOM     17  O   UNL     1     -13.898 -32.843 -14.030  1.00  0.00    -0.504 OA
ATOM     18  H   UNL     1     -14.319 -33.291 -14.837  1.00  0.00     0.293 HD
ENDBRANCH  13  17
BRANCH  15  19
ATOM     19  O   UNL     1     -14.642 -31.279 -16.193  1.00  0.00    -0.502 OA
ATOM     20  H   UNL     1     -14.244 -31.149 -17.115  1.00  0.00     0.293 HD
ENDBRANCH  15  19
BRANCH  16  21
ATOM     21  O   UNL     1     -14.289 -28.484 -16.096  1.00  0.00    -0.504 OA
ATOM     22  H   UNL     1     -15.125 -28.670 -16.636  1.00  0.00     0.293 HD
ENDBRANCH  16  21
ENDBRANCH   1  11
BRANCH  10  23
ATOM     23  O   UNL     1     -10.566 -30.420 -11.527  1.00  0.00    -0.500 OA
ATOM     24  H   UNL     1     -10.812 -31.385 -11.344  1.00  0.00     0.294 HD
ENDBRANCH  10  23
BRANCH   5  25
ATOM     25  O   UNL     1     -13.619 -24.355  -7.770  1.00  0.00    -0.507 OA
ATOM     26  H   UNL     1     -14.632 -24.366  -7.731  1.00  0.00     0.293 HD
ENDBRANCH   5  25
BRANCH   7  27
ATOM     27  O   UNL     1      -9.875 -27.355  -7.342  1.00  0.00    -0.507 OA
ATOM     28  H   UNL     1      -9.701 -27.108  -6.380  1.00  0.00     0.293 HD
ENDBRANCH   7  27
TORSDOF 7
ENDMDL
