MODEL 1
REMARK VINA RESULT:    -3.110      0.000      0.000
REMARK INTER + INTRA:          -9.183
REMARK INTER:                  -7.109
REMARK INTRA:                  -2.073
REMARK UNBOUND:                -2.073
REMARK SMILES CCCCCCCCCCCCCCCCCCCCCCCC(=O)[O-]
REMARK SMILES IDX 13 1 14 2 15 3 16 4 17 5 18 6 19 7 20 8 21 9 22 10 23 11
REMARK SMILES IDX 24 12 25 13 26 14 12 15 11 16 10 17 9 18 8 19 7 20 6 21 5 22
REMARK SMILES IDX 4 23 3 24 2 25 1 26
REMARK H PARENT
REMARK Flexibility Score: inf
ROOT
ATOM      1  C   UNL     1      13.255  -7.553   4.297  1.00  0.00     0.000 C 
ENDROOT
BRANCH   1   2
ATOM      2  C   UNL     1      14.773  -7.783   4.227  1.00  0.00     0.000 C 
BRANCH   2   3
ATOM      3  C   UNL     1      15.563  -6.471   4.075  1.00  0.00     0.000 C 
BRANCH   3   4
ATOM      4  C   UNL     1      16.661  -6.319   5.139  1.00  0.00     0.000 C 
BRANCH   4   5
ATOM      5  C   UNL     1      16.275  -6.970   6.480  1.00  0.00     0.000 C 
BRANCH   5   6
ATOM      6  C   UNL     1      17.312  -6.704   7.582  1.00  0.00     0.000 C 
BRANCH   6   7
ATOM      7  C   UNL     1      18.755  -6.721   7.050  1.00  0.00     0.000 C 
BRANCH   7   8
ATOM      8  C   UNL     1      19.379  -8.128   7.055  1.00  0.00     0.000 C 
BRANCH   8   9
ATOM      9  C   UNL     1      19.379  -8.844   5.692  1.00  0.00     0.000 C 
BRANCH   9  10
ATOM     10  C   UNL     1      19.914  -7.962   4.550  1.00  0.00     0.006 C 
BRANCH  10  11
ATOM     11  C   UNL     1      21.370  -7.534   4.782  1.00  0.00     0.053 C 
BRANCH  11  12
ATOM     12  C   UNL     1      21.582  -6.084   4.472  1.00  0.00     0.041 C 
ATOM     13  O   UNL     1      22.742  -5.594   4.500  1.00  0.00    -0.550 OA
ATOM     14  O   UNL     1      20.496  -5.268   4.179  1.00  0.00    -0.550 OA
ENDBRANCH  11  12
ENDBRANCH  10  11
ENDBRANCH   9  10
ENDBRANCH   8   9
ENDBRANCH   7   8
ENDBRANCH   6   7
ENDBRANCH   5   6
ENDBRANCH   4   5
ENDBRANCH   3   4
ENDBRANCH   2   3
ENDBRANCH   1   2
BRANCH   1  15
ATOM     15  C   UNL     1      12.735  -7.491   5.742  1.00  0.00     0.000 C 
BRANCH  15  16
ATOM     16  C   UNL     1      11.225  -7.209   5.770  1.00  0.00     0.000 C 
BRANCH  16  17
ATOM     17  C   UNL     1      10.403  -8.303   5.069  1.00  0.00     0.000 C 
BRANCH  17  18
ATOM     18  C   UNL     1       8.895  -8.183   5.351  1.00  0.00    -0.000 C 
BRANCH  18  19
ATOM     19  C   UNL     1       8.468  -8.961   6.606  1.00  0.00    -0.000 C 
BRANCH  19  20
ATOM     20  C   UNL     1       6.941  -9.051   6.758  1.00  0.00    -0.000 C 
BRANCH  20  21
ATOM     21  C   UNL     1       6.361 -10.109   5.808  1.00  0.00    -0.000 C 
BRANCH  21  22
ATOM     22  C   UNL     1       5.662  -9.493   4.585  1.00  0.00    -0.000 C 
BRANCH  22  23
ATOM     23  C   UNL     1       4.449  -8.602   4.914  1.00  0.00    -0.000 C 
BRANCH  23  24
ATOM     24  C   UNL     1       4.354  -7.333   4.040  1.00  0.00    -0.000 C 
BRANCH  24  25
ATOM     25  C   UNL     1       5.560  -6.401   4.234  1.00  0.00    -0.003 C 
ATOM     26  C   UNL     1       5.473  -5.659   5.563  1.00  0.00     0.004 C 
ENDBRANCH  24  25
ENDBRANCH  23  24
ENDBRANCH  22  23
ENDBRANCH  21  22
ENDBRANCH  20  21
ENDBRANCH  19  20
ENDBRANCH  18  19
ENDBRANCH  17  18
ENDBRANCH  16  17
ENDBRANCH  15  16
ENDBRANCH   1  15
TORSDOF 22
ENDMDL
MODEL 2
REMARK VINA RESULT:    -2.746      4.644     11.680
REMARK INTER + INTRA:          -8.351
REMARK INTER:                  -6.182
REMARK INTRA:                  -2.170
REMARK UNBOUND:                -2.073
REMARK SMILES CCCCCCCCCCCCCCCCCCCCCCCC(=O)[O-]
REMARK SMILES IDX 13 1 14 2 15 3 16 4 17 5 18 6 19 7 20 8 21 9 22 10 23 11
REMARK SMILES IDX 24 12 25 13 26 14 12 15 11 16 10 17 9 18 8 19 7 20 6 21 5 22
REMARK SMILES IDX 4 23 3 24 2 25 1 26
REMARK H PARENT
REMARK Flexibility Score: inf
ROOT
ATOM      1  C   UNL     1      17.026  -6.529   8.112  1.00  0.00     0.000 C 
ENDROOT
BRANCH   1   2
ATOM      2  C   UNL     1      16.554  -6.377   6.657  1.00  0.00     0.000 C 
BRANCH   2   3
ATOM      3  C   UNL     1      15.838  -7.634   6.134  1.00  0.00     0.000 C 
BRANCH   3   4
ATOM      4  C   UNL     1      16.005  -7.818   4.618  1.00  0.00     0.000 C 
BRANCH   4   5
ATOM      5  C   UNL     1      14.657  -8.000   3.895  1.00  0.00     0.000 C 
BRANCH   5   6
ATOM      6  C   UNL     1      13.462  -7.957   4.860  1.00  0.00     0.000 C 
BRANCH   6   7
ATOM      7  C   UNL     1      12.264  -7.185   4.280  1.00  0.00     0.000 C 
BRANCH   7   8
ATOM      8  C   UNL     1      10.919  -7.885   4.541  1.00  0.00     0.000 C 
BRANCH   8   9
ATOM      9  C   UNL     1      10.103  -7.310   5.712  1.00  0.00     0.000 C 
BRANCH   9  10
ATOM     10  C   UNL     1       8.779  -8.059   5.947  1.00  0.00     0.006 C 
BRANCH  10  11
ATOM     11  C   UNL     1       7.724  -7.717   4.886  1.00  0.00     0.053 C 
BRANCH  11  12
ATOM     12  C   UNL     1       6.372  -8.250   5.250  1.00  0.00     0.041 C 
ATOM     13  O   UNL     1       5.332  -7.657   4.859  1.00  0.00    -0.550 OA
ATOM     14  O   UNL     1       6.261  -9.385   6.044  1.00  0.00    -0.550 OA
ENDBRANCH  11  12
ENDBRANCH  10  11
ENDBRANCH   9  10
ENDBRANCH   8   9
ENDBRANCH   7   8
ENDBRANCH   6   7
ENDBRANCH   5   6
ENDBRANCH   4   5
ENDBRANCH   3   4
ENDBRANCH   2   3
ENDBRANCH   1   2
BRANCH   1  15
ATOM     15  C   UNL     1      18.549  -6.387   8.255  1.00  0.00     0.000 C 
BRANCH  15  16
ATOM     16  C   UNL     1      19.281  -7.298   7.258  1.00  0.00     0.000 C 
BRANCH  16  17
ATOM     17  C   UNL     1      19.673  -8.653   7.869  1.00  0.00     0.000 C 
BRANCH  17  18
ATOM     18  C   UNL     1      19.608  -9.804   6.848  1.00  0.00    -0.000 C 
BRANCH  18  19
ATOM     19  C   UNL     1      18.757  -9.451   5.618  1.00  0.00    -0.000 C 
BRANCH  19  20
ATOM     20  C   UNL     1      19.362  -9.977   4.307  1.00  0.00    -0.000 C 
BRANCH  20  21
ATOM     21  C   UNL     1      20.839  -9.573   4.189  1.00  0.00    -0.000 C 
BRANCH  21  22
ATOM     22  C   UNL     1      21.026  -8.075   3.898  1.00  0.00    -0.000 C 
BRANCH  22  23
ATOM     23  C   UNL     1      22.313  -7.459   4.482  1.00  0.00    -0.000 C 
BRANCH  23  24
ATOM     24  C   UNL     1      22.156  -5.984   4.911  1.00  0.00    -0.000 C 
BRANCH  24  25
ATOM     25  C   UNL     1      20.929  -5.318   4.270  1.00  0.00    -0.003 C 
ATOM     26  C   UNL     1      21.083  -3.801   4.232  1.00  0.00     0.004 C 
ENDBRANCH  24  25
ENDBRANCH  23  24
ENDBRANCH  22  23
ENDBRANCH  21  22
ENDBRANCH  20  21
ENDBRANCH  19  20
ENDBRANCH  18  19
ENDBRANCH  17  18
ENDBRANCH  16  17
ENDBRANCH  15  16
ENDBRANCH   1  15
TORSDOF 22
ENDMDL
MODEL 3
REMARK VINA RESULT:    -2.501      1.460      2.102
REMARK INTER + INTRA:          -7.791
REMARK INTER:                  -6.325
REMARK INTRA:                  -1.467
REMARK UNBOUND:                -2.073
REMARK SMILES CCCCCCCCCCCCCCCCCCCCCCCC(=O)[O-]
REMARK SMILES IDX 13 1 14 2 15 3 16 4 17 5 18 6 19 7 20 8 21 9 22 10 23 11
REMARK SMILES IDX 24 12 25 13 26 14 12 15 11 16 10 17 9 18 8 19 7 20 6 21 5 22
REMARK SMILES IDX 4 23 3 24 2 25 1 26
REMARK H PARENT
REMARK Flexibility Score: inf
ROOT
ATOM      1  C   UNL     1      13.582  -7.536   4.977  1.00  0.00     0.000 C 
ENDROOT
BRANCH   1   2
ATOM      2  C   UNL     1      14.571  -7.997   6.059  1.00  0.00     0.000 C 
BRANCH   2   3
ATOM      3  C   UNL     1      14.737  -9.527   6.095  1.00  0.00     0.000 C 
BRANCH   3   4
ATOM      4  C   UNL     1      16.129  -9.979   5.628  1.00  0.00     0.000 C 
BRANCH   4   5
ATOM      5  C   UNL     1      16.427  -9.562   4.177  1.00  0.00     0.000 C 
BRANCH   5   6
ATOM      6  C   UNL     1      17.933  -9.520   3.875  1.00  0.00     0.000 C 
BRANCH   6   7
ATOM      7  C   UNL     1      18.791  -9.555   5.152  1.00  0.00     0.000 C 
BRANCH   7   8
ATOM      8  C   UNL     1      20.203  -8.981   4.940  1.00  0.00     0.000 C 
BRANCH   8   9
ATOM      9  C   UNL     1      20.491  -7.669   5.692  1.00  0.00     0.000 C 
BRANCH   9  10
ATOM     10  C   UNL     1      19.636  -6.491   5.194  1.00  0.00     0.006 C 
BRANCH  10  11
ATOM     11  C   UNL     1      20.179  -5.891   3.890  1.00  0.00     0.053 C 
BRANCH  11  12
ATOM     12  C   UNL     1      21.291  -4.920   4.143  1.00  0.00     0.041 C 
ATOM     13  O   UNL     1      21.032  -3.718   4.416  1.00  0.00    -0.550 OA
ATOM     14  O   UNL     1      22.613  -5.335   4.049  1.00  0.00    -0.550 OA
ENDBRANCH  11  12
ENDBRANCH  10  11
ENDBRANCH   9  10
ENDBRANCH   8   9
ENDBRANCH   7   8
ENDBRANCH   6   7
ENDBRANCH   5   6
ENDBRANCH   4   5
ENDBRANCH   3   4
ENDBRANCH   2   3
ENDBRANCH   1   2
BRANCH   1  15
ATOM     15  C   UNL     1      12.170  -7.297   5.533  1.00  0.00     0.000 C 
BRANCH  15  16
ATOM     16  C   UNL     1      11.147  -7.157   4.395  1.00  0.00     0.000 C 
BRANCH  16  17
ATOM     17  C   UNL     1      10.233  -8.385   4.263  1.00  0.00     0.000 C 
BRANCH  17  18
ATOM     18  C   UNL     1       8.837  -8.153   4.870  1.00  0.00    -0.000 C 
BRANCH  18  19
ATOM     19  C   UNL     1       8.560  -9.066   6.074  1.00  0.00    -0.000 C 
BRANCH  19  20
ATOM     20  C   UNL     1       7.090  -9.034   6.518  1.00  0.00    -0.000 C 
BRANCH  20  21
ATOM     21  C   UNL     1       6.251 -10.024   5.697  1.00  0.00    -0.000 C 
BRANCH  21  22
ATOM     22  C   UNL     1       5.402  -9.333   4.616  1.00  0.00    -0.000 C 
BRANCH  22  23
ATOM     23  C   UNL     1       3.993  -8.909   5.075  1.00  0.00    -0.000 C 
BRANCH  23  24
ATOM     24  C   UNL     1       3.559  -7.525   4.549  1.00  0.00    -0.000 C 
BRANCH  24  25
ATOM     25  C   UNL     1       4.745  -6.559   4.401  1.00  0.00    -0.003 C 
ATOM     26  C   UNL     1       4.290  -5.108   4.510  1.00  0.00     0.004 C 
ENDBRANCH  24  25
ENDBRANCH  23  24
ENDBRANCH  22  23
ENDBRANCH  21  22
ENDBRANCH  20  21
ENDBRANCH  19  20
ENDBRANCH  18  19
ENDBRANCH  17  18
ENDBRANCH  16  17
ENDBRANCH  15  16
ENDBRANCH   1  15
TORSDOF 22
ENDMDL
MODEL 4
REMARK VINA RESULT:    -2.408      1.773      2.639
REMARK INTER + INTRA:          -7.579
REMARK INTER:                  -6.105
REMARK INTRA:                  -1.473
REMARK UNBOUND:                -2.073
REMARK SMILES CCCCCCCCCCCCCCCCCCCCCCCC(=O)[O-]
REMARK SMILES IDX 13 1 14 2 15 3 16 4 17 5 18 6 19 7 20 8 21 9 22 10 23 11
REMARK SMILES IDX 24 12 25 13 26 14 12 15 11 16 10 17 9 18 8 19 7 20 6 21 5 22
REMARK SMILES IDX 4 23 3 24 2 25 1 26
REMARK H PARENT
REMARK Flexibility Score: inf
ROOT
ATOM      1  C   UNL     1      13.664  -7.981   5.669  1.00  0.00     0.000 C 
ENDROOT
BRANCH   1   2
ATOM      2  C   UNL     1      15.167  -8.272   5.812  1.00  0.00     0.000 C 
BRANCH   2   3
ATOM      3  C   UNL     1      15.945  -8.014   4.509  1.00  0.00     0.000 C 
BRANCH   3   4
ATOM      4  C   UNL     1      16.058  -6.518   4.178  1.00  0.00     0.000 C 
BRANCH   4   5
ATOM      5  C   UNL     1      17.435  -5.936   4.548  1.00  0.00     0.000 C 
BRANCH   5   6
ATOM      6  C   UNL     1      18.592  -6.696   3.882  1.00  0.00     0.000 C 
BRANCH   6   7
ATOM      7  C   UNL     1      19.937  -5.962   4.021  1.00  0.00     0.000 C 
BRANCH   7   8
ATOM      8  C   UNL     1      20.671  -6.301   5.331  1.00  0.00     0.000 C 
BRANCH   8   9
ATOM      9  C   UNL     1      20.731  -7.800   5.674  1.00  0.00     0.000 C 
BRANCH   9  10
ATOM     10  C   UNL     1      19.522  -8.277   6.497  1.00  0.00     0.006 C 
BRANCH  10  11
ATOM     11  C   UNL     1      19.632  -7.874   7.975  1.00  0.00     0.053 C 
BRANCH  11  12
ATOM     12  C   UNL     1      18.888  -6.606   8.264  1.00  0.00     0.041 C 
ATOM     13  O   UNL     1      19.487  -5.624   8.775  1.00  0.00    -0.550 OA
ATOM     14  O   UNL     1      17.528  -6.519   7.995  1.00  0.00    -0.550 OA
ENDBRANCH  11  12
ENDBRANCH  10  11
ENDBRANCH   9  10
ENDBRANCH   8   9
ENDBRANCH   7   8
ENDBRANCH   6   7
ENDBRANCH   5   6
ENDBRANCH   4   5
ENDBRANCH   3   4
ENDBRANCH   2   3
ENDBRANCH   1   2
BRANCH   1  15
ATOM     15  C   UNL     1      13.112  -8.397   4.297  1.00  0.00     0.000 C 
BRANCH  15  16
ATOM     16  C   UNL     1      11.636  -8.812   4.402  1.00  0.00     0.000 C 
BRANCH  16  17
ATOM     17  C   UNL     1      10.764  -7.739   5.075  1.00  0.00     0.000 C 
BRANCH  17  18
ATOM     18  C   UNL     1       9.616  -7.256   4.171  1.00  0.00    -0.000 C 
BRANCH  18  19
ATOM     19  C   UNL     1       8.236  -7.450   4.819  1.00  0.00    -0.000 C 
BRANCH  19  20
ATOM     20  C   UNL     1       8.233  -8.549   5.893  1.00  0.00    -0.000 C 
BRANCH  20  21
ATOM     21  C   UNL     1       6.825  -9.140   6.064  1.00  0.00    -0.000 C 
BRANCH  21  22
ATOM     22  C   UNL     1       6.391 -10.001   4.866  1.00  0.00    -0.000 C 
BRANCH  22  23
ATOM     23  C   UNL     1       5.202  -9.438   4.063  1.00  0.00    -0.000 C 
BRANCH  23  24
ATOM     24  C   UNL     1       4.174  -8.675   4.926  1.00  0.00    -0.000 C 
BRANCH  24  25
ATOM     25  C   UNL     1       3.449  -7.577   4.133  1.00  0.00    -0.003 C 
ATOM     26  C   UNL     1       4.037  -6.202   4.432  1.00  0.00     0.004 C 
ENDBRANCH  24  25
ENDBRANCH  23  24
ENDBRANCH  22  23
ENDBRANCH  21  22
ENDBRANCH  20  21
ENDBRANCH  19  20
ENDBRANCH  18  19
ENDBRANCH  17  18
ENDBRANCH  16  17
ENDBRANCH  15  16
ENDBRANCH   1  15
TORSDOF 22
ENDMDL
MODEL 5
REMARK VINA RESULT:    -2.181      4.602     11.966
REMARK INTER + INTRA:          -7.060
REMARK INTER:                  -6.212
REMARK INTRA:                  -0.848
REMARK UNBOUND:                -2.073
REMARK SMILES CCCCCCCCCCCCCCCCCCCCCCCC(=O)[O-]
REMARK SMILES IDX 13 1 14 2 15 3 16 4 17 5 18 6 19 7 20 8 21 9 22 10 23 11
REMARK SMILES IDX 24 12 25 13 26 14 12 15 11 16 10 17 9 18 8 19 7 20 6 21 5 22
REMARK SMILES IDX 4 23 3 24 2 25 1 26
REMARK H PARENT
REMARK Flexibility Score: inf
ROOT
ATOM      1  C   UNL     1      13.483  -7.690   6.269  1.00  0.00     0.000 C 
ENDROOT
BRANCH   1   2
ATOM      2  C   UNL     1      13.301  -7.070   4.874  1.00  0.00     0.000 C 
BRANCH   2   3
ATOM      3  C   UNL     1      12.174  -7.743   4.071  1.00  0.00     0.000 C 
BRANCH   3   4
ATOM      4  C   UNL     1      11.356  -8.728   4.917  1.00  0.00     0.000 C 
BRANCH   4   5
ATOM      5  C   UNL     1       9.949  -8.973   4.341  1.00  0.00     0.000 C 
BRANCH   5   6
ATOM      6  C   UNL     1       8.850  -8.274   5.155  1.00  0.00     0.000 C 
BRANCH   6   7
ATOM      7  C   UNL     1       7.920  -9.271   5.868  1.00  0.00     0.000 C 
BRANCH   7   8
ATOM      8  C   UNL     1       6.509  -8.706   6.109  1.00  0.00     0.000 C 
BRANCH   8   9
ATOM      9  C   UNL     1       5.460  -9.102   5.054  1.00  0.00     0.000 C 
BRANCH   9  10
ATOM     10  C   UNL     1       5.244  -8.016   3.985  1.00  0.00     0.006 C 
BRANCH  10  11
ATOM     11  C   UNL     1       4.083  -7.077   4.340  1.00  0.00     0.053 C 
BRANCH  11  12
ATOM     12  C   UNL     1       4.569  -5.774   4.897  1.00  0.00     0.041 C 
ATOM     13  O   UNL     1       5.635  -5.730   5.567  1.00  0.00    -0.550 OA
ATOM     14  O   UNL     1       3.832  -4.613   4.699  1.00  0.00    -0.550 OA
ENDBRANCH  11  12
ENDBRANCH  10  11
ENDBRANCH   9  10
ENDBRANCH   8   9
ENDBRANCH   7   8
ENDBRANCH   6   7
ENDBRANCH   5   6
ENDBRANCH   4   5
ENDBRANCH   3   4
ENDBRANCH   2   3
ENDBRANCH   1   2
BRANCH   1  15
ATOM     15  C   UNL     1      14.906  -8.224   6.495  1.00  0.00     0.000 C 
BRANCH  15  16
ATOM     16  C   UNL     1      15.919  -7.072   6.577  1.00  0.00     0.000 C 
BRANCH  16  17
ATOM     17  C   UNL     1      16.189  -6.420   5.211  1.00  0.00     0.000 C 
BRANCH  17  18
ATOM     18  C   UNL     1      17.082  -7.287   4.307  1.00  0.00    -0.000 C 
BRANCH  18  19
ATOM     19  C   UNL     1      18.365  -6.560   3.875  1.00  0.00    -0.000 C 
BRANCH  19  20
ATOM     20  C   UNL     1      19.368  -6.392   5.027  1.00  0.00    -0.000 C 
BRANCH  20  21
ATOM     21  C   UNL     1      20.182  -7.678   5.232  1.00  0.00    -0.000 C 
BRANCH  21  22
ATOM     22  C   UNL     1      19.298  -8.908   5.496  1.00  0.00    -0.000 C 
BRANCH  22  23
ATOM     23  C   UNL     1      19.279  -9.388   6.961  1.00  0.00    -0.000 C 
BRANCH  23  24
ATOM     24  C   UNL     1      19.910  -8.387   7.951  1.00  0.00    -0.000 C 
BRANCH  24  25
ATOM     25  C   UNL     1      18.880  -7.396   8.514  1.00  0.00    -0.003 C 
ATOM     26  C   UNL     1      19.401  -5.964   8.447  1.00  0.00     0.004 C 
ENDBRANCH  24  25
ENDBRANCH  23  24
ENDBRANCH  22  23
ENDBRANCH  21  22
ENDBRANCH  20  21
ENDBRANCH  19  20
ENDBRANCH  18  19
ENDBRANCH  17  18
ENDBRANCH  16  17
ENDBRANCH  15  16
ENDBRANCH   1  15
TORSDOF 22
ENDMDL
MODEL 6
REMARK VINA RESULT:    -2.094      4.121     11.540
REMARK INTER + INTRA:          -6.860
REMARK INTER:                  -6.266
REMARK INTRA:                  -0.594
REMARK UNBOUND:                -2.073
REMARK SMILES CCCCCCCCCCCCCCCCCCCCCCCC(=O)[O-]
REMARK SMILES IDX 13 1 14 2 15 3 16 4 17 5 18 6 19 7 20 8 21 9 22 10 23 11
REMARK SMILES IDX 24 12 25 13 26 14 12 15 11 16 10 17 9 18 8 19 7 20 6 21 5 22
REMARK SMILES IDX 4 23 3 24 2 25 1 26
REMARK H PARENT
REMARK Flexibility Score: inf
ROOT
ATOM      1  C   UNL     1      14.881  -7.587   6.342  1.00  0.00     0.000 C 
ENDROOT
BRANCH   1   2
ATOM      2  C   UNL     1      13.808  -8.314   5.515  1.00  0.00     0.000 C 
BRANCH   2   3
ATOM      3  C   UNL     1      12.784  -7.348   4.894  1.00  0.00     0.000 C 
BRANCH   3   4
ATOM      4  C   UNL     1      11.490  -8.056   4.469  1.00  0.00     0.000 C 
BRANCH   4   5
ATOM      5  C   UNL     1      10.420  -7.072   3.960  1.00  0.00     0.000 C 
BRANCH   5   6
ATOM      6  C   UNL     1       9.645  -6.402   5.106  1.00  0.00     0.000 C 
BRANCH   6   7
ATOM      7  C   UNL     1       8.149  -6.758   5.092  1.00  0.00     0.000 C 
BRANCH   7   8
ATOM      8  C   UNL     1       7.747  -7.611   3.875  1.00  0.00     0.000 C 
BRANCH   8   9
ATOM      9  C   UNL     1       6.725  -8.724   4.169  1.00  0.00     0.000 C 
BRANCH   9  10
ATOM     10  C   UNL     1       7.139  -9.624   5.347  1.00  0.00     0.006 C 
BRANCH  10  11
ATOM     11  C   UNL     1       6.689  -9.053   6.699  1.00  0.00     0.053 C 
BRANCH  11  12
ATOM     12  C   UNL     1       7.668  -9.362   7.789  1.00  0.00     0.041 C 
ATOM     13  O   UNL     1       8.884  -9.067   7.650  1.00  0.00    -0.550 OA
ATOM     14  O   UNL     1       7.242  -9.999   8.948  1.00  0.00    -0.550 OA
ENDBRANCH  11  12
ENDBRANCH  10  11
ENDBRANCH   9  10
ENDBRANCH   8   9
ENDBRANCH   7   8
ENDBRANCH   6   7
ENDBRANCH   5   6
ENDBRANCH   4   5
ENDBRANCH   3   4
ENDBRANCH   2   3
ENDBRANCH   1   2
BRANCH   1  15
ATOM     15  C   UNL     1      16.303  -7.850   5.824  1.00  0.00     0.000 C 
BRANCH  15  16
ATOM     16  C   UNL     1      16.272  -8.688   4.536  1.00  0.00     0.000 C 
BRANCH  16  17
ATOM     17  C   UNL     1      17.104  -9.976   4.644  1.00  0.00     0.000 C 
BRANCH  17  18
ATOM     18  C   UNL     1      18.440  -9.759   5.377  1.00  0.00    -0.000 C 
BRANCH  18  19
ATOM     19  C   UNL     1      19.557  -9.285   4.434  1.00  0.00    -0.000 C 
BRANCH  19  20
ATOM     20  C   UNL     1      19.349  -7.844   3.943  1.00  0.00    -0.000 C 
BRANCH  20  21
ATOM     21  C   UNL     1      20.492  -6.936   4.420  1.00  0.00    -0.000 C 
BRANCH  21  22
ATOM     22  C   UNL     1      20.178  -6.228   5.748  1.00  0.00    -0.000 C 
BRANCH  22  23
ATOM     23  C   UNL     1      19.139  -6.945   6.633  1.00  0.00    -0.000 C 
BRANCH  23  24
ATOM     24  C   UNL     1      19.668  -7.318   8.034  1.00  0.00    -0.000 C 
BRANCH  24  25
ATOM     25  C   UNL     1      19.754  -8.838   8.240  1.00  0.00    -0.003 C 
ATOM     26  C   UNL     1      19.999  -9.181   9.706  1.00  0.00     0.004 C 
ENDBRANCH  24  25
ENDBRANCH  23  24
ENDBRANCH  22  23
ENDBRANCH  21  22
ENDBRANCH  20  21
ENDBRANCH  19  20
ENDBRANCH  18  19
ENDBRANCH  17  18
ENDBRANCH  16  17
ENDBRANCH  15  16
ENDBRANCH   1  15
TORSDOF 22
ENDMDL
MODEL 7
REMARK VINA RESULT:    -2.080      1.590      3.826
REMARK INTER + INTRA:          -6.829
REMARK INTER:                  -5.719
REMARK INTRA:                  -1.110
REMARK UNBOUND:                -2.073
REMARK SMILES CCCCCCCCCCCCCCCCCCCCCCCC(=O)[O-]
REMARK SMILES IDX 13 1 14 2 15 3 16 4 17 5 18 6 19 7 20 8 21 9 22 10 23 11
REMARK SMILES IDX 24 12 25 13 26 14 12 15 11 16 10 17 9 18 8 19 7 20 6 21 5 22
REMARK SMILES IDX 4 23 3 24 2 25 1 26
REMARK H PARENT
REMARK Flexibility Score: inf
ROOT
ATOM      1  C   UNL     1      10.039  -7.395   5.600  1.00  0.00     0.000 C 
ENDROOT
BRANCH   1   2
ATOM      2  C   UNL     1      10.429  -8.748   4.984  1.00  0.00     0.000 C 
BRANCH   2   3
ATOM      3  C   UNL     1      11.502  -8.611   3.889  1.00  0.00     0.000 C 
BRANCH   3   4
ATOM      4  C   UNL     1      12.614  -9.662   4.021  1.00  0.00     0.000 C 
BRANCH   4   5
ATOM      5  C   UNL     1      14.012  -9.027   4.137  1.00  0.00     0.000 C 
BRANCH   5   6
ATOM      6  C   UNL     1      13.955  -7.554   4.570  1.00  0.00     0.000 C 
BRANCH   6   7
ATOM      7  C   UNL     1      15.163  -7.145   5.431  1.00  0.00     0.000 C 
BRANCH   7   8
ATOM      8  C   UNL     1      16.096  -6.151   4.718  1.00  0.00     0.000 C 
BRANCH   8   9
ATOM      9  C   UNL     1      17.461  -6.726   4.298  1.00  0.00     0.000 C 
BRANCH   9  10
ATOM     10  C   UNL     1      17.481  -8.264   4.268  1.00  0.00     0.006 C 
BRANCH  10  11
ATOM     11  C   UNL     1      18.910  -8.824   4.244  1.00  0.00     0.053 C 
BRANCH  11  12
ATOM     12  C   UNL     1      19.830  -8.046   5.132  1.00  0.00     0.041 C 
ATOM     13  O   UNL     1      20.111  -8.474   6.283  1.00  0.00    -0.550 OA
ATOM     14  O   UNL     1      20.357  -6.835   4.701  1.00  0.00    -0.550 OA
ENDBRANCH  11  12
ENDBRANCH  10  11
ENDBRANCH   9  10
ENDBRANCH   8   9
ENDBRANCH   7   8
ENDBRANCH   6   7
ENDBRANCH   5   6
ENDBRANCH   4   5
ENDBRANCH   3   4
ENDBRANCH   2   3
ENDBRANCH   1   2
BRANCH   1  15
ATOM     15  C   UNL     1      10.042  -6.256   4.570  1.00  0.00     0.000 C 
BRANCH  15  16
ATOM     16  C   UNL     1       8.659  -6.101   3.919  1.00  0.00     0.000 C 
BRANCH  16  17
ATOM     17  C   UNL     1       7.511  -6.504   4.858  1.00  0.00     0.000 C 
BRANCH  17  18
ATOM     18  C   UNL     1       6.143  -5.990   4.376  1.00  0.00    -0.000 C 
BRANCH  18  19
ATOM     19  C   UNL     1       4.983  -6.889   4.833  1.00  0.00    -0.000 C 
BRANCH  19  20
ATOM     20  C   UNL     1       3.782  -6.840   3.875  1.00  0.00    -0.000 C 
BRANCH  20  21
ATOM     21  C   UNL     1       2.912  -8.096   4.029  1.00  0.00    -0.000 C 
BRANCH  21  22
ATOM     22  C   UNL     1       3.360  -8.993   5.194  1.00  0.00    -0.000 C 
BRANCH  22  23
ATOM     23  C   UNL     1       4.676  -9.758   4.952  1.00  0.00    -0.000 C 
BRANCH  23  24
ATOM     24  C   UNL     1       5.431 -10.121   6.249  1.00  0.00    -0.000 C 
BRANCH  24  25
ATOM     25  C   UNL     1       6.952  -9.960   6.103  1.00  0.00    -0.003 C 
ATOM     26  C   UNL     1       7.631  -9.894   7.467  1.00  0.00     0.004 C 
ENDBRANCH  24  25
ENDBRANCH  23  24
ENDBRANCH  22  23
ENDBRANCH  21  22
ENDBRANCH  20  21
ENDBRANCH  19  20
ENDBRANCH  18  19
ENDBRANCH  17  18
ENDBRANCH  16  17
ENDBRANCH  15  16
ENDBRANCH   1  15
TORSDOF 22
ENDMDL
MODEL 8
REMARK VINA RESULT:    -1.807      5.063     12.130
REMARK INTER + INTRA:          -6.204
REMARK INTER:                  -5.309
REMARK INTRA:                  -0.895
REMARK UNBOUND:                -2.073
REMARK SMILES CCCCCCCCCCCCCCCCCCCCCCCC(=O)[O-]
REMARK SMILES IDX 13 1 14 2 15 3 16 4 17 5 18 6 19 7 20 8 21 9 22 10 23 11
REMARK SMILES IDX 24 12 25 13 26 14 12 15 11 16 10 17 9 18 8 19 7 20 6 21 5 22
REMARK SMILES IDX 4 23 3 24 2 25 1 26
REMARK H PARENT
REMARK Flexibility Score: inf
ROOT
ATOM      1  C   UNL     1      15.659  -7.350   6.781  1.00  0.00     0.000 C 
ENDROOT
BRANCH   1   2
ATOM      2  C   UNL     1      14.400  -8.153   6.414  1.00  0.00     0.000 C 
BRANCH   2   3
ATOM      3  C   UNL     1      13.597  -7.503   5.273  1.00  0.00     0.000 C 
BRANCH   3   4
ATOM      4  C   UNL     1      12.957  -8.541   4.339  1.00  0.00     0.000 C 
BRANCH   4   5
ATOM      5  C   UNL     1      11.419  -8.471   4.347  1.00  0.00     0.000 C 
BRANCH   5   6
ATOM      6  C   UNL     1      10.768  -9.838   4.085  1.00  0.00     0.000 C 
BRANCH   6   7
ATOM      7  C   UNL     1       9.231  -9.775   4.122  1.00  0.00     0.000 C 
BRANCH   7   8
ATOM      8  C   UNL     1       8.660  -9.947   5.541  1.00  0.00     0.000 C 
BRANCH   8   9
ATOM      9  C   UNL     1       7.660  -8.861   5.976  1.00  0.00     0.000 C 
BRANCH   9  10
ATOM     10  C   UNL     1       7.517  -7.729   4.944  1.00  0.00     0.006 C 
BRANCH  10  11
ATOM     11  C   UNL     1       6.341  -7.963   3.986  1.00  0.00     0.053 C 
BRANCH  11  12
ATOM     12  C   UNL     1       5.021  -7.855   4.684  1.00  0.00     0.041 C 
ATOM     13  O   UNL     1       4.602  -8.806   5.396  1.00  0.00    -0.550 OA
ATOM     14  O   UNL     1       4.240  -6.717   4.527  1.00  0.00    -0.550 OA
ENDBRANCH  11  12
ENDBRANCH  10  11
ENDBRANCH   9  10
ENDBRANCH   8   9
ENDBRANCH   7   8
ENDBRANCH   6   7
ENDBRANCH   5   6
ENDBRANCH   4   5
ENDBRANCH   3   4
ENDBRANCH   2   3
ENDBRANCH   1   2
BRANCH   1  15
ATOM     15  C   UNL     1      16.857  -7.689   5.881  1.00  0.00     0.000 C 
BRANCH  15  16
ATOM     16  C   UNL     1      16.469  -8.727   4.817  1.00  0.00     0.000 C 
BRANCH  16  17
ATOM     17  C   UNL     1      17.347  -9.988   4.869  1.00  0.00     0.000 C 
BRANCH  17  18
ATOM     18  C   UNL     1      18.301  -9.996   6.076  1.00  0.00    -0.000 C 
BRANCH  18  19
ATOM     19  C   UNL     1      19.771  -9.810   5.666  1.00  0.00    -0.000 C 
BRANCH  19  20
ATOM     20  C   UNL     1      19.924  -9.251   4.243  1.00  0.00    -0.000 C 
BRANCH  20  21
ATOM     21  C   UNL     1      21.407  -9.096   3.876  1.00  0.00    -0.000 C 
BRANCH  21  22
ATOM     22  C   UNL     1      21.920  -7.658   4.058  1.00  0.00    -0.000 C 
BRANCH  22  23
ATOM     23  C   UNL     1      20.823  -6.575   4.053  1.00  0.00    -0.000 C 
BRANCH  23  24
ATOM     24  C   UNL     1      21.222  -5.283   4.798  1.00  0.00    -0.000 C 
BRANCH  24  25
ATOM     25  C   UNL     1      21.219  -4.054   3.875  1.00  0.00    -0.003 C 
ATOM     26  C   UNL     1      20.964  -2.774   4.665  1.00  0.00     0.004 C 
ENDBRANCH  24  25
ENDBRANCH  23  24
ENDBRANCH  22  23
ENDBRANCH  21  22
ENDBRANCH  20  21
ENDBRANCH  19  20
ENDBRANCH  18  19
ENDBRANCH  17  18
ENDBRANCH  16  17
ENDBRANCH  15  16
ENDBRANCH   1  15
TORSDOF 22
ENDMDL
MODEL 9
REMARK VINA RESULT:    -0.202      2.001      2.803
REMARK INTER + INTRA:          -2.534
REMARK INTER:                  -1.499
REMARK INTRA:                  -1.035
REMARK UNBOUND:                -2.073
REMARK SMILES CCCCCCCCCCCCCCCCCCCCCCCC(=O)[O-]
REMARK SMILES IDX 13 1 14 2 15 3 16 4 17 5 18 6 19 7 20 8 21 9 22 10 23 11
REMARK SMILES IDX 24 12 25 13 26 14 12 15 11 16 10 17 9 18 8 19 7 20 6 21 5 22
REMARK SMILES IDX 4 23 3 24 2 25 1 26
REMARK H PARENT
REMARK Flexibility Score: inf
ROOT
ATOM      1  C   UNL     1      13.199  -7.640   5.745  1.00  0.00     0.000 C 
ENDROOT
BRANCH   1   2
ATOM      2  C   UNL     1      14.652  -7.639   6.245  1.00  0.00     0.000 C 
BRANCH   2   3
ATOM      3  C   UNL     1      15.275  -9.047   6.255  1.00  0.00     0.000 C 
BRANCH   3   4
ATOM      4  C   UNL     1      14.976  -9.831   4.969  1.00  0.00     0.000 C 
BRANCH   4   5
ATOM      5  C   UNL     1      16.168  -9.838   3.994  1.00  0.00     0.000 C 
BRANCH   5   6
ATOM      6  C   UNL     1      17.508  -9.581   4.701  1.00  0.00     0.000 C 
BRANCH   6   7
ATOM      7  C   UNL     1      18.709 -10.114   3.901  1.00  0.00     0.000 C 
BRANCH   7   8
ATOM      8  C   UNL     1      19.952  -9.215   4.019  1.00  0.00     0.000 C 
BRANCH   8   9
ATOM      9  C   UNL     1      20.099  -8.478   5.362  1.00  0.00     0.000 C 
BRANCH   9  10
ATOM     10  C   UNL     1      19.578  -7.031   5.314  1.00  0.00     0.006 C 
BRANCH  10  11
ATOM     11  C   UNL     1      19.790  -6.294   6.644  1.00  0.00     0.053 C 
BRANCH  11  12
ATOM     12  C   UNL     1      18.947  -6.868   7.741  1.00  0.00     0.041 C 
ATOM     13  O   UNL     1      19.397  -7.792   8.468  1.00  0.00    -0.550 OA
ATOM     14  O   UNL     1      17.654  -6.401   7.943  1.00  0.00    -0.550 OA
ENDBRANCH  11  12
ENDBRANCH  10  11
ENDBRANCH   9  10
ENDBRANCH   8   9
ENDBRANCH   7   8
ENDBRANCH   6   7
ENDBRANCH   5   6
ENDBRANCH   4   5
ENDBRANCH   3   4
ENDBRANCH   2   3
ENDBRANCH   1   2
BRANCH   1  15
ATOM     15  C   UNL     1      13.077  -7.172   4.287  1.00  0.00     0.000 C 
BRANCH  15  16
ATOM     16  C   UNL     1      11.603  -7.034   3.875  1.00  0.00     0.000 C 
BRANCH  16  17
ATOM     17  C   UNL     1      10.694  -8.062   4.568  1.00  0.00     0.000 C 
BRANCH  17  18
ATOM     18  C   UNL     1      10.083  -7.527   5.875  1.00  0.00    -0.000 C 
BRANCH  18  19
ATOM     19  C   UNL     1       9.066  -8.500   6.491  1.00  0.00    -0.000 C 
BRANCH  19  20
ATOM     20  C   UNL     1       8.727  -9.674   5.559  1.00  0.00    -0.000 C 
BRANCH  20  21
ATOM     21  C   UNL     1       7.273 -10.125   5.757  1.00  0.00    -0.000 C 
BRANCH  21  22
ATOM     22  C   UNL     1       6.391  -9.854   4.526  1.00  0.00    -0.000 C 
BRANCH  22  23
ATOM     23  C   UNL     1       5.597  -8.534   4.578  1.00  0.00    -0.000 C 
BRANCH  23  24
ATOM     24  C   UNL     1       6.460  -7.279   4.327  1.00  0.00    -0.000 C 
BRANCH  24  25
ATOM     25  C   UNL     1       5.613  -6.003   4.212  1.00  0.00    -0.003 C 
ATOM     26  C   UNL     1       4.165  -6.266   4.611  1.00  0.00     0.004 C 
ENDBRANCH  24  25
ENDBRANCH  23  24
ENDBRANCH  22  23
ENDBRANCH  21  22
ENDBRANCH  20  21
ENDBRANCH  19  20
ENDBRANCH  18  19
ENDBRANCH  17  18
ENDBRANCH  16  17
ENDBRANCH  15  16
ENDBRANCH   1  15
TORSDOF 22
ENDMDL
