MODEL 1
REMARK VINA RESULT:    -3.953      0.000      0.000
REMARK INTER + INTRA:          -4.450
REMARK INTER:                  -4.184
REMARK INTRA:                  -0.266
REMARK UNBOUND:                -0.266
REMARK SMILES O=c1cc(-c2ccccc2)oc2ccccc12
REMARK SMILES IDX 4 1 3 2 2 3 1 4 17 5 16 6 15 7 14 8 13 9 12 10 11 11 5 12
REMARK SMILES IDX 8 13 7 14 9 15 6 16 10 17
REMARK H PARENT
REMARK Flexibility Score: inf
ROOT
ATOM      1  C   UNL     1      -0.087  27.728  31.377  1.00  0.00     0.138 A 
ATOM      2  C   UNL     1      -0.102  26.732  32.378  1.00  0.00     0.100 A 
ATOM      3  C   UNL     1      -0.111  27.107  33.722  1.00  0.00     0.193 A 
ATOM      4  O   UNL     1      -0.124  26.218  34.616  1.00  0.00    -0.289 OA
ATOM      5  C   UNL     1      -0.103  28.468  34.059  1.00  0.00     0.065 A 
ATOM      6  C   UNL     1      -0.110  28.913  35.394  1.00  0.00     0.016 A 
ATOM      7  C   UNL     1      -0.103  30.283  35.675  1.00  0.00     0.001 A 
ATOM      8  C   UNL     1      -0.088  31.215  34.632  1.00  0.00     0.004 A 
ATOM      9  C   UNL     1      -0.081  30.781  33.304  1.00  0.00     0.048 A 
ATOM     10  C   UNL     1      -0.088  29.412  33.011  1.00  0.00     0.138 A 
ATOM     11  O   UNL     1      -0.081  29.010  31.745  1.00  0.00    -0.456 OA
ENDROOT
BRANCH   1  12
ATOM     12  C   UNL     1      -0.078  27.413  29.916  1.00  0.00     0.017 A 
ATOM     13  C   UNL     1      -0.056  26.915  27.137  1.00  0.00     0.000 A 
ATOM     14  C   UNL     1      -0.008  28.226  27.612  1.00  0.00     0.001 A 
ATOM     15  C   UNL     1      -0.114  25.852  28.036  1.00  0.00     0.001 A 
ATOM     16  C   UNL     1      -0.020  28.474  28.987  1.00  0.00     0.012 A 
ATOM     17  C   UNL     1      -0.125  26.092  29.414  1.00  0.00     0.012 A 
ENDBRANCH   1  12
TORSDOF 1
ENDMDL
MODEL 2
REMARK VINA RESULT:    -2.681      1.260      5.818
REMARK INTER + INTRA:          -3.103
REMARK INTER:                  -2.837
REMARK INTRA:                  -0.266
REMARK UNBOUND:                -0.266
REMARK SMILES O=c1cc(-c2ccccc2)oc2ccccc12
REMARK SMILES IDX 4 1 3 2 2 3 1 4 17 5 16 6 15 7 14 8 13 9 12 10 11 11 5 12
REMARK SMILES IDX 8 13 7 14 9 15 6 16 10 17
REMARK H PARENT
REMARK Flexibility Score: inf
ROOT
ATOM      1  C   UNL     1      -0.121  27.978  31.724  1.00  0.00     0.138 A 
ATOM      2  C   UNL     1      -0.120  26.566  31.696  1.00  0.00     0.100 A 
ATOM      3  C   UNL     1      -0.120  25.902  30.469  1.00  0.00     0.193 A 
ATOM      4  O   UNL     1      -0.119  24.641  30.444  1.00  0.00    -0.289 OA
ATOM      5  C   UNL     1      -0.122  26.646  29.281  1.00  0.00     0.065 A 
ATOM      6  C   UNL     1      -0.123  26.039  28.011  1.00  0.00     0.016 A 
ATOM      7  C   UNL     1      -0.123  26.829  26.858  1.00  0.00     0.001 A 
ATOM      8  C   UNL     1      -0.124  28.223  26.960  1.00  0.00     0.004 A 
ATOM      9  C   UNL     1      -0.124  28.835  28.217  1.00  0.00     0.048 A 
ATOM     10  C   UNL     1      -0.123  28.054  29.379  1.00  0.00     0.138 A 
ATOM     11  O   UNL     1      -0.122  28.644  30.569  1.00  0.00    -0.456 OA
ENDROOT
BRANCH   1  12
ATOM     12  C   UNL     1      -0.120  28.767  32.994  1.00  0.00     0.017 A 
ATOM     13  C   UNL     1      -0.119  30.340  35.338  1.00  0.00     0.000 A 
ATOM     14  C   UNL     1      -0.114  30.953  34.085  1.00  0.00     0.001 A 
ATOM     15  C   UNL     1      -0.124  28.949  35.431  1.00  0.00     0.001 A 
ATOM     16  C   UNL     1      -0.114  30.177  32.924  1.00  0.00     0.012 A 
ATOM     17  C   UNL     1      -0.125  28.164  34.273  1.00  0.00     0.012 A 
ENDBRANCH   1  12
TORSDOF 1
ENDMDL
MODEL 3
REMARK VINA RESULT:    -2.354      1.438      6.352
REMARK INTER + INTRA:          -2.757
REMARK INTER:                  -2.491
REMARK INTRA:                  -0.266
REMARK UNBOUND:                -0.266
REMARK SMILES O=c1cc(-c2ccccc2)oc2ccccc12
REMARK SMILES IDX 4 1 3 2 2 3 1 4 17 5 16 6 15 7 14 8 13 9 12 10 11 11 5 12
REMARK SMILES IDX 8 13 7 14 9 15 6 16 10 17
REMARK H PARENT
REMARK Flexibility Score: inf
ROOT
ATOM      1  C   UNL     1      -0.089  28.190  31.248  1.00  0.00     0.138 A 
ATOM      2  C   UNL     1      -0.067  28.881  30.017  1.00  0.00     0.100 A 
ATOM      3  C   UNL     1      -0.065  28.158  28.823  1.00  0.00     0.193 A 
ATOM      4  O   UNL     1      -0.045  28.774  27.723  1.00  0.00    -0.289 OA
ATOM      5  C   UNL     1      -0.084  26.757  28.864  1.00  0.00     0.065 A 
ATOM      6  C   UNL     1      -0.082  25.969  27.698  1.00  0.00     0.016 A 
ATOM      7  C   UNL     1      -0.102  24.574  27.796  1.00  0.00     0.001 A 
ATOM      8  C   UNL     1      -0.123  23.957  29.050  1.00  0.00     0.004 A 
ATOM      9  C   UNL     1      -0.125  24.732  30.213  1.00  0.00     0.048 A 
ATOM     10  C   UNL     1      -0.105  26.129  30.128  1.00  0.00     0.138 A 
ATOM     11  O   UNL     1      -0.107  26.857  31.239  1.00  0.00    -0.456 OA
ENDROOT
BRANCH   1  12
ATOM     12  C   UNL     1      -0.093  28.887  32.572  1.00  0.00     0.017 A 
ATOM     13  C   UNL     1      -0.101  30.113  35.114  1.00  0.00     0.000 A 
ATOM     14  C   UNL     1      -0.092  28.722  35.010  1.00  0.00     0.001 A 
ATOM     15  C   UNL     1      -0.106  30.897  33.962  1.00  0.00     0.001 A 
ATOM     16  C   UNL     1      -0.089  28.113  33.753  1.00  0.00     0.012 A 
ATOM     17  C   UNL     1      -0.102  30.295  32.699  1.00  0.00     0.012 A 
ENDBRANCH   1  12
TORSDOF 1
ENDMDL
