MODEL 1
REMARK VINA RESULT:     9.997      0.000      0.000
REMARK INTER + INTRA:          14.251
REMARK INTER:                  14.380
REMARK INTRA:                  -0.128
REMARK UNBOUND:                -0.128
REMARK SMILES O=C(CO)[C@@H](O)[C@H](O)[C@H](O)CO
REMARK SMILES IDX 7 1 9 2 11 3 12 4 10 6 5 8 2 9 1 10 3 11 4 12 6 14 8 16
REMARK H PARENT 12 5 10 7 4 13 6 15 8 17
REMARK Flexibility Score: inf
ROOT
ATOM      1  C   UNL     1     -15.129  13.265 -18.686  1.00  0.00     0.181 C 
ENDROOT
BRANCH   1   2
ATOM      2  C   UNL     1     -13.937  12.267 -18.586  1.00  0.00     0.171 C 
BRANCH   2   3
ATOM      3  C   UNL     1     -13.448  12.013 -17.151  1.00  0.00     0.190 C 
BRANCH   3   4
ATOM      4  O   UNL     1     -12.494  10.987 -17.134  1.00  0.00    -0.394 OA
ATOM      5  H   UNL     1     -12.987  10.157 -16.900  1.00  0.00     0.210 HD
ENDBRANCH   3   4
ENDBRANCH   2   3
BRANCH   2   6
ATOM      6  O   UNL     1     -14.271  11.047 -19.200  1.00  0.00    -0.388 OA
ATOM      7  H   UNL     1     -14.980  10.628 -18.646  1.00  0.00     0.211 HD
ENDBRANCH   2   6
ENDBRANCH   1   2
BRANCH   1   8
ATOM      8  C   UNL     1     -14.867  14.517 -19.582  1.00  0.00     0.214 C 
BRANCH   8   9
ATOM      9  C   UNL     1     -16.075  14.957 -20.386  1.00  0.00     0.189 C 
ATOM     10  O   UNL     1     -15.918  15.741 -21.312  1.00  0.00    -0.294 OA
BRANCH   9  11
ATOM     11  C   UNL     1     -17.470  14.503 -20.052  1.00  0.00     0.234 C 
BRANCH  11  12
ATOM     12  O   UNL     1     -17.823  13.428 -20.875  1.00  0.00    -0.388 OA
ATOM     13  H   UNL     1     -16.978  12.951 -21.083  1.00  0.00     0.211 HD
ENDBRANCH  11  12
ENDBRANCH   9  11
ENDBRANCH   8   9
BRANCH   8  14
ATOM     14  O   UNL     1     -14.398  15.599 -18.814  1.00  0.00    -0.382 OA
ATOM     15  H   UNL     1     -14.399  16.408 -19.388  1.00  0.00     0.211 HD
ENDBRANCH   8  14
ENDBRANCH   1   8
BRANCH   1  16
ATOM     16  O   UNL     1     -15.487  13.678 -17.390  1.00  0.00    -0.387 OA
ATOM     17  H   UNL     1     -15.525  14.671 -17.392  1.00  0.00     0.211 HD
ENDBRANCH   1  16
TORSDOF 10
ENDMDL
MODEL 2
REMARK VINA RESULT:    10.026     12.876     14.598
REMARK INTER + INTRA:          14.293
REMARK INTER:                  13.327
REMARK INTRA:                   0.966
REMARK UNBOUND:                -0.128
REMARK SMILES O=C(CO)[C@@H](O)[C@H](O)[C@H](O)CO
REMARK SMILES IDX 7 1 9 2 11 3 12 4 10 6 5 8 2 9 1 10 3 11 4 12 6 14 8 16
REMARK H PARENT 12 5 10 7 4 13 6 15 8 17
REMARK Flexibility Score: inf
ROOT
ATOM      1  C   UNL     1      -2.905  12.143 -12.222  1.00  0.00     0.181 C 
ENDROOT
BRANCH   1   2
ATOM      2  C   UNL     1      -3.509  11.104 -13.213  1.00  0.00     0.171 C 
BRANCH   2   3
ATOM      3  C   UNL     1      -3.123   9.647 -12.908  1.00  0.00     0.190 C 
BRANCH   3   4
ATOM      4  O   UNL     1      -2.881   8.946 -14.097  1.00  0.00    -0.394 OA
ATOM      5  H   UNL     1      -2.528   9.613 -14.743  1.00  0.00     0.210 HD
ENDBRANCH   3   4
ENDBRANCH   2   3
BRANCH   2   6
ATOM      6  O   UNL     1      -4.908  11.228 -13.255  1.00  0.00    -0.388 OA
ATOM      7  H   UNL     1      -5.182  11.714 -12.434  1.00  0.00     0.211 HD
ENDBRANCH   2   6
ENDBRANCH   1   2
BRANCH   1   8
ATOM      8  C   UNL     1      -2.877  11.689 -10.727  1.00  0.00     0.214 C 
BRANCH   8   9
ATOM      9  C   UNL     1      -3.616  12.624  -9.791  1.00  0.00     0.189 C 
ATOM     10  O   UNL     1      -4.660  13.138 -10.166  1.00  0.00    -0.294 OA
BRANCH   9  11
ATOM     11  C   UNL     1      -3.082  12.984  -8.430  1.00  0.00     0.234 C 
BRANCH  11  12
ATOM     12  O   UNL     1      -2.979  14.375  -8.321  1.00  0.00    -0.388 OA
ATOM     13  H   UNL     1      -3.908  14.722  -8.314  1.00  0.00     0.211 HD
ENDBRANCH  11  12
ENDBRANCH   9  11
ENDBRANCH   8   9
BRANCH   8  14
ATOM     14  O   UNL     1      -3.387  10.386 -10.586  1.00  0.00    -0.382 OA
ATOM     15  H   UNL     1      -3.752  10.100 -11.463  1.00  0.00     0.211 HD
ENDBRANCH   8  14
ENDBRANCH   1   8
BRANCH   1  16
ATOM     16  O   UNL     1      -3.618  13.350 -12.336  1.00  0.00    -0.387 OA
ATOM     17  H   UNL     1      -3.683  13.746 -11.428  1.00  0.00     0.211 HD
ENDBRANCH   1  16
TORSDOF 10
ENDMDL
MODEL 3
REMARK VINA RESULT:    10.152      0.273      4.705
REMARK INTER + INTRA:          14.475
REMARK INTER:                  14.638
REMARK INTRA:                  -0.163
REMARK UNBOUND:                -0.128
REMARK SMILES O=C(CO)[C@@H](O)[C@H](O)[C@H](O)CO
REMARK SMILES IDX 7 1 9 2 11 3 12 4 10 6 5 8 2 9 1 10 3 11 4 12 6 14 8 16
REMARK H PARENT 12 5 10 7 4 13 6 15 8 17
REMARK Flexibility Score: inf
ROOT
ATOM      1  C   UNL     1     -14.797  14.373 -19.553  1.00  0.00     0.181 C 
ENDROOT
BRANCH   1   2
ATOM      2  C   UNL     1     -15.832  14.716 -20.666  1.00  0.00     0.171 C 
BRANCH   2   3
ATOM      3  C   UNL     1     -17.296  14.672 -20.199  1.00  0.00     0.190 C 
BRANCH   3   4
ATOM      4  O   UNL     1     -17.955  13.570 -20.759  1.00  0.00    -0.394 OA
ATOM      5  H   UNL     1     -17.772  12.803 -20.156  1.00  0.00     0.210 HD
ENDBRANCH   3   4
ENDBRANCH   2   3
BRANCH   2   6
ATOM      6  O   UNL     1     -15.546  15.974 -21.224  1.00  0.00    -0.388 OA
ATOM      7  H   UNL     1     -14.573  16.129 -21.109  1.00  0.00     0.211 HD
ENDBRANCH   2   6
ENDBRANCH   1   2
BRANCH   1   8
ATOM      8  C   UNL     1     -15.248  13.259 -18.555  1.00  0.00     0.214 C 
BRANCH   8   9
ATOM      9  C   UNL     1     -14.223  12.160 -18.360  1.00  0.00     0.189 C 
ATOM     10  O   UNL     1     -14.224  11.204 -19.121  1.00  0.00    -0.294 OA
BRANCH   9  11
ATOM     11  C   UNL     1     -13.232  12.180 -17.226  1.00  0.00     0.234 C 
BRANCH  11  12
ATOM     12  O   UNL     1     -12.538  10.965 -17.191  1.00  0.00    -0.388 OA
ATOM     13  H   UNL     1     -13.213  10.267 -16.989  1.00  0.00     0.211 HD
ENDBRANCH  11  12
ENDBRANCH   9  11
ENDBRANCH   8   9
BRANCH   8  14
ATOM     14  O   UNL     1     -15.588  13.809 -17.305  1.00  0.00    -0.382 OA
ATOM     15  H   UNL     1     -16.578  13.815 -17.230  1.00  0.00     0.211 HD
ENDBRANCH   8  14
ENDBRANCH   1   8
BRANCH   1  16
ATOM     16  O   UNL     1     -14.486  15.546 -18.842  1.00  0.00    -0.387 OA
ATOM     17  H   UNL     1     -13.498  15.651 -18.856  1.00  0.00     0.211 HD
ENDBRANCH   1  16
TORSDOF 10
ENDMDL
MODEL 4
REMARK VINA RESULT:    10.207      4.566      7.485
REMARK INTER + INTRA:          14.554
REMARK INTER:                  14.696
REMARK INTRA:                  -0.142
REMARK UNBOUND:                -0.128
REMARK SMILES O=C(CO)[C@@H](O)[C@H](O)[C@H](O)CO
REMARK SMILES IDX 7 1 9 2 11 3 12 4 10 6 5 8 2 9 1 10 3 11 4 12 6 14 8 16
REMARK H PARENT 12 5 10 7 4 13 6 15 8 17
REMARK Flexibility Score: inf
ROOT
ATOM      1  C   UNL     1     -10.303  12.925 -15.629  1.00  0.00     0.181 C 
ENDROOT
BRANCH   1   2
ATOM      2  C   UNL     1     -11.499  11.959 -15.879  1.00  0.00     0.171 C 
BRANCH   2   3
ATOM      3  C   UNL     1     -12.212  12.176 -17.224  1.00  0.00     0.190 C 
BRANCH   3   4
ATOM      4  O   UNL     1     -13.016  11.072 -17.534  1.00  0.00    -0.394 OA
ATOM      5  H   UNL     1     -12.441  10.449 -18.051  1.00  0.00     0.210 HD
ENDBRANCH   3   4
ENDBRANCH   2   3
BRANCH   2   6
ATOM      6  O   UNL     1     -11.075  10.623 -15.773  1.00  0.00    -0.388 OA
ATOM      7  H   UNL     1     -11.245  10.337 -14.838  1.00  0.00     0.211 HD
ENDBRANCH   2   6
ENDBRANCH   1   2
BRANCH   1   8
ATOM      8  C   UNL     1     -10.567  14.041 -14.568  1.00  0.00     0.214 C 
BRANCH   8   9
ATOM      9  C   UNL     1      -9.365  14.357 -13.701  1.00  0.00     0.189 C 
ATOM     10  O   UNL     1      -9.531  14.970 -12.656  1.00  0.00    -0.294 OA
BRANCH   9  11
ATOM     11  C   UNL     1      -7.963  13.988 -14.106  1.00  0.00     0.234 C 
BRANCH  11  12
ATOM     12  O   UNL     1      -7.366  13.231 -13.092  1.00  0.00    -0.388 OA
ATOM     13  H   UNL     1      -7.344  13.814 -12.289  1.00  0.00     0.211 HD
ENDBRANCH  11  12
ENDBRANCH   9  11
ENDBRANCH   8   9
BRANCH   8  14
ATOM     14  O   UNL     1     -11.024  15.222 -15.181  1.00  0.00    -0.382 OA
ATOM     15  H   UNL     1     -10.235  15.790 -15.384  1.00  0.00     0.211 HD
ENDBRANCH   8  14
ENDBRANCH   1   8
BRANCH   1  16
ATOM     16  O   UNL     1      -9.930  13.514 -16.852  1.00  0.00    -0.387 OA
ATOM     17  H   UNL     1      -9.725  14.470 -16.673  1.00  0.00     0.211 HD
ENDBRANCH   1  16
TORSDOF 10
ENDMDL
MODEL 5
REMARK VINA RESULT:    10.351      3.573      6.082
REMARK INTER + INTRA:          14.761
REMARK INTER:                  14.933
REMARK INTRA:                  -0.172
REMARK UNBOUND:                -0.128
REMARK SMILES O=C(CO)[C@@H](O)[C@H](O)[C@H](O)CO
REMARK SMILES IDX 7 1 9 2 11 3 12 4 10 6 5 8 2 9 1 10 3 11 4 12 6 14 8 16
REMARK H PARENT 12 5 10 7 4 13 6 15 8 17
REMARK Flexibility Score: inf
ROOT
ATOM      1  C   UNL     1     -10.931  13.183 -15.925  1.00  0.00     0.181 C 
ENDROOT
BRANCH   1   2
ATOM      2  C   UNL     1     -10.478  13.904 -14.621  1.00  0.00     0.171 C 
BRANCH   2   3
ATOM      3  C   UNL     1      -8.957  14.102 -14.508  1.00  0.00     0.190 C 
BRANCH   3   4
ATOM      4  O   UNL     1      -8.539  13.937 -13.182  1.00  0.00    -0.394 OA
ATOM      5  H   UNL     1      -8.782  14.776 -12.710  1.00  0.00     0.210 HD
ENDBRANCH   3   4
ENDBRANCH   2   3
BRANCH   2   6
ATOM      6  O   UNL     1     -11.131  15.142 -14.497  1.00  0.00    -0.388 OA
ATOM      7  H   UNL     1     -11.819  15.181 -15.212  1.00  0.00     0.211 HD
ENDBRANCH   2   6
ENDBRANCH   1   2
BRANCH   1   8
ATOM      8  C   UNL     1     -11.543  11.762 -15.715  1.00  0.00     0.214 C 
BRANCH   8   9
ATOM      9  C   UNL     1     -12.383  11.278 -16.880  1.00  0.00     0.189 C 
ATOM     10  O   UNL     1     -12.268  10.120 -17.255  1.00  0.00    -0.294 OA
BRANCH   9  11
ATOM     11  C   UNL     1     -13.318  12.190 -17.628  1.00  0.00     0.234 C 
BRANCH  11  12
ATOM     12  O   UNL     1     -14.131  11.432 -18.479  1.00  0.00    -0.388 OA
ATOM     13  H   UNL     1     -14.849  12.041 -18.791  1.00  0.00     0.211 HD
ENDBRANCH  11  12
ENDBRANCH   9  11
ENDBRANCH   8   9
BRANCH   8  14
ATOM     14  O   UNL     1     -10.539  10.815 -15.438  1.00  0.00    -0.382 OA
ATOM     15  H   UNL     1     -10.327  10.336 -16.281  1.00  0.00     0.211 HD
ENDBRANCH   8  14
ENDBRANCH   1   8
BRANCH   1  16
ATOM     16  O   UNL     1      -9.836  13.100 -16.805  1.00  0.00    -0.387 OA
ATOM     17  H   UNL     1      -9.066  12.739 -16.291  1.00  0.00     0.211 HD
ENDBRANCH   1  16
TORSDOF 10
ENDMDL
MODEL 6
REMARK VINA RESULT:    10.377      4.578      6.890
REMARK INTER + INTRA:          14.798
REMARK INTER:                  14.972
REMARK INTRA:                  -0.174
REMARK UNBOUND:                -0.128
REMARK SMILES O=C(CO)[C@@H](O)[C@H](O)[C@H](O)CO
REMARK SMILES IDX 7 1 9 2 11 3 12 4 10 6 5 8 2 9 1 10 3 11 4 12 6 14 8 16
REMARK H PARENT 12 5 10 7 4 13 6 15 8 17
REMARK Flexibility Score: inf
ROOT
ATOM      1  C   UNL     1     -10.651  13.981 -14.565  1.00  0.00     0.181 C 
ENDROOT
BRANCH   1   2
ATOM      2  C   UNL     1      -9.677  14.166 -13.363  1.00  0.00     0.171 C 
BRANCH   2   3
ATOM      3  C   UNL     1      -8.195  14.255 -13.764  1.00  0.00     0.190 C 
BRANCH   3   4
ATOM      4  O   UNL     1      -7.502  13.118 -13.331  1.00  0.00    -0.394 OA
ATOM      5  H   UNL     1      -6.565  13.232 -13.637  1.00  0.00     0.210 HD
ENDBRANCH   3   4
ENDBRANCH   2   3
BRANCH   2   6
ATOM      6  O   UNL     1     -10.038  15.299 -12.614  1.00  0.00    -0.388 OA
ATOM      7  H   UNL     1      -9.275  15.932 -12.657  1.00  0.00     0.211 HD
ENDBRANCH   2   6
ENDBRANCH   1   2
BRANCH   1   8
ATOM      8  C   UNL     1     -10.139  13.022 -15.687  1.00  0.00     0.214 C 
BRANCH   8   9
ATOM      9  C   UNL     1     -11.129  11.937 -16.061  1.00  0.00     0.189 C 
ATOM     10  O   UNL     1     -11.047  10.845 -15.517  1.00  0.00    -0.294 OA
BRANCH   9  11
ATOM     11  C   UNL     1     -12.178  12.139 -17.121  1.00  0.00     0.234 C 
BRANCH  11  12
ATOM     12  O   UNL     1     -12.884  10.945 -17.315  1.00  0.00    -0.388 OA
ATOM     13  H   UNL     1     -12.779  10.424 -16.478  1.00  0.00     0.211 HD
ENDBRANCH  11  12
ENDBRANCH   9  11
ENDBRANCH   8   9
BRANCH   8  14
ATOM     14  O   UNL     1      -9.776  13.742 -16.840  1.00  0.00    -0.382 OA
ATOM     15  H   UNL     1     -10.122  14.668 -16.747  1.00  0.00     0.211 HD
ENDBRANCH   8  14
ENDBRANCH   1   8
BRANCH   1  16
ATOM     16  O   UNL     1     -10.938  15.243 -15.117  1.00  0.00    -0.387 OA
ATOM     17  H   UNL     1     -10.299  15.396 -15.862  1.00  0.00     0.211 HD
ENDBRANCH   1  16
TORSDOF 10
ENDMDL
MODEL 7
REMARK VINA RESULT:    10.594      1.058      5.227
REMARK INTER + INTRA:          15.111
REMARK INTER:                  15.283
REMARK INTRA:                  -0.172
REMARK UNBOUND:                -0.128
REMARK SMILES O=C(CO)[C@@H](O)[C@H](O)[C@H](O)CO
REMARK SMILES IDX 7 1 9 2 11 3 12 4 10 6 5 8 2 9 1 10 3 11 4 12 6 14 8 16
REMARK H PARENT 12 5 10 7 4 13 6 15 8 17
REMARK Flexibility Score: inf
ROOT
ATOM      1  C   UNL     1     -14.383  13.335 -18.345  1.00  0.00     0.181 C 
ENDROOT
BRANCH   1   2
ATOM      2  C   UNL     1     -14.932  14.128 -19.567  1.00  0.00     0.171 C 
BRANCH   2   3
ATOM      3  C   UNL     1     -16.462  14.287 -19.577  1.00  0.00     0.190 C 
BRANCH   3   4
ATOM      4  O   UNL     1     -16.908  14.641 -20.857  1.00  0.00    -0.394 OA
ATOM      5  H   UNL     1     -16.192  14.361 -21.486  1.00  0.00     0.210 HD
ENDBRANCH   3   4
ENDBRANCH   2   3
BRANCH   2   6
ATOM      6  O   UNL     1     -14.321  15.392 -19.641  1.00  0.00    -0.388 OA
ATOM      7  H   UNL     1     -14.210  15.717 -18.710  1.00  0.00     0.211 HD
ENDBRANCH   2   6
ENDBRANCH   1   2
BRANCH   1   8
ATOM      8  C   UNL     1     -13.706  11.970 -18.694  1.00  0.00     0.214 C 
BRANCH   8   9
ATOM      9  C   UNL     1     -12.888  11.385 -17.561  1.00  0.00     0.189 C 
ATOM     10  O   UNL     1     -13.039  10.208 -17.266  1.00  0.00    -0.294 OA
BRANCH   9  11
ATOM     11  C   UNL     1     -11.932  12.216 -16.748  1.00  0.00     0.234 C 
BRANCH  11  12
ATOM     12  O   UNL     1     -11.179  11.383 -15.914  1.00  0.00    -0.388 OA
ATOM     13  H   UNL     1     -11.339  11.700 -14.988  1.00  0.00     0.211 HD
ENDBRANCH  11  12
ENDBRANCH   9  11
ENDBRANCH   8   9
BRANCH   8  14
ATOM     14  O   UNL     1     -14.661  11.027 -19.117  1.00  0.00    -0.382 OA
ATOM     15  H   UNL     1     -15.544  11.299 -18.754  1.00  0.00     0.211 HD
ENDBRANCH   8  14
ENDBRANCH   1   8
BRANCH   1  16
ATOM     16  O   UNL     1     -15.431  13.122 -17.430  1.00  0.00    -0.387 OA
ATOM     17  H   UNL     1     -15.563  12.140 -17.350  1.00  0.00     0.211 HD
ENDBRANCH   1  16
TORSDOF 10
ENDMDL
MODEL 8
REMARK VINA RESULT:    10.629      3.583      6.686
REMARK INTER + INTRA:          15.161
REMARK INTER:                  15.266
REMARK INTRA:                  -0.105
REMARK UNBOUND:                -0.128
REMARK SMILES O=C(CO)[C@@H](O)[C@H](O)[C@H](O)CO
REMARK SMILES IDX 7 1 9 2 11 3 12 4 10 6 5 8 2 9 1 10 3 11 4 12 6 14 8 16
REMARK H PARENT 12 5 10 7 4 13 6 15 8 17
REMARK Flexibility Score: inf
ROOT
ATOM      1  C   UNL     1     -11.461  11.755 -15.685  1.00  0.00     0.181 C 
ENDROOT
BRANCH   1   2
ATOM      2  C   UNL     1     -12.605  11.293 -16.634  1.00  0.00     0.171 C 
BRANCH   2   3
ATOM      3  C   UNL     1     -13.014  12.341 -17.683  1.00  0.00     0.190 C 
BRANCH   3   4
ATOM      4  O   UNL     1     -14.340  12.138 -18.085  1.00  0.00    -0.394 OA
ATOM      5  H   UNL     1     -14.540  12.852 -18.746  1.00  0.00     0.210 HD
ENDBRANCH   3   4
ENDBRANCH   2   3
BRANCH   2   6
ATOM      6  O   UNL     1     -12.252  10.091 -17.272  1.00  0.00    -0.388 OA
ATOM      7  H   UNL     1     -12.447  10.207 -18.239  1.00  0.00     0.211 HD
ENDBRANCH   2   6
ENDBRANCH   1   2
BRANCH   1   8
ATOM      8  C   UNL     1     -10.882  13.174 -15.991  1.00  0.00     0.214 C 
BRANCH   8   9
ATOM      9  C   UNL     1     -10.338  13.889 -14.771  1.00  0.00     0.189 C 
ATOM     10  O   UNL     1     -11.093  14.578 -14.100  1.00  0.00    -0.294 OA
BRANCH   9  11
ATOM     11  C   UNL     1      -8.884  13.825 -14.384  1.00  0.00     0.234 C 
BRANCH  11  12
ATOM     12  O   UNL     1      -8.744  14.158 -13.032  1.00  0.00    -0.388 OA
ATOM     13  H   UNL     1      -9.056  13.368 -12.519  1.00  0.00     0.211 HD
ENDBRANCH  11  12
ENDBRANCH   9  11
ENDBRANCH   8   9
BRANCH   8  14
ATOM     14  O   UNL     1      -9.882  13.108 -16.979  1.00  0.00    -0.382 OA
ATOM     15  H   UNL     1      -9.001  13.061 -16.524  1.00  0.00     0.211 HD
ENDBRANCH   8  14
ENDBRANCH   1   8
BRANCH   1  16
ATOM     16  O   UNL     1     -10.424  10.804 -15.722  1.00  0.00    -0.387 OA
ATOM     17  H   UNL     1     -10.653  10.140 -16.425  1.00  0.00     0.211 HD
ENDBRANCH   1  16
TORSDOF 10
ENDMDL
MODEL 9
REMARK VINA RESULT:    10.765     11.379     13.955
REMARK INTER + INTRA:          15.356
REMARK INTER:                  15.383
REMARK INTRA:                  -0.027
REMARK UNBOUND:                -0.128
REMARK SMILES O=C(CO)[C@@H](O)[C@H](O)[C@H](O)CO
REMARK SMILES IDX 7 1 9 2 11 3 12 4 10 6 5 8 2 9 1 10 3 11 4 12 6 14 8 16
REMARK H PARENT 12 5 10 7 4 13 6 15 8 17
REMARK Flexibility Score: inf
ROOT
ATOM      1  C   UNL     1      -3.313  12.614 -13.214  1.00  0.00     0.181 C 
ENDROOT
BRANCH   1   2
ATOM      2  C   UNL     1      -4.066  11.565 -14.085  1.00  0.00     0.171 C 
BRANCH   2   3
ATOM      3  C   UNL     1      -4.758  12.157 -15.324  1.00  0.00     0.190 C 
BRANCH   3   4
ATOM      4  O   UNL     1      -4.723  13.557 -15.281  1.00  0.00    -0.394 OA
ATOM      5  H   UNL     1      -4.060  13.795 -14.581  1.00  0.00     0.210 HD
ENDBRANCH   3   4
ENDBRANCH   2   3
BRANCH   2   6
ATOM      6  O   UNL     1      -3.191  10.537 -14.473  1.00  0.00    -0.388 OA
ATOM      7  H   UNL     1      -3.491   9.710 -14.014  1.00  0.00     0.211 HD
ENDBRANCH   2   6
ENDBRANCH   1   2
BRANCH   1   8
ATOM      8  C   UNL     1      -2.875  12.107 -11.803  1.00  0.00     0.214 C 
BRANCH   8   9
ATOM      9  C   UNL     1      -3.235  13.053 -10.674  1.00  0.00     0.189 C 
ATOM     10  O   UNL     1      -2.911  14.229 -10.759  1.00  0.00    -0.294 OA
BRANCH   9  11
ATOM     11  C   UNL     1      -3.932  12.584  -9.425  1.00  0.00     0.234 C 
BRANCH  11  12
ATOM     12  O   UNL     1      -3.732  13.516  -8.400  1.00  0.00    -0.388 OA
ATOM     13  H   UNL     1      -4.556  14.067  -8.363  1.00  0.00     0.211 HD
ENDBRANCH  11  12
ENDBRANCH   9  11
ENDBRANCH   8   9
BRANCH   8  14
ATOM     14  O   UNL     1      -3.412  10.835 -11.534  1.00  0.00    -0.382 OA
ATOM     15  H   UNL     1      -4.209  10.952 -10.955  1.00  0.00     0.211 HD
ENDBRANCH   8  14
ENDBRANCH   1   8
BRANCH   1  16
ATOM     16  O   UNL     1      -4.122  13.757 -13.075  1.00  0.00    -0.387 OA
ATOM     17  H   UNL     1      -3.597  14.536 -13.399  1.00  0.00     0.211 HD
ENDBRANCH   1  16
TORSDOF 10
ENDMDL
