MODEL 1
REMARK VINA RESULT:    -4.543      0.000      0.000
REMARK INTER + INTRA:          -5.224
REMARK INTER:                  -5.075
REMARK INTRA:                  -0.150
REMARK UNBOUND:                -0.150
REMARK SMILES COc1cc2ccc(=O)oc2cc1OC
REMARK SMILES IDX 3 1 13 2 12 3 11 4 5 5 4 6 6 7 7 8 8 9 9 10 10 11 2 12 1 13
REMARK SMILES IDX 14 14 15 15
REMARK H PARENT
REMARK Flexibility Score: inf
ROOT
ATOM      1  C   UNL     1      11.810  36.195  48.843  1.00  0.00     0.161 A 
ATOM      2  C   UNL     1      12.441  36.208  47.588  1.00  0.00     0.164 A 
ATOM      3  C   UNL     1      13.787  36.615  47.485  1.00  0.00     0.098 A 
ATOM      4  C   UNL     1      14.497  37.006  48.623  1.00  0.00     0.142 A 
ATOM      5  C   UNL     1      13.865  36.992  49.883  1.00  0.00     0.022 A 
ATOM      6  C   UNL     1      12.527  36.589  49.991  1.00  0.00     0.062 A 
ATOM      7  C   UNL     1      14.602  37.389  51.003  1.00  0.00     0.019 A 
ATOM      8  C   UNL     1      15.930  37.783  50.844  1.00  0.00     0.094 A 
ATOM      9  C   UNL     1      16.491  37.770  49.563  1.00  0.00     0.336 A 
ATOM     10  O   UNL     1      17.689  38.122  49.397  1.00  0.00    -0.246 OA
ATOM     11  O   UNL     1      15.766  37.388  48.514  1.00  0.00    -0.423 OA
ENDROOT
BRANCH   1  12
ATOM     12  O   UNL     1      10.469  35.783  48.909  1.00  0.00    -0.493 OA
ATOM     13  C   UNL     1       9.352  36.664  48.864  1.00  0.00     0.278 C 
ENDBRANCH   1  12
BRANCH   2  14
ATOM     14  O   UNL     1      11.698  35.809  46.465  1.00  0.00    -0.493 OA
ATOM     15  C   UNL     1      11.112  36.703  45.525  1.00  0.00     0.278 C 
ENDBRANCH   2  14
TORSDOF 2
ENDMDL
MODEL 2
REMARK VINA RESULT:    -4.330      1.153      2.549
REMARK INTER + INTRA:          -4.987
REMARK INTER:                  -4.827
REMARK INTRA:                  -0.160
REMARK UNBOUND:                -0.150
REMARK SMILES COc1cc2ccc(=O)oc2cc1OC
REMARK SMILES IDX 3 1 13 2 12 3 11 4 5 5 4 6 6 7 7 8 8 9 9 10 10 11 2 12 1 13
REMARK SMILES IDX 14 14 15 15
REMARK H PARENT
REMARK Flexibility Score: inf
ROOT
ATOM      1  C   UNL     1      12.109  36.232  47.461  1.00  0.00     0.161 A 
ATOM      2  C   UNL     1      11.467  36.224  48.711  1.00  0.00     0.164 A 
ATOM      3  C   UNL     1      12.187  36.583  49.870  1.00  0.00     0.098 A 
ATOM      4  C   UNL     1      13.533  36.946  49.782  1.00  0.00     0.142 A 
ATOM      5  C   UNL     1      14.177  36.955  48.528  1.00  0.00     0.022 A 
ATOM      6  C   UNL     1      13.467  36.599  47.374  1.00  0.00     0.062 A 
ATOM      7  C   UNL     1      15.525  37.323  48.474  1.00  0.00     0.019 A 
ATOM      8  C   UNL     1      16.188  37.669  49.650  1.00  0.00     0.094 A 
ATOM      9  C   UNL     1      15.485  37.638  50.858  1.00  0.00     0.336 A 
ATOM     10  O   UNL     1      16.065  37.945  51.933  1.00  0.00    -0.246 OA
ATOM     11  O   UNL     1      14.202  37.283  50.881  1.00  0.00    -0.423 OA
ENDROOT
BRANCH   1  12
ATOM     12  O   UNL     1      11.362  35.870  46.329  1.00  0.00    -0.493 OA
ATOM     13  C   UNL     1      10.815  36.792  45.393  1.00  0.00     0.278 C 
ENDBRANCH   1  12
BRANCH   2  14
ATOM     14  O   UNL     1      10.114  35.854  48.763  1.00  0.00    -0.493 OA
ATOM     15  C   UNL     1       9.025  36.771  48.780  1.00  0.00     0.278 C 
ENDBRANCH   2  14
TORSDOF 2
ENDMDL
MODEL 3
REMARK VINA RESULT:    -4.155      1.592      4.854
REMARK INTER + INTRA:          -4.791
REMARK INTER:                  -4.663
REMARK INTRA:                  -0.127
REMARK UNBOUND:                -0.150
REMARK SMILES COc1cc2ccc(=O)oc2cc1OC
REMARK SMILES IDX 3 1 13 2 12 3 11 4 5 5 4 6 6 7 7 8 8 9 9 10 10 11 2 12 1 13
REMARK SMILES IDX 14 14 15 15
REMARK H PARENT
REMARK Flexibility Score: inf
ROOT
ATOM      1  C   UNL     1      15.945  37.356  48.362  1.00  0.00     0.161 A 
ATOM      2  C   UNL     1      15.389  36.960  47.134  1.00  0.00     0.164 A 
ATOM      3  C   UNL     1      14.036  36.568  47.072  1.00  0.00     0.098 A 
ATOM      4  C   UNL     1      13.246  36.570  48.223  1.00  0.00     0.142 A 
ATOM      5  C   UNL     1      13.802  36.967  49.456  1.00  0.00     0.022 A 
ATOM      6  C   UNL     1      15.146  37.358  49.523  1.00  0.00     0.062 A 
ATOM      7  C   UNL     1      12.985  36.959  50.591  1.00  0.00     0.019 A 
ATOM      8  C   UNL     1      11.654  36.561  50.472  1.00  0.00     0.094 A 
ATOM      9  C   UNL     1      11.170  36.180  49.217  1.00  0.00     0.336 A 
ATOM     10  O   UNL     1       9.971  35.816  49.088  1.00  0.00    -0.246 OA
ATOM     11  O   UNL     1      11.970  36.197  48.153  1.00  0.00    -0.423 OA
ENDROOT
BRANCH   1  12
ATOM     12  O   UNL     1      17.295  37.741  48.387  1.00  0.00    -0.493 OA
ATOM     13  C   UNL     1      18.353  36.939  48.897  1.00  0.00     0.278 C 
ENDBRANCH   1  12
BRANCH   2  14
ATOM     14  O   UNL     1      16.212  36.970  45.996  1.00  0.00    -0.493 OA
ATOM     15  C   UNL     1      16.207  35.966  44.987  1.00  0.00     0.278 C 
ENDBRANCH   2  14
TORSDOF 2
ENDMDL
MODEL 4
REMARK VINA RESULT:    -4.085      1.353      5.649
REMARK INTER + INTRA:          -4.712
REMARK INTER:                  -4.547
REMARK INTRA:                  -0.165
REMARK UNBOUND:                -0.150
REMARK SMILES COc1cc2ccc(=O)oc2cc1OC
REMARK SMILES IDX 3 1 13 2 12 3 11 4 5 5 4 6 6 7 7 8 8 9 9 10 10 11 2 12 1 13
REMARK SMILES IDX 14 14 15 15
REMARK H PARENT
REMARK Flexibility Score: inf
ROOT
ATOM      1  C   UNL     1      15.223  37.232  48.871  1.00  0.00     0.161 A 
ATOM      2  C   UNL     1      14.677  37.262  50.165  1.00  0.00     0.164 A 
ATOM      3  C   UNL     1      13.317  36.943  50.359  1.00  0.00     0.098 A 
ATOM      4  C   UNL     1      12.510  36.598  49.272  1.00  0.00     0.142 A 
ATOM      5  C   UNL     1      13.057  36.568  47.974  1.00  0.00     0.022 A 
ATOM      6  C   UNL     1      14.408  36.884  47.776  1.00  0.00     0.062 A 
ATOM      7  C   UNL     1      12.223  36.218  46.907  1.00  0.00     0.019 A 
ATOM      8  C   UNL     1      10.886  35.913  47.155  1.00  0.00     0.094 A 
ATOM      9  C   UNL     1      10.413  35.963  48.470  1.00  0.00     0.336 A 
ATOM     10  O   UNL     1       9.208  35.691  48.716  1.00  0.00    -0.246 OA
ATOM     11  O   UNL     1      11.228  36.299  49.467  1.00  0.00    -0.423 OA
ENDROOT
BRANCH   1  12
ATOM     12  O   UNL     1      16.581  37.555  48.715  1.00  0.00    -0.493 OA
ATOM     13  C   UNL     1      17.628  36.600  48.585  1.00  0.00     0.278 C 
ENDBRANCH   1  12
BRANCH   2  14
ATOM     14  O   UNL     1      15.517  37.614  51.234  1.00  0.00    -0.493 OA
ATOM     15  C   UNL     1      16.086  36.687  52.153  1.00  0.00     0.278 C 
ENDBRANCH   2  14
TORSDOF 2
ENDMDL
MODEL 5
REMARK VINA RESULT:    -4.082      1.309      5.065
REMARK INTER + INTRA:          -4.709
REMARK INTER:                  -4.553
REMARK INTRA:                  -0.155
REMARK UNBOUND:                -0.150
REMARK SMILES COc1cc2ccc(=O)oc2cc1OC
REMARK SMILES IDX 3 1 13 2 12 3 11 4 5 5 4 6 6 7 7 8 8 9 9 10 10 11 2 12 1 13
REMARK SMILES IDX 14 14 15 15
REMARK H PARENT
REMARK Flexibility Score: inf
ROOT
ATOM      1  C   UNL     1      14.677  37.293  50.112  1.00  0.00     0.161 A 
ATOM      2  C   UNL     1      15.174  37.237  48.799  1.00  0.00     0.164 A 
ATOM      3  C   UNL     1      14.319  36.859  47.743  1.00  0.00     0.098 A 
ATOM      4  C   UNL     1      12.983  36.540  47.995  1.00  0.00     0.142 A 
ATOM      5  C   UNL     1      12.484  36.595  49.311  1.00  0.00     0.022 A 
ATOM      6  C   UNL     1      13.329  36.970  50.365  1.00  0.00     0.062 A 
ATOM      7  C   UNL     1      11.142  36.269  49.531  1.00  0.00     0.019 A 
ATOM      8  C   UNL     1      10.341  35.902  48.450  1.00  0.00     0.094 A 
ATOM      9  C   UNL     1      10.905  35.869  47.170  1.00  0.00     0.336 A 
ATOM     10  O   UNL     1      10.200  35.539  46.181  1.00  0.00    -0.246 OA
ATOM     11  O   UNL     1      12.185  36.184  46.991  1.00  0.00    -0.423 OA
ENDROOT
BRANCH   1  12
ATOM     12  O   UNL     1      15.556  37.673  51.139  1.00  0.00    -0.493 OA
ATOM     13  C   UNL     1      16.014  36.807  52.172  1.00  0.00     0.278 C 
ENDBRANCH   1  12
BRANCH   2  14
ATOM     14  O   UNL     1      16.522  37.565  48.582  1.00  0.00    -0.493 OA
ATOM     15  C   UNL     1      17.576  36.615  48.469  1.00  0.00     0.278 C 
ENDBRANCH   2  14
TORSDOF 2
ENDMDL
MODEL 6
REMARK VINA RESULT:    -4.024      2.058      3.309
REMARK INTER + INTRA:          -4.645
REMARK INTER:                  -4.521
REMARK INTRA:                  -0.124
REMARK UNBOUND:                -0.150
REMARK SMILES COc1cc2ccc(=O)oc2cc1OC
REMARK SMILES IDX 3 1 13 2 12 3 11 4 5 5 4 6 6 7 7 8 8 9 9 10 10 11 2 12 1 13
REMARK SMILES IDX 14 14 15 15
REMARK H PARENT
REMARK Flexibility Score: inf
ROOT
ATOM      1  C   UNL     1      13.430  36.319  45.950  1.00  0.00     0.161 A 
ATOM      2  C   UNL     1      14.786  36.682  45.898  1.00  0.00     0.164 A 
ATOM      3  C   UNL     1      15.460  37.042  47.083  1.00  0.00     0.098 A 
ATOM      4  C   UNL     1      14.788  37.041  48.307  1.00  0.00     0.142 A 
ATOM      5  C   UNL     1      13.427  36.677  48.360  1.00  0.00     0.022 A 
ATOM      6  C   UNL     1      12.752  36.318  47.186  1.00  0.00     0.062 A 
ATOM      7  C   UNL     1      12.782  36.685  49.601  1.00  0.00     0.019 A 
ATOM      8  C   UNL     1      13.497  37.051  50.741  1.00  0.00     0.094 A 
ATOM      9  C   UNL     1      14.845  37.400  50.612  1.00  0.00     0.336 A 
ATOM     10  O   UNL     1      15.508  37.733  51.629  1.00  0.00    -0.246 OA
ATOM     11  O   UNL     1      15.434  37.383  49.419  1.00  0.00    -0.423 OA
ENDROOT
BRANCH   1  12
ATOM     12  O   UNL     1      12.790  35.965  44.751  1.00  0.00    -0.493 OA
ATOM     13  C   UNL     1      11.874  36.799  44.049  1.00  0.00     0.278 C 
ENDBRANCH   1  12
BRANCH   2  14
ATOM     14  O   UNL     1      15.430  36.672  44.650  1.00  0.00    -0.493 OA
ATOM     15  C   UNL     1      16.772  36.247  44.437  1.00  0.00     0.278 C 
ENDBRANCH   2  14
TORSDOF 2
ENDMDL
MODEL 7
REMARK VINA RESULT:    -3.906      4.119      5.943
REMARK INTER + INTRA:          -4.512
REMARK INTER:                  -4.376
REMARK INTRA:                  -0.136
REMARK UNBOUND:                -0.150
REMARK SMILES COc1cc2ccc(=O)oc2cc1OC
REMARK SMILES IDX 3 1 13 2 12 3 11 4 5 5 4 6 6 7 7 8 8 9 9 10 10 11 2 12 1 13
REMARK SMILES IDX 14 14 15 15
REMARK H PARENT
REMARK Flexibility Score: inf
ROOT
ATOM      1  C   UNL     1      15.021  33.848  53.334  1.00  0.00     0.161 A 
ATOM      2  C   UNL     1      16.401  34.071  53.191  1.00  0.00     0.164 A 
ATOM      3  C   UNL     1      16.865  34.989  52.227  1.00  0.00     0.098 A 
ATOM      4  C   UNL     1      15.963  35.678  51.413  1.00  0.00     0.142 A 
ATOM      5  C   UNL     1      14.578  35.454  51.556  1.00  0.00     0.022 A 
ATOM      6  C   UNL     1      14.111  34.543  52.512  1.00  0.00     0.062 A 
ATOM      7  C   UNL     1      13.700  36.159  50.726  1.00  0.00     0.019 A 
ATOM      8  C   UNL     1      14.214  37.055  49.790  1.00  0.00     0.094 A 
ATOM      9  C   UNL     1      15.599  37.226  49.705  1.00  0.00     0.336 A 
ATOM     10  O   UNL     1      16.084  38.030  48.866  1.00  0.00    -0.246 OA
ATOM     11  O   UNL     1      16.412  36.542  50.507  1.00  0.00    -0.423 OA
ENDROOT
BRANCH   1  12
ATOM     12  O   UNL     1      14.593  32.927  54.303  1.00  0.00    -0.493 OA
ATOM     13  C   UNL     1      14.075  33.282  55.580  1.00  0.00     0.278 C 
ENDBRANCH   1  12
BRANCH   2  14
ATOM     14  O   UNL     1      17.280  33.362  54.025  1.00  0.00    -0.493 OA
ATOM     15  C   UNL     1      18.149  32.323  53.587  1.00  0.00     0.278 C 
ENDBRANCH   2  14
TORSDOF 2
ENDMDL
MODEL 8
REMARK VINA RESULT:    -3.831      7.403      8.771
REMARK INTER + INTRA:          -4.429
REMARK INTER:                  -4.319
REMARK INTRA:                  -0.111
REMARK UNBOUND:                -0.150
REMARK SMILES COc1cc2ccc(=O)oc2cc1OC
REMARK SMILES IDX 3 1 13 2 12 3 11 4 5 5 4 6 6 7 7 8 8 9 9 10 10 11 2 12 1 13
REMARK SMILES IDX 14 14 15 15
REMARK H PARENT
REMARK Flexibility Score: inf
ROOT
ATOM      1  C   UNL     1      11.762  33.852  54.194  1.00  0.00     0.161 A 
ATOM      2  C   UNL     1      10.627  33.279  54.792  1.00  0.00     0.164 A 
ATOM      3  C   UNL     1      10.734  32.674  56.061  1.00  0.00     0.098 A 
ATOM      4  C   UNL     1      11.961  32.641  56.727  1.00  0.00     0.142 A 
ATOM      5  C   UNL     1      13.100  33.216  56.128  1.00  0.00     0.022 A 
ATOM      6  C   UNL     1      12.999  33.818  54.867  1.00  0.00     0.062 A 
ATOM      7  C   UNL     1      14.315  33.166  56.821  1.00  0.00     0.019 A 
ATOM      8  C   UNL     1      14.364  32.555  58.073  1.00  0.00     0.094 A 
ATOM      9  C   UNL     1      13.193  32.006  58.605  1.00  0.00     0.336 A 
ATOM     10  O   UNL     1      13.216  31.449  59.734  1.00  0.00    -0.246 OA
ATOM     11  O   UNL     1      12.051  32.067  57.924  1.00  0.00    -0.423 OA
ENDROOT
BRANCH   1  12
ATOM     12  O   UNL     1      11.619  34.447  52.930  1.00  0.00    -0.493 OA
ATOM     13  C   UNL     1      12.455  34.175  51.811  1.00  0.00     0.278 C 
ENDBRANCH   1  12
BRANCH   2  14
ATOM     14  O   UNL     1       9.409  33.331  54.094  1.00  0.00    -0.493 OA
ATOM     15  C   UNL     1       8.144  32.986  54.649  1.00  0.00     0.278 C 
ENDBRANCH   2  14
TORSDOF 2
ENDMDL
MODEL 9
REMARK VINA RESULT:    -3.774      2.225      3.455
REMARK INTER + INTRA:          -4.365
REMARK INTER:                  -4.247
REMARK INTRA:                  -0.118
REMARK UNBOUND:                -0.150
REMARK SMILES COc1cc2ccc(=O)oc2cc1OC
REMARK SMILES IDX 3 1 13 2 12 3 11 4 5 5 4 6 6 7 7 8 8 9 9 10 10 11 2 12 1 13
REMARK SMILES IDX 14 14 15 15
REMARK H PARENT
REMARK Flexibility Score: inf
ROOT
ATOM      1  C   UNL     1      12.839  36.265  50.193  1.00  0.00     0.161 A 
ATOM      2  C   UNL     1      13.400  35.273  51.015  1.00  0.00     0.164 A 
ATOM      3  C   UNL     1      14.786  35.019  50.958  1.00  0.00     0.098 A 
ATOM      4  C   UNL     1      15.603  35.747  50.090  1.00  0.00     0.142 A 
ATOM      5  C   UNL     1      15.041  36.742  49.265  1.00  0.00     0.022 A 
ATOM      6  C   UNL     1      13.664  36.998  49.318  1.00  0.00     0.062 A 
ATOM      7  C   UNL     1      15.885  37.453  48.407  1.00  0.00     0.019 A 
ATOM      8  C   UNL     1      17.249  37.161  48.391  1.00  0.00     0.094 A 
ATOM      9  C   UNL     1      17.736  36.160  49.238  1.00  0.00     0.336 A 
ATOM     10  O   UNL     1      18.964  35.880  49.239  1.00  0.00    -0.246 OA
ATOM     11  O   UNL     1      16.910  35.499  50.044  1.00  0.00    -0.423 OA
ENDROOT
BRANCH   1  12
ATOM     12  O   UNL     1      11.455  36.491  50.276  1.00  0.00    -0.493 OA
ATOM     13  C   UNL     1      10.524  36.185  49.244  1.00  0.00     0.278 C 
ENDBRANCH   1  12
BRANCH   2  14
ATOM     14  O   UNL     1      12.550  34.561  51.876  1.00  0.00    -0.493 OA
ATOM     15  C   UNL     1      12.992  33.663  52.888  1.00  0.00     0.278 C 
ENDBRANCH   2  14
TORSDOF 2
ENDMDL
