MODEL 1
REMARK VINA RESULT:    -4.165      0.000      0.000
REMARK INTER + INTRA:          -6.194
REMARK INTER:                  -6.357
REMARK INTRA:                   0.162
REMARK UNBOUND:                 0.162
REMARK SMILES CC1=CCC[C@@H](C)C(=O)C[C@H](C(C)C)C(=O)C1
REMARK SMILES IDX 8 1 9 2 6 3 7 4 5 5 4 6 3 7 2 8 1 9 10 11 11 12 15 13 16 14
REMARK SMILES IDX 17 15 12 17 13 18 14 19
REMARK H PARENT
REMARK Flexibility Score: 70.00
ROOT
ATOM      1  C   UNL     1     -16.418  13.639 -31.606  1.00  0.00     0.136 C 
ATOM      2  O   UNL     1     -17.049  14.533 -32.153  1.00  0.00    -0.299 OA
ENDROOT
BRANCH   1   3
ATOM      3  C   UNL     1     -17.091  12.777 -30.563  1.00  0.00     0.053 C 
ATOM      4  C   UNL     1     -18.592  12.668 -30.857  1.00  0.00     0.016 C 
BRANCH   3   5
ATOM      5  C   UNL     1     -16.851  13.321 -29.141  1.00  0.00     0.015 C 
BRANCH   5   6
ATOM      6  C   UNL     1     -16.528  12.211 -28.120  1.00  0.00     0.028 C 
BRANCH   6   7
ATOM      7  C   UNL     1     -15.139  12.371 -27.546  1.00  0.00    -0.028 C 
ATOM      8  C   UNL     1     -13.970  11.945 -28.084  1.00  0.00    -0.070 CG0
ATOM      9  C   UNL     1     -12.714  12.172 -27.278  1.00  0.00     0.039 C 
ATOM     10  G   UNL     1     -13.836  11.265 -29.437  1.00  0.00     0.000 G0
ENDBRANCH   6   7
ENDBRANCH   5   6
ENDBRANCH   3   5
ENDBRANCH   1   3
BRANCH   1  11
ATOM     11  C   UNL     1     -14.998  13.338 -32.027  1.00  0.00     0.087 C 
BRANCH  11  12
ATOM     12  C   UNL     1     -13.962  13.526 -30.889  1.00  0.00     0.066 C 
BRANCH  12  13
ATOM     13  C   UNL     1     -13.272  12.235 -30.469  1.00  0.00     0.140 C 
ATOM     14  O   UNL     1     -12.243  11.921 -31.049  1.00  0.00    -0.299 OA
BRANCH  13  15
ATOM     15  C   UNL     1     -13.838  11.281 -29.439  1.00  0.00     0.106 CG0
ATOM     16  G   UNL     1     -13.957  11.950 -28.079  1.00  0.00     0.000 G0
ENDBRANCH  13  15
ENDBRANCH  12  13
BRANCH  12  17
ATOM     17  C   UNL     1     -12.918  14.654 -31.157  1.00  0.00    -0.006 C 
ATOM     18  C   UNL     1     -13.539  16.047 -31.356  1.00  0.00     0.008 C 
ATOM     19  C   UNL     1     -11.837  14.712 -30.066  1.00  0.00     0.008 C 
ENDBRANCH  12  17
ENDBRANCH  11  12
ENDBRANCH   1  11
TORSDOF 1
ENDMDL
MODEL 2
REMARK VINA RESULT:    -4.008      1.440      3.783
REMARK INTER + INTRA:          -5.954
REMARK INTER:                  -6.057
REMARK INTRA:                   0.103
REMARK UNBOUND:                 0.162
REMARK SMILES CC1=CCC[C@@H](C)C(=O)C[C@H](C(C)C)C(=O)C1
REMARK SMILES IDX 8 1 9 2 6 3 7 4 5 5 4 6 3 7 2 8 1 9 10 11 11 12 15 13 16 14
REMARK SMILES IDX 17 15 12 17 13 18 14 19
REMARK H PARENT
REMARK Flexibility Score: 70.00
ROOT
ATOM      1  C   UNL     1     -15.436  14.740 -30.804  1.00  0.00     0.136 C 
ATOM      2  O   UNL     1     -16.029  14.866 -31.867  1.00  0.00    -0.299 OA
ENDROOT
BRANCH   1   3
ATOM      3  C   UNL     1     -14.100  15.417 -30.606  1.00  0.00     0.053 C 
ATOM      4  C   UNL     1     -14.253  16.937 -30.747  1.00  0.00     0.016 C 
BRANCH   3   5
ATOM      5  C   UNL     1     -13.044  14.881 -31.593  1.00  0.00     0.015 C 
BRANCH   5   6
ATOM      6  C   UNL     1     -12.186  13.747 -30.995  1.00  0.00     0.028 C 
BRANCH   6   7
ATOM      7  C   UNL     1     -12.340  13.666 -29.493  1.00  0.00    -0.028 C 
ATOM      8  C   UNL     1     -12.990  12.711 -28.783  1.00  0.00    -0.070 CG0
ATOM      9  C   UNL     1     -13.057  12.890 -27.286  1.00  0.00     0.039 C 
ATOM     10  G   UNL     1     -13.645  11.478 -29.384  1.00  0.00     0.000 G0
ENDBRANCH   6   7
ENDBRANCH   5   6
ENDBRANCH   3   5
ENDBRANCH   1   3
BRANCH   1  11
ATOM     11  C   UNL     1     -16.070  13.980 -29.661  1.00  0.00     0.087 C 
BRANCH  11  12
ATOM     12  C   UNL     1     -16.103  12.446 -29.879  1.00  0.00     0.066 C 
BRANCH  12  13
ATOM     13  C   UNL     1     -14.772  11.862 -30.334  1.00  0.00     0.140 C 
ATOM     14  O   UNL     1     -14.626  11.631 -31.525  1.00  0.00    -0.299 OA
BRANCH  13  15
ATOM     15  C   UNL     1     -13.661  11.473 -29.383  1.00  0.00     0.106 CG0
ATOM     16  G   UNL     1     -12.988  12.701 -28.794  1.00  0.00     0.000 G0
ENDBRANCH  13  15
ENDBRANCH  12  13
BRANCH  12  17
ATOM     17  C   UNL     1     -16.680  11.644 -28.671  1.00  0.00    -0.006 C 
ATOM     18  C   UNL     1     -16.748  12.446 -27.362  1.00  0.00     0.008 C 
ATOM     19  C   UNL     1     -18.057  11.037 -28.987  1.00  0.00     0.008 C 
ENDBRANCH  12  17
ENDBRANCH  11  12
ENDBRANCH   1  11
TORSDOF 1
ENDMDL
MODEL 3
REMARK VINA RESULT:    -3.973      1.596      3.916
REMARK INTER + INTRA:          -5.900
REMARK INTER:                  -6.262
REMARK INTRA:                   0.362
REMARK UNBOUND:                 0.162
REMARK SMILES CC1=CCC[C@@H](C)C(=O)C[C@H](C(C)C)C(=O)C1
REMARK SMILES IDX 8 1 9 2 6 3 7 4 5 5 4 6 3 7 2 8 1 9 10 11 11 12 15 13 16 14
REMARK SMILES IDX 17 15 12 17 13 18 14 19
REMARK H PARENT
REMARK Flexibility Score: 70.00
ROOT
ATOM      1  C   UNL     1     -13.534  12.124 -29.231  1.00  0.00     0.136 C 
ATOM      2  O   UNL     1     -12.343  11.841 -29.224  1.00  0.00    -0.299 OA
ENDROOT
BRANCH   1   3
ATOM      3  C   UNL     1     -14.177  12.692 -27.987  1.00  0.00     0.053 C 
ATOM      4  C   UNL     1     -13.113  12.946 -26.913  1.00  0.00     0.016 C 
BRANCH   3   5
ATOM      5  C   UNL     1     -15.284  11.764 -27.450  1.00  0.00     0.015 C 
BRANCH   5   6
ATOM      6  C   UNL     1     -16.654  12.465 -27.342  1.00  0.00     0.028 C 
BRANCH   6   7
ATOM      7  C   UNL     1     -17.501  12.222 -28.570  1.00  0.00    -0.028 C 
ATOM      8  C   UNL     1     -17.521  12.949 -29.714  1.00  0.00    -0.070 CG0
ATOM      9  C   UNL     1     -18.510  12.536 -30.778  1.00  0.00     0.039 C 
ATOM     10  G   UNL     1     -16.619  14.137 -30.002  1.00  0.00     0.000 G0
ENDBRANCH   6   7
ENDBRANCH   5   6
ENDBRANCH   3   5
ENDBRANCH   1   3
BRANCH   1  11
ATOM     11  C   UNL     1     -14.344  11.987 -30.500  1.00  0.00     0.087 C 
BRANCH  11  12
ATOM     12  C   UNL     1     -14.445  13.301 -31.317  1.00  0.00     0.066 C 
BRANCH  12  13
ATOM     13  C   UNL     1     -15.826  13.942 -31.279  1.00  0.00     0.140 C 
ATOM     14  O   UNL     1     -16.286  14.372 -32.326  1.00  0.00    -0.299 OA
BRANCH  13  15
ATOM     15  C   UNL     1     -16.614  14.154 -30.004  1.00  0.00     0.106 CG0
ATOM     16  G   UNL     1     -17.508  12.961 -29.708  1.00  0.00     0.000 G0
ENDBRANCH  13  15
ENDBRANCH  12  13
BRANCH  12  17
ATOM     17  C   UNL     1     -13.335  14.345 -30.982  1.00  0.00    -0.006 C 
ATOM     18  C   UNL     1     -12.218  14.431 -32.034  1.00  0.00     0.008 C 
ATOM     19  C   UNL     1     -13.919  15.743 -30.721  1.00  0.00     0.008 C 
ENDBRANCH  12  17
ENDBRANCH  11  12
ENDBRANCH   1  11
TORSDOF 1
ENDMDL
MODEL 4
REMARK VINA RESULT:    -3.947      1.695      4.190
REMARK INTER + INTRA:          -5.861
REMARK INTER:                  -5.866
REMARK INTRA:                   0.005
REMARK UNBOUND:                 0.162
REMARK SMILES CC1=CCC[C@@H](C)C(=O)C[C@H](C(C)C)C(=O)C1
REMARK SMILES IDX 8 1 9 2 6 3 7 4 5 5 4 6 3 7 2 8 1 9 10 11 11 12 15 13 16 14
REMARK SMILES IDX 17 15 12 17 13 18 14 19
REMARK H PARENT
REMARK Flexibility Score: 70.00
ROOT
ATOM      1  C   UNL     1     -13.025  14.652 -30.409  1.00  0.00     0.136 C 
ATOM      2  O   UNL     1     -13.433  15.785 -30.192  1.00  0.00    -0.299 OA
ENDROOT
BRANCH   1   3
ATOM      3  C   UNL     1     -12.906  14.158 -31.832  1.00  0.00     0.053 C 
ATOM      4  C   UNL     1     -11.704  14.816 -32.520  1.00  0.00     0.016 C 
BRANCH   3   5
ATOM      5  C   UNL     1     -14.200  14.417 -32.630  1.00  0.00     0.015 C 
BRANCH   5   6
ATOM      6  C   UNL     1     -15.264  13.320 -32.419  1.00  0.00     0.028 C 
BRANCH   6   7
ATOM      7  C   UNL     1     -16.215  13.675 -31.300  1.00  0.00    -0.028 C 
ATOM      8  C   UNL     1     -16.451  12.973 -30.165  1.00  0.00    -0.070 CG0
ATOM      9  C   UNL     1     -17.503  13.510 -29.225  1.00  0.00     0.039 C 
ATOM     10  G   UNL     1     -15.730  11.695 -29.771  1.00  0.00     0.000 G0
ENDBRANCH   6   7
ENDBRANCH   5   6
ENDBRANCH   3   5
ENDBRANCH   1   3
BRANCH   1  11
ATOM     11  C   UNL     1     -12.562  13.775 -29.269  1.00  0.00     0.087 C 
BRANCH  11  12
ATOM     12  C   UNL     1     -13.704  12.955 -28.614  1.00  0.00     0.066 C 
BRANCH  12  13
ATOM     13  C   UNL     1     -14.274  11.869 -29.517  1.00  0.00     0.140 C 
ATOM     14  O   UNL     1     -13.488  11.172 -30.142  1.00  0.00    -0.299 OA
BRANCH  13  15
ATOM     15  C   UNL     1     -15.756  11.667 -29.748  1.00  0.00     0.106 CG0
ATOM     16  G   UNL     1     -16.428  12.965 -30.165  1.00  0.00     0.000 G0
ENDBRANCH  13  15
ENDBRANCH  12  13
BRANCH  12  17
ATOM     17  C   UNL     1     -13.350  12.382 -27.207  1.00  0.00    -0.006 C 
ATOM     18  C   UNL     1     -12.442  13.296 -26.369  1.00  0.00     0.008 C 
ATOM     19  C   UNL     1     -14.606  12.009 -26.403  1.00  0.00     0.008 C 
ENDBRANCH  12  17
ENDBRANCH  11  12
ENDBRANCH   1  11
TORSDOF 1
ENDMDL
MODEL 5
REMARK VINA RESULT:    -3.892      1.810      3.811
REMARK INTER + INTRA:          -5.778
REMARK INTER:                  -5.885
REMARK INTRA:                   0.107
REMARK UNBOUND:                 0.162
REMARK SMILES CC1=CCC[C@@H](C)C(=O)C[C@H](C(C)C)C(=O)C1
REMARK SMILES IDX 8 1 9 2 6 3 7 4 5 5 4 6 3 7 2 8 1 9 10 11 11 12 15 13 16 14
REMARK SMILES IDX 17 15 12 17 13 18 14 19
REMARK H PARENT
REMARK Flexibility Score: 70.00
ROOT
ATOM      1  C   UNL     1     -16.468  12.646 -29.396  1.00  0.00     0.136 C 
ATOM      2  O   UNL     1     -17.071  11.635 -29.061  1.00  0.00    -0.299 OA
ENDROOT
BRANCH   1   3
ATOM      3  C   UNL     1     -17.040  13.536 -30.475  1.00  0.00     0.053 C 
ATOM      4  C   UNL     1     -18.397  12.994 -30.942  1.00  0.00     0.016 C 
BRANCH   3   5
ATOM      5  C   UNL     1     -16.070  13.676 -31.665  1.00  0.00     0.015 C 
BRANCH   5   6
ATOM      6  C   UNL     1     -15.219  14.961 -31.596  1.00  0.00     0.028 C 
BRANCH   6   7
ATOM      7  C   UNL     1     -13.864  14.765 -32.237  1.00  0.00    -0.028 C 
ATOM      8  C   UNL     1     -12.723  14.343 -31.639  1.00  0.00    -0.070 CG0
ATOM      9  C   UNL     1     -11.476  14.290 -32.488  1.00  0.00     0.039 C 
ATOM     10  G   UNL     1     -12.614  13.914 -30.185  1.00  0.00     0.000 G0
ENDBRANCH   6   7
ENDBRANCH   5   6
ENDBRANCH   3   5
ENDBRANCH   1   3
BRANCH   1  11
ATOM     11  C   UNL     1     -15.200  13.052 -28.681  1.00  0.00     0.087 C 
BRANCH  11  12
ATOM     12  C   UNL     1     -14.027  12.059 -28.886  1.00  0.00     0.066 C 
BRANCH  12  13
ATOM     13  C   UNL     1     -13.056  12.476 -29.983  1.00  0.00     0.140 C 
ATOM     14  O   UNL     1     -12.581  11.600 -30.690  1.00  0.00    -0.299 OA
BRANCH  13  15
ATOM     15  C   UNL     1     -12.583  13.900 -30.183  1.00  0.00     0.106 CG0
ATOM     16  G   UNL     1     -12.722  14.324 -31.636  1.00  0.00     0.000 G0
ENDBRANCH  13  15
ENDBRANCH  12  13
BRANCH  12  17
ATOM     17  C   UNL     1     -13.265  11.695 -27.575  1.00  0.00    -0.006 C 
ATOM     18  C   UNL     1     -12.608  12.897 -26.878  1.00  0.00     0.008 C 
ATOM     19  C   UNL     1     -14.158  10.935 -26.580  1.00  0.00     0.008 C 
ENDBRANCH  12  17
ENDBRANCH  11  12
ENDBRANCH   1  11
TORSDOF 1
ENDMDL
MODEL 6
REMARK VINA RESULT:    -3.808      1.994      3.805
REMARK INTER + INTRA:          -5.649
REMARK INTER:                  -5.802
REMARK INTRA:                   0.152
REMARK UNBOUND:                 0.162
REMARK SMILES CC1=CCC[C@@H](C)C(=O)C[C@H](C(C)C)C(=O)C1
REMARK SMILES IDX 8 1 9 2 6 3 7 4 5 5 4 6 3 7 2 8 1 9 10 11 11 12 15 13 16 14
REMARK SMILES IDX 17 15 12 17 13 18 14 19
REMARK H PARENT
REMARK Flexibility Score: 70.00
ROOT
ATOM      1  C   UNL     1     -14.348  11.898 -29.143  1.00  0.00     0.136 C 
ATOM      2  O   UNL     1     -14.361  10.882 -29.825  1.00  0.00    -0.299 OA
ENDROOT
BRANCH   1   3
ATOM      3  C   UNL     1     -15.255  12.005 -27.940  1.00  0.00     0.053 C 
ATOM      4  C   UNL     1     -14.874  10.948 -26.896  1.00  0.00     0.016 C 
BRANCH   3   5
ATOM      5  C   UNL     1     -16.738  11.869 -28.337  1.00  0.00     0.015 C 
BRANCH   5   6
ATOM      6  C   UNL     1     -17.414  13.229 -28.608  1.00  0.00     0.028 C 
BRANCH   6   7
ATOM      7  C   UNL     1     -17.608  13.469 -30.088  1.00  0.00    -0.028 C 
ATOM      8  C   UNL     1     -16.809  14.185 -30.917  1.00  0.00    -0.070 CG0
ATOM      9  C   UNL     1     -17.257  14.331 -32.351  1.00  0.00     0.039 C 
ATOM     10  G   UNL     1     -15.501  14.841 -30.508  1.00  0.00     0.000 G0
ENDBRANCH   6   7
ENDBRANCH   5   6
ENDBRANCH   3   5
ENDBRANCH   1   3
BRANCH   1  11
ATOM     11  C   UNL     1     -13.372  13.011 -29.449  1.00  0.00     0.087 C 
BRANCH  11  12
ATOM     12  C   UNL     1     -13.287  13.366 -30.956  1.00  0.00     0.066 C 
BRANCH  12  13
ATOM     13  C   UNL     1     -14.360  14.342 -31.417  1.00  0.00     0.140 C 
ATOM     14  O   UNL     1     -14.266  14.806 -32.544  1.00  0.00    -0.299 OA
BRANCH  13  15
ATOM     15  C   UNL     1     -15.481  14.835 -30.526  1.00  0.00     0.106 CG0
ATOM     16  G   UNL     1     -16.809  14.209 -30.919  1.00  0.00     0.000 G0
ENDBRANCH  13  15
ENDBRANCH  12  13
BRANCH  12  17
ATOM     17  C   UNL     1     -11.872  13.830 -31.422  1.00  0.00    -0.006 C 
ATOM     18  C   UNL     1     -11.268  14.954 -30.564  1.00  0.00     0.008 C 
ATOM     19  C   UNL     1     -10.884  12.657 -31.522  1.00  0.00     0.008 C 
ENDBRANCH  12  17
ENDBRANCH  11  12
ENDBRANCH   1  11
TORSDOF 1
ENDMDL
MODEL 7
REMARK VINA RESULT:    -3.684      1.910      5.068
REMARK INTER + INTRA:          -5.460
REMARK INTER:                  -5.499
REMARK INTRA:                   0.039
REMARK UNBOUND:                 0.162
REMARK SMILES CC1=CCC[C@@H](C)C(=O)C[C@H](C(C)C)C(=O)C1
REMARK SMILES IDX 8 1 9 2 6 3 7 4 5 5 4 6 3 7 2 8 1 9 10 11 11 12 15 13 16 14
REMARK SMILES IDX 17 15 12 17 13 18 14 19
REMARK H PARENT
REMARK Flexibility Score: 70.00
ROOT
ATOM      1  C   UNL     1     -13.749  12.262 -27.767  1.00  0.00     0.136 C 
ATOM      2  O   UNL     1     -14.370  12.558 -26.755  1.00  0.00    -0.299 OA
ENDROOT
BRANCH   1   3
ATOM      3  C   UNL     1     -12.238  12.301 -27.756  1.00  0.00     0.053 C 
ATOM      4  C   UNL     1     -11.709  11.891 -26.376  1.00  0.00     0.016 C 
BRANCH   3   5
ATOM      5  C   UNL     1     -11.706  13.693 -28.153  1.00  0.00     0.015 C 
BRANCH   5   6
ATOM      6  C   UNL     1     -11.619  13.888 -29.680  1.00  0.00     0.028 C 
BRANCH   6   7
ATOM      7  C   UNL     1     -12.541  14.989 -30.154  1.00  0.00    -0.028 C 
ATOM      8  C   UNL     1     -13.608  14.870 -30.980  1.00  0.00    -0.070 CG0
ATOM      9  C   UNL     1     -14.336  16.138 -31.357  1.00  0.00     0.039 C 
ATOM     10  G   UNL     1     -14.126  13.557 -31.545  1.00  0.00     0.000 G0
ENDBRANCH   6   7
ENDBRANCH   5   6
ENDBRANCH   3   5
ENDBRANCH   1   3
BRANCH   1  11
ATOM     11  C   UNL     1     -14.479  11.780 -28.999  1.00  0.00     0.087 C 
BRANCH  11  12
ATOM     12  C   UNL     1     -15.600  12.741 -29.471  1.00  0.00     0.066 C 
BRANCH  12  13
ATOM     13  C   UNL     1     -15.461  13.178 -30.924  1.00  0.00     0.140 C 
ATOM     14  O   UNL     1     -16.458  13.144 -31.630  1.00  0.00    -0.299 OA
BRANCH  13  15
ATOM     15  C   UNL     1     -14.143  13.566 -31.558  1.00  0.00     0.106 CG0
ATOM     16  G   UNL     1     -13.616  14.867 -30.975  1.00  0.00     0.000 G0
ENDBRANCH  13  15
ENDBRANCH  12  13
BRANCH  12  17
ATOM     17  C   UNL     1     -17.044  12.227 -29.179  1.00  0.00    -0.006 C 
ATOM     18  C   UNL     1     -17.123  11.200 -28.038  1.00  0.00     0.008 C 
ATOM     19  C   UNL     1     -18.025  13.381 -28.917  1.00  0.00     0.008 C 
ENDBRANCH  12  17
ENDBRANCH  11  12
ENDBRANCH   1  11
TORSDOF 1
ENDMDL
MODEL 8
REMARK VINA RESULT:    -3.328      1.832      2.724
REMARK INTER + INTRA:          -4.917
REMARK INTER:                  -5.491
REMARK INTRA:                   0.574
REMARK UNBOUND:                 0.162
REMARK SMILES CC1=CCC[C@@H](C)C(=O)C[C@H](C(C)C)C(=O)C1
REMARK SMILES IDX 8 1 9 2 6 3 7 4 5 5 4 6 3 7 2 8 1 9 10 11 11 12 15 13 16 14
REMARK SMILES IDX 17 15 12 17 13 18 14 19
REMARK H PARENT
REMARK Flexibility Score: 70.00
ROOT
ATOM      1  C   UNL     1     -17.751  13.160 -29.160  1.00  0.00     0.136 C 
ATOM      2  O   UNL     1     -18.850  13.375 -29.654  1.00  0.00    -0.299 OA
ENDROOT
BRANCH   1   3
ATOM      3  C   UNL     1     -17.363  11.749 -28.781  1.00  0.00     0.053 C 
ATOM      4  C   UNL     1     -18.616  10.876 -28.643  1.00  0.00     0.016 C 
BRANCH   3   5
ATOM      5  C   UNL     1     -16.533  11.722 -27.483  1.00  0.00     0.015 C 
BRANCH   5   6
ATOM      6  C   UNL     1     -15.133  11.103 -27.679  1.00  0.00     0.028 C 
BRANCH   6   7
ATOM      7  C   UNL     1     -14.038  12.083 -27.325  1.00  0.00    -0.028 C 
ATOM      8  C   UNL     1     -13.383  12.924 -28.163  1.00  0.00    -0.070 CG0
ATOM      9  C   UNL     1     -12.276  13.764 -27.573  1.00  0.00     0.039 C 
ATOM     10  G   UNL     1     -13.687  13.083 -29.644  1.00  0.00     0.000 G0
ENDBRANCH   6   7
ENDBRANCH   5   6
ENDBRANCH   3   5
ENDBRANCH   1   3
BRANCH   1  11
ATOM     11  C   UNL     1     -16.750  14.282 -29.003  1.00  0.00     0.087 C 
BRANCH  11  12
ATOM     12  C   UNL     1     -15.861  14.499 -30.255  1.00  0.00     0.066 C 
BRANCH  12  13
ATOM     13  C   UNL     1     -14.369  14.385 -29.973  1.00  0.00     0.140 C 
ATOM     14  O   UNL     1     -13.689  15.397 -30.069  1.00  0.00    -0.299 OA
BRANCH  13  15
ATOM     15  C   UNL     1     -13.673  13.076 -29.670  1.00  0.00     0.106 CG0
ATOM     16  G   UNL     1     -13.385  12.939 -28.184  1.00  0.00     0.000 G0
ENDBRANCH  13  15
ENDBRANCH  12  13
BRANCH  12  17
ATOM     17  C   UNL     1     -16.265  13.625 -31.482  1.00  0.00    -0.006 C 
ATOM     18  C   UNL     1     -17.291  14.292 -32.414  1.00  0.00     0.008 C 
ATOM     19  C   UNL     1     -15.042  13.165 -32.291  1.00  0.00     0.008 C 
ENDBRANCH  12  17
ENDBRANCH  11  12
ENDBRANCH   1  11
TORSDOF 1
ENDMDL
MODEL 9
REMARK VINA RESULT:    -3.323      1.574      3.762
REMARK INTER + INTRA:          -4.908
REMARK INTER:                  -5.059
REMARK INTRA:                   0.150
REMARK UNBOUND:                 0.162
REMARK SMILES CC1=CCC[C@@H](C)C(=O)C[C@H](C(C)C)C(=O)C1
REMARK SMILES IDX 8 1 9 2 6 3 7 4 5 5 4 6 3 7 2 8 1 9 10 11 11 12 15 13 16 14
REMARK SMILES IDX 17 15 12 17 13 18 14 19
REMARK H PARENT
REMARK Flexibility Score: 70.00
ROOT
ATOM      1  C   UNL     1     -16.356  13.497 -30.742  1.00  0.00     0.136 C 
ATOM      2  O   UNL     1     -17.352  12.860 -31.056  1.00  0.00    -0.299 OA
ENDROOT
BRANCH   1   3
ATOM      3  C   UNL     1     -15.797  14.530 -31.692  1.00  0.00     0.053 C 
ATOM      4  C   UNL     1     -15.240  13.847 -32.947  1.00  0.00     0.016 C 
BRANCH   3   5
ATOM      5  C   UNL     1     -14.714  15.393 -31.015  1.00  0.00     0.015 C 
BRANCH   5   6
ATOM      6  C   UNL     1     -13.315  15.196 -31.634  1.00  0.00     0.028 C 
BRANCH   6   7
ATOM      7  C   UNL     1     -12.325  14.677 -30.616  1.00  0.00    -0.028 C 
ATOM      8  C   UNL     1     -12.240  13.420 -30.117  1.00  0.00    -0.070 CG0
ATOM      9  C   UNL     1     -11.197  13.167 -29.056  1.00  0.00     0.039 C 
ATOM     10  G   UNL     1     -13.111  12.253 -30.552  1.00  0.00     0.000 G0
ENDBRANCH   6   7
ENDBRANCH   5   6
ENDBRANCH   3   5
ENDBRANCH   1   3
BRANCH   1  11
ATOM     11  C   UNL     1     -15.730  13.314 -29.378  1.00  0.00     0.087 C 
BRANCH  11  12
ATOM     12  C   UNL     1     -15.286  11.857 -29.089  1.00  0.00     0.066 C 
BRANCH  12  13
ATOM     13  C   UNL     1     -13.821  11.589 -29.406  1.00  0.00     0.140 C 
ATOM     14  O   UNL     1     -13.191  10.876 -28.639  1.00  0.00    -0.299 OA
BRANCH  13  15
ATOM     15  C   UNL     1     -13.086  12.227 -30.565  1.00  0.00     0.106 CG0
ATOM     16  G   UNL     1     -12.252  13.410 -30.101  1.00  0.00     0.000 G0
ENDBRANCH  13  15
ENDBRANCH  12  13
BRANCH  12  17
ATOM     17  C   UNL     1     -15.649  11.353 -27.658  1.00  0.00    -0.006 C 
ATOM     18  C   UNL     1     -15.289  12.341 -26.537  1.00  0.00     0.008 C 
ATOM     19  C   UNL     1     -17.128  10.948 -27.547  1.00  0.00     0.008 C 
ENDBRANCH  12  17
ENDBRANCH  11  12
ENDBRANCH   1  11
TORSDOF 1
ENDMDL
