MODEL 1
REMARK VINA RESULT:    -3.410      0.000      0.000
REMARK INTER + INTRA:          -3.620
REMARK INTER:                  -3.609
REMARK INTRA:                  -0.011
REMARK UNBOUND:                -0.011
REMARK SMILES O=Cc1ccco1
REMARK SMILES IDX 5 1 6 2 7 3 3 4 4 5 2 6 1 7
REMARK H PARENT
REMARK Flexibility Score: inf
ROOT
ATOM      1  C   UNL     1     176.825 158.783 167.411  1.00  0.00     0.043 A 
ATOM      2  C   UNL     1     177.922 158.197 166.807  1.00  0.00     0.196 A 
ATOM      3  O   UNL     1     177.772 158.219 165.502  1.00  0.00    -0.462 OA
ATOM      4  C   UNL     1     176.625 158.795 165.224  1.00  0.00     0.166 A 
ATOM      5  C   UNL     1     175.986 159.170 166.387  1.00  0.00     0.054 A 
ENDROOT
BRANCH   4   6
ATOM      6  C   UNL     1     176.114 159.000 163.867  1.00  0.00     0.298 C 
ATOM      7  O   UNL     1     175.129 158.335 163.453  1.00  0.00    -0.294 OA
ENDBRANCH   4   6
TORSDOF 1
ENDMDL
MODEL 2
REMARK VINA RESULT:    -3.083     12.816     13.765
REMARK INTER + INTRA:          -3.274
REMARK INTER:                  -3.259
REMARK INTRA:                  -0.015
REMARK UNBOUND:                -0.011
REMARK SMILES O=Cc1ccco1
REMARK SMILES IDX 5 1 6 2 7 3 3 4 4 5 2 6 1 7
REMARK H PARENT
REMARK Flexibility Score: inf
ROOT
ATOM      1  C   UNL     1     177.512 163.213 151.167  1.00  0.00     0.043 A 
ATOM      2  C   UNL     1     177.922 163.224 152.486  1.00  0.00     0.196 A 
ATOM      3  O   UNL     1     177.143 162.441 153.197  1.00  0.00    -0.462 OA
ATOM      4  C   UNL     1     176.239 161.918 152.401  1.00  0.00     0.166 A 
ATOM      5  C   UNL     1     176.423 162.369 151.111  1.00  0.00     0.054 A 
ENDROOT
BRANCH   4   6
ATOM      6  C   UNL     1     175.194 160.990 152.838  1.00  0.00     0.298 C 
ATOM      7  O   UNL     1     175.432 160.145 153.739  1.00  0.00    -0.294 OA
ENDBRANCH   4   6
TORSDOF 1
ENDMDL
MODEL 3
REMARK VINA RESULT:    -3.079      2.794      4.581
REMARK INTER + INTRA:          -3.269
REMARK INTER:                  -3.258
REMARK INTRA:                  -0.011
REMARK UNBOUND:                -0.011
REMARK SMILES O=Cc1ccco1
REMARK SMILES IDX 5 1 6 2 7 3 3 4 4 5 2 6 1 7
REMARK H PARENT
REMARK Flexibility Score: inf
ROOT
ATOM      1  C   UNL     1     177.717 161.004 161.249  1.00  0.00     0.043 A 
ATOM      2  C   UNL     1     176.440 161.319 160.824  1.00  0.00     0.196 A 
ATOM      3  O   UNL     1     175.560 160.805 161.653  1.00  0.00    -0.462 OA
ATOM      4  C   UNL     1     176.204 160.168 162.603  1.00  0.00     0.166 A 
ATOM      5  C   UNL     1     177.565 160.259 162.400  1.00  0.00     0.054 A 
ENDROOT
BRANCH   4   6
ATOM      6  C   UNL     1     175.554 159.465 163.712  1.00  0.00     0.298 C 
ATOM      7  O   UNL     1     175.218 158.259 163.588  1.00  0.00    -0.294 OA
ENDBRANCH   4   6
TORSDOF 1
ENDMDL
MODEL 4
REMARK VINA RESULT:    -3.044     19.522     20.850
REMARK INTER + INTRA:          -3.233
REMARK INTER:                  -3.219
REMARK INTRA:                  -0.014
REMARK UNBOUND:                -0.011
REMARK SMILES O=Cc1ccco1
REMARK SMILES IDX 5 1 6 2 7 3 3 4 4 5 2 6 1 7
REMARK H PARENT
REMARK Flexibility Score: inf
ROOT
ATOM      1  C   UNL     1     175.419 176.014 151.334  1.00  0.00     0.043 A 
ATOM      2  C   UNL     1     175.500 176.235 152.695  1.00  0.00     0.196 A 
ATOM      3  O   UNL     1     175.982 175.167 153.289  1.00  0.00    -0.462 OA
ATOM      4  C   UNL     1     176.221 174.255 152.375  1.00  0.00     0.166 A 
ATOM      5  C   UNL     1     175.885 174.732 151.126  1.00  0.00     0.054 A 
ENDROOT
BRANCH   4   6
ATOM      6  C   UNL     1     176.766 172.926 152.660  1.00  0.00     0.298 C 
ATOM      7  O   UNL     1     177.748 172.796 153.435  1.00  0.00    -0.294 OA
ENDBRANCH   4   6
TORSDOF 1
ENDMDL
MODEL 5
REMARK VINA RESULT:    -2.957     26.212     27.711
REMARK INTER + INTRA:          -3.140
REMARK INTER:                  -3.125
REMARK INTRA:                  -0.016
REMARK UNBOUND:                -0.011
REMARK SMILES O=Cc1ccco1
REMARK SMILES IDX 5 1 6 2 7 3 3 4 4 5 2 6 1 7
REMARK H PARENT
REMARK Flexibility Score: inf
ROOT
ATOM      1  C   UNL     1     160.690 177.169 150.394  1.00  0.00     0.043 A 
ATOM      2  C   UNL     1     160.325 178.049 151.395  1.00  0.00     0.196 A 
ATOM      3  O   UNL     1     161.286 178.125 152.288  1.00  0.00    -0.462 OA
ATOM      4  C   UNL     1     162.265 177.333 151.915  1.00  0.00     0.166 A 
ATOM      5  C   UNL     1     161.944 176.705 150.730  1.00  0.00     0.054 A 
ENDROOT
BRANCH   4   6
ATOM      6  C   UNL     1     163.511 177.154 152.663  1.00  0.00     0.298 C 
ATOM      7  O   UNL     1     163.869 178.010 153.513  1.00  0.00    -0.294 OA
ENDBRANCH   4   6
TORSDOF 1
ENDMDL
MODEL 6
REMARK VINA RESULT:    -2.942     26.400     27.822
REMARK INTER + INTRA:          -3.125
REMARK INTER:                  -3.108
REMARK INTRA:                  -0.016
REMARK UNBOUND:                -0.011
REMARK SMILES O=Cc1ccco1
REMARK SMILES IDX 5 1 6 2 7 3 3 4 4 5 2 6 1 7
REMARK H PARENT
REMARK Flexibility Score: inf
ROOT
ATOM      1  C   UNL     1     160.864 177.084 150.375  1.00  0.00     0.043 A 
ATOM      2  C   UNL     1     160.330 178.123 151.112  1.00  0.00     0.196 A 
ATOM      3  O   UNL     1     160.146 177.735 152.354  1.00  0.00    -0.462 OA
ATOM      4  C   UNL     1     160.537 176.487 152.462  1.00  0.00     0.166 A 
ATOM      5  C   UNL     1     160.999 176.025 151.247  1.00  0.00     0.054 A 
ENDROOT
BRANCH   4   6
ATOM      6  C   UNL     1     160.483 175.711 153.703  1.00  0.00     0.298 C 
ATOM      7  O   UNL     1     160.122 176.257 154.778  1.00  0.00    -0.294 OA
ENDBRANCH   4   6
TORSDOF 1
ENDMDL
MODEL 7
REMARK VINA RESULT:    -2.906     22.649     23.611
REMARK INTER + INTRA:          -3.086
REMARK INTER:                  -3.071
REMARK INTRA:                  -0.016
REMARK UNBOUND:                -0.011
REMARK SMILES O=Cc1ccco1
REMARK SMILES IDX 5 1 6 2 7 3 3 4 4 5 2 6 1 7
REMARK H PARENT
REMARK Flexibility Score: inf
ROOT
ATOM      1  C   UNL     1     174.448 177.740 150.365  1.00  0.00     0.043 A 
ATOM      2  C   UNL     1     175.485 178.107 151.201  1.00  0.00     0.196 A 
ATOM      3  O   UNL     1     175.077 178.076 152.450  1.00  0.00    -0.462 OA
ATOM      4  C   UNL     1     173.819 177.704 152.469  1.00  0.00     0.166 A 
ATOM      5  C   UNL     1     173.369 177.479 151.184  1.00  0.00     0.054 A 
ENDROOT
BRANCH   4   6
ATOM      6  C   UNL     1     173.021 177.555 153.688  1.00  0.00     0.298 C 
ATOM      7  O   UNL     1     173.380 178.120 154.753  1.00  0.00    -0.294 OA
ENDBRANCH   4   6
TORSDOF 1
ENDMDL
MODEL 8
REMARK VINA RESULT:    -2.894     22.211     23.387
REMARK INTER + INTRA:          -3.074
REMARK INTER:                  -3.062
REMARK INTRA:                  -0.012
REMARK UNBOUND:                -0.011
REMARK SMILES O=Cc1ccco1
REMARK SMILES IDX 5 1 6 2 7 3 3 4 4 5 2 6 1 7
REMARK H PARENT
REMARK Flexibility Score: inf
ROOT
ATOM      1  C   UNL     1     174.478 177.890 150.386  1.00  0.00     0.043 A 
ATOM      2  C   UNL     1     173.481 177.334 151.165  1.00  0.00     0.196 A 
ATOM      3  O   UNL     1     173.897 177.231 152.407  1.00  0.00    -0.462 OA
ATOM      4  C   UNL     1     175.123 177.697 152.476  1.00  0.00     0.166 A 
ATOM      5  C   UNL     1     175.541 178.125 151.234  1.00  0.00     0.054 A 
ENDROOT
BRANCH   4   6
ATOM      6  C   UNL     1     175.917 177.745 153.705  1.00  0.00     0.298 C 
ATOM      7  O   UNL     1     176.375 176.686 154.207  1.00  0.00    -0.294 OA
ENDBRANCH   4   6
TORSDOF 1
ENDMDL
MODEL 9
REMARK VINA RESULT:    -2.874     21.421     22.701
REMARK INTER + INTRA:          -3.052
REMARK INTER:                  -3.037
REMARK INTRA:                  -0.016
REMARK UNBOUND:                -0.011
REMARK SMILES O=Cc1ccco1
REMARK SMILES IDX 5 1 6 2 7 3 3 4 4 5 2 6 1 7
REMARK H PARENT
REMARK Flexibility Score: inf
ROOT
ATOM      1  C   UNL     1     174.402 178.125 151.203  1.00  0.00     0.043 A 
ATOM      2  C   UNL     1     174.894 178.111 152.494  1.00  0.00     0.196 A 
ATOM      3  O   UNL     1     175.455 176.949 152.741  1.00  0.00    -0.462 OA
ATOM      4  C   UNL     1     175.353 176.201 151.667  1.00  0.00     0.166 A 
ATOM      5  C   UNL     1     174.699 176.889 150.667  1.00  0.00     0.054 A 
ENDROOT
BRANCH   4   6
ATOM      6  C   UNL     1     175.866 174.833 151.565  1.00  0.00     0.298 C 
ATOM      7  O   UNL     1     176.675 174.393 152.422  1.00  0.00    -0.294 OA
ENDBRANCH   4   6
TORSDOF 1
ENDMDL
