MODEL 1
REMARK VINA RESULT:    -4.674      0.000      0.000
REMARK INTER + INTRA:          -8.740
REMARK INTER:                  -7.952
REMARK INTRA:                  -0.788
REMARK UNBOUND:                -0.788
REMARK SMILES CCCCCCCCCCCCCC(=O)[O-]
REMARK SMILES IDX 8 1 9 2 10 3 11 4 12 5 13 6 14 7 15 8 16 9 7 10 6 11 5 12
REMARK SMILES IDX 4 13 3 14 2 15 1 16
REMARK H PARENT
REMARK Flexibility Score: inf
ROOT
ATOM      1  C   UNL     1      51.770  -2.814  11.830  1.00  0.00     0.000 C 
ENDROOT
BRANCH   1   2
ATOM      2  C   UNL     1      53.044  -2.325  12.545  1.00  0.00     0.000 C 
BRANCH   2   3
ATOM      3  C   UNL     1      53.859  -3.468  13.166  1.00  0.00     0.000 C 
BRANCH   3   4
ATOM      4  C   UNL     1      55.359  -3.281  12.893  1.00  0.00     0.000 C 
BRANCH   4   5
ATOM      5  C   UNL     1      56.229  -3.541  14.137  1.00  0.00     0.006 C 
BRANCH   5   6
ATOM      6  C   UNL     1      57.154  -2.373  14.517  1.00  0.00     0.053 C 
BRANCH   6   7
ATOM      7  C   UNL     1      56.386  -1.180  14.995  1.00  0.00     0.041 C 
ATOM      8  O   UNL     1      55.277  -1.330  15.571  1.00  0.00    -0.550 OA
ATOM      9  O   UNL     1      56.910   0.096  14.834  1.00  0.00    -0.550 OA
ENDBRANCH   6   7
ENDBRANCH   5   6
ENDBRANCH   4   5
ENDBRANCH   3   4
ENDBRANCH   2   3
ENDBRANCH   1   2
BRANCH   1  10
ATOM     10  C   UNL     1      51.982  -3.986  10.854  1.00  0.00     0.000 C 
BRANCH  10  11
ATOM     11  C   UNL     1      52.520  -3.538   9.487  1.00  0.00    -0.000 C 
BRANCH  11  12
ATOM     12  C   UNL     1      53.471  -4.592   8.900  1.00  0.00    -0.000 C 
BRANCH  12  13
ATOM     13  C   UNL     1      53.749  -4.370   7.405  1.00  0.00    -0.000 C 
BRANCH  13  14
ATOM     14  C   UNL     1      55.253  -4.294   7.088  1.00  0.00    -0.000 C 
BRANCH  14  15
ATOM     15  C   UNL     1      56.128  -4.492   8.336  1.00  0.00    -0.003 C 
ATOM     16  C   UNL     1      57.606  -4.679   7.996  1.00  0.00     0.004 C 
ENDBRANCH  14  15
ENDBRANCH  13  14
ENDBRANCH  12  13
ENDBRANCH  11  12
ENDBRANCH  10  11
ENDBRANCH   1  10
TORSDOF 12
ENDMDL
MODEL 2
REMARK VINA RESULT:    -4.608      2.655      3.602
REMARK INTER + INTRA:          -8.628
REMARK INTER:                  -7.106
REMARK INTRA:                  -1.522
REMARK UNBOUND:                -0.788
REMARK SMILES CCCCCCCCCCCCCC(=O)[O-]
REMARK SMILES IDX 8 1 9 2 10 3 11 4 12 5 13 6 14 7 15 8 16 9 7 10 6 11 5 12
REMARK SMILES IDX 4 13 3 14 2 15 1 16
REMARK H PARENT
REMARK Flexibility Score: inf
ROOT
ATOM      1  C   UNL     1      52.382  -3.613  13.294  1.00  0.00     0.000 C 
ENDROOT
BRANCH   1   2
ATOM      2  C   UNL     1      53.809  -4.094  12.974  1.00  0.00     0.000 C 
BRANCH   2   3
ATOM      3  C   UNL     1      54.841  -2.957  12.979  1.00  0.00     0.000 C 
BRANCH   3   4
ATOM      4  C   UNL     1      56.147  -3.406  13.651  1.00  0.00     0.000 C 
BRANCH   4   5
ATOM      5  C   UNL     1      56.627  -2.425  14.737  1.00  0.00     0.006 C 
BRANCH   5   6
ATOM      6  C   UNL     1      55.657  -1.266  15.016  1.00  0.00     0.053 C 
BRANCH   6   7
ATOM      7  C   UNL     1      55.585  -0.932  16.474  1.00  0.00     0.041 C 
ATOM      8  O   UNL     1      56.625  -0.964  17.183  1.00  0.00    -0.550 OA
ATOM      9  O   UNL     1      54.376  -0.553  17.043  1.00  0.00    -0.550 OA
ENDBRANCH   6   7
ENDBRANCH   5   6
ENDBRANCH   4   5
ENDBRANCH   3   4
ENDBRANCH   2   3
ENDBRANCH   1   2
BRANCH   1  10
ATOM     10  C   UNL     1      51.355  -3.830  12.167  1.00  0.00     0.000 C 
BRANCH  10  11
ATOM     11  C   UNL     1      52.009  -4.120  10.808  1.00  0.00    -0.000 C 
BRANCH  11  12
ATOM     12  C   UNL     1      51.764  -2.966   9.825  1.00  0.00    -0.000 C 
BRANCH  12  13
ATOM     13  C   UNL     1      52.757  -1.808  10.013  1.00  0.00    -0.000 C 
BRANCH  13  14
ATOM     14  C   UNL     1      52.061  -0.487  10.383  1.00  0.00    -0.000 C 
BRANCH  14  15
ATOM     15  C   UNL     1      52.002  -0.258  11.902  1.00  0.00    -0.003 C 
ATOM     16  C   UNL     1      53.247   0.446  12.441  1.00  0.00     0.004 C 
ENDBRANCH  14  15
ENDBRANCH  13  14
ENDBRANCH  12  13
ENDBRANCH  11  12
ENDBRANCH  10  11
ENDBRANCH   1  10
TORSDOF 12
ENDMDL
MODEL 3
REMARK VINA RESULT:    -4.607      6.352      9.371
REMARK INTER + INTRA:          -8.628
REMARK INTER:                  -7.685
REMARK INTRA:                  -0.942
REMARK UNBOUND:                -0.788
REMARK SMILES CCCCCCCCCCCCCC(=O)[O-]
REMARK SMILES IDX 8 1 9 2 10 3 11 4 12 5 13 6 14 7 15 8 16 9 7 10 6 11 5 12
REMARK SMILES IDX 4 13 3 14 2 15 1 16
REMARK H PARENT
REMARK Flexibility Score: inf
ROOT
ATOM      1  C   UNL     1      56.292  -2.394  20.732  1.00  0.00     0.000 C 
ENDROOT
BRANCH   1   2
ATOM      2  C   UNL     1      57.694  -2.809  21.214  1.00  0.00     0.000 C 
BRANCH   2   3
ATOM      3  C   UNL     1      58.081  -4.231  20.783  1.00  0.00     0.000 C 
BRANCH   3   4
ATOM      4  C   UNL     1      59.395  -4.223  19.988  1.00  0.00     0.000 C 
BRANCH   4   5
ATOM      5  C   UNL     1      60.542  -3.519  20.739  1.00  0.00     0.006 C 
BRANCH   5   6
ATOM      6  C   UNL     1      61.909  -4.206  20.593  1.00  0.00     0.053 C 
BRANCH   6   7
ATOM      7  C   UNL     1      62.588  -4.392  21.914  1.00  0.00     0.041 C 
ATOM      8  O   UNL     1      61.912  -4.662  22.942  1.00  0.00    -0.550 OA
ATOM      9  O   UNL     1      63.971  -4.300  22.006  1.00  0.00    -0.550 OA
ENDBRANCH   6   7
ENDBRANCH   5   6
ENDBRANCH   4   5
ENDBRANCH   3   4
ENDBRANCH   2   3
ENDBRANCH   1   2
BRANCH   1  10
ATOM     10  C   UNL     1      56.272  -1.270  19.681  1.00  0.00     0.000 C 
BRANCH  10  11
ATOM     11  C   UNL     1      57.638  -1.046  19.016  1.00  0.00    -0.000 C 
BRANCH  11  12
ATOM     12  C   UNL     1      57.516  -1.086  17.485  1.00  0.00    -0.000 C 
BRANCH  12  13
ATOM     13  C   UNL     1      56.084  -0.807  16.999  1.00  0.00    -0.000 C 
BRANCH  13  14
ATOM     14  C   UNL     1      55.821  -1.361  15.588  1.00  0.00    -0.000 C 
BRANCH  14  15
ATOM     15  C   UNL     1      57.116  -1.750  14.857  1.00  0.00    -0.003 C 
ATOM     16  C   UNL     1      57.016  -3.107  14.163  1.00  0.00     0.004 C 
ENDBRANCH  14  15
ENDBRANCH  13  14
ENDBRANCH  12  13
ENDBRANCH  11  12
ENDBRANCH  10  11
ENDBRANCH   1  10
TORSDOF 12
ENDMDL
MODEL 4
REMARK VINA RESULT:    -4.594      1.957      3.395
REMARK INTER + INTRA:          -8.606
REMARK INTER:                  -7.397
REMARK INTRA:                  -1.208
REMARK UNBOUND:                -0.788
REMARK SMILES CCCCCCCCCCCCCC(=O)[O-]
REMARK SMILES IDX 8 1 9 2 10 3 11 4 12 5 13 6 14 7 15 8 16 9 7 10 6 11 5 12
REMARK SMILES IDX 4 13 3 14 2 15 1 16
REMARK H PARENT
REMARK Flexibility Score: inf
ROOT
ATOM      1  C   UNL     1      52.999  -4.700   9.636  1.00  0.00     0.000 C 
ENDROOT
BRANCH   1   2
ATOM      2  C   UNL     1      52.248  -3.834  10.664  1.00  0.00     0.000 C 
BRANCH   2   3
ATOM      3  C   UNL     1      52.293  -4.416  12.084  1.00  0.00     0.000 C 
BRANCH   3   4
ATOM      4  C   UNL     1      52.940  -3.423  13.062  1.00  0.00     0.000 C 
BRANCH   4   5
ATOM      5  C   UNL     1      54.445  -3.680  13.262  1.00  0.00     0.006 C 
BRANCH   5   6
ATOM      6  C   UNL     1      55.194  -2.537  13.968  1.00  0.00     0.053 C 
BRANCH   6   7
ATOM      7  C   UNL     1      56.655  -2.827  14.113  1.00  0.00     0.041 C 
ATOM      8  O   UNL     1      57.175  -3.788  13.487  1.00  0.00    -0.550 OA
ATOM      9  O   UNL     1      57.450  -2.017  14.913  1.00  0.00    -0.550 OA
ENDBRANCH   6   7
ENDBRANCH   5   6
ENDBRANCH   4   5
ENDBRANCH   3   4
ENDBRANCH   2   3
ENDBRANCH   1   2
BRANCH   1  10
ATOM     10  C   UNL     1      54.098  -3.966   8.847  1.00  0.00     0.000 C 
BRANCH  10  11
ATOM     11  C   UNL     1      53.952  -4.124   7.326  1.00  0.00    -0.000 C 
BRANCH  11  12
ATOM     12  C   UNL     1      52.568  -4.683   6.963  1.00  0.00    -0.000 C 
BRANCH  12  13
ATOM     13  C   UNL     1      51.757  -3.723   6.079  1.00  0.00    -0.000 C 
BRANCH  13  14
ATOM     14  C   UNL     1      52.015  -2.245   6.418  1.00  0.00    -0.000 C 
BRANCH  14  15
ATOM     15  C   UNL     1      50.984  -1.678   7.407  1.00  0.00    -0.003 C 
ATOM     16  C   UNL     1      51.630  -0.872   8.534  1.00  0.00     0.004 C 
ENDBRANCH  14  15
ENDBRANCH  13  14
ENDBRANCH  12  13
ENDBRANCH  11  12
ENDBRANCH  10  11
ENDBRANCH   1  10
TORSDOF 12
ENDMDL
MODEL 5
REMARK VINA RESULT:    -4.562      3.296      6.675
REMARK INTER + INTRA:          -8.550
REMARK INTER:                  -7.391
REMARK INTRA:                  -1.159
REMARK UNBOUND:                -0.788
REMARK SMILES CCCCCCCCCCCCCC(=O)[O-]
REMARK SMILES IDX 8 1 9 2 10 3 11 4 12 5 13 6 14 7 15 8 16 9 7 10 6 11 5 12
REMARK SMILES IDX 4 13 3 14 2 15 1 16
REMARK H PARENT
REMARK Flexibility Score: inf
ROOT
ATOM      1  C   UNL     1      53.438  -2.113  12.598  1.00  0.00     0.000 C 
ENDROOT
BRANCH   1   2
ATOM      2  C   UNL     1      52.093  -2.672  12.099  1.00  0.00     0.000 C 
BRANCH   2   3
ATOM      3  C   UNL     1      52.086  -4.203  11.986  1.00  0.00     0.000 C 
BRANCH   3   4
ATOM      4  C   UNL     1      52.505  -4.650  10.577  1.00  0.00     0.000 C 
BRANCH   4   5
ATOM      5  C   UNL     1      52.029  -3.681   9.478  1.00  0.00     0.006 C 
BRANCH   5   6
ATOM      6  C   UNL     1      53.158  -3.111   8.604  1.00  0.00     0.053 C 
BRANCH   6   7
ATOM      7  C   UNL     1      53.861  -4.180   7.827  1.00  0.00     0.041 C 
ATOM      8  O   UNL     1      55.009  -4.564   8.172  1.00  0.00    -0.550 OA
ATOM      9  O   UNL     1      53.235  -4.776   6.740  1.00  0.00    -0.550 OA
ENDBRANCH   6   7
ENDBRANCH   5   6
ENDBRANCH   4   5
ENDBRANCH   3   4
ENDBRANCH   2   3
ENDBRANCH   1   2
BRANCH   1  10
ATOM     10  C   UNL     1      54.215  -3.041  13.550  1.00  0.00     0.000 C 
BRANCH  10  11
ATOM     11  C   UNL     1      55.582  -3.464  12.992  1.00  0.00    -0.000 C 
BRANCH  11  12
ATOM     12  C   UNL     1      56.706  -3.128  13.983  1.00  0.00    -0.000 C 
BRANCH  12  13
ATOM     13  C   UNL     1      56.322  -1.998  14.952  1.00  0.00    -0.000 C 
BRANCH  13  14
ATOM     14  C   UNL     1      57.439  -0.952  15.113  1.00  0.00    -0.000 C 
BRANCH  14  15
ATOM     15  C   UNL     1      56.936   0.484  14.897  1.00  0.00    -0.003 C 
ATOM     16  C   UNL     1      55.555   0.533  14.244  1.00  0.00     0.004 C 
ENDBRANCH  14  15
ENDBRANCH  13  14
ENDBRANCH  12  13
ENDBRANCH  11  12
ENDBRANCH  10  11
ENDBRANCH   1  10
TORSDOF 12
ENDMDL
MODEL 6
REMARK VINA RESULT:    -4.550      5.246      9.752
REMARK INTER + INTRA:          -8.529
REMARK INTER:                  -7.805
REMARK INTRA:                  -0.724
REMARK UNBOUND:                -0.788
REMARK SMILES CCCCCCCCCCCCCC(=O)[O-]
REMARK SMILES IDX 8 1 9 2 10 3 11 4 12 5 13 6 14 7 15 8 16 9 7 10 6 11 5 12
REMARK SMILES IDX 4 13 3 14 2 15 1 16
REMARK H PARENT
REMARK Flexibility Score: inf
ROOT
ATOM      1  C   UNL     1      57.632  -1.140  19.249  1.00  0.00     0.000 C 
ENDROOT
BRANCH   1   2
ATOM      2  C   UNL     1      56.217  -0.799  18.750  1.00  0.00     0.000 C 
BRANCH   2   3
ATOM      3  C   UNL     1      56.103  -0.806  17.218  1.00  0.00     0.000 C 
BRANCH   3   4
ATOM      4  C   UNL     1      57.488  -0.934  16.567  1.00  0.00     0.000 C 
BRANCH   4   5
ATOM      5  C   UNL     1      57.428  -1.526  15.147  1.00  0.00     0.006 C 
BRANCH   5   6
ATOM      6  C   UNL     1      56.028  -1.993  14.715  1.00  0.00     0.053 C 
BRANCH   6   7
ATOM      7  C   UNL     1      56.088  -3.181  13.806  1.00  0.00     0.041 C 
ATOM      8  O   UNL     1      57.172  -3.801  13.644  1.00  0.00    -0.550 OA
ATOM      9  O   UNL     1      54.939  -3.626  13.165  1.00  0.00    -0.550 OA
ENDBRANCH   6   7
ENDBRANCH   5   6
ENDBRANCH   4   5
ENDBRANCH   3   4
ENDBRANCH   2   3
ENDBRANCH   1   2
BRANCH   1  10
ATOM     10  C   UNL     1      57.697  -1.713  20.676  1.00  0.00     0.000 C 
BRANCH  10  11
ATOM     11  C   UNL     1      56.995  -3.072  20.810  1.00  0.00    -0.000 C 
BRANCH  11  12
ATOM     12  C   UNL     1      58.017  -4.219  20.826  1.00  0.00    -0.000 C 
BRANCH  12  13
ATOM     13  C   UNL     1      59.322  -3.837  21.543  1.00  0.00    -0.000 C 
BRANCH  13  14
ATOM     14  C   UNL     1      60.552  -3.932  20.623  1.00  0.00    -0.000 C 
BRANCH  14  15
ATOM     15  C   UNL     1      61.869  -4.030  21.409  1.00  0.00    -0.003 C 
ATOM     16  C   UNL     1      63.075  -4.289  20.507  1.00  0.00     0.004 C 
ENDBRANCH  14  15
ENDBRANCH  13  14
ENDBRANCH  12  13
ENDBRANCH  11  12
ENDBRANCH  10  11
ENDBRANCH   1  10
TORSDOF 12
ENDMDL
MODEL 7
REMARK VINA RESULT:    -4.537      5.604      8.639
REMARK INTER + INTRA:          -8.508
REMARK INTER:                  -7.516
REMARK INTRA:                  -0.991
REMARK UNBOUND:                -0.788
REMARK SMILES CCCCCCCCCCCCCC(=O)[O-]
REMARK SMILES IDX 8 1 9 2 10 3 11 4 12 5 13 6 14 7 15 8 16 9 7 10 6 11 5 12
REMARK SMILES IDX 4 13 3 14 2 15 1 16
REMARK H PARENT
REMARK Flexibility Score: inf
ROOT
ATOM      1  C   UNL     1      57.529  -0.646  20.109  1.00  0.00     0.000 C 
ENDROOT
BRANCH   1   2
ATOM      2  C   UNL     1      56.309  -1.585  20.092  1.00  0.00     0.000 C 
BRANCH   2   3
ATOM      3  C   UNL     1      56.568  -2.917  20.811  1.00  0.00     0.000 C 
BRANCH   3   4
ATOM      4  C   UNL     1      57.924  -2.896  21.532  1.00  0.00     0.000 C 
BRANCH   4   5
ATOM      5  C   UNL     1      58.855  -4.038  21.085  1.00  0.00     0.006 C 
BRANCH   5   6
ATOM      6  C   UNL     1      60.135  -3.570  20.373  1.00  0.00     0.053 C 
BRANCH   6   7
ATOM      7  C   UNL     1      61.364  -4.185  20.965  1.00  0.00     0.041 C 
ATOM      8  O   UNL     1      62.294  -4.587  20.217  1.00  0.00    -0.550 OA
ATOM      9  O   UNL     1      61.500  -4.283  22.343  1.00  0.00    -0.550 OA
ENDBRANCH   6   7
ENDBRANCH   5   6
ENDBRANCH   4   5
ENDBRANCH   3   4
ENDBRANCH   2   3
ENDBRANCH   1   2
BRANCH   1  10
ATOM     10  C   UNL     1      58.004  -0.172  18.724  1.00  0.00     0.000 C 
BRANCH  10  11
ATOM     11  C   UNL     1      57.973  -1.285  17.666  1.00  0.00    -0.000 C 
BRANCH  11  12
ATOM     12  C   UNL     1      57.125  -0.868  16.455  1.00  0.00    -0.000 C 
BRANCH  12  13
ATOM     13  C   UNL     1      57.765  -1.270  15.117  1.00  0.00    -0.000 C 
BRANCH  13  14
ATOM     14  C   UNL     1      57.061  -2.470  14.461  1.00  0.00    -0.000 C 
BRANCH  14  15
ATOM     15  C   UNL     1      55.533  -2.310  14.427  1.00  0.00    -0.003 C 
ATOM     16  C   UNL     1      54.900  -2.961  13.198  1.00  0.00     0.004 C 
ENDBRANCH  14  15
ENDBRANCH  13  14
ENDBRANCH  12  13
ENDBRANCH  11  12
ENDBRANCH  10  11
ENDBRANCH   1  10
TORSDOF 12
ENDMDL
MODEL 8
REMARK VINA RESULT:    -4.529      3.698      6.818
REMARK INTER + INTRA:          -8.494
REMARK INTER:                  -7.229
REMARK INTRA:                  -1.265
REMARK UNBOUND:                -0.788
REMARK SMILES CCCCCCCCCCCCCC(=O)[O-]
REMARK SMILES IDX 8 1 9 2 10 3 11 4 12 5 13 6 14 7 15 8 16 9 7 10 6 11 5 12
REMARK SMILES IDX 4 13 3 14 2 15 1 16
REMARK H PARENT
REMARK Flexibility Score: inf
ROOT
ATOM      1  C   UNL     1      54.066  -3.072  12.848  1.00  0.00     0.000 C 
ENDROOT
BRANCH   1   2
ATOM      2  C   UNL     1      52.922  -4.103  12.870  1.00  0.00     0.000 C 
BRANCH   2   3
ATOM      3  C   UNL     1      51.681  -3.637  12.095  1.00  0.00     0.000 C 
BRANCH   3   4
ATOM      4  C   UNL     1      52.059  -3.181  10.678  1.00  0.00     0.000 C 
BRANCH   4   5
ATOM      5  C   UNL     1      52.425  -4.356   9.751  1.00  0.00     0.006 C 
BRANCH   5   6
ATOM      6  C   UNL     1      53.761  -4.184   9.009  1.00  0.00     0.053 C 
BRANCH   6   7
ATOM      7  C   UNL     1      53.613  -4.385   7.533  1.00  0.00     0.041 C 
ATOM      8  O   UNL     1      52.503  -4.728   7.048  1.00  0.00    -0.550 OA
ATOM      9  O   UNL     1      54.693  -4.160   6.689  1.00  0.00    -0.550 OA
ENDBRANCH   6   7
ENDBRANCH   5   6
ENDBRANCH   4   5
ENDBRANCH   3   4
ENDBRANCH   2   3
ENDBRANCH   1   2
BRANCH   1  10
ATOM     10  C   UNL     1      55.328  -3.487  13.626  1.00  0.00     0.000 C 
BRANCH  10  11
ATOM     11  C   UNL     1      56.011  -2.307  14.333  1.00  0.00    -0.000 C 
BRANCH  11  12
ATOM     12  C   UNL     1      54.970  -1.331  14.901  1.00  0.00    -0.000 C 
BRANCH  12  13
ATOM     13  C   UNL     1      55.177   0.110  14.407  1.00  0.00    -0.000 C 
BRANCH  13  14
ATOM     14  C   UNL     1      53.852   0.822  14.087  1.00  0.00    -0.000 C 
BRANCH  14  15
ATOM     15  C   UNL     1      53.509   0.781  12.589  1.00  0.00    -0.003 C 
ATOM     16  C   UNL     1      52.145   0.149  12.315  1.00  0.00     0.004 C 
ENDBRANCH  14  15
ENDBRANCH  13  14
ENDBRANCH  12  13
ENDBRANCH  11  12
ENDBRANCH  10  11
ENDBRANCH   1  10
TORSDOF 12
ENDMDL
MODEL 9
REMARK VINA RESULT:    -4.520      1.954      3.218
REMARK INTER + INTRA:          -8.480
REMARK INTER:                  -7.389
REMARK INTRA:                  -1.091
REMARK UNBOUND:                -0.788
REMARK SMILES CCCCCCCCCCCCCC(=O)[O-]
REMARK SMILES IDX 8 1 9 2 10 3 11 4 12 5 13 6 14 7 15 8 16 9 7 10 6 11 5 12
REMARK SMILES IDX 4 13 3 14 2 15 1 16
REMARK H PARENT
REMARK Flexibility Score: inf
ROOT
ATOM      1  C   UNL     1      54.112  -3.141  12.528  1.00  0.00     0.000 C 
ENDROOT
BRANCH   1   2
ATOM      2  C   UNL     1      54.930  -2.739  13.768  1.00  0.00     0.000 C 
BRANCH   2   3
ATOM      3  C   UNL     1      56.379  -3.245  13.720  1.00  0.00     0.000 C 
BRANCH   3   4
ATOM      4  C   UNL     1      57.286  -2.393  14.621  1.00  0.00     0.000 C 
BRANCH   4   5
ATOM      5  C   UNL     1      56.705  -0.994  14.900  1.00  0.00     0.006 C 
BRANCH   5   6
ATOM      6  C   UNL     1      56.964  -0.474  16.323  1.00  0.00     0.053 C 
BRANCH   6   7
ATOM      7  C   UNL     1      55.697  -0.076  17.015  1.00  0.00     0.041 C 
ATOM      8  O   UNL     1      55.501   1.125  17.337  1.00  0.00    -0.550 OA
ATOM      9  O   UNL     1      54.717  -1.026  17.273  1.00  0.00    -0.550 OA
ENDBRANCH   6   7
ENDBRANCH   5   6
ENDBRANCH   4   5
ENDBRANCH   3   4
ENDBRANCH   2   3
ENDBRANCH   1   2
BRANCH   1  10
ATOM     10  C   UNL     1      52.931  -4.088  12.808  1.00  0.00     0.000 C 
BRANCH  10  11
ATOM     11  C   UNL     1      51.567  -3.459  12.486  1.00  0.00    -0.000 C 
BRANCH  11  12
ATOM     12  C   UNL     1      51.739  -2.164  11.678  1.00  0.00    -0.000 C 
BRANCH  12  13
ATOM     13  C   UNL     1      51.508  -2.372  10.172  1.00  0.00    -0.000 C 
BRANCH  13  14
ATOM     14  C   UNL     1      52.765  -2.077   9.336  1.00  0.00    -0.000 C 
BRANCH  14  15
ATOM     15  C   UNL     1      53.451  -3.357   8.833  1.00  0.00    -0.003 C 
ATOM     16  C   UNL     1      52.595  -4.606   9.043  1.00  0.00     0.004 C 
ENDBRANCH  14  15
ENDBRANCH  13  14
ENDBRANCH  12  13
ENDBRANCH  11  12
ENDBRANCH  10  11
ENDBRANCH   1  10
TORSDOF 12
ENDMDL
