MODEL 1
REMARK VINA RESULT:    -4.091      0.000      0.000
REMARK INTER + INTRA:          -4.211
REMARK INTER:                  -4.211
REMARK INTRA:                   0.000
REMARK UNBOUND:                 0.000
REMARK SMILES CC1(C)[C@@H]2CC[C@@](C)(C2)[C@@H]1O
REMARK SMILES IDX 1 1 2 2 4 3 5 4 6 5 7 6 9 7 10 8 8 9 3 10 11 11
REMARK H PARENT 11 12
REMARK Flexibility Score: inf
ROOT
ATOM      1  C   UNL     1     166.894 170.371 169.601  1.00  0.00     0.014 C 
ATOM      2  C   UNL     1     167.380 169.108 168.843  1.00  0.00    -0.006 C 
ATOM      3  C   UNL     1     167.744 167.915 169.793  1.00  0.00    -0.002 C 
ATOM      4  C   UNL     1     168.676 168.374 170.935  1.00  0.00     0.005 C 
ATOM      5  C   UNL     1     169.983 168.701 170.197  1.00  0.00     0.010 C 
ATOM      6  C   UNL     1     169.667 168.282 168.742  1.00  0.00    -0.006 C 
ATOM      7  C   UNL     1     168.728 167.115 168.959  1.00  0.00     0.013 C 
ATOM      8  C   UNL     1     168.726 169.320 168.072  1.00  0.00     0.126 C 
ATOM      9  C   UNL     1     170.908 167.932 167.913  1.00  0.00     0.014 C 
ATOM     10  C   UNL     1     166.245 168.690 167.875  1.00  0.00     0.014 C 
ENDROOT
BRANCH   8  11
ATOM     11  O   UNL     1     169.220 170.631 168.186  1.00  0.00    -0.392 OA
ATOM     12  H   UNL     1     168.457 171.200 168.468  1.00  0.00     0.211 HD
ENDBRANCH   8  11
TORSDOF 1
ENDMDL
MODEL 2
REMARK VINA RESULT:    -4.058      2.120      3.097
REMARK INTER + INTRA:          -4.177
REMARK INTER:                  -4.177
REMARK INTRA:                   0.000
REMARK UNBOUND:                 0.000
REMARK SMILES CC1(C)[C@@H]2CC[C@@](C)(C2)[C@@H]1O
REMARK SMILES IDX 1 1 2 2 4 3 5 4 6 5 7 6 9 7 10 8 8 9 3 10 11 11
REMARK H PARENT 11 12
REMARK Flexibility Score: inf
ROOT
ATOM      1  C   UNL     1     164.744 166.838 169.552  1.00  0.00     0.014 C 
ATOM      2  C   UNL     1     166.058 167.216 168.819  1.00  0.00    -0.006 C 
ATOM      3  C   UNL     1     167.252 167.501 169.794  1.00  0.00    -0.002 C 
ATOM      4  C   UNL     1     166.839 168.481 170.913  1.00  0.00     0.005 C 
ATOM      5  C   UNL     1     166.629 169.799 170.152  1.00  0.00     0.010 C 
ATOM      6  C   UNL     1     167.057 169.432 168.711  1.00  0.00    -0.006 C 
ATOM      7  C   UNL     1     168.144 168.411 168.968  1.00  0.00     0.013 C 
ATOM      8  C   UNL     1     165.966 168.563 168.028  1.00  0.00     0.126 C 
ATOM      9  C   UNL     1     167.520 170.631 167.877  1.00  0.00     0.014 C 
ATOM     10  C   UNL     1     166.411 166.040 167.875  1.00  0.00     0.014 C 
ENDROOT
BRANCH   8  11
ATOM     11  O   UNL     1     164.694 169.157 168.104  1.00  0.00    -0.392 OA
ATOM     12  H   UNL     1     164.032 168.423 168.018  1.00  0.00     0.211 HD
ENDBRANCH   8  11
TORSDOF 1
ENDMDL
MODEL 3
REMARK VINA RESULT:    -3.996      2.740      4.366
REMARK INTER + INTRA:          -4.113
REMARK INTER:                  -4.113
REMARK INTRA:                   0.000
REMARK UNBOUND:                 0.000
REMARK SMILES CC1(C)[C@@H]2CC[C@@](C)(C2)[C@@H]1O
REMARK SMILES IDX 1 1 2 2 4 3 5 4 6 5 7 6 9 7 10 8 8 9 3 10 11 11
REMARK H PARENT 11 12
REMARK Flexibility Score: inf
ROOT
ATOM      1  C   UNL     1     168.431 164.701 169.661  1.00  0.00     0.014 C 
ATOM      2  C   UNL     1     168.080 165.980 168.856  1.00  0.00    -0.006 C 
ATOM      3  C   UNL     1     167.846 167.237 169.762  1.00  0.00    -0.002 C 
ATOM      4  C   UNL     1     166.872 166.922 170.917  1.00  0.00     0.005 C 
ATOM      5  C   UNL     1     165.537 166.708 170.188  1.00  0.00     0.010 C 
ATOM      6  C   UNL     1     165.894 167.038 168.719  1.00  0.00    -0.006 C 
ATOM      7  C   UNL     1     166.951 168.107 168.897  1.00  0.00     0.013 C 
ATOM      8  C   UNL     1     166.719 165.883 168.090  1.00  0.00     0.126 C 
ATOM      9  C   UNL     1     164.696 167.488 167.875  1.00  0.00     0.014 C 
ATOM     10  C   UNL     1     169.252 166.239 167.877  1.00  0.00     0.014 C 
ENDROOT
BRANCH   8  11
ATOM     11  O   UNL     1     166.089 164.637 168.250  1.00  0.00    -0.392 OA
ATOM     12  H   UNL     1     165.170 164.822 168.577  1.00  0.00     0.211 HD
ENDBRANCH   8  11
TORSDOF 1
ENDMDL
MODEL 4
REMARK VINA RESULT:    -3.926      2.059      3.096
REMARK INTER + INTRA:          -4.040
REMARK INTER:                  -4.040
REMARK INTRA:                   0.000
REMARK UNBOUND:                 0.000
REMARK SMILES CC1(C)[C@@H]2CC[C@@](C)(C2)[C@@H]1O
REMARK SMILES IDX 1 1 2 2 4 3 5 4 6 5 7 6 9 7 10 8 8 9 3 10 11 11
REMARK H PARENT 11 12
REMARK Flexibility Score: inf
ROOT
ATOM      1  C   UNL     1     170.702 168.402 169.391  1.00  0.00     0.014 C 
ATOM      2  C   UNL     1     169.315 168.076 168.778  1.00  0.00    -0.006 C 
ATOM      3  C   UNL     1     168.204 167.825 169.855  1.00  0.00    -0.002 C 
ATOM      4  C   UNL     1     168.681 166.823 170.928  1.00  0.00     0.005 C 
ATOM      5  C   UNL     1     168.774 165.505 170.144  1.00  0.00     0.010 C 
ATOM      6  C   UNL     1     168.231 165.897 168.750  1.00  0.00    -0.006 C 
ATOM      7  C   UNL     1     167.209 166.955 169.109  1.00  0.00     0.013 C 
ATOM      8  C   UNL     1     169.287 166.733 167.975  1.00  0.00     0.126 C 
ATOM      9  C   UNL     1     167.652 164.722 167.955  1.00  0.00     0.014 C 
ATOM     10  C   UNL     1     168.921 169.271 167.875  1.00  0.00     0.014 C 
ENDROOT
BRANCH   8  11
ATOM     11  O   UNL     1     170.538 166.094 167.933  1.00  0.00    -0.392 OA
ATOM     12  H   UNL     1     170.637 165.722 167.018  1.00  0.00     0.211 HD
ENDBRANCH   8  11
TORSDOF 1
ENDMDL
MODEL 5
REMARK VINA RESULT:    -3.870      1.846      3.169
REMARK INTER + INTRA:          -3.983
REMARK INTER:                  -3.983
REMARK INTRA:                   0.000
REMARK UNBOUND:                 0.000
REMARK SMILES CC1(C)[C@@H]2CC[C@@](C)(C2)[C@@H]1O
REMARK SMILES IDX 1 1 2 2 4 3 5 4 6 5 7 6 9 7 10 8 8 9 3 10 11 11
REMARK H PARENT 11 12
REMARK Flexibility Score: inf
ROOT
ATOM      1  C   UNL     1     167.206 171.157 168.519  1.00  0.00     0.014 C 
ATOM      2  C   UNL     1     166.934 170.035 169.556  1.00  0.00    -0.006 C 
ATOM      3  C   UNL     1     168.144 169.057 169.743  1.00  0.00    -0.002 C 
ATOM      4  C   UNL     1     168.674 168.556 168.382  1.00  0.00     0.005 C 
ATOM      5  C   UNL     1     167.527 167.670 167.876  1.00  0.00     0.010 C 
ATOM      6  C   UNL     1     166.533 167.687 169.061  1.00  0.00    -0.006 C 
ATOM      7  C   UNL     1     167.473 167.791 170.243  1.00  0.00     0.013 C 
ATOM      8  C   UNL     1     165.795 169.052 169.127  1.00  0.00     0.126 C 
ATOM      9  C   UNL     1     165.606 166.467 169.113  1.00  0.00     0.014 C 
ATOM     10  C   UNL     1     166.595 170.726 170.900  1.00  0.00     0.014 C 
ENDROOT
BRANCH   8  11
ATOM     11  O   UNL     1     165.209 169.395 167.897  1.00  0.00    -0.392 OA
ATOM     12  H   UNL     1     165.941 169.729 167.316  1.00  0.00     0.211 HD
ENDBRANCH   8  11
TORSDOF 1
ENDMDL
MODEL 6
REMARK VINA RESULT:    -3.832      0.850      3.293
REMARK INTER + INTRA:          -3.944
REMARK INTER:                  -3.944
REMARK INTRA:                   0.000
REMARK UNBOUND:                 0.000
REMARK SMILES CC1(C)[C@@H]2CC[C@@](C)(C2)[C@@H]1O
REMARK SMILES IDX 1 1 2 2 4 3 5 4 6 5 7 6 9 7 10 8 8 9 3 10 11 11
REMARK H PARENT 11 12
REMARK Flexibility Score: inf
ROOT
ATOM      1  C   UNL     1     170.433 167.943 168.335  1.00  0.00     0.014 C 
ATOM      2  C   UNL     1     169.454 168.382 169.455  1.00  0.00    -0.006 C 
ATOM      3  C   UNL     1     168.211 167.439 169.598  1.00  0.00    -0.002 C 
ATOM      4  C   UNL     1     167.543 167.182 168.230  1.00  0.00     0.005 C 
ATOM      5  C   UNL     1     166.955 168.556 167.875  1.00  0.00     0.010 C 
ATOM      6  C   UNL     1     167.265 169.396 169.136  1.00  0.00    -0.006 C 
ATOM      7  C   UNL     1     167.173 168.351 170.227  1.00  0.00     0.013 C 
ATOM      8  C   UNL     1     168.773 169.765 169.183  1.00  0.00     0.126 C 
ATOM      9  C   UNL     1     166.320 170.586 169.338  1.00  0.00     0.014 C 
ATOM     10  C   UNL     1     170.257 168.409 170.779  1.00  0.00     0.014 C 
ENDROOT
BRANCH   8  11
ATOM     11  O   UNL     1     169.207 170.363 167.987  1.00  0.00    -0.392 OA
ATOM     12  H   UNL     1     169.746 169.682 167.507  1.00  0.00     0.211 HD
ENDBRANCH   8  11
TORSDOF 1
ENDMDL
MODEL 7
REMARK VINA RESULT:    -3.646      1.739      3.164
REMARK INTER + INTRA:          -3.752
REMARK INTER:                  -3.752
REMARK INTRA:                   0.000
REMARK UNBOUND:                 0.000
REMARK SMILES CC1(C)[C@@H]2CC[C@@](C)(C2)[C@@H]1O
REMARK SMILES IDX 1 1 2 2 4 3 5 4 6 5 7 6 9 7 10 8 8 9 3 10 11 11
REMARK H PARENT 11 12
REMARK Flexibility Score: inf
ROOT
ATOM      1  C   UNL     1     168.522 165.799 169.812  1.00  0.00     0.014 C 
ATOM      2  C   UNL     1     168.991 166.978 168.921  1.00  0.00    -0.006 C 
ATOM      3  C   UNL     1     169.681 168.130 169.729  1.00  0.00    -0.002 C 
ATOM      4  C   UNL     1     168.828 168.548 170.947  1.00  0.00     0.005 C 
ATOM      5  C   UNL     1     167.602 169.205 170.294  1.00  0.00     0.010 C 
ATOM      6  C   UNL     1     167.962 169.180 168.790  1.00  0.00    -0.006 C 
ATOM      7  C   UNL     1     169.467 169.338 168.835  1.00  0.00     0.013 C 
ATOM      8  C   UNL     1     167.816 167.741 168.223  1.00  0.00     0.126 C 
ATOM      9  C   UNL     1     167.251 170.256 167.963  1.00  0.00     0.014 C 
ATOM     10  C   UNL     1     169.976 166.399 167.875  1.00  0.00     0.014 C 
ENDROOT
BRANCH   8  11
ATOM     11  O   UNL     1     166.557 167.186 168.510  1.00  0.00    -0.392 OA
ATOM     12  H   UNL     1     166.494 167.119 169.498  1.00  0.00     0.211 HD
ENDBRANCH   8  11
TORSDOF 1
ENDMDL
MODEL 8
REMARK VINA RESULT:    -3.619      1.806      3.810
REMARK INTER + INTRA:          -3.724
REMARK INTER:                  -3.724
REMARK INTRA:                   0.000
REMARK UNBOUND:                 0.000
REMARK SMILES CC1(C)[C@@H]2CC[C@@](C)(C2)[C@@H]1O
REMARK SMILES IDX 1 1 2 2 4 3 5 4 6 5 7 6 9 7 10 8 8 9 3 10 11 11
REMARK H PARENT 11 12
REMARK Flexibility Score: inf
ROOT
ATOM      1  C   UNL     1     168.084 165.585 167.882  1.00  0.00     0.014 C 
ATOM      2  C   UNL     1     167.602 166.328 169.155  1.00  0.00    -0.006 C 
ATOM      3  C   UNL     1     166.041 166.402 169.276  1.00  0.00    -0.002 C 
ATOM      4  C   UNL     1     165.400 166.900 167.963  1.00  0.00     0.005 C 
ATOM      5  C   UNL     1     165.858 168.365 167.896  1.00  0.00     0.010 C 
ATOM      6  C   UNL     1     166.610 168.549 169.235  1.00  0.00    -0.006 C 
ATOM      7  C   UNL     1     165.833 167.626 170.149  1.00  0.00     0.013 C 
ATOM      8  C   UNL     1     167.993 167.843 169.181  1.00  0.00     0.126 C 
ATOM      9  C   UNL     1     166.664 170.001 169.723  1.00  0.00     0.014 C 
ATOM     10  C   UNL     1     168.196 165.580 170.374  1.00  0.00     0.014 C 
ENDROOT
BRANCH   8  11
ATOM     11  O   UNL     1     168.741 168.235 168.057  1.00  0.00    -0.392 OA
ATOM     12  H   UNL     1     169.557 167.671 168.048  1.00  0.00     0.211 HD
ENDBRANCH   8  11
TORSDOF 1
ENDMDL
MODEL 9
REMARK VINA RESULT:    -3.603      1.826      2.877
REMARK INTER + INTRA:          -3.709
REMARK INTER:                  -3.709
REMARK INTRA:                   0.000
REMARK UNBOUND:                 0.000
REMARK SMILES CC1(C)[C@@H]2CC[C@@](C)(C2)[C@@H]1O
REMARK SMILES IDX 1 1 2 2 4 3 5 4 6 5 7 6 9 7 10 8 8 9 3 10 11 11
REMARK H PARENT 11 12
REMARK Flexibility Score: inf
ROOT
ATOM      1  C   UNL     1     165.550 167.078 168.034  1.00  0.00     0.014 C 
ATOM      2  C   UNL     1     166.409 167.514 169.250  1.00  0.00    -0.006 C 
ATOM      3  C   UNL     1     166.492 169.069 169.425  1.00  0.00    -0.002 C 
ATOM      4  C   UNL     1     166.864 169.763 168.098  1.00  0.00     0.005 C 
ATOM      5  C   UNL     1     168.316 169.314 167.875  1.00  0.00     0.010 C 
ATOM      6  C   UNL     1     168.626 168.511 169.160  1.00  0.00    -0.006 C 
ATOM      7  C   UNL     1     167.793 169.248 170.187  1.00  0.00     0.013 C 
ATOM      8  C   UNL     1     167.920 167.129 169.118  1.00  0.00     0.126 C 
ATOM      9  C   UNL     1     170.117 168.445 169.507  1.00  0.00     0.014 C 
ATOM     10  C   UNL     1     165.779 166.869 170.510  1.00  0.00     0.014 C 
ENDROOT
BRANCH   8  11
ATOM     11  O   UNL     1     168.204 166.427 167.934  1.00  0.00    -0.392 OA
ATOM     12  H   UNL     1     168.993 166.868 167.524  1.00  0.00     0.211 HD
ENDBRANCH   8  11
TORSDOF 1
ENDMDL
