MODEL 1
REMARK VINA RESULT:    -3.620      0.000      0.000
REMARK INTER + INTRA:          -4.815
REMARK INTER:                  -4.678
REMARK INTRA:                  -0.137
REMARK UNBOUND:                -0.137
REMARK SMILES CCCCCCC(=O)[O-]
REMARK SMILES IDX 5 1 6 2 7 3 8 4 9 5 4 6 3 7 2 8 1 9
REMARK H PARENT
REMARK Flexibility Score: inf
ROOT
ATOM      1  C   UNL     1       5.370   4.620   8.724  1.00  0.00     0.006 C 
ENDROOT
BRANCH   1   2
ATOM      2  C   UNL     1       4.091   5.452   8.927  1.00  0.00     0.053 C 
BRANCH   2   3
ATOM      3  C   UNL     1       3.068   5.198   7.859  1.00  0.00     0.041 C 
ATOM      4  O   UNL     1       1.843   5.354   8.104  1.00  0.00    -0.550 OA
ATOM      5  O   UNL     1       3.470   4.829   6.581  1.00  0.00    -0.550 OA
ENDBRANCH   2   3
ENDBRANCH   1   2
BRANCH   1   6
ATOM      6  C   UNL     1       6.590   5.445   8.269  1.00  0.00     0.000 C 
BRANCH   6   7
ATOM      7  C   UNL     1       7.867   4.631   7.998  1.00  0.00    -0.000 C 
BRANCH   7   8
ATOM      8  C   UNL     1       8.334   3.824   9.218  1.00  0.00    -0.003 C 
ATOM      9  C   UNL     1       9.841   3.957   9.419  1.00  0.00     0.004 C 
ENDBRANCH   7   8
ENDBRANCH   6   7
ENDBRANCH   1   6
TORSDOF 5
ENDMDL
MODEL 2
REMARK VINA RESULT:    -3.607     13.300     15.461
REMARK INTER + INTRA:          -4.798
REMARK INTER:                  -4.656
REMARK INTRA:                  -0.142
REMARK UNBOUND:                -0.137
REMARK SMILES CCCCCCC(=O)[O-]
REMARK SMILES IDX 5 1 6 2 7 3 8 4 9 5 4 6 3 7 2 8 1 9
REMARK H PARENT
REMARK Flexibility Score: inf
ROOT
ATOM      1  C   UNL     1      -5.467  -4.057   9.025  1.00  0.00     0.006 C 
ENDROOT
BRANCH   1   2
ATOM      2  C   UNL     1      -4.221  -4.881   9.397  1.00  0.00     0.053 C 
BRANCH   2   3
ATOM      3  C   UNL     1      -3.173  -4.849   8.325  1.00  0.00     0.041 C 
ATOM      4  O   UNL     1      -1.999  -5.232   8.574  1.00  0.00    -0.550 OA
ATOM      5  O   UNL     1      -3.501  -4.437   7.040  1.00  0.00    -0.550 OA
ENDBRANCH   2   3
ENDBRANCH   1   2
BRANCH   1   6
ATOM      6  C   UNL     1      -6.712  -4.909   8.710  1.00  0.00     0.000 C 
BRANCH   6   7
ATOM      7  C   UNL     1      -7.965  -4.114   8.306  1.00  0.00    -0.000 C 
BRANCH   7   8
ATOM      8  C   UNL     1      -8.405  -3.105   9.377  1.00  0.00    -0.003 C 
ATOM      9  C   UNL     1      -9.811  -3.417   9.880  1.00  0.00     0.004 C 
ENDBRANCH   7   8
ENDBRANCH   6   7
ENDBRANCH   1   6
TORSDOF 5
ENDMDL
MODEL 3
REMARK VINA RESULT:    -3.600     13.070     14.541
REMARK INTER + INTRA:          -4.789
REMARK INTER:                  -4.646
REMARK INTRA:                  -0.143
REMARK UNBOUND:                -0.137
REMARK SMILES CCCCCCC(=O)[O-]
REMARK SMILES IDX 5 1 6 2 7 3 8 4 9 5 4 6 3 7 2 8 1 9
REMARK H PARENT
REMARK Flexibility Score: inf
ROOT
ATOM      1  C   UNL     1      -5.547  -4.280   8.698  1.00  0.00     0.006 C 
ENDROOT
BRANCH   1   2
ATOM      2  C   UNL     1      -6.803  -5.171   8.671  1.00  0.00     0.053 C 
BRANCH   2   3
ATOM      3  C   UNL     1      -7.459  -5.195   7.323  1.00  0.00     0.041 C 
ATOM      4  O   UNL     1      -7.964  -4.145   6.845  1.00  0.00    -0.550 OA
ATOM      5  O   UNL     1      -7.475  -6.365   6.574  1.00  0.00    -0.550 OA
ENDBRANCH   2   3
ENDBRANCH   1   2
BRANCH   1   6
ATOM      6  C   UNL     1      -4.383  -4.860   9.524  1.00  0.00     0.000 C 
BRANCH   6   7
ATOM      7  C   UNL     1      -3.378  -3.825  10.057  1.00  0.00    -0.000 C 
BRANCH   7   8
ATOM      8  C   UNL     1      -1.967  -4.008   9.480  1.00  0.00    -0.003 C 
ATOM      9  C   UNL     1      -1.914  -5.199   8.526  1.00  0.00     0.004 C 
ENDBRANCH   7   8
ENDBRANCH   6   7
ENDBRANCH   1   6
TORSDOF 5
ENDMDL
MODEL 4
REMARK VINA RESULT:    -3.521      2.917      4.981
REMARK INTER + INTRA:          -4.687
REMARK INTER:                  -4.478
REMARK INTRA:                  -0.209
REMARK UNBOUND:                -0.137
REMARK SMILES CCCCCCC(=O)[O-]
REMARK SMILES IDX 5 1 6 2 7 3 8 4 9 5 4 6 3 7 2 8 1 9
REMARK H PARENT
REMARK Flexibility Score: inf
ROOT
ATOM      1  C   UNL     1       5.627   4.095   8.730  1.00  0.00     0.006 C 
ENDROOT
BRANCH   1   2
ATOM      2  C   UNL     1       6.186   5.474   8.333  1.00  0.00     0.053 C 
BRANCH   2   3
ATOM      3  C   UNL     1       7.328   5.371   7.366  1.00  0.00     0.041 C 
ATOM      4  O   UNL     1       8.126   4.399   7.429  1.00  0.00    -0.550 OA
ATOM      5  O   UNL     1       7.487   6.325   6.369  1.00  0.00    -0.550 OA
ENDBRANCH   2   3
ENDBRANCH   1   2
BRANCH   1   6
ATOM      6  C   UNL     1       4.142   4.115   9.143  1.00  0.00     0.000 C 
BRANCH   6   7
ATOM      7  C   UNL     1       3.468   5.497   9.098  1.00  0.00    -0.000 C 
BRANCH   7   8
ATOM      8  C   UNL     1       2.272   5.550   8.137  1.00  0.00    -0.003 C 
ATOM      9  C   UNL     1       1.612   4.180   8.007  1.00  0.00     0.004 C 
ENDBRANCH   7   8
ENDBRANCH   6   7
ENDBRANCH   1   6
TORSDOF 5
ENDMDL
MODEL 5
REMARK VINA RESULT:    -3.500      2.795      4.424
REMARK INTER + INTRA:          -4.660
REMARK INTER:                  -4.257
REMARK INTRA:                  -0.402
REMARK UNBOUND:                -0.137
REMARK SMILES CCCCCCC(=O)[O-]
REMARK SMILES IDX 5 1 6 2 7 3 8 4 9 5 4 6 3 7 2 8 1 9
REMARK H PARENT
REMARK Flexibility Score: inf
ROOT
ATOM      1  C   UNL     1       8.596   2.820   6.836  1.00  0.00     0.006 C 
ENDROOT
BRANCH   1   2
ATOM      2  C   UNL     1       8.875   3.496   5.481  1.00  0.00     0.053 C 
BRANCH   2   3
ATOM      3  C   UNL     1       7.795   4.462   5.091  1.00  0.00     0.041 C 
ATOM      4  O   UNL     1       6.598   4.079   5.019  1.00  0.00    -0.550 OA
ATOM      5  O   UNL     1       8.105   5.795   4.849  1.00  0.00    -0.550 OA
ENDBRANCH   2   3
ENDBRANCH   1   2
BRANCH   1   6
ATOM      6  C   UNL     1       9.318   3.479   8.028  1.00  0.00     0.000 C 
BRANCH   6   7
ATOM      7  C   UNL     1       8.397   4.118   9.080  1.00  0.00    -0.000 C 
BRANCH   7   8
ATOM      8  C   UNL     1       6.919   4.116   8.664  1.00  0.00    -0.003 C 
ATOM      9  C   UNL     1       6.444   5.525   8.322  1.00  0.00     0.004 C 
ENDBRANCH   7   8
ENDBRANCH   6   7
ENDBRANCH   1   6
TORSDOF 5
ENDMDL
MODEL 6
REMARK VINA RESULT:    -3.488      2.907      4.876
REMARK INTER + INTRA:          -4.645
REMARK INTER:                  -4.512
REMARK INTRA:                  -0.133
REMARK UNBOUND:                -0.137
REMARK SMILES CCCCCCC(=O)[O-]
REMARK SMILES IDX 5 1 6 2 7 3 8 4 9 5 4 6 3 7 2 8 1 9
REMARK H PARENT
REMARK Flexibility Score: inf
ROOT
ATOM      1  C   UNL     1       5.345   4.776   8.219  1.00  0.00     0.006 C 
ENDROOT
BRANCH   1   2
ATOM      2  C   UNL     1       6.754   5.383   8.346  1.00  0.00     0.053 C 
BRANCH   2   3
ATOM      3  C   UNL     1       7.494   5.388   7.041  1.00  0.00     0.041 C 
ATOM      4  O   UNL     1       7.495   6.418   6.317  1.00  0.00    -0.550 OA
ATOM      5  O   UNL     1       8.217   4.270   6.645  1.00  0.00    -0.550 OA
ENDBRANCH   2   3
ENDBRANCH   1   2
BRANCH   1   6
ATOM      6  C   UNL     1       4.281   5.469   9.093  1.00  0.00     0.000 C 
BRANCH   6   7
ATOM      7  C   UNL     1       2.844   5.408   8.548  1.00  0.00    -0.000 C 
BRANCH   7   8
ATOM      8  C   UNL     1       1.915   4.534   9.403  1.00  0.00    -0.003 C 
ATOM      9  C   UNL     1       2.660   3.950  10.600  1.00  0.00     0.004 C 
ENDBRANCH   7   8
ENDBRANCH   6   7
ENDBRANCH   1   6
TORSDOF 5
ENDMDL
MODEL 7
REMARK VINA RESULT:    -3.471     12.941     14.412
REMARK INTER + INTRA:          -4.623
REMARK INTER:                  -4.521
REMARK INTRA:                  -0.102
REMARK UNBOUND:                -0.137
REMARK SMILES CCCCCCC(=O)[O-]
REMARK SMILES IDX 5 1 6 2 7 3 8 4 9 5 4 6 3 7 2 8 1 9
REMARK H PARENT
REMARK Flexibility Score: inf
ROOT
ATOM      1  C   UNL     1      -5.687  -4.224   8.969  1.00  0.00     0.006 C 
ENDROOT
BRANCH   1   2
ATOM      2  C   UNL     1      -6.719  -5.305   8.603  1.00  0.00     0.053 C 
BRANCH   2   3
ATOM      3  C   UNL     1      -7.503  -4.955   7.373  1.00  0.00     0.041 C 
ATOM      4  O   UNL     1      -7.555  -5.757   6.404  1.00  0.00    -0.550 OA
ATOM      5  O   UNL     1      -8.212  -3.762   7.313  1.00  0.00    -0.550 OA
ENDBRANCH   2   3
ENDBRANCH   1   2
BRANCH   1   6
ATOM      6  C   UNL     1      -4.287  -4.778   9.300  1.00  0.00     0.000 C 
BRANCH   6   7
ATOM      7  C   UNL     1      -3.291  -4.784   8.129  1.00  0.00    -0.000 C 
BRANCH   7   8
ATOM      8  C   UNL     1      -1.834  -4.961   8.582  1.00  0.00    -0.003 C 
ATOM      9  C   UNL     1      -1.079  -3.636   8.530  1.00  0.00     0.004 C 
ENDBRANCH   7   8
ENDBRANCH   6   7
ENDBRANCH   1   6
TORSDOF 5
ENDMDL
MODEL 8
REMARK VINA RESULT:    -3.385     15.179     16.296
REMARK INTER + INTRA:          -4.512
REMARK INTER:                  -4.096
REMARK INTRA:                  -0.416
REMARK UNBOUND:                -0.137
REMARK SMILES CCCCCCC(=O)[O-]
REMARK SMILES IDX 5 1 6 2 7 3 8 4 9 5 4 6 3 7 2 8 1 9
REMARK H PARENT
REMARK Flexibility Score: inf
ROOT
ATOM      1  C   UNL     1      -8.630  -2.462   6.880  1.00  0.00     0.006 C 
ENDROOT
BRANCH   1   2
ATOM      2  C   UNL     1      -8.882  -3.398   5.684  1.00  0.00     0.053 C 
BRANCH   2   3
ATOM      3  C   UNL     1      -7.770  -4.385   5.487  1.00  0.00     0.041 C 
ATOM      4  O   UNL     1      -8.016  -5.620   5.467  1.00  0.00    -0.550 OA
ATOM      5  O   UNL     1      -6.470  -3.942   5.283  1.00  0.00    -0.550 OA
ENDBRANCH   2   3
ENDBRANCH   1   2
BRANCH   1   6
ATOM      6  C   UNL     1      -9.290  -2.929   8.192  1.00  0.00     0.000 C 
BRANCH   6   7
ATOM      7  C   UNL     1      -8.356  -3.659   9.172  1.00  0.00    -0.000 C 
BRANCH   7   8
ATOM      8  C   UNL     1      -6.871  -3.364   8.916  1.00  0.00    -0.003 C 
ATOM      9  C   UNL     1      -6.074  -4.656   8.759  1.00  0.00     0.004 C 
ENDBRANCH   7   8
ENDBRANCH   6   7
ENDBRANCH   1   6
TORSDOF 5
ENDMDL
MODEL 9
REMARK VINA RESULT:    -3.356     14.220     15.621
REMARK INTER + INTRA:          -4.474
REMARK INTER:                  -4.160
REMARK INTRA:                  -0.314
REMARK UNBOUND:                -0.137
REMARK SMILES CCCCCCC(=O)[O-]
REMARK SMILES IDX 5 1 6 2 7 3 8 4 9 5 4 6 3 7 2 8 1 9
REMARK H PARENT
REMARK Flexibility Score: inf
ROOT
ATOM      1  C   UNL     1      -7.378  -3.148   7.517  1.00  0.00     0.006 C 
ENDROOT
BRANCH   1   2
ATOM      2  C   UNL     1      -6.961  -3.766   6.169  1.00  0.00     0.053 C 
BRANCH   2   3
ATOM      3  C   UNL     1      -8.035  -4.633   5.581  1.00  0.00     0.041 C 
ATOM      4  O   UNL     1      -9.013  -4.112   4.982  1.00  0.00    -0.550 OA
ATOM      5  O   UNL     1      -7.935  -6.016   5.657  1.00  0.00    -0.550 OA
ENDBRANCH   2   3
ENDBRANCH   1   2
BRANCH   1   6
ATOM      6  C   UNL     1      -7.290  -4.122   8.708  1.00  0.00     0.000 C 
BRANCH   6   7
ATOM      7  C   UNL     1      -6.047  -5.027   8.724  1.00  0.00    -0.000 C 
BRANCH   7   8
ATOM      8  C   UNL     1      -4.810  -4.336   9.315  1.00  0.00    -0.003 C 
ATOM      9  C   UNL     1      -3.549  -4.710   8.540  1.00  0.00     0.004 C 
ENDBRANCH   7   8
ENDBRANCH   6   7
ENDBRANCH   1   6
TORSDOF 5
ENDMDL
