MODEL 1
REMARK VINA RESULT:    -5.785      0.000      0.000
REMARK INTER + INTRA:          -9.532
REMARK INTER:                  -8.491
REMARK INTRA:                  -1.040
REMARK UNBOUND:                -1.040
REMARK SMILES Cc1cc2c(C(C)C)c(O)c(O)c(C=O)c2c(O)c1-c1c(C)cc2c(C(C)C)c(O)c(O)c(C=O)c2c1O
REMARK SMILES IDX 1 1 2 2 3 3 4 4 16 5 13 6 11 7 9 8 5 9 17 10 19 11 20 12
REMARK SMILES IDX 37 13 21 14 36 15 23 16 22 17 24 18 33 19 25 20 31 21 29 22
REMARK SMILES IDX 38 23 34 25 35 26 26 27 27 28 28 29 32 30 30 32 18 34 6 36
REMARK SMILES IDX 7 37 8 38 14 39 15 40 10 41 12 43
REMARK H PARENT 38 24 32 31 30 33 18 35 10 42 12 44
REMARK Flexibility Score: inf
ROOT
ATOM      1  C   UNL     1     -24.245 -25.684  -5.495  1.00  0.00     0.045 C 
ATOM      2  C   UNL     1     -23.853 -24.230  -5.616  1.00  0.00    -0.039 A 
ATOM      3  C   UNL     1     -24.413 -23.454  -6.631  1.00  0.00     0.013 A 
ATOM      4  C   UNL     1     -24.118 -22.080  -6.770  1.00  0.00    -0.006 A 
ATOM      5  C   UNL     1     -23.144 -21.494  -5.904  1.00  0.00     0.039 A 
ATOM      6  C   UNL     1     -22.738 -20.144  -6.139  1.00  0.00     0.072 A 
ATOM      7  C   UNL     1     -23.256 -19.436  -7.244  1.00  0.00     0.169 A 
ATOM      8  C   UNL     1     -24.220 -20.018  -8.072  1.00  0.00     0.162 A 
ATOM      9  C   UNL     1     -24.749 -21.293  -7.782  1.00  0.00     0.008 A 
ATOM     10  C   UNL     1     -22.583 -22.291  -4.858  1.00  0.00     0.132 A 
ATOM     11  C   UNL     1     -22.957 -23.644  -4.709  1.00  0.00     0.031 A 
ENDROOT
BRANCH  11  12
ATOM     12  C   UNL     1     -22.385 -24.464  -3.609  1.00  0.00     0.031 A 
ATOM     13  C   UNL     1     -22.978 -24.443  -2.327  1.00  0.00     0.132 A 
ATOM     14  C   UNL     1     -21.238 -25.239  -3.842  1.00  0.00    -0.039 A 
ATOM     15  C   UNL     1     -22.451 -25.251  -1.271  1.00  0.00     0.039 A 
ATOM     16  C   UNL     1     -20.701 -26.003  -2.805  1.00  0.00     0.013 A 
ATOM     17  C   UNL     1     -20.542 -25.216  -5.181  1.00  0.00     0.045 C 
ATOM     18  C   UNL     1     -21.313 -26.076  -1.534  1.00  0.00    -0.006 A 
ATOM     19  C   UNL     1     -22.995 -25.230   0.049  1.00  0.00     0.072 A 
ATOM     20  C   UNL     1     -20.785 -26.922  -0.512  1.00  0.00     0.008 A 
ATOM     21  C   UNL     1     -22.364 -25.956   1.081  1.00  0.00     0.169 A 
ATOM     22  C   UNL     1     -21.250 -26.755   0.809  1.00  0.00     0.162 A 
BRANCH  13  23
ATOM     23  O   UNL     1     -24.074 -23.604  -2.100  1.00  0.00    -0.507 OA
ATOM     24  H   UNL     1     -24.503 -23.027  -2.813  1.00  0.00     0.293 HD
ENDBRANCH  13  23
BRANCH  19  25
ATOM     25  C   UNL     1     -24.208 -24.458   0.384  1.00  0.00     0.264 C 
ATOM     26  O   UNL     1     -24.119 -23.351   0.980  1.00  0.00    -0.298 OA
ENDBRANCH  19  25
BRANCH  20  27
ATOM     27  C   UNL     1     -19.718 -27.989  -0.814  1.00  0.00     0.017 C 
ATOM     28  C   UNL     1     -20.309 -29.130  -1.650  1.00  0.00     0.012 C 
ATOM     29  C   UNL     1     -18.437 -27.430  -1.461  1.00  0.00     0.012 C 
ENDBRANCH  20  27
BRANCH  21  30
ATOM     30  O   UNL     1     -22.846 -25.931   2.396  1.00  0.00    -0.504 OA
ATOM     31  H   UNL     1     -22.939 -26.748   2.984  1.00  0.00     0.293 HD
ENDBRANCH  21  30
BRANCH  22  32
ATOM     32  O   UNL     1     -20.596 -27.397   1.864  1.00  0.00    -0.504 OA
ATOM     33  H   UNL     1     -19.890 -26.945   2.433  1.00  0.00     0.293 HD
ENDBRANCH  22  32
ENDBRANCH  11  12
BRANCH  10  34
ATOM     34  O   UNL     1     -21.649 -21.743  -3.971  1.00  0.00    -0.507 OA
ATOM     35  H   UNL     1     -21.851 -20.981  -3.336  1.00  0.00     0.293 HD
ENDBRANCH  10  34
BRANCH   9  36
ATOM     36  C   UNL     1     -25.972 -21.805  -8.565  1.00  0.00     0.017 C 
ATOM     37  C   UNL     1     -27.094 -22.228  -7.612  1.00  0.00     0.012 C 
ATOM     38  C   UNL     1     -25.641 -22.924  -9.572  1.00  0.00     0.012 C 
ENDBRANCH   9  36
BRANCH   6  39
ATOM     39  C   UNL     1     -21.768 -19.455  -5.265  1.00  0.00     0.264 C 
ATOM     40  O   UNL     1     -20.535 -19.694  -5.362  1.00  0.00    -0.298 OA
ENDBRANCH   6  39
BRANCH   8  41
ATOM     41  O   UNL     1     -24.661 -19.321  -9.200  1.00  0.00    -0.504 OA
ATOM     42  H   UNL     1     -24.051 -19.066  -9.967  1.00  0.00     0.293 HD
ENDBRANCH   8  41
BRANCH   7  43
ATOM     43  O   UNL     1     -22.855 -18.125  -7.529  1.00  0.00    -0.504 OA
ATOM     44  H   UNL     1     -22.457 -17.490  -6.851  1.00  0.00     0.293 HD
ENDBRANCH   7  43
TORSDOF 11
ENDMDL
MODEL 2
REMARK VINA RESULT:    -5.640      3.743      6.774
REMARK INTER + INTRA:          -9.319
REMARK INTER:                  -7.972
REMARK INTRA:                  -1.347
REMARK UNBOUND:                -1.040
REMARK SMILES Cc1cc2c(C(C)C)c(O)c(O)c(C=O)c2c(O)c1-c1c(C)cc2c(C(C)C)c(O)c(O)c(C=O)c2c1O
REMARK SMILES IDX 1 1 2 2 3 3 4 4 16 5 13 6 11 7 9 8 5 9 17 10 19 11 20 12
REMARK SMILES IDX 37 13 21 14 36 15 23 16 22 17 24 18 33 19 25 20 31 21 29 22
REMARK SMILES IDX 38 23 34 25 35 26 26 27 27 28 28 29 32 30 30 32 18 34 6 36
REMARK SMILES IDX 7 37 8 38 14 39 15 40 10 41 12 43
REMARK H PARENT 38 24 32 31 30 33 18 35 10 42 12 44
REMARK Flexibility Score: inf
ROOT
ATOM      1  C   UNL     1     -21.617 -23.542  -2.511  1.00  0.00     0.045 C 
ATOM      2  C   UNL     1     -22.726 -23.055  -3.413  1.00  0.00    -0.039 A 
ATOM      3  C   UNL     1     -24.049 -23.138  -2.976  1.00  0.00     0.013 A 
ATOM      4  C   UNL     1     -25.125 -22.662  -3.757  1.00  0.00    -0.006 A 
ATOM      5  C   UNL     1     -24.857 -22.171  -5.072  1.00  0.00     0.039 A 
ATOM      6  C   UNL     1     -25.959 -21.826  -5.915  1.00  0.00     0.072 A 
ATOM      7  C   UNL     1     -27.280 -22.028  -5.463  1.00  0.00     0.169 A 
ATOM      8  C   UNL     1     -27.525 -22.495  -4.169  1.00  0.00     0.162 A 
ATOM      9  C   UNL     1     -26.465 -22.704  -3.262  1.00  0.00     0.008 A 
ATOM     10  C   UNL     1     -23.499 -22.077  -5.510  1.00  0.00     0.132 A 
ATOM     11  C   UNL     1     -22.445 -22.499  -4.671  1.00  0.00     0.031 A 
ENDROOT
BRANCH  11  12
ATOM     12  C   UNL     1     -21.034 -22.382  -5.123  1.00  0.00     0.031 A 
ATOM     13  C   UNL     1     -20.315 -21.186  -4.905  1.00  0.00     0.132 A 
ATOM     14  C   UNL     1     -20.426 -23.456  -5.792  1.00  0.00    -0.039 A 
ATOM     15  C   UNL     1     -18.949 -21.076  -5.310  1.00  0.00     0.039 A 
ATOM     16  C   UNL     1     -19.103 -23.342  -6.219  1.00  0.00     0.013 A 
ATOM     17  C   UNL     1     -21.198 -24.715  -6.106  1.00  0.00     0.045 C 
ATOM     18  C   UNL     1     -18.325 -22.196  -5.944  1.00  0.00    -0.006 A 
ATOM     19  C   UNL     1     -18.198 -19.873  -5.144  1.00  0.00     0.072 A 
ATOM     20  C   UNL     1     -16.950 -22.132  -6.329  1.00  0.00     0.008 A 
ATOM     21  C   UNL     1     -16.891 -19.781  -5.669  1.00  0.00     0.169 A 
ATOM     22  C   UNL     1     -16.296 -20.882  -6.290  1.00  0.00     0.162 A 
BRANCH  13  23
ATOM     23  O   UNL     1     -20.967 -20.104  -4.304  1.00  0.00    -0.507 OA
ATOM     24  H   UNL     1     -20.610 -19.602  -3.500  1.00  0.00     0.293 HD
ENDBRANCH  13  23
BRANCH  19  25
ATOM     25  C   UNL     1     -18.748 -18.698  -4.440  1.00  0.00     0.264 C 
ATOM     26  O   UNL     1     -18.411 -18.445  -3.252  1.00  0.00    -0.298 OA
ENDBRANCH  19  25
BRANCH  20  27
ATOM     27  C   UNL     1     -16.181 -23.380  -6.797  1.00  0.00     0.017 C 
ATOM     28  C   UNL     1     -15.925 -23.329  -8.308  1.00  0.00     0.012 C 
ATOM     29  C   UNL     1     -14.877 -23.641  -6.020  1.00  0.00     0.012 C 
ENDBRANCH  20  27
BRANCH  21  30
ATOM     30  O   UNL     1     -16.138 -18.606  -5.558  1.00  0.00    -0.504 OA
ATOM     31  H   UNL     1     -15.311 -18.512  -4.985  1.00  0.00     0.293 HD
ENDBRANCH  21  30
BRANCH  22  32
ATOM     32  O   UNL     1     -15.035 -20.738  -6.873  1.00  0.00    -0.504 OA
ATOM     33  H   UNL     1     -14.238 -20.355  -6.379  1.00  0.00     0.293 HD
ENDBRANCH  22  32
ENDBRANCH  11  12
BRANCH  10  34
ATOM     34  O   UNL     1     -23.196 -21.571  -6.779  1.00  0.00    -0.507 OA
ATOM     35  H   UNL     1     -23.826 -21.614  -7.571  1.00  0.00     0.293 HD
ENDBRANCH  10  34
BRANCH   9  36
ATOM     36  C   UNL     1     -26.775 -22.984  -1.780  1.00  0.00     0.017 C 
ATOM     37  C   UNL     1     -27.484 -24.332  -1.615  1.00  0.00     0.012 C 
ATOM     38  C   UNL     1     -27.556 -21.852  -1.084  1.00  0.00     0.012 C 
ENDBRANCH   9  36
BRANCH   6  39
ATOM     39  C   UNL     1     -25.764 -21.274  -7.271  1.00  0.00     0.264 C 
ATOM     40  O   UNL     1     -25.964 -21.989  -8.288  1.00  0.00    -0.298 OA
ENDBRANCH   6  39
BRANCH   8  41
ATOM     41  O   UNL     1     -28.840 -22.754  -3.774  1.00  0.00    -0.504 OA
ATOM     42  H   UNL     1     -29.277 -22.305  -2.978  1.00  0.00     0.293 HD
ENDBRANCH   8  41
BRANCH   7  43
ATOM     43  O   UNL     1     -28.385 -21.740  -6.273  1.00  0.00    -0.504 OA
ATOM     44  H   UNL     1     -29.292 -22.176  -6.177  1.00  0.00     0.293 HD
ENDBRANCH   7  43
TORSDOF 11
ENDMDL
MODEL 3
REMARK VINA RESULT:    -5.425      3.301      6.783
REMARK INTER + INTRA:          -9.002
REMARK INTER:                  -7.640
REMARK INTRA:                  -1.362
REMARK UNBOUND:                -1.040
REMARK SMILES Cc1cc2c(C(C)C)c(O)c(O)c(C=O)c2c(O)c1-c1c(C)cc2c(C(C)C)c(O)c(O)c(C=O)c2c1O
REMARK SMILES IDX 1 1 2 2 3 3 4 4 16 5 13 6 11 7 9 8 5 9 17 10 19 11 20 12
REMARK SMILES IDX 37 13 21 14 36 15 23 16 22 17 24 18 33 19 25 20 31 21 29 22
REMARK SMILES IDX 38 23 34 25 35 26 26 27 27 28 28 29 32 30 30 32 18 34 6 36
REMARK SMILES IDX 7 37 8 38 14 39 15 40 10 41 12 43
REMARK H PARENT 38 24 32 31 30 33 18 35 10 42 12 44
REMARK Flexibility Score: inf
ROOT
ATOM      1  C   UNL     1     -23.422 -21.799  -6.913  1.00  0.00     0.045 C 
ATOM      2  C   UNL     1     -23.746 -22.224  -5.500  1.00  0.00    -0.039 A 
ATOM      3  C   UNL     1     -25.080 -22.298  -5.097  1.00  0.00     0.013 A 
ATOM      4  C   UNL     1     -25.447 -22.729  -3.803  1.00  0.00    -0.006 A 
ATOM      5  C   UNL     1     -24.417 -23.004  -2.851  1.00  0.00     0.039 A 
ATOM      6  C   UNL     1     -24.788 -23.298  -1.502  1.00  0.00     0.072 A 
ATOM      7  C   UNL     1     -26.146 -23.255  -1.121  1.00  0.00     0.169 A 
ATOM      8  C   UNL     1     -27.142 -22.999  -2.068  1.00  0.00     0.162 A 
ATOM      9  C   UNL     1     -26.822 -22.851  -3.433  1.00  0.00     0.008 A 
ATOM     10  C   UNL     1     -23.053 -22.939  -3.273  1.00  0.00     0.132 A 
ATOM     11  C   UNL     1     -22.729 -22.572  -4.597  1.00  0.00     0.031 A 
ENDROOT
BRANCH  11  12
ATOM     12  C   UNL     1     -21.310 -22.524  -5.037  1.00  0.00     0.031 A 
ATOM     13  C   UNL     1     -20.561 -21.335  -4.889  1.00  0.00     0.132 A 
ATOM     14  C   UNL     1     -20.724 -23.656  -5.624  1.00  0.00    -0.039 A 
ATOM     15  C   UNL     1     -19.187 -21.289  -5.283  1.00  0.00     0.039 A 
ATOM     16  C   UNL     1     -19.394 -23.606  -6.040  1.00  0.00     0.013 A 
ATOM     17  C   UNL     1     -21.527 -24.912  -5.863  1.00  0.00     0.045 C 
ATOM     18  C   UNL     1     -18.587 -22.465  -5.833  1.00  0.00    -0.006 A 
ATOM     19  C   UNL     1     -18.406 -20.099  -5.188  1.00  0.00     0.072 A 
ATOM     20  C   UNL     1     -17.207 -22.464  -6.202  1.00  0.00     0.008 A 
ATOM     21  C   UNL     1     -17.091 -20.077  -5.700  1.00  0.00     0.169 A 
ATOM     22  C   UNL     1     -16.519 -21.233  -6.238  1.00  0.00     0.162 A 
BRANCH  13  23
ATOM     23  O   UNL     1     -21.190 -20.198  -4.371  1.00  0.00    -0.507 OA
ATOM     24  H   UNL     1     -21.277 -20.000  -3.382  1.00  0.00     0.293 HD
ENDBRANCH  13  23
BRANCH  19  25
ATOM     25  C   UNL     1     -18.932 -18.864  -4.571  1.00  0.00     0.264 C 
ATOM     26  O   UNL     1     -18.567 -18.518  -3.416  1.00  0.00    -0.298 OA
ENDBRANCH  19  25
BRANCH  20  27
ATOM     27  C   UNL     1     -16.467 -23.761  -6.575  1.00  0.00     0.017 C 
ATOM     28  C   UNL     1     -16.255 -23.852  -8.091  1.00  0.00     0.012 C 
ATOM     29  C   UNL     1     -15.145 -23.970  -5.814  1.00  0.00     0.012 C 
ENDBRANCH  20  27
BRANCH  21  30
ATOM     30  O   UNL     1     -16.307 -18.917  -5.658  1.00  0.00    -0.504 OA
ATOM     31  H   UNL     1     -15.416 -18.816  -6.125  1.00  0.00     0.293 HD
ENDBRANCH  21  30
BRANCH  22  32
ATOM     32  O   UNL     1     -15.248 -21.162  -6.812  1.00  0.00    -0.504 OA
ATOM     33  H   UNL     1     -14.426 -21.576  -6.389  1.00  0.00     0.293 HD
ENDBRANCH  22  32
ENDBRANCH  11  12
BRANCH  10  34
ATOM     34  O   UNL     1     -22.018 -23.233  -2.377  1.00  0.00    -0.507 OA
ATOM     35  H   UNL     1     -22.095 -23.904  -1.623  1.00  0.00     0.293 HD
ENDBRANCH  10  34
BRANCH   9  36
ATOM     36  C   UNL     1     -27.951 -22.812  -4.479  1.00  0.00     0.017 C 
ATOM     37  C   UNL     1     -28.715 -21.486  -4.409  1.00  0.00     0.012 C 
ATOM     38  C   UNL     1     -28.911 -24.016  -4.404  1.00  0.00     0.012 C 
ENDBRANCH   9  36
BRANCH   6  39
ATOM     39  C   UNL     1     -23.787 -23.632  -0.470  1.00  0.00     0.264 C 
ATOM     40  O   UNL     1     -23.454 -22.783   0.399  1.00  0.00    -0.298 OA
ENDBRANCH   6  39
BRANCH   8  41
ATOM     41  O   UNL     1     -28.471 -22.892  -1.648  1.00  0.00    -0.504 OA
ATOM     42  H   UNL     1     -28.869 -22.034  -1.287  1.00  0.00     0.293 HD
ENDBRANCH   8  41
BRANCH   7  43
ATOM     43  O   UNL     1     -26.546 -23.498   0.198  1.00  0.00    -0.504 OA
ATOM     44  H   UNL     1     -26.017 -23.223   1.015  1.00  0.00     0.293 HD
ENDBRANCH   7  43
TORSDOF 11
ENDMDL
MODEL 4
REMARK VINA RESULT:    -5.410      1.598      8.941
REMARK INTER + INTRA:          -8.980
REMARK INTER:                  -7.708
REMARK INTRA:                  -1.272
REMARK UNBOUND:                -1.040
REMARK SMILES Cc1cc2c(C(C)C)c(O)c(O)c(C=O)c2c(O)c1-c1c(C)cc2c(C(C)C)c(O)c(O)c(C=O)c2c1O
REMARK SMILES IDX 1 1 2 2 3 3 4 4 16 5 13 6 11 7 9 8 5 9 17 10 19 11 20 12
REMARK SMILES IDX 37 13 21 14 36 15 23 16 22 17 24 18 33 19 25 20 31 21 29 22
REMARK SMILES IDX 38 23 34 25 35 26 26 27 27 28 28 29 32 30 30 32 18 34 6 36
REMARK SMILES IDX 7 37 8 38 14 39 15 40 10 41 12 43
REMARK H PARENT 38 24 32 31 30 33 18 35 10 42 12 44
REMARK Flexibility Score: inf
ROOT
ATOM      1  C   UNL     1     -24.785 -23.355  -2.124  1.00  0.00     0.045 C 
ATOM      2  C   UNL     1     -23.585 -24.259  -2.278  1.00  0.00    -0.039 A 
ATOM      3  C   UNL     1     -23.126 -24.980  -1.176  1.00  0.00     0.013 A 
ATOM      4  C   UNL     1     -22.035 -25.872  -1.267  1.00  0.00    -0.006 A 
ATOM      5  C   UNL     1     -21.323 -25.964  -2.503  1.00  0.00     0.039 A 
ATOM      6  C   UNL     1     -20.133 -26.754  -2.554  1.00  0.00     0.072 A 
ATOM      7  C   UNL     1     -19.652 -27.378  -1.383  1.00  0.00     0.169 A 
ATOM      8  C   UNL     1     -20.369 -27.291  -0.187  1.00  0.00     0.162 A 
ATOM      9  C   UNL     1     -21.620 -26.643  -0.138  1.00  0.00     0.008 A 
ATOM     10  C   UNL     1     -21.805 -25.232  -3.633  1.00  0.00     0.132 A 
ATOM     11  C   UNL     1     -22.942 -24.404  -3.518  1.00  0.00     0.031 A 
ENDROOT
BRANCH  11  12
ATOM     12  C   UNL     1     -23.452 -23.660  -4.700  1.00  0.00     0.031 A 
ATOM     13  C   UNL     1     -22.928 -22.387  -5.016  1.00  0.00     0.132 A 
ATOM     14  C   UNL     1     -24.474 -24.216  -5.485  1.00  0.00    -0.039 A 
ATOM     15  C   UNL     1     -23.392 -21.677  -6.167  1.00  0.00     0.039 A 
ATOM     16  C   UNL     1     -24.953 -23.512  -6.590  1.00  0.00     0.013 A 
ATOM     17  C   UNL     1     -25.103 -25.539  -5.121  1.00  0.00     0.045 C 
ATOM     18  C   UNL     1     -24.397 -22.277  -6.989  1.00  0.00    -0.006 A 
ATOM     19  C   UNL     1     -22.919 -20.373  -6.501  1.00  0.00     0.072 A 
ATOM     20  C   UNL     1     -24.856 -21.611  -8.167  1.00  0.00     0.008 A 
ATOM     21  C   UNL     1     -23.496 -19.669  -7.580  1.00  0.00     0.169 A 
ATOM     22  C   UNL     1     -24.480 -20.267  -8.372  1.00  0.00     0.162 A 
BRANCH  13  23
ATOM     23  O   UNL     1     -21.964 -21.822  -4.174  1.00  0.00    -0.507 OA
ATOM     24  H   UNL     1     -22.180 -21.317  -3.323  1.00  0.00     0.293 HD
ENDBRANCH  13  23
BRANCH  19  25
ATOM     25  C   UNL     1     -21.836 -19.715  -5.743  1.00  0.00     0.264 C 
ATOM     26  O   UNL     1     -22.089 -18.759  -4.961  1.00  0.00    -0.298 OA
ENDBRANCH  19  25
BRANCH  20  27
ATOM     27  C   UNL     1     -25.757 -22.315  -9.197  1.00  0.00     0.017 C 
ATOM     28  C   UNL     1     -27.227 -21.937  -8.985  1.00  0.00     0.012 C 
ATOM     29  C   UNL     1     -25.329 -22.093 -10.660  1.00  0.00     0.012 C 
ENDBRANCH  20  27
BRANCH  21  30
ATOM     30  O   UNL     1     -23.084 -18.373  -7.915  1.00  0.00    -0.504 OA
ATOM     31  H   UNL     1     -22.985 -17.618  -7.250  1.00  0.00     0.293 HD
ENDBRANCH  21  30
BRANCH  22  32
ATOM     32  O   UNL     1     -25.092 -19.518  -9.380  1.00  0.00    -0.504 OA
ATOM     33  H   UNL     1     -26.077 -19.285  -9.375  1.00  0.00     0.293 HD
ENDBRANCH  22  32
ENDBRANCH  11  12
BRANCH  10  34
ATOM     34  O   UNL     1     -21.152 -25.322  -4.867  1.00  0.00    -0.507 OA
ATOM     35  H   UNL     1     -20.411 -24.699  -5.163  1.00  0.00     0.293 HD
ENDBRANCH  10  34
BRANCH   9  36
ATOM     36  C   UNL     1     -22.494 -26.770   1.124  1.00  0.00     0.017 C 
ATOM     37  C   UNL     1     -21.733 -26.296   2.366  1.00  0.00     0.012 C 
ATOM     38  C   UNL     1     -23.085 -28.178   1.333  1.00  0.00     0.012 C 
ENDBRANCH   9  36
BRANCH   6  39
ATOM     39  C   UNL     1     -19.364 -26.931  -3.802  1.00  0.00     0.264 C 
ATOM     40  O   UNL     1     -18.295 -26.293  -3.992  1.00  0.00    -0.298 OA
ENDBRANCH   6  39
BRANCH   8  41
ATOM     41  O   UNL     1     -19.833 -27.858   0.973  1.00  0.00    -0.504 OA
ATOM     42  H   UNL     1     -19.892 -28.847   1.183  1.00  0.00     0.293 HD
ENDBRANCH   8  41
BRANCH   7  43
ATOM     43  O   UNL     1     -18.470 -28.128  -1.384  1.00  0.00    -0.504 OA
ATOM     44  H   UNL     1     -18.317 -28.952  -1.950  1.00  0.00     0.293 HD
ENDBRANCH   7  43
TORSDOF 11
ENDMDL
MODEL 5
REMARK VINA RESULT:    -5.382      1.511      2.942
REMARK INTER + INTRA:          -8.940
REMARK INTER:                  -7.732
REMARK INTRA:                  -1.207
REMARK UNBOUND:                -1.040
REMARK SMILES Cc1cc2c(C(C)C)c(O)c(O)c(C=O)c2c(O)c1-c1c(C)cc2c(C(C)C)c(O)c(O)c(C=O)c2c1O
REMARK SMILES IDX 1 1 2 2 3 3 4 4 16 5 13 6 11 7 9 8 5 9 17 10 19 11 20 12
REMARK SMILES IDX 37 13 21 14 36 15 23 16 22 17 24 18 33 19 25 20 31 21 29 22
REMARK SMILES IDX 38 23 34 25 35 26 26 27 27 28 28 29 32 30 30 32 18 34 6 36
REMARK SMILES IDX 7 37 8 38 14 39 15 40 10 41 12 43
REMARK H PARENT 38 24 32 31 30 33 18 35 10 42 12 44
REMARK Flexibility Score: inf
ROOT
ATOM      1  C   UNL     1     -24.478 -25.659  -5.639  1.00  0.00     0.045 C 
ATOM      2  C   UNL     1     -24.059 -24.210  -5.719  1.00  0.00    -0.039 A 
ATOM      3  C   UNL     1     -24.508 -23.427  -6.783  1.00  0.00     0.013 A 
ATOM      4  C   UNL     1     -24.184 -22.056  -6.890  1.00  0.00    -0.006 A 
ATOM      5  C   UNL     1     -23.293 -21.482  -5.932  1.00  0.00     0.039 A 
ATOM      6  C   UNL     1     -22.851 -20.137  -6.123  1.00  0.00     0.072 A 
ATOM      7  C   UNL     1     -23.250 -19.422  -7.272  1.00  0.00     0.169 A 
ATOM      8  C   UNL     1     -24.134 -19.993  -8.192  1.00  0.00     0.162 A 
ATOM      9  C   UNL     1     -24.703 -21.261  -7.957  1.00  0.00     0.008 A 
ATOM     10  C   UNL     1     -22.846 -22.286  -4.837  1.00  0.00     0.132 A 
ATOM     11  C   UNL     1     -23.249 -23.635  -4.727  1.00  0.00     0.031 A 
ENDROOT
BRANCH  11  12
ATOM     12  C   UNL     1     -22.798 -24.462  -3.578  1.00  0.00     0.031 A 
ATOM     13  C   UNL     1     -21.581 -25.175  -3.651  1.00  0.00     0.132 A 
ATOM     14  C   UNL     1     -23.599 -24.554  -2.429  1.00  0.00    -0.039 A 
ATOM     15  C   UNL     1     -21.126 -25.950  -2.538  1.00  0.00     0.039 A 
ATOM     16  C   UNL     1     -23.175 -25.335  -1.354  1.00  0.00     0.013 A 
ATOM     17  C   UNL     1     -24.941 -23.864  -2.358  1.00  0.00     0.045 C 
ATOM     18  C   UNL     1     -21.926 -25.993  -1.354  1.00  0.00    -0.006 A 
ATOM     19  C   UNL     1     -19.922 -26.716  -2.584  1.00  0.00     0.072 A 
ATOM     20  C   UNL     1     -21.482 -26.728  -0.212  1.00  0.00     0.008 A 
ATOM     21  C   UNL     1     -19.581 -27.555  -1.503  1.00  0.00     0.169 A 
ATOM     22  C   UNL     1     -20.374 -27.591  -0.353  1.00  0.00     0.162 A 
BRANCH  13  23
ATOM     23  O   UNL     1     -20.838 -25.128  -4.835  1.00  0.00    -0.507 OA
ATOM     24  H   UNL     1     -21.225 -24.883  -5.738  1.00  0.00     0.293 HD
ENDBRANCH  13  23
BRANCH  19  25
ATOM     25  C   UNL     1     -19.009 -26.671  -3.744  1.00  0.00     0.264 C 
ATOM     26  O   UNL     1     -17.924 -26.033  -3.682  1.00  0.00    -0.298 OA
ENDBRANCH  19  25
BRANCH  20  27
ATOM     27  C   UNL     1     -22.189 -26.614   1.150  1.00  0.00     0.017 C 
ATOM     28  C   UNL     1     -23.146 -27.791   1.369  1.00  0.00     0.012 C 
ATOM     29  C   UNL     1     -21.230 -26.445   2.343  1.00  0.00     0.012 C 
ENDBRANCH  20  27
BRANCH  21  30
ATOM     30  O   UNL     1     -18.428 -28.350  -1.526  1.00  0.00    -0.504 OA
ATOM     31  H   UNL     1     -17.699 -28.275  -2.223  1.00  0.00     0.293 HD
ENDBRANCH  21  30
BRANCH  22  32
ATOM     32  O   UNL     1     -20.059 -28.491   0.667  1.00  0.00    -0.504 OA
ATOM     33  H   UNL     1     -20.510 -29.392   0.768  1.00  0.00     0.293 HD
ENDBRANCH  22  32
ENDBRANCH  11  12
BRANCH  10  34
ATOM     34  O   UNL     1     -21.998 -21.750  -3.861  1.00  0.00    -0.507 OA
ATOM     35  H   UNL     1     -22.233 -21.686  -2.879  1.00  0.00     0.293 HD
ENDBRANCH  10  34
BRANCH   9  36
ATOM     36  C   UNL     1     -25.850 -21.759  -8.857  1.00  0.00     0.017 C 
ATOM     37  C   UNL     1     -27.103 -22.061  -8.029  1.00  0.00     0.012 C 
ATOM     38  C   UNL     1     -25.466 -22.955  -9.750  1.00  0.00     0.012 C 
ENDBRANCH   9  36
BRANCH   6  39
ATOM     39  C   UNL     1     -21.963 -19.459  -5.157  1.00  0.00     0.264 C 
ATOM     40  O   UNL     1     -20.713 -19.486  -5.309  1.00  0.00    -0.298 OA
ENDBRANCH   6  39
BRANCH   8  41
ATOM     41  O   UNL     1     -24.455 -19.290  -9.356  1.00  0.00    -0.504 OA
ATOM     42  H   UNL     1     -24.033 -18.401  -9.600  1.00  0.00     0.293 HD
ENDBRANCH   8  41
BRANCH   7  43
ATOM     43  O   UNL     1     -22.807 -18.116  -7.515  1.00  0.00    -0.504 OA
ATOM     44  H   UNL     1     -22.443 -17.793  -8.401  1.00  0.00     0.293 HD
ENDBRANCH   7  43
TORSDOF 11
ENDMDL
MODEL 6
REMARK VINA RESULT:    -5.302      0.703      8.917
REMARK INTER + INTRA:          -8.822
REMARK INTER:                  -7.582
REMARK INTRA:                  -1.240
REMARK UNBOUND:                -1.040
REMARK SMILES Cc1cc2c(C(C)C)c(O)c(O)c(C=O)c2c(O)c1-c1c(C)cc2c(C(C)C)c(O)c(O)c(C=O)c2c1O
REMARK SMILES IDX 1 1 2 2 3 3 4 4 16 5 13 6 11 7 9 8 5 9 17 10 19 11 20 12
REMARK SMILES IDX 37 13 21 14 36 15 23 16 22 17 24 18 33 19 25 20 31 21 29 22
REMARK SMILES IDX 38 23 34 25 35 26 26 27 27 28 28 29 32 30 30 32 18 34 6 36
REMARK SMILES IDX 7 37 8 38 14 39 15 40 10 41 12 43
REMARK H PARENT 38 24 32 31 30 33 18 35 10 42 12 44
REMARK Flexibility Score: inf
ROOT
ATOM      1  C   UNL     1     -21.374 -26.108  -5.544  1.00  0.00     0.045 C 
ATOM      2  C   UNL     1     -21.760 -25.814  -4.113  1.00  0.00    -0.039 A 
ATOM      3  C   UNL     1     -21.176 -26.552  -3.082  1.00  0.00     0.013 A 
ATOM      4  C   UNL     1     -21.464 -26.296  -1.724  1.00  0.00    -0.006 A 
ATOM      5  C   UNL     1     -22.455 -25.318  -1.402  1.00  0.00     0.039 A 
ATOM      6  C   UNL     1     -22.851 -25.163  -0.038  1.00  0.00     0.072 A 
ATOM      7  C   UNL     1     -22.307 -26.007   0.953  1.00  0.00     0.169 A 
ATOM      8  C   UNL     1     -21.327 -26.948   0.624  1.00  0.00     0.162 A 
ATOM      9  C   UNL     1     -20.808 -27.026  -0.685  1.00  0.00     0.008 A 
ATOM     10  C   UNL     1     -23.041 -24.557  -2.461  1.00  0.00     0.132 A 
ATOM     11  C   UNL     1     -22.674 -24.795  -3.804  1.00  0.00     0.031 A 
ENDROOT
BRANCH  11  12
ATOM     12  C   UNL     1     -23.273 -23.989  -4.900  1.00  0.00     0.031 A 
ATOM     13  C   UNL     1     -22.725 -22.731  -5.236  1.00  0.00     0.132 A 
ATOM     14  C   UNL     1     -24.401 -24.470  -5.582  1.00  0.00    -0.039 A 
ATOM     15  C   UNL     1     -23.276 -21.963  -6.308  1.00  0.00     0.039 A 
ATOM     16  C   UNL     1     -24.963 -23.708  -6.606  1.00  0.00     0.013 A 
ATOM     17  C   UNL     1     -25.052 -25.775  -5.188  1.00  0.00     0.045 C 
ATOM     18  C   UNL     1     -24.394 -22.487  -7.030  1.00  0.00    -0.006 A 
ATOM     19  C   UNL     1     -22.778 -20.671  -6.656  1.00  0.00     0.072 A 
ATOM     20  C   UNL     1     -24.946 -21.761  -8.129  1.00  0.00     0.008 A 
ATOM     21  C   UNL     1     -23.434 -19.906  -7.643  1.00  0.00     0.169 A 
ATOM     22  C   UNL     1     -24.528 -20.430  -8.337  1.00  0.00     0.162 A 
BRANCH  13  23
ATOM     23  O   UNL     1     -21.647 -22.240  -4.491  1.00  0.00    -0.507 OA
ATOM     24  H   UNL     1     -21.492 -22.449  -3.513  1.00  0.00     0.293 HD
ENDBRANCH  13  23
BRANCH  19  25
ATOM     25  C   UNL     1     -21.587 -20.090  -6.004  1.00  0.00     0.264 C 
ATOM     26  O   UNL     1     -21.708 -19.179  -5.142  1.00  0.00    -0.298 OA
ENDBRANCH  19  25
BRANCH  20  27
ATOM     27  C   UNL     1     -25.989 -22.388  -9.072  1.00  0.00     0.017 C 
ATOM     28  C   UNL     1     -27.402 -21.910  -8.719  1.00  0.00     0.012 C 
ATOM     29  C   UNL     1     -25.687 -22.179 -10.568  1.00  0.00     0.012 C 
ENDBRANCH  20  27
BRANCH  21  30
ATOM     30  O   UNL     1     -22.998 -18.620  -7.985  1.00  0.00    -0.504 OA
ATOM     31  H   UNL     1     -22.068 -18.404  -8.318  1.00  0.00     0.293 HD
ENDBRANCH  21  30
BRANCH  22  32
ATOM     32  O   UNL     1     -25.209 -19.620  -9.249  1.00  0.00    -0.504 OA
ATOM     33  H   UNL     1     -24.810 -19.326 -10.133  1.00  0.00     0.293 HD
ENDBRANCH  22  32
ENDBRANCH  11  12
BRANCH  10  34
ATOM     34  O   UNL     1     -23.993 -23.569  -2.183  1.00  0.00    -0.507 OA
ATOM     35  H   UNL     1     -23.763 -22.629  -1.886  1.00  0.00     0.293 HD
ENDBRANCH  10  34
BRANCH   9  36
ATOM     36  C   UNL     1     -19.569 -27.898  -0.962  1.00  0.00     0.017 C 
ATOM     37  C   UNL     1     -18.533 -27.129  -1.788  1.00  0.00     0.012 C 
ATOM     38  C   UNL     1     -19.899 -29.260  -1.603  1.00  0.00     0.012 C 
ENDBRANCH   9  36
BRANCH   6  39
ATOM     39  C   UNL     1     -23.839 -24.148   0.380  1.00  0.00     0.264 C 
ATOM     40  O   UNL     1     -25.020 -24.482   0.663  1.00  0.00    -0.298 OA
ENDBRANCH   6  39
BRANCH   8  41
ATOM     41  O   UNL     1     -20.858 -27.818   1.612  1.00  0.00    -0.504 OA
ATOM     42  H   UNL     1     -20.183 -27.544   2.316  1.00  0.00     0.293 HD
ENDBRANCH   8  41
BRANCH   7  43
ATOM     43  O   UNL     1     -22.698 -25.912   2.293  1.00  0.00    -0.504 OA
ATOM     44  H   UNL     1     -23.570 -26.269   2.660  1.00  0.00     0.293 HD
ENDBRANCH   7  43
TORSDOF 11
ENDMDL
MODEL 7
REMARK VINA RESULT:    -5.112      3.696      7.043
REMARK INTER + INTRA:          -8.543
REMARK INTER:                  -7.317
REMARK INTRA:                  -1.227
REMARK UNBOUND:                -1.040
REMARK SMILES Cc1cc2c(C(C)C)c(O)c(O)c(C=O)c2c(O)c1-c1c(C)cc2c(C(C)C)c(O)c(O)c(C=O)c2c1O
REMARK SMILES IDX 1 1 2 2 3 3 4 4 16 5 13 6 11 7 9 8 5 9 17 10 19 11 20 12
REMARK SMILES IDX 37 13 21 14 36 15 23 16 22 17 24 18 33 19 25 20 31 21 29 22
REMARK SMILES IDX 38 23 34 25 35 26 26 27 27 28 28 29 32 30 30 32 18 34 6 36
REMARK SMILES IDX 7 37 8 38 14 39 15 40 10 41 12 43
REMARK H PARENT 38 24 32 31 30 33 18 35 10 42 12 44
REMARK Flexibility Score: inf
ROOT
ATOM      1  C   UNL     1     -22.138 -25.457  -4.935  1.00  0.00     0.045 C 
ATOM      2  C   UNL     1     -21.318 -24.192  -5.032  1.00  0.00    -0.039 A 
ATOM      3  C   UNL     1     -20.003 -24.263  -5.492  1.00  0.00     0.013 A 
ATOM      4  C   UNL     1     -19.200 -23.111  -5.644  1.00  0.00    -0.006 A 
ATOM      5  C   UNL     1     -19.722 -21.849  -5.222  1.00  0.00     0.039 A 
ATOM      6  C   UNL     1     -18.860 -20.709  -5.239  1.00  0.00     0.072 A 
ATOM      7  C   UNL     1     -17.507 -20.855  -5.614  1.00  0.00     0.169 A 
ATOM      8  C   UNL     1     -17.018 -22.093  -6.038  1.00  0.00     0.162 A 
ATOM      9  C   UNL     1     -17.876 -23.203  -6.173  1.00  0.00     0.008 A 
ATOM     10  C   UNL     1     -21.074 -21.780  -4.763  1.00  0.00     0.132 A 
ATOM     11  C   UNL     1     -21.867 -22.946  -4.692  1.00  0.00     0.031 A 
ENDROOT
BRANCH  11  12
ATOM     12  C   UNL     1     -23.278 -22.866  -4.231  1.00  0.00     0.031 A 
ATOM     13  C   UNL     1     -24.303 -22.526  -5.141  1.00  0.00     0.132 A 
ATOM     14  C   UNL     1     -23.584 -23.105  -2.882  1.00  0.00    -0.039 A 
ATOM     15  C   UNL     1     -25.666 -22.476  -4.712  1.00  0.00     0.039 A 
ATOM     16  C   UNL     1     -24.909 -23.025  -2.452  1.00  0.00     0.013 A 
ATOM     17  C   UNL     1     -22.496 -23.393  -1.876  1.00  0.00     0.045 C 
ATOM     18  C   UNL     1     -25.972 -22.772  -3.347  1.00  0.00    -0.006 A 
ATOM     19  C   UNL     1     -26.728 -22.099  -5.589  1.00  0.00     0.072 A 
ATOM     20  C   UNL     1     -27.328 -22.766  -2.895  1.00  0.00     0.008 A 
ATOM     21  C   UNL     1     -28.038 -21.951  -5.085  1.00  0.00     0.169 A 
ATOM     22  C   UNL     1     -28.321 -22.240  -3.747  1.00  0.00     0.162 A 
BRANCH  13  23
ATOM     23  O   UNL     1     -23.963 -22.219  -6.462  1.00  0.00    -0.507 OA
ATOM     24  H   UNL     1     -24.416 -21.499  -7.012  1.00  0.00     0.293 HD
ENDBRANCH  13  23
BRANCH  19  25
ATOM     25  C   UNL     1     -26.504 -21.844  -7.026  1.00  0.00     0.264 C 
ATOM     26  O   UNL     1     -27.197 -22.432  -7.898  1.00  0.00    -0.298 OA
ENDBRANCH  19  25
BRANCH  20  27
ATOM     27  C   UNL     1     -27.721 -23.301  -1.506  1.00  0.00     0.017 C 
ATOM     28  C   UNL     1     -28.040 -22.148  -0.548  1.00  0.00     0.012 C 
ATOM     29  C   UNL     1     -28.860 -24.337  -1.532  1.00  0.00     0.012 C 
ENDBRANCH  20  27
BRANCH  21  30
ATOM     30  O   UNL     1     -29.098 -21.546  -5.905  1.00  0.00    -0.504 OA
ATOM     31  H   UNL     1     -29.093 -20.709  -6.471  1.00  0.00     0.293 HD
ENDBRANCH  21  30
BRANCH  22  32
ATOM     32  O   UNL     1     -29.607 -22.005  -3.255  1.00  0.00    -0.504 OA
ATOM     33  H   UNL     1     -30.422 -22.519  -3.571  1.00  0.00     0.293 HD
ENDBRANCH  22  32
ENDBRANCH  11  12
BRANCH  10  34
ATOM     34  O   UNL     1     -21.629 -20.556  -4.371  1.00  0.00    -0.507 OA
ATOM     35  H   UNL     1     -22.033 -20.384  -3.459  1.00  0.00     0.293 HD
ENDBRANCH  10  34
BRANCH   9  36
ATOM     36  C   UNL     1     -17.366 -24.480  -6.868  1.00  0.00     0.017 C 
ATOM     37  C   UNL     1     -16.331 -25.199  -5.997  1.00  0.00     0.012 C 
ATOM     38  C   UNL     1     -16.831 -24.240  -8.293  1.00  0.00     0.012 C 
ENDBRANCH   9  36
BRANCH   6  39
ATOM     39  C   UNL     1     -19.334 -19.363  -4.857  1.00  0.00     0.264 C 
ATOM     40  O   UNL     1     -19.026 -18.869  -3.741  1.00  0.00    -0.298 OA
ENDBRANCH   6  39
BRANCH   8  41
ATOM     41  O   UNL     1     -15.658 -22.224  -6.334  1.00  0.00    -0.504 OA
ATOM     42  H   UNL     1     -15.296 -22.231  -7.280  1.00  0.00     0.293 HD
ENDBRANCH   8  41
BRANCH   7  43
ATOM     43  O   UNL     1     -16.623 -19.770  -5.606  1.00  0.00    -0.504 OA
ATOM     44  H   UNL     1     -16.901 -18.806  -5.729  1.00  0.00     0.293 HD
ENDBRANCH   7  43
TORSDOF 11
ENDMDL
MODEL 8
REMARK VINA RESULT:    -5.106      3.172      6.256
REMARK INTER + INTRA:          -8.534
REMARK INTER:                  -7.335
REMARK INTRA:                  -1.200
REMARK UNBOUND:                -1.040
REMARK SMILES Cc1cc2c(C(C)C)c(O)c(O)c(C=O)c2c(O)c1-c1c(C)cc2c(C(C)C)c(O)c(O)c(C=O)c2c1O
REMARK SMILES IDX 1 1 2 2 3 3 4 4 16 5 13 6 11 7 9 8 5 9 17 10 19 11 20 12
REMARK SMILES IDX 37 13 21 14 36 15 23 16 22 17 24 18 33 19 25 20 31 21 29 22
REMARK SMILES IDX 38 23 34 25 35 26 26 27 27 28 28 29 32 30 30 32 18 34 6 36
REMARK SMILES IDX 7 37 8 38 14 39 15 40 10 41 12 43
REMARK H PARENT 38 24 32 31 30 33 18 35 10 42 12 44
REMARK Flexibility Score: inf
ROOT
ATOM      1  C   UNL     1     -21.807 -25.543  -4.783  1.00  0.00     0.045 C 
ATOM      2  C   UNL     1     -21.061 -24.236  -4.915  1.00  0.00    -0.039 A 
ATOM      3  C   UNL     1     -19.748 -24.244  -5.387  1.00  0.00     0.013 A 
ATOM      4  C   UNL     1     -19.013 -23.052  -5.572  1.00  0.00    -0.006 A 
ATOM      5  C   UNL     1     -19.601 -21.812  -5.171  1.00  0.00     0.039 A 
ATOM      6  C   UNL     1     -18.805 -20.626  -5.221  1.00  0.00     0.072 A 
ATOM      7  C   UNL     1     -17.450 -20.704  -5.605  1.00  0.00     0.169 A 
ATOM      8  C   UNL     1     -16.895 -21.922  -6.009  1.00  0.00     0.162 A 
ATOM      9  C   UNL     1     -17.691 -23.081  -6.112  1.00  0.00     0.008 A 
ATOM     10  C   UNL     1     -20.951 -21.809  -4.699  1.00  0.00     0.132 A 
ATOM     11  C   UNL     1     -21.676 -23.016  -4.596  1.00  0.00     0.031 A 
ENDROOT
BRANCH  11  12
ATOM     12  C   UNL     1     -23.085 -23.006  -4.122  1.00  0.00     0.031 A 
ATOM     13  C   UNL     1     -23.370 -23.037  -2.739  1.00  0.00     0.132 A 
ATOM     14  C   UNL     1     -24.133 -22.993  -5.056  1.00  0.00    -0.039 A 
ATOM     15  C   UNL     1     -24.722 -22.999  -2.276  1.00  0.00     0.039 A 
ATOM     16  C   UNL     1     -25.454 -22.989  -4.609  1.00  0.00     0.013 A 
ATOM     17  C   UNL     1     -23.854 -23.038  -6.540  1.00  0.00     0.045 C 
ATOM     18  C   UNL     1     -25.779 -22.933  -3.236  1.00  0.00    -0.006 A 
ATOM     19  C   UNL     1     -25.055 -23.068  -0.889  1.00  0.00     0.072 A 
ATOM     20  C   UNL     1     -27.140 -22.857  -2.805  1.00  0.00     0.008 A 
ATOM     21  C   UNL     1     -26.407 -23.146  -0.493  1.00  0.00     0.169 A 
ATOM     22  C   UNL     1     -27.430 -23.084  -1.443  1.00  0.00     0.162 A 
BRANCH  13  23
ATOM     23  O   UNL     1     -22.309 -23.127  -1.831  1.00  0.00    -0.507 OA
ATOM     24  H   UNL     1     -21.797 -22.328  -1.478  1.00  0.00     0.293 HD
ENDBRANCH  13  23
BRANCH  19  25
ATOM     25  C   UNL     1     -24.021 -23.070   0.165  1.00  0.00     0.264 C 
ATOM     26  O   UNL     1     -23.554 -21.987   0.609  1.00  0.00    -0.298 OA
ENDBRANCH  19  25
BRANCH  20  27
ATOM     27  C   UNL     1     -28.284 -22.552  -3.787  1.00  0.00     0.017 C 
ATOM     28  C   UNL     1     -28.171 -21.124  -4.331  1.00  0.00     0.012 C 
ATOM     29  C   UNL     1     -28.419 -23.576  -4.930  1.00  0.00     0.012 C 
ENDBRANCH  20  27
BRANCH  21  30
ATOM     30  O   UNL     1     -26.771 -23.252   0.855  1.00  0.00    -0.504 OA
ATOM     31  H   UNL     1     -27.340 -23.997   1.234  1.00  0.00     0.293 HD
ENDBRANCH  21  30
BRANCH  22  32
ATOM     32  O   UNL     1     -28.755 -23.247  -1.031  1.00  0.00    -0.504 OA
ATOM     33  H   UNL     1     -29.496 -22.608  -1.291  1.00  0.00     0.293 HD
ENDBRANCH  22  32
ENDBRANCH  11  12
BRANCH  10  34
ATOM     34  O   UNL     1     -21.570 -20.610  -4.327  1.00  0.00    -0.507 OA
ATOM     35  H   UNL     1     -21.103 -19.862  -3.830  1.00  0.00     0.293 HD
ENDBRANCH  10  34
BRANCH   9  36
ATOM     36  C   UNL     1     -17.116 -24.342  -6.785  1.00  0.00     0.017 C 
ATOM     37  C   UNL     1     -16.010 -24.963  -5.926  1.00  0.00     0.012 C 
ATOM     38  C   UNL     1     -16.639 -24.111  -8.232  1.00  0.00     0.012 C 
ENDBRANCH   9  36
BRANCH   6  39
ATOM     39  C   UNL     1     -19.350 -19.302  -4.862  1.00  0.00     0.264 C 
ATOM     40  O   UNL     1     -19.047 -18.759  -3.766  1.00  0.00    -0.298 OA
ENDBRANCH   6  39
BRANCH   8  41
ATOM     41  O   UNL     1     -15.533 -21.983  -6.315  1.00  0.00    -0.504 OA
ATOM     42  H   UNL     1     -14.960 -22.797  -6.129  1.00  0.00     0.293 HD
ENDBRANCH   8  41
BRANCH   7  43
ATOM     43  O   UNL     1     -16.627 -19.572  -5.629  1.00  0.00    -0.504 OA
ATOM     44  H   UNL     1     -16.155 -19.226  -6.454  1.00  0.00     0.293 HD
ENDBRANCH   7  43
TORSDOF 11
ENDMDL
MODEL 9
REMARK VINA RESULT:    -5.033      2.392      9.225
REMARK INTER + INTRA:          -8.428
REMARK INTER:                  -7.080
REMARK INTRA:                  -1.347
REMARK UNBOUND:                -1.040
REMARK SMILES Cc1cc2c(C(C)C)c(O)c(O)c(C=O)c2c(O)c1-c1c(C)cc2c(C(C)C)c(O)c(O)c(C=O)c2c1O
REMARK SMILES IDX 1 1 2 2 3 3 4 4 16 5 13 6 11 7 9 8 5 9 17 10 19 11 20 12
REMARK SMILES IDX 37 13 21 14 36 15 23 16 22 17 24 18 33 19 25 20 31 21 29 22
REMARK SMILES IDX 38 23 34 25 35 26 26 27 27 28 28 29 32 30 30 32 18 34 6 36
REMARK SMILES IDX 7 37 8 38 14 39 15 40 10 41 12 43
REMARK H PARENT 38 24 32 31 30 33 18 35 10 42 12 44
REMARK Flexibility Score: inf
ROOT
ATOM      1  C   UNL     1     -24.018 -22.603  -0.143  1.00  0.00     0.045 C 
ATOM      2  C   UNL     1     -23.595 -24.048  -0.268  1.00  0.00    -0.039 A 
ATOM      3  C   UNL     1     -23.494 -24.833   0.881  1.00  0.00     0.013 A 
ATOM      4  C   UNL     1     -23.145 -26.200   0.825  1.00  0.00    -0.006 A 
ATOM      5  C   UNL     1     -22.791 -26.769  -0.437  1.00  0.00     0.039 A 
ATOM      6  C   UNL     1     -22.297 -28.109  -0.474  1.00  0.00     0.072 A 
ATOM      7  C   UNL     1     -22.114 -28.824   0.729  1.00  0.00     0.169 A 
ATOM      8  C   UNL     1     -22.479 -28.259   1.953  1.00  0.00     0.162 A 
ATOM      9  C   UNL     1     -23.105 -26.997   2.011  1.00  0.00     0.008 A 
ATOM     10  C   UNL     1     -22.908 -25.963  -1.614  1.00  0.00     0.132 A 
ATOM     11  C   UNL     1     -23.329 -24.619  -1.522  1.00  0.00     0.031 A 
ENDROOT
BRANCH  11  12
ATOM     12  C   UNL     1     -23.468 -23.791  -2.749  1.00  0.00     0.031 A 
ATOM     13  C   UNL     1     -24.718 -23.688  -3.398  1.00  0.00     0.132 A 
ATOM     14  C   UNL     1     -22.344 -23.134  -3.276  1.00  0.00    -0.039 A 
ATOM     15  C   UNL     1     -24.866 -22.870  -4.562  1.00  0.00     0.039 A 
ATOM     16  C   UNL     1     -22.477 -22.363  -4.431  1.00  0.00     0.013 A 
ATOM     17  C   UNL     1     -20.982 -23.294  -2.645  1.00  0.00     0.045 C 
ATOM     18  C   UNL     1     -23.726 -22.165  -5.059  1.00  0.00    -0.006 A 
ATOM     19  C   UNL     1     -26.101 -22.768  -5.270  1.00  0.00     0.072 A 
ATOM     20  C   UNL     1     -23.848 -21.311  -6.199  1.00  0.00     0.008 A 
ATOM     21  C   UNL     1     -26.161 -22.043  -6.479  1.00  0.00     0.169 A 
ATOM     22  C   UNL     1     -25.038 -21.361  -6.955  1.00  0.00     0.162 A 
BRANCH  13  23
ATOM     23  O   UNL     1     -25.804 -24.413  -2.896  1.00  0.00    -0.507 OA
ATOM     24  H   UNL     1     -25.860 -25.424  -2.898  1.00  0.00     0.293 HD
ENDBRANCH  13  23
BRANCH  19  25
ATOM     25  C   UNL     1     -27.338 -23.411  -4.784  1.00  0.00     0.264 C 
ATOM     26  O   UNL     1     -27.786 -24.447  -5.345  1.00  0.00    -0.298 OA
ENDBRANCH  19  25
BRANCH  20  27
ATOM     27  C   UNL     1     -22.715 -20.360  -6.624  1.00  0.00     0.017 C 
ATOM     28  C   UNL     1     -22.097 -20.808  -7.953  1.00  0.00     0.012 C 
ATOM     29  C   UNL     1     -23.125 -18.876  -6.671  1.00  0.00     0.012 C 
ENDBRANCH  20  27
BRANCH  21  30
ATOM     30  O   UNL     1     -27.345 -21.951  -7.221  1.00  0.00    -0.504 OA
ATOM     31  H   UNL     1     -27.402 -22.089  -8.221  1.00  0.00     0.293 HD
ENDBRANCH  21  30
BRANCH  22  32
ATOM     32  O   UNL     1     -25.102 -20.721  -8.195  1.00  0.00    -0.504 OA
ATOM     33  H   UNL     1     -25.922 -20.219  -8.516  1.00  0.00     0.293 HD
ENDBRANCH  22  32
ENDBRANCH  11  12
BRANCH  10  34
ATOM     34  O   UNL     1     -22.601 -26.495  -2.871  1.00  0.00    -0.507 OA
ATOM     35  H   UNL     1     -23.152 -27.206  -3.336  1.00  0.00     0.293 HD
ENDBRANCH  10  34
BRANCH   9  36
ATOM     36  C   UNL     1     -23.711 -26.507   3.339  1.00  0.00     0.017 C 
ATOM     37  C   UNL     1     -22.612 -26.178   4.354  1.00  0.00     0.012 C 
ATOM     38  C   UNL     1     -24.756 -27.470   3.937  1.00  0.00     0.012 C 
ENDBRANCH   9  36
BRANCH   6  39
ATOM     39  C   UNL     1     -21.949 -28.781  -1.742  1.00  0.00     0.264 C 
ATOM     40  O   UNL     1     -22.698 -29.673  -2.221  1.00  0.00    -0.298 OA
ENDBRANCH   6  39
BRANCH   8  41
ATOM     41  O   UNL     1     -22.219 -28.961   3.133  1.00  0.00    -0.504 OA
ATOM     42  H   UNL     1     -22.673 -29.836   3.368  1.00  0.00     0.293 HD
ENDBRANCH   8  41
BRANCH   7  43
ATOM     43  O   UNL     1     -21.596 -30.125   0.737  1.00  0.00    -0.504 OA
ATOM     44  H   UNL     1     -20.817 -30.432   0.172  1.00  0.00     0.293 HD
ENDBRANCH   7  43
TORSDOF 11
ENDMDL
