MODEL 1
REMARK VINA RESULT:     3.149      0.000      0.000
REMARK INTER + INTRA:           3.699
REMARK INTER:                   3.425
REMARK INTRA:                   0.274
REMARK UNBOUND:                 0.274
REMARK SMILES CC(=O)[C@H]1CC[C@@H]2[C@@H]3CC=C4C[C@@H](O)CC[C@]4(C)[C@@H]3CC[C@]12C
REMARK SMILES IDX 4 1 5 2 6 3 7 4 22 5 21 6 20 7 19 8 8 9 9 10 10 11 11 12
REMARK SMILES IDX 17 13 16 14 15 15 13 16 12 17 18 18 23 19 2 20 1 21 3 22
REMARK SMILES IDX 14 23
REMARK H PARENT 14 24
REMARK Flexibility Score: inf
ROOT
ATOM      1  C   UNL     1      -4.388  27.768  29.098  1.00  0.00     0.062 C 
ATOM      2  C   UNL     1      -5.154  28.578  30.141  1.00  0.00     0.012 C 
ATOM      3  C   UNL     1      -4.338  29.840  30.358  1.00  0.00     0.005 C 
ATOM      4  C   UNL     1      -3.633  30.135  29.021  1.00  0.00    -0.001 C 
ATOM      5  C   UNL     1      -3.725  28.832  28.158  1.00  0.00    -0.020 C 
ATOM      6  C   UNL     1      -4.635  29.037  26.917  1.00  0.00     0.008 C 
ATOM      7  C   UNL     1      -4.273  30.264  26.058  1.00  0.00     0.005 C 
ATOM      8  C   UNL     1      -3.649  31.466  26.836  1.00  0.00     0.003 C 
ATOM      9  C   UNL     1      -4.104  31.454  28.314  1.00  0.00     0.000 C 
ATOM     10  C   UNL     1      -5.614  31.797  28.435  1.00  0.00     0.031 C 
ATOM     11  C   UNL     1      -6.124  32.786  27.411  1.00  0.00    -0.027 C 
ATOM     12  C   UNL     1      -5.420  33.218  26.339  1.00  0.00    -0.065 C 
ATOM     13  C   UNL     1      -3.944  32.860  26.164  1.00  0.00    -0.008 C 
ATOM     14  C   UNL     1      -3.556  32.826  24.645  1.00  0.00     0.014 C 
ATOM     15  C   UNL     1      -4.122  34.000  23.832  1.00  0.00     0.033 C 
ATOM     16  C   UNL     1      -5.643  34.078  23.981  1.00  0.00     0.118 C 
ATOM     17  C   UNL     1      -6.030  34.283  25.451  1.00  0.00     0.063 C 
ATOM     18  C   UNL     1      -3.095  33.969  26.848  1.00  0.00     0.016 C 
ATOM     19  C   UNL     1      -2.322  28.382  27.656  1.00  0.00     0.012 C 
ENDROOT
BRANCH   1  20
ATOM     20  C   UNL     1      -3.412  26.818  29.783  1.00  0.00     0.133 C 
ATOM     21  C   UNL     1      -2.427  27.317  30.799  1.00  0.00     0.088 C 
ATOM     22  O   UNL     1      -3.418  25.626  29.509  1.00  0.00    -0.300 OA
ENDBRANCH   1  20
BRANCH  16  23
ATOM     23  O   UNL     1      -6.125  35.146  23.208  1.00  0.00    -0.393 OA
ATOM     24  H   UNL     1      -6.124  35.947  23.794  1.00  0.00     0.210 HD
ENDBRANCH  16  23
TORSDOF 2
ENDMDL
MODEL 2
REMARK VINA RESULT:     3.699      1.396      7.006
REMARK INTER + INTRA:           4.297
REMARK INTER:                   3.914
REMARK INTRA:                   0.383
REMARK UNBOUND:                 0.274
REMARK SMILES CC(=O)[C@H]1CC[C@@H]2[C@@H]3CC=C4C[C@@H](O)CC[C@]4(C)[C@@H]3CC[C@]12C
REMARK SMILES IDX 4 1 5 2 6 3 7 4 22 5 21 6 20 7 19 8 8 9 9 10 10 11 11 12
REMARK SMILES IDX 17 13 16 14 15 15 13 16 12 17 18 18 23 19 2 20 1 21 3 22
REMARK SMILES IDX 14 23
REMARK H PARENT 14 24
REMARK Flexibility Score: inf
ROOT
ATOM      1  C   UNL     1      -4.976  33.386  25.421  1.00  0.00     0.062 C 
ATOM      2  C   UNL     1      -3.511  33.209  25.027  1.00  0.00     0.012 C 
ATOM      3  C   UNL     1      -2.736  33.184  26.332  1.00  0.00     0.005 C 
ATOM      4  C   UNL     1      -3.683  32.581  27.386  1.00  0.00    -0.001 C 
ATOM      5  C   UNL     1      -5.128  32.628  26.783  1.00  0.00    -0.020 C 
ATOM      6  C   UNL     1      -5.670  31.200  26.501  1.00  0.00     0.008 C 
ATOM      7  C   UNL     1      -5.585  30.238  27.702  1.00  0.00     0.005 C 
ATOM      8  C   UNL     1      -4.398  30.494  28.683  1.00  0.00     0.003 C 
ATOM      9  C   UNL     1      -3.227  31.190  27.951  1.00  0.00     0.000 C 
ATOM     10  C   UNL     1      -2.549  30.226  26.940  1.00  0.00     0.031 C 
ATOM     11  C   UNL     1      -2.525  28.775  27.365  1.00  0.00    -0.027 C 
ATOM     12  C   UNL     1      -3.191  28.273  28.430  1.00  0.00    -0.065 C 
ATOM     13  C   UNL     1      -3.909  29.190  29.421  1.00  0.00    -0.008 C 
ATOM     14  C   UNL     1      -5.123  28.452  30.083  1.00  0.00     0.014 C 
ATOM     15  C   UNL     1      -4.813  27.012  30.518  1.00  0.00     0.033 C 
ATOM     16  C   UNL     1      -4.284  26.192  29.338  1.00  0.00     0.118 C 
ATOM     17  C   UNL     1      -2.996  26.813  28.787  1.00  0.00     0.063 C 
ATOM     18  C   UNL     1      -2.904  29.562  30.547  1.00  0.00     0.016 C 
ATOM     19  C   UNL     1      -6.124  33.337  27.745  1.00  0.00     0.012 C 
ENDROOT
BRANCH   1  20
ATOM     20  C   UNL     1      -5.333  34.867  25.466  1.00  0.00     0.133 C 
ATOM     21  C   UNL     1      -6.106  35.513  24.354  1.00  0.00     0.088 C 
ATOM     22  O   UNL     1      -4.989  35.556  26.416  1.00  0.00    -0.300 OA
ENDBRANCH   1  20
BRANCH  16  23
ATOM     23  O   UNL     1      -4.035  24.880  29.768  1.00  0.00    -0.393 OA
ATOM     24  H   UNL     1      -4.041  24.896  30.760  1.00  0.00     0.210 HD
ENDBRANCH  16  23
TORSDOF 2
ENDMDL
MODEL 3
REMARK VINA RESULT:     4.372      1.380      2.298
REMARK INTER + INTRA:           5.029
REMARK INTER:                   4.798
REMARK INTRA:                   0.231
REMARK UNBOUND:                 0.274
REMARK SMILES CC(=O)[C@H]1CC[C@@H]2[C@@H]3CC=C4C[C@@H](O)CC[C@]4(C)[C@@H]3CC[C@]12C
REMARK SMILES IDX 4 1 5 2 6 3 7 4 22 5 21 6 20 7 19 8 8 9 9 10 10 11 11 12
REMARK SMILES IDX 17 13 16 14 15 15 13 16 12 17 18 18 23 19 2 20 1 21 3 22
REMARK SMILES IDX 14 23
REMARK H PARENT 14 24
REMARK Flexibility Score: inf
ROOT
ATOM      1  C   UNL     1      -4.569  28.800  30.066  1.00  0.00     0.062 C 
ATOM      2  C   UNL     1      -3.112  29.226  30.239  1.00  0.00     0.012 C 
ATOM      3  C   UNL     1      -2.532  29.273  28.837  1.00  0.00     0.005 C 
ATOM      4  C   UNL     1      -3.695  29.648  27.899  1.00  0.00    -0.001 C 
ATOM      5  C   UNL     1      -5.020  29.425  28.703  1.00  0.00    -0.020 C 
ATOM      6  C   UNL     1      -5.743  30.770  28.986  1.00  0.00     0.008 C 
ATOM      7  C   UNL     1      -5.974  31.644  27.738  1.00  0.00     0.005 C 
ATOM      8  C   UNL     1      -4.901  31.501  26.612  1.00  0.00     0.003 C 
ATOM      9  C   UNL     1      -3.547  31.046  27.204  1.00  0.00     0.000 C 
ATOM     10  C   UNL     1      -2.905  32.174  28.059  1.00  0.00     0.031 C 
ATOM     11  C   UNL     1      -3.172  33.576  27.561  1.00  0.00    -0.027 C 
ATOM     12  C   UNL     1      -4.045  33.892  26.578  1.00  0.00    -0.065 C 
ATOM     13  C   UNL     1      -4.731  32.807  25.747  1.00  0.00    -0.008 C 
ATOM     14  C   UNL     1      -6.125  33.302  25.227  1.00  0.00     0.014 C 
ATOM     15  C   UNL     1      -6.111  34.737  24.680  1.00  0.00     0.033 C 
ATOM     16  C   UNL     1      -5.569  35.711  25.729  1.00  0.00     0.118 C 
ATOM     17  C   UNL     1      -4.136  35.335  26.123  1.00  0.00     0.063 C 
ATOM     18  C   UNL     1      -3.838  32.511  24.509  1.00  0.00     0.016 C 
ATOM     19  C   UNL     1      -6.008  28.504  27.930  1.00  0.00     0.012 C 
ENDROOT
BRANCH   1  20
ATOM     20  C   UNL     1      -4.686  27.282  30.148  1.00  0.00     0.133 C 
ATOM     21  C   UNL     1      -3.525  26.394  29.807  1.00  0.00     0.088 C 
ATOM     22  O   UNL     1      -5.738  26.763  30.493  1.00  0.00    -0.300 OA
ENDBRANCH   1  20
BRANCH  16  23
ATOM     23  O   UNL     1      -5.593  37.011  25.202  1.00  0.00    -0.393 OA
ATOM     24  H   UNL     1      -5.490  37.634  25.968  1.00  0.00     0.210 HD
ENDBRANCH  16  23
TORSDOF 2
ENDMDL
MODEL 4
REMARK VINA RESULT:     4.688      1.070      1.116
REMARK INTER + INTRA:           5.373
REMARK INTER:                   4.534
REMARK INTRA:                   0.839
REMARK UNBOUND:                 0.274
REMARK SMILES CC(=O)[C@H]1CC[C@@H]2[C@@H]3CC=C4C[C@@H](O)CC[C@]4(C)[C@@H]3CC[C@]12C
REMARK SMILES IDX 4 1 5 2 6 3 7 4 22 5 21 6 20 7 19 8 8 9 9 10 10 11 11 12
REMARK SMILES IDX 17 13 16 14 15 15 13 16 12 17 18 18 23 19 2 20 1 21 3 22
REMARK SMILES IDX 14 23
REMARK H PARENT 14 24
REMARK Flexibility Score: inf
ROOT
ATOM      1  C   UNL     1      -3.304  27.317  29.321  1.00  0.00     0.062 C 
ATOM      2  C   UNL     1      -4.528  27.756  30.122  1.00  0.00     0.012 C 
ATOM      3  C   UNL     1      -4.256  29.193  30.529  1.00  0.00     0.005 C 
ATOM      4  C   UNL     1      -3.380  29.799  29.417  1.00  0.00    -0.001 C 
ATOM      5  C   UNL     1      -2.818  28.605  28.574  1.00  0.00    -0.020 C 
ATOM      6  C   UNL     1      -3.408  28.600  27.138  1.00  0.00     0.008 C 
ATOM      7  C   UNL     1      -3.271  29.940  26.389  1.00  0.00     0.005 C 
ATOM      8  C   UNL     1      -3.292  31.216  27.288  1.00  0.00     0.003 C 
ATOM      9  C   UNL     1      -4.069  30.946  28.598  1.00  0.00     0.000 C 
ATOM     10  C   UNL     1      -5.588  30.775  28.320  1.00  0.00     0.031 C 
ATOM     11  C   UNL     1      -6.125  31.622  27.188  1.00  0.00    -0.027 C 
ATOM     12  C   UNL     1      -5.361  32.337  26.332  1.00  0.00    -0.065 C 
ATOM     13  C   UNL     1      -3.855  32.488  26.548  1.00  0.00    -0.008 C 
ATOM     14  C   UNL     1      -3.115  32.696  25.182  1.00  0.00     0.014 C 
ATOM     15  C   UNL     1      -3.816  33.683  24.238  1.00  0.00     0.033 C 
ATOM     16  C   UNL     1      -5.265  33.256  23.987  1.00  0.00     0.118 C 
ATOM     17  C   UNL     1      -6.049  33.214  25.304  1.00  0.00     0.063 C 
ATOM     18  C   UNL     1      -3.618  33.756  27.417  1.00  0.00     0.016 C 
ATOM     19  C   UNL     1      -1.268  28.670  28.456  1.00  0.00     0.012 C 
ENDROOT
BRANCH   1  20
ATOM     20  C   UNL     1      -2.271  26.682  30.246  1.00  0.00     0.133 C 
ATOM     21  C   UNL     1      -0.875  26.398  29.772  1.00  0.00     0.088 C 
ATOM     22  O   UNL     1      -2.569  26.390  31.395  1.00  0.00    -0.300 OA
ENDBRANCH   1  20
BRANCH  16  23
ATOM     23  O   UNL     1      -5.864  34.168  23.105  1.00  0.00    -0.393 OA
ATOM     24  H   UNL     1      -5.340  35.008  23.160  1.00  0.00     0.210 HD
ENDBRANCH  16  23
TORSDOF 2
ENDMDL
MODEL 5
REMARK VINA RESULT:     5.163      1.687      6.990
REMARK INTER + INTRA:           5.889
REMARK INTER:                   5.237
REMARK INTRA:                   0.652
REMARK UNBOUND:                 0.274
REMARK SMILES CC(=O)[C@H]1CC[C@@H]2[C@@H]3CC=C4C[C@@H](O)CC[C@]4(C)[C@@H]3CC[C@]12C
REMARK SMILES IDX 4 1 5 2 6 3 7 4 22 5 21 6 20 7 19 8 8 9 9 10 10 11 11 12
REMARK SMILES IDX 17 13 16 14 15 15 13 16 12 17 18 18 23 19 2 20 1 21 3 22
REMARK SMILES IDX 14 23
REMARK H PARENT 14 24
REMARK Flexibility Score: inf
ROOT
ATOM      1  C   UNL     1      -4.637  32.757  27.117  1.00  0.00     0.062 C 
ATOM      2  C   UNL     1      -5.408  32.804  28.435  1.00  0.00     0.012 C 
ATOM      3  C   UNL     1      -6.125  31.469  28.536  1.00  0.00     0.005 C 
ATOM      4  C   UNL     1      -5.239  30.445  27.803  1.00  0.00    -0.001 C 
ATOM      5  C   UNL     1      -4.215  31.259  26.941  1.00  0.00    -0.020 C 
ATOM      6  C   UNL     1      -2.766  31.084  27.469  1.00  0.00     0.008 C 
ATOM      7  C   UNL     1      -2.324  29.618  27.642  1.00  0.00     0.005 C 
ATOM      8  C   UNL     1      -3.464  28.613  28.002  1.00  0.00     0.003 C 
ATOM      9  C   UNL     1      -4.621  29.339  28.727  1.00  0.00     0.000 C 
ATOM     10  C   UNL     1      -4.190  29.793  30.149  1.00  0.00     0.031 C 
ATOM     11  C   UNL     1      -3.218  28.866  30.844  1.00  0.00    -0.027 C 
ATOM     12  C   UNL     1      -2.594  27.821  30.253  1.00  0.00    -0.065 C 
ATOM     13  C   UNL     1      -2.960  27.376  28.837  1.00  0.00    -0.008 C 
ATOM     14  C   UNL     1      -1.732  26.705  28.130  1.00  0.00     0.014 C 
ATOM     15  C   UNL     1      -0.959  25.724  29.024  1.00  0.00     0.033 C 
ATOM     16  C   UNL     1      -0.506  26.411  30.316  1.00  0.00     0.118 C 
ATOM     17  C   UNL     1      -1.717  26.924  31.104  1.00  0.00     0.063 C 
ATOM     18  C   UNL     1      -4.089  26.312  28.944  1.00  0.00     0.016 C 
ATOM     19  C   UNL     1      -4.241  30.811  25.451  1.00  0.00     0.012 C 
ENDROOT
BRANCH   1  20
ATOM     20  C   UNL     1      -5.491  33.323  25.988  1.00  0.00     0.133 C 
ATOM     21  C   UNL     1      -5.580  34.802  25.748  1.00  0.00     0.088 C 
ATOM     22  O   UNL     1      -6.124  32.573  25.259  1.00  0.00    -0.300 OA
ENDBRANCH   1  20
BRANCH  16  23
ATOM     23  O   UNL     1       0.214  25.492  31.094  1.00  0.00    -0.393 OA
ATOM     24  H   UNL     1      -0.040  25.656  32.040  1.00  0.00     0.210 HD
ENDBRANCH  16  23
TORSDOF 2
ENDMDL
MODEL 6
REMARK VINA RESULT:     5.572      1.696      2.389
REMARK INTER + INTRA:           6.334
REMARK INTER:                   6.258
REMARK INTRA:                   0.076
REMARK UNBOUND:                 0.274
REMARK SMILES CC(=O)[C@H]1CC[C@@H]2[C@@H]3CC=C4C[C@@H](O)CC[C@]4(C)[C@@H]3CC[C@]12C
REMARK SMILES IDX 4 1 5 2 6 3 7 4 22 5 21 6 20 7 19 8 8 9 9 10 10 11 11 12
REMARK SMILES IDX 17 13 16 14 15 15 13 16 12 17 18 18 23 19 2 20 1 21 3 22
REMARK SMILES IDX 14 23
REMARK H PARENT 14 24
REMARK Flexibility Score: inf
ROOT
ATOM      1  C   UNL     1      -2.015  26.354  28.721  1.00  0.00     0.062 C 
ATOM      2  C   UNL     1      -3.361  26.157  29.413  1.00  0.00     0.012 C 
ATOM      3  C   UNL     1      -3.552  27.380  30.292  1.00  0.00     0.005 C 
ATOM      4  C   UNL     1      -2.827  28.539  29.582  1.00  0.00    -0.001 C 
ATOM      5  C   UNL     1      -1.887  27.900  28.506  1.00  0.00    -0.020 C 
ATOM      6  C   UNL     1      -2.358  28.245  27.067  1.00  0.00     0.008 C 
ATOM      7  C   UNL     1      -2.576  29.748  26.811  1.00  0.00     0.005 C 
ATOM      8  C   UNL     1      -3.030  30.580  28.053  1.00  0.00     0.003 C 
ATOM      9  C   UNL     1      -3.772  29.681  29.069  1.00  0.00     0.000 C 
ATOM     10  C   UNL     1      -5.152  29.234  28.514  1.00  0.00     0.031 C 
ATOM     11  C   UNL     1      -5.844  30.253  27.637  1.00  0.00    -0.027 C 
ATOM     12  C   UNL     1      -5.274  31.393  27.183  1.00  0.00    -0.065 C 
ATOM     13  C   UNL     1      -3.896  31.840  27.673  1.00  0.00    -0.008 C 
ATOM     14  C   UNL     1      -3.167  32.693  26.578  1.00  0.00     0.014 C 
ATOM     15  C   UNL     1      -4.069  33.732  25.895  1.00  0.00     0.033 C 
ATOM     16  C   UNL     1      -5.308  33.062  25.296  1.00  0.00     0.118 C 
ATOM     17  C   UNL     1      -6.125  32.364  26.390  1.00  0.00     0.063 C 
ATOM     18  C   UNL     1      -4.099  32.742  28.923  1.00  0.00     0.016 C 
ATOM     19  C   UNL     1      -0.421  28.398  28.662  1.00  0.00     0.012 C 
ENDROOT
BRANCH   1  20
ATOM     20  C   UNL     1      -0.900  25.725  29.549  1.00  0.00     0.133 C 
ATOM     21  C   UNL     1       0.123  24.826  28.917  1.00  0.00     0.088 C 
ATOM     22  O   UNL     1      -0.826  25.944  30.749  1.00  0.00    -0.300 OA
ENDBRANCH   1  20
BRANCH  16  23
ATOM     23  O   UNL     1      -6.095  34.037  24.663  1.00  0.00    -0.393 OA
ATOM     24  H   UNL     1      -5.469  34.699  24.269  1.00  0.00     0.210 HD
ENDBRANCH  16  23
TORSDOF 2
ENDMDL
