MODEL 1
REMARK VINA RESULT:    -6.984      0.000      0.000
REMARK INTER + INTRA:         -11.562
REMARK INTER:                  -9.433
REMARK INTRA:                  -2.129
REMARK UNBOUND:                -2.129
REMARK SMILES CC[C@@H](CC[C@@H](C)[C@H]1CC[C@H]2[C@@H]3CC(=O)C4=CC(=O)CC[C@]4(C)[C@@H]3CC[C@@]12C)C(C)C
REMARK SMILES IDX 4 1 3 2 2 3 1 4 29 5 30 6 31 7 5 8 6 9 7 10 8 11 9 12 27 13
REMARK SMILES IDX 10 14 11 15 26 16 28 17 12 18 25 19 24 20 13 21 22 22 14 23
REMARK SMILES IDX 16 24 21 25 23 26 15 27 17 28 20 29 18 30 19 31
REMARK H PARENT
REMARK Flexibility Score: inf
ROOT
ATOM      1  C   UNL     1       0.860  -1.514  55.674  1.00  0.00     0.004 C 
ENDROOT
BRANCH   1   2
ATOM      2  C   UNL     1       1.299  -1.600  54.183  1.00  0.00    -0.009 C 
BRANCH   2   3
ATOM      3  C   UNL     1       0.865  -2.965  53.570  1.00  0.00     0.000 C 
ATOM      4  C   UNL     1      -0.258  -2.868  52.537  1.00  0.00     0.004 C 
ENDBRANCH   2   3
BRANCH   2   5
ATOM      5  C   UNL     1       2.831  -1.273  54.062  1.00  0.00    -0.014 C 
ATOM      6  C   UNL     1       3.127   0.107  53.452  1.00  0.00     0.007 C 
ATOM      7  C   UNL     1       3.602  -1.466  55.379  1.00  0.00     0.007 C 
ENDBRANCH   2   5
ENDBRANCH   1   2
BRANCH   1   8
ATOM      8  C   UNL     1       0.091  -0.219  56.022  1.00  0.00     0.004 C 
BRANCH   8   9
ATOM      9  C   UNL     1       0.962   0.770  56.864  1.00  0.00    -0.011 C 
ATOM     10  C   UNL     1       1.269   1.999  55.969  1.00  0.00     0.008 C 
BRANCH   9  11
ATOM     11  C   UNL     1       0.262   1.168  58.223  1.00  0.00    -0.002 C 
ATOM     12  C   UNL     1      -1.262   0.871  58.186  1.00  0.00     0.005 C 
ATOM     13  C   UNL     1       0.749   0.532  59.598  1.00  0.00    -0.026 C 
ATOM     14  C   UNL     1      -1.652   0.252  59.515  1.00  0.00     0.005 C 
ATOM     15  C   UNL     1      -0.390  -0.458  60.005  1.00  0.00    -0.001 C 
ATOM     16  C   UNL     1       2.166  -0.133  59.666  1.00  0.00     0.007 C 
ATOM     17  C   UNL     1       0.795   1.688  60.646  1.00  0.00     0.012 C 
ATOM     18  C   UNL     1      -0.223  -1.863  59.334  1.00  0.00     0.004 C 
ATOM     19  C   UNL     1       2.273  -1.592  59.191  1.00  0.00     0.005 C 
ATOM     20  C   UNL     1       1.131  -2.504  59.690  1.00  0.00     0.003 C 
ATOM     21  C   UNL     1      -1.344  -2.886  59.607  1.00  0.00     0.085 C 
ATOM     22  C   UNL     1       1.243  -3.114  61.172  1.00  0.00    -0.000 C 
ATOM     23  C   UNL     1      -1.373  -3.309  61.034  1.00  0.00     0.159 C 
ATOM     24  C   UNL     1      -0.134  -3.298  61.844  1.00  0.00     0.005 C 
ATOM     25  C   UNL     1       2.113  -2.245  62.133  1.00  0.00     0.020 C 
ATOM     26  C   UNL     1       1.887  -4.522  61.044  1.00  0.00     0.017 C 
ATOM     27  O   UNL     1      -2.466  -3.700  61.530  1.00  0.00    -0.295 OA
ATOM     28  C   UNL     1      -0.230  -3.457  63.181  1.00  0.00     0.055 C 
ATOM     29  C   UNL     1       2.254  -2.841  63.542  1.00  0.00     0.081 C 
ATOM     30  C   UNL     1       0.932  -3.308  64.070  1.00  0.00     0.156 C 
ATOM     31  O   UNL     1       0.814  -3.577  65.295  1.00  0.00    -0.295 OA
ENDBRANCH   9  11
ENDBRANCH   8   9
ENDBRANCH   1   8
TORSDOF 6
ENDMDL
MODEL 2
REMARK VINA RESULT:    -6.965      0.804      1.322
REMARK INTER + INTRA:         -11.537
REMARK INTER:                  -9.080
REMARK INTRA:                  -2.457
REMARK UNBOUND:                -2.129
REMARK SMILES CC[C@@H](CC[C@@H](C)[C@H]1CC[C@H]2[C@@H]3CC(=O)C4=CC(=O)CC[C@]4(C)[C@@H]3CC[C@@]12C)C(C)C
REMARK SMILES IDX 4 1 3 2 2 3 1 4 29 5 30 6 31 7 5 8 6 9 7 10 8 11 9 12 27 13
REMARK SMILES IDX 10 14 11 15 26 16 28 17 12 18 25 19 24 20 13 21 22 22 14 23
REMARK SMILES IDX 16 24 21 25 23 26 15 27 17 28 20 29 18 30 19 31
REMARK H PARENT
REMARK Flexibility Score: inf
ROOT
ATOM      1  C   UNL     1       0.790  -1.575  55.843  1.00  0.00     0.004 C 
ENDROOT
BRANCH   1   2
ATOM      2  C   UNL     1       2.258  -1.485  55.335  1.00  0.00    -0.009 C 
BRANCH   2   3
ATOM      3  C   UNL     1       2.284  -1.171  53.809  1.00  0.00     0.000 C 
ATOM      4  C   UNL     1       3.074   0.083  53.433  1.00  0.00     0.004 C 
ENDBRANCH   2   3
BRANCH   2   5
ATOM      5  C   UNL     1       3.047  -2.775  55.762  1.00  0.00    -0.014 C 
ATOM      6  C   UNL     1       2.942  -3.932  54.754  1.00  0.00     0.007 C 
ATOM      7  C   UNL     1       4.516  -2.500  56.127  1.00  0.00     0.007 C 
ENDBRANCH   2   5
ENDBRANCH   1   2
BRANCH   1   8
ATOM      8  C   UNL     1       0.101  -0.201  55.998  1.00  0.00     0.004 C 
BRANCH   8   9
ATOM      9  C   UNL     1       0.937   0.776  56.890  1.00  0.00    -0.011 C 
ATOM     10  C   UNL     1       1.258   2.029  56.034  1.00  0.00     0.008 C 
BRANCH   9  11
ATOM     11  C   UNL     1       0.191   1.134  58.236  1.00  0.00    -0.002 C 
ATOM     12  C   UNL     1      -1.321   0.792  58.158  1.00  0.00     0.005 C 
ATOM     13  C   UNL     1       0.665   0.495  59.615  1.00  0.00    -0.026 C 
ATOM     14  C   UNL     1      -1.723   0.144  59.469  1.00  0.00     0.005 C 
ATOM     15  C   UNL     1      -0.453  -0.534  59.981  1.00  0.00    -0.001 C 
ATOM     16  C   UNL     1       2.100  -0.127  59.709  1.00  0.00     0.007 C 
ATOM     17  C   UNL     1       0.650   1.638  60.678  1.00  0.00     0.012 C 
ATOM     18  C   UNL     1      -0.226  -1.924  59.296  1.00  0.00     0.004 C 
ATOM     19  C   UNL     1       2.263  -1.576  59.219  1.00  0.00     0.005 C 
ATOM     20  C   UNL     1       1.137  -2.529  59.678  1.00  0.00     0.003 C 
ATOM     21  C   UNL     1      -1.322  -2.984  59.529  1.00  0.00     0.085 C 
ATOM     22  C   UNL     1       1.232  -3.155  61.154  1.00  0.00    -0.000 C 
ATOM     23  C   UNL     1      -1.372  -3.427  60.950  1.00  0.00     0.159 C 
ATOM     24  C   UNL     1      -0.154  -3.390  61.790  1.00  0.00     0.005 C 
ATOM     25  C   UNL     1       2.051  -2.272  62.147  1.00  0.00     0.020 C 
ATOM     26  C   UNL     1       1.922  -4.541  61.025  1.00  0.00     0.017 C 
ATOM     27  O   UNL     1      -2.465  -3.857  61.413  1.00  0.00    -0.295 OA
ATOM     28  C   UNL     1      -0.278  -3.569  63.122  1.00  0.00     0.055 C 
ATOM     29  C   UNL     1       2.177  -2.882  63.551  1.00  0.00     0.081 C 
ATOM     30  C   UNL     1       0.857  -3.396  64.041  1.00  0.00     0.156 C 
ATOM     31  O   UNL     1       0.718  -3.685  65.259  1.00  0.00    -0.295 OA
ENDBRANCH   9  11
ENDBRANCH   8   9
ENDBRANCH   1   8
TORSDOF 6
ENDMDL
MODEL 3
REMARK VINA RESULT:    -6.827      2.797      5.047
REMARK INTER + INTRA:         -11.351
REMARK INTER:                  -8.427
REMARK INTRA:                  -2.924
REMARK UNBOUND:                -2.129
REMARK SMILES CC[C@@H](CC[C@@H](C)[C@H]1CC[C@H]2[C@@H]3CC(=O)C4=CC(=O)CC[C@]4(C)[C@@H]3CC[C@@]12C)C(C)C
REMARK SMILES IDX 4 1 3 2 2 3 1 4 29 5 30 6 31 7 5 8 6 9 7 10 8 11 9 12 27 13
REMARK SMILES IDX 10 14 11 15 26 16 28 17 12 18 25 19 24 20 13 21 22 22 14 23
REMARK SMILES IDX 16 24 21 25 23 26 15 27 17 28 20 29 18 30 19 31
REMARK H PARENT
REMARK Flexibility Score: inf
ROOT
ATOM      1  C   UNL     1       1.005  -4.421  53.616  1.00  0.00     0.004 C 
ENDROOT
BRANCH   1   2
ATOM      2  C   UNL     1       0.917  -2.873  53.744  1.00  0.00    -0.009 C 
BRANCH   2   3
ATOM      3  C   UNL     1      -0.146  -2.307  52.755  1.00  0.00     0.000 C 
ATOM      4  C   UNL     1      -0.720  -3.338  51.784  1.00  0.00     0.004 C 
ENDBRANCH   2   3
BRANCH   2   5
ATOM      5  C   UNL     1       2.352  -2.248  53.608  1.00  0.00    -0.014 C 
ATOM      6  C   UNL     1       2.386  -0.721  53.788  1.00  0.00     0.007 C 
ATOM      7  C   UNL     1       3.402  -2.928  54.504  1.00  0.00     0.007 C 
ENDBRANCH   2   5
ENDBRANCH   1   2
BRANCH   1   8
ATOM      8  C   UNL     1       0.555  -5.177  54.886  1.00  0.00     0.004 C 
BRANCH   8   9
ATOM      9  C   UNL     1      -0.724  -4.540  55.524  1.00  0.00    -0.011 C 
ATOM     10  C   UNL     1      -1.950  -5.335  55.005  1.00  0.00     0.008 C 
BRANCH   9  11
ATOM     11  C   UNL     1      -0.646  -4.506  57.102  1.00  0.00    -0.002 C 
ATOM     12  C   UNL     1       0.753  -4.944  57.612  1.00  0.00     0.005 C 
ATOM     13  C   UNL     1      -0.945  -3.159  57.896  1.00  0.00    -0.026 C 
ATOM     14  C   UNL     1       1.159  -4.007  58.734  1.00  0.00     0.005 C 
ATOM     15  C   UNL     1       0.449  -2.689  58.423  1.00  0.00    -0.001 C 
ATOM     16  C   UNL     1      -1.724  -2.009  57.171  1.00  0.00     0.007 C 
ATOM     17  C   UNL     1      -1.834  -3.538  59.122  1.00  0.00     0.012 C 
ATOM     18  C   UNL     1       1.234  -1.850  57.359  1.00  0.00     0.004 C 
ATOM     19  C   UNL     1      -0.898  -1.061  56.285  1.00  0.00     0.005 C 
ATOM     20  C   UNL     1       0.438  -0.609  56.916  1.00  0.00     0.003 C 
ATOM     21  C   UNL     1       2.659  -1.410  57.755  1.00  0.00     0.085 C 
ATOM     22  C   UNL     1       0.406   0.608  57.965  1.00  0.00    -0.000 C 
ATOM     23  C   UNL     1       2.645  -0.424  58.870  1.00  0.00     0.159 C 
ATOM     24  C   UNL     1       1.487   0.479  59.057  1.00  0.00     0.005 C 
ATOM     25  C   UNL     1      -0.968   0.761  58.690  1.00  0.00     0.020 C 
ATOM     26  C   UNL     1       0.704   1.909  57.170  1.00  0.00     0.017 C 
ATOM     27  O   UNL     1       3.649  -0.356  59.632  1.00  0.00    -0.295 OA
ATOM     28  C   UNL     1       1.396   1.190  60.201  1.00  0.00     0.055 C 
ATOM     29  C   UNL     1      -1.017   1.945  59.668  1.00  0.00     0.081 C 
ATOM     30  C   UNL     1       0.207   1.989  60.531  1.00  0.00     0.156 C 
ATOM     31  O   UNL     1       0.217   2.724  61.554  1.00  0.00    -0.295 OA
ENDBRANCH   9  11
ENDBRANCH   8   9
ENDBRANCH   1   8
TORSDOF 6
ENDMDL
MODEL 4
REMARK VINA RESULT:    -6.607      0.583      1.582
REMARK INTER + INTRA:         -11.053
REMARK INTER:                  -9.131
REMARK INTRA:                  -1.922
REMARK UNBOUND:                -2.129
REMARK SMILES CC[C@@H](CC[C@@H](C)[C@H]1CC[C@H]2[C@@H]3CC(=O)C4=CC(=O)CC[C@]4(C)[C@@H]3CC[C@@]12C)C(C)C
REMARK SMILES IDX 4 1 3 2 2 3 1 4 29 5 30 6 31 7 5 8 6 9 7 10 8 11 9 12 27 13
REMARK SMILES IDX 10 14 11 15 26 16 28 17 12 18 25 19 24 20 13 21 22 22 14 23
REMARK SMILES IDX 16 24 21 25 23 26 15 27 17 28 20 29 18 30 19 31
REMARK H PARENT
REMARK Flexibility Score: inf
ROOT
ATOM      1  C   UNL     1       1.189  -1.863  55.745  1.00  0.00     0.004 C 
ENDROOT
BRANCH   1   2
ATOM      2  C   UNL     1       1.438  -2.269  54.264  1.00  0.00    -0.009 C 
BRANCH   2   3
ATOM      3  C   UNL     1       1.588  -0.999  53.373  1.00  0.00     0.000 C 
ATOM      4  C   UNL     1       3.017  -0.465  53.266  1.00  0.00     0.004 C 
ENDBRANCH   2   3
BRANCH   2   5
ATOM      5  C   UNL     1       0.331  -3.281  53.798  1.00  0.00    -0.014 C 
ATOM      6  C   UNL     1      -0.342  -2.901  52.469  1.00  0.00     0.007 C 
ATOM      7  C   UNL     1       0.813  -4.742  53.770  1.00  0.00     0.007 C 
ENDBRANCH   2   5
ENDBRANCH   1   2
BRANCH   1   8
ATOM      8  C   UNL     1       0.391  -0.549  55.904  1.00  0.00     0.004 C 
BRANCH   8   9
ATOM      9  C   UNL     1       1.171   0.510  56.753  1.00  0.00    -0.011 C 
ATOM     10  C   UNL     1       1.461   1.724  55.832  1.00  0.00     0.008 C 
BRANCH   9  11
ATOM     11  C   UNL     1       0.386   0.914  58.063  1.00  0.00    -0.002 C 
ATOM     12  C   UNL     1      -1.123   0.567  57.952  1.00  0.00     0.005 C 
ATOM     13  C   UNL     1       0.817   0.325  59.477  1.00  0.00    -0.026 C 
ATOM     14  C   UNL     1      -1.565  -0.035  59.272  1.00  0.00     0.005 C 
ATOM     15  C   UNL     1      -0.310  -0.693  59.846  1.00  0.00    -0.001 C 
ATOM     16  C   UNL     1       2.249  -0.292  59.636  1.00  0.00     0.007 C 
ATOM     17  C   UNL     1       0.770   1.505  60.498  1.00  0.00     0.012 C 
ATOM     18  C   UNL     1      -0.063  -2.106  59.218  1.00  0.00     0.004 C 
ATOM     19  C   UNL     1       2.427  -1.757  59.202  1.00  0.00     0.005 C 
ATOM     20  C   UNL     1       1.289  -2.695  59.661  1.00  0.00     0.003 C 
ATOM     21  C   UNL     1      -1.165  -3.159  59.455  1.00  0.00     0.085 C 
ATOM     22  C   UNL     1       1.339  -3.268  61.161  1.00  0.00    -0.000 C 
ATOM     23  C   UNL     1      -1.257  -3.551  60.888  1.00  0.00     0.159 C 
ATOM     24  C   UNL     1      -0.065  -3.482  61.762  1.00  0.00     0.005 C 
ATOM     25  C   UNL     1       2.129  -2.350  62.146  1.00  0.00     0.020 C 
ATOM     26  C   UNL     1       2.033  -4.656  61.101  1.00  0.00     0.017 C 
ATOM     27  O   UNL     1      -2.363  -3.966  61.333  1.00  0.00    -0.295 OA
ATOM     28  C   UNL     1      -0.228  -3.615  63.095  1.00  0.00     0.055 C 
ATOM     29  C   UNL     1       2.212  -2.910  63.574  1.00  0.00     0.081 C 
ATOM     30  C   UNL     1       0.878  -3.408  64.042  1.00  0.00     0.156 C 
ATOM     31  O   UNL     1       0.703  -3.654  65.265  1.00  0.00    -0.295 OA
ENDBRANCH   9  11
ENDBRANCH   8   9
ENDBRANCH   1   8
TORSDOF 6
ENDMDL
MODEL 5
REMARK VINA RESULT:    -6.471      9.477     13.556
REMARK INTER + INTRA:         -10.869
REMARK INTER:                  -8.299
REMARK INTRA:                  -2.570
REMARK UNBOUND:                -2.129
REMARK SMILES CC[C@@H](CC[C@@H](C)[C@H]1CC[C@H]2[C@@H]3CC(=O)C4=CC(=O)CC[C@]4(C)[C@@H]3CC[C@@]12C)C(C)C
REMARK SMILES IDX 4 1 3 2 2 3 1 4 29 5 30 6 31 7 5 8 6 9 7 10 8 11 9 12 27 13
REMARK SMILES IDX 10 14 11 15 26 16 28 17 12 18 25 19 24 20 13 21 22 22 14 23
REMARK SMILES IDX 16 24 21 25 23 26 15 27 17 28 20 29 18 30 19 31
REMARK H PARENT
REMARK Flexibility Score: inf
ROOT
ATOM      1  C   UNL     1      -8.197   5.760  61.378  1.00  0.00     0.004 C 
ENDROOT
BRANCH   1   2
ATOM      2  C   UNL     1      -9.171   6.139  60.225  1.00  0.00    -0.009 C 
BRANCH   2   3
ATOM      3  C   UNL     1      -9.506   7.660  60.279  1.00  0.00     0.000 C 
ATOM      4  C   UNL     1      -8.915   8.398  61.480  1.00  0.00     0.004 C 
ENDBRANCH   2   3
BRANCH   2   5
ATOM      5  C   UNL     1     -10.417   5.182  60.247  1.00  0.00    -0.014 C 
ATOM      6  C   UNL     1     -10.734   4.604  61.636  1.00  0.00     0.007 C 
ATOM      7  C   UNL     1     -11.673   5.801  59.611  1.00  0.00     0.007 C 
ENDBRANCH   2   5
ENDBRANCH   1   2
BRANCH   1   8
ATOM      8  C   UNL     1      -7.001   4.894  60.921  1.00  0.00     0.004 C 
BRANCH   8   9
ATOM      9  C   UNL     1      -6.497   5.296  59.495  1.00  0.00    -0.011 C 
ATOM     10  C   UNL     1      -5.173   6.083  59.674  1.00  0.00     0.008 C 
BRANCH   9  11
ATOM     11  C   UNL     1      -6.336   4.043  58.548  1.00  0.00    -0.002 C 
ATOM     12  C   UNL     1      -7.309   2.900  58.945  1.00  0.00     0.005 C 
ATOM     13  C   UNL     1      -6.532   4.190  56.975  1.00  0.00    -0.026 C 
ATOM     14  C   UNL     1      -7.901   2.324  57.673  1.00  0.00     0.005 C 
ATOM     15  C   UNL     1      -7.891   3.480  56.673  1.00  0.00    -0.001 C 
ATOM     16  C   UNL     1      -6.452   5.617  56.331  1.00  0.00     0.007 C 
ATOM     17  C   UNL     1      -5.388   3.375  56.293  1.00  0.00     0.012 C 
ATOM     18  C   UNL     1      -9.117   4.432  56.882  1.00  0.00     0.004 C 
ATOM     19  C   UNL     1      -7.733   6.466  56.362  1.00  0.00     0.005 C 
ATOM     20  C   UNL     1      -9.017   5.688  55.997  1.00  0.00     0.003 C 
ATOM     21  C   UNL     1     -10.510   3.800  56.691  1.00  0.00     0.085 C 
ATOM     22  C   UNL     1      -9.353   5.471  54.441  1.00  0.00    -0.000 C 
ATOM     23  C   UNL     1     -10.753   3.411  55.274  1.00  0.00     0.159 C 
ATOM     24  C   UNL     1     -10.087   4.141  54.172  1.00  0.00     0.005 C 
ATOM     25  C   UNL     1      -8.087   5.493  53.528  1.00  0.00     0.020 C 
ATOM     26  C   UNL     1     -10.305   6.620  54.010  1.00  0.00     0.017 C 
ATOM     27  O   UNL     1     -11.555   2.466  55.033  1.00  0.00    -0.295 OA
ATOM     28  C   UNL     1     -10.137   3.624  52.927  1.00  0.00     0.055 C 
ATOM     29  C   UNL     1      -8.405   5.322  52.035  1.00  0.00     0.081 C 
ATOM     30  C   UNL     1      -9.376   4.204  51.809  1.00  0.00     0.156 C 
ATOM     31  O   UNL     1      -9.545   3.755  50.645  1.00  0.00    -0.295 OA
ENDBRANCH   9  11
ENDBRANCH   8   9
ENDBRANCH   1   8
TORSDOF 6
ENDMDL
MODEL 6
REMARK VINA RESULT:    -6.413      1.901      4.631
REMARK INTER + INTRA:         -10.791
REMARK INTER:                  -8.054
REMARK INTRA:                  -2.737
REMARK UNBOUND:                -2.129
REMARK SMILES CC[C@@H](CC[C@@H](C)[C@H]1CC[C@H]2[C@@H]3CC(=O)C4=CC(=O)CC[C@]4(C)[C@@H]3CC[C@@]12C)C(C)C
REMARK SMILES IDX 4 1 3 2 2 3 1 4 29 5 30 6 31 7 5 8 6 9 7 10 8 11 9 12 27 13
REMARK SMILES IDX 10 14 11 15 26 16 28 17 12 18 25 19 24 20 13 21 22 22 14 23
REMARK SMILES IDX 16 24 21 25 23 26 15 27 17 28 20 29 18 30 19 31
REMARK H PARENT
REMARK Flexibility Score: inf
ROOT
ATOM      1  C   UNL     1       0.561   1.776  57.845  1.00  0.00     0.004 C 
ENDROOT
BRANCH   1   2
ATOM      2  C   UNL     1      -0.173   1.105  59.042  1.00  0.00    -0.009 C 
BRANCH   2   3
ATOM      3  C   UNL     1      -1.717   1.192  58.848  1.00  0.00     0.000 C 
ATOM      4  C   UNL     1      -2.156   1.632  57.451  1.00  0.00     0.004 C 
ENDBRANCH   2   3
BRANCH   2   5
ATOM      5  C   UNL     1       0.362   1.702  60.394  1.00  0.00    -0.014 C 
ATOM      6  C   UNL     1       1.854   2.071  60.364  1.00  0.00     0.007 C 
ATOM      7  C   UNL     1      -0.483   2.875  60.919  1.00  0.00     0.007 C 
ENDBRANCH   2   5
ENDBRANCH   1   2
BRANCH   1   8
ATOM      8  C   UNL     1       1.420   0.796  57.014  1.00  0.00     0.004 C 
BRANCH   8   9
ATOM      9  C   UNL     1       0.834  -0.655  57.033  1.00  0.00    -0.011 C 
ATOM     10  C   UNL     1       0.391  -0.997  55.586  1.00  0.00     0.008 C 
BRANCH   9  11
ATOM     11  C   UNL     1       1.863  -1.702  57.616  1.00  0.00    -0.002 C 
ATOM     12  C   UNL     1       2.802  -1.053  58.668  1.00  0.00     0.005 C 
ATOM     13  C   UNL     1       1.347  -3.032  58.324  1.00  0.00    -0.026 C 
ATOM     14  C   UNL     1       2.942  -2.016  59.831  1.00  0.00     0.005 C 
ATOM     15  C   UNL     1       1.638  -2.813  59.844  1.00  0.00    -0.001 C 
ATOM     16  C   UNL     1      -0.123  -3.508  58.063  1.00  0.00     0.007 C 
ATOM     17  C   UNL     1       2.247  -4.201  57.813  1.00  0.00     0.012 C 
ATOM     18  C   UNL     1       0.490  -2.025  60.560  1.00  0.00     0.004 C 
ATOM     19  C   UNL     1      -1.224  -2.868  58.925  1.00  0.00     0.005 C 
ATOM     20  C   UNL     1      -0.864  -2.745  60.422  1.00  0.00     0.003 C 
ATOM     21  C   UNL     1       0.721  -1.685  62.046  1.00  0.00     0.085 C 
ATOM     22  C   UNL     1      -1.064  -4.036  61.357  1.00  0.00    -0.000 C 
ATOM     23  C   UNL     1       0.736  -2.905  62.899  1.00  0.00     0.159 C 
ATOM     24  C   UNL     1      -0.031  -4.107  62.500  1.00  0.00     0.005 C 
ATOM     25  C   UNL     1      -0.978  -5.383  60.573  1.00  0.00     0.020 C 
ATOM     26  C   UNL     1      -2.469  -3.921  62.009  1.00  0.00     0.017 C 
ATOM     27  O   UNL     1       1.393  -2.885  63.976  1.00  0.00    -0.295 OA
ATOM     28  C   UNL     1       0.187  -5.264  63.159  1.00  0.00     0.055 C 
ATOM     29  C   UNL     1      -1.204  -6.621  61.454  1.00  0.00     0.081 C 
ATOM     30  C   UNL     1      -0.419  -6.533  62.728  1.00  0.00     0.156 C 
ATOM     31  O   UNL     1      -0.277  -7.562  63.440  1.00  0.00    -0.295 OA
ENDBRANCH   9  11
ENDBRANCH   8   9
ENDBRANCH   1   8
TORSDOF 6
ENDMDL
MODEL 7
REMARK VINA RESULT:    -6.303      9.510     12.360
REMARK INTER + INTRA:         -10.642
REMARK INTER:                  -8.108
REMARK INTRA:                  -2.535
REMARK UNBOUND:                -2.129
REMARK SMILES CC[C@@H](CC[C@@H](C)[C@H]1CC[C@H]2[C@@H]3CC(=O)C4=CC(=O)CC[C@]4(C)[C@@H]3CC[C@@]12C)C(C)C
REMARK SMILES IDX 4 1 3 2 2 3 1 4 29 5 30 6 31 7 5 8 6 9 7 10 8 11 9 12 27 13
REMARK SMILES IDX 10 14 11 15 26 16 28 17 12 18 25 19 24 20 13 21 22 22 14 23
REMARK SMILES IDX 16 24 21 25 23 26 15 27 17 28 20 29 18 30 19 31
REMARK H PARENT
REMARK Flexibility Score: inf
ROOT
ATOM      1  C   UNL     1      -7.786   5.849  54.840  1.00  0.00     0.004 C 
ENDROOT
BRANCH   1   2
ATOM      2  C   UNL     1      -8.575   5.301  53.616  1.00  0.00    -0.009 C 
BRANCH   2   3
ATOM      3  C   UNL     1      -7.889   5.742  52.288  1.00  0.00     0.000 C 
ATOM      4  C   UNL     1      -7.364   4.590  51.432  1.00  0.00     0.004 C 
ENDBRANCH   2   3
BRANCH   2   5
ATOM      5  C   UNL     1     -10.091   5.692  53.744  1.00  0.00    -0.014 C 
ATOM      6  C   UNL     1     -10.353   6.858  54.712  1.00  0.00     0.007 C 
ATOM      7  C   UNL     1     -10.773   5.942  52.388  1.00  0.00     0.007 C 
ENDBRANCH   2   5
ENDBRANCH   1   2
BRANCH   1   8
ATOM      8  C   UNL     1      -6.541   5.009  55.204  1.00  0.00     0.004 C 
BRANCH   8   9
ATOM      9  C   UNL     1      -6.903   3.511  55.471  1.00  0.00    -0.011 C 
ATOM     10  C   UNL     1      -6.111   2.651  54.452  1.00  0.00     0.008 C 
BRANCH   9  11
ATOM     11  C   UNL     1      -6.623   3.090  56.968  1.00  0.00    -0.002 C 
ATOM     12  C   UNL     1      -5.684   4.103  57.677  1.00  0.00     0.005 C 
ATOM     13  C   UNL     1      -7.828   2.895  57.990  1.00  0.00    -0.026 C 
ATOM     14  C   UNL     1      -6.227   4.349  59.072  1.00  0.00     0.005 C 
ATOM     15  C   UNL     1      -7.734   4.120  58.955  1.00  0.00    -0.001 C 
ATOM     16  C   UNL     1      -9.276   2.693  57.425  1.00  0.00     0.007 C 
ATOM     17  C   UNL     1      -7.529   1.599  58.807  1.00  0.00     0.012 C 
ATOM     18  C   UNL     1      -8.465   5.382  58.385  1.00  0.00     0.004 C 
ATOM     19  C   UNL     1     -10.063   3.963  57.060  1.00  0.00     0.005 C 
ATOM     20  C   UNL     1      -9.952   5.098  58.103  1.00  0.00     0.003 C 
ATOM     21  C   UNL     1      -8.358   6.670  59.228  1.00  0.00     0.085 C 
ATOM     22  C   UNL     1     -10.905   5.034  59.394  1.00  0.00    -0.000 C 
ATOM     23  C   UNL     1      -9.079   6.545  60.525  1.00  0.00     0.159 C 
ATOM     24  C   UNL     1     -10.248   5.646  60.648  1.00  0.00     0.005 C 
ATOM     25  C   UNL     1     -11.345   3.583  59.765  1.00  0.00     0.020 C 
ATOM     26  C   UNL     1     -12.169   5.878  59.076  1.00  0.00     0.017 C 
ATOM     27  O   UNL     1      -8.690   7.240  61.504  1.00  0.00    -0.295 OA
ATOM     28  C   UNL     1     -10.731   5.375  61.879  1.00  0.00     0.055 C 
ATOM     29  C   UNL     1     -12.286   3.518  60.977  1.00  0.00     0.081 C 
ATOM     30  C   UNL     1     -11.788   4.376  62.100  1.00  0.00     0.156 C 
ATOM     31  O   UNL     1     -12.284   4.241  63.250  1.00  0.00    -0.295 OA
ENDBRANCH   9  11
ENDBRANCH   8   9
ENDBRANCH   1   8
TORSDOF 6
ENDMDL
MODEL 8
REMARK VINA RESULT:    -6.301      7.219     10.558
REMARK INTER + INTRA:         -10.640
REMARK INTER:                  -7.598
REMARK INTRA:                  -3.042
REMARK UNBOUND:                -2.129
REMARK SMILES CC[C@@H](CC[C@@H](C)[C@H]1CC[C@H]2[C@@H]3CC(=O)C4=CC(=O)CC[C@]4(C)[C@@H]3CC[C@@]12C)C(C)C
REMARK SMILES IDX 4 1 3 2 2 3 1 4 29 5 30 6 31 7 5 8 6 9 7 10 8 11 9 12 27 13
REMARK SMILES IDX 10 14 11 15 26 16 28 17 12 18 25 19 24 20 13 21 22 22 14 23
REMARK SMILES IDX 16 24 21 25 23 26 15 27 17 28 20 29 18 30 19 31
REMARK H PARENT
REMARK Flexibility Score: inf
ROOT
ATOM      1  C   UNL     1     -10.641   5.606  58.081  1.00  0.00     0.004 C 
ENDROOT
BRANCH   1   2
ATOM      2  C   UNL     1      -9.685   4.770  58.979  1.00  0.00    -0.009 C 
BRANCH   2   3
ATOM      3  C   UNL     1     -10.276   3.348  59.221  1.00  0.00     0.000 C 
ATOM      4  C   UNL     1     -11.365   2.937  58.230  1.00  0.00     0.004 C 
ENDBRANCH   2   3
BRANCH   2   5
ATOM      5  C   UNL     1      -9.339   5.577  60.281  1.00  0.00    -0.014 C 
ATOM      6  C   UNL     1      -9.018   4.691  61.497  1.00  0.00     0.007 C 
ATOM      7  C   UNL     1      -8.243   6.635  60.070  1.00  0.00     0.007 C 
ENDBRANCH   2   5
ENDBRANCH   1   2
BRANCH   1   8
ATOM      8  C   UNL     1      -9.992   6.093  56.766  1.00  0.00     0.004 C 
BRANCH   8   9
ATOM      9  C   UNL     1      -9.380   4.911  55.942  1.00  0.00    -0.011 C 
ATOM     10  C   UNL     1     -10.252   4.727  54.673  1.00  0.00     0.008 C 
BRANCH   9  11
ATOM     11  C   UNL     1      -7.856   5.151  55.603  1.00  0.00    -0.002 C 
ATOM     12  C   UNL     1      -7.219   6.200  56.553  1.00  0.00     0.005 C 
ATOM     13  C   UNL     1      -6.826   3.938  55.616  1.00  0.00    -0.026 C 
ATOM     14  C   UNL     1      -5.847   5.696  56.958  1.00  0.00     0.005 C 
ATOM     15  C   UNL     1      -5.951   4.172  56.890  1.00  0.00    -0.001 C 
ATOM     16  C   UNL     1      -7.378   2.473  55.537  1.00  0.00     0.007 C 
ATOM     17  C   UNL     1      -5.916   4.096  54.358  1.00  0.00     0.012 C 
ATOM     18  C   UNL     1      -6.612   3.583  58.181  1.00  0.00     0.004 C 
ATOM     19  C   UNL     1      -7.836   1.830  56.857  1.00  0.00     0.005 C 
ATOM     20  C   UNL     1      -6.877   2.072  58.044  1.00  0.00     0.003 C 
ATOM     21  C   UNL     1      -5.865   3.837  59.506  1.00  0.00     0.085 C 
ATOM     22  C   UNL     1      -5.587   1.125  58.180  1.00  0.00    -0.000 C 
ATOM     23  C   UNL     1      -4.564   3.114  59.557  1.00  0.00     0.159 C 
ATOM     24  C   UNL     1      -4.379   1.853  58.804  1.00  0.00     0.005 C 
ATOM     25  C   UNL     1      -5.113   0.529  56.817  1.00  0.00     0.020 C 
ATOM     26  C   UNL     1      -5.969  -0.040  59.134  1.00  0.00     0.017 C 
ATOM     27  O   UNL     1      -3.637   3.583  60.272  1.00  0.00    -0.295 OA
ATOM     28  C   UNL     1      -3.133   1.349  58.678  1.00  0.00     0.055 C 
ATOM     29  C   UNL     1      -3.902  -0.407  56.945  1.00  0.00     0.081 C 
ATOM     30  C   UNL     1      -2.843   0.189  57.821  1.00  0.00     0.156 C 
ATOM     31  O   UNL     1      -1.687  -0.312  57.825  1.00  0.00    -0.295 OA
ENDBRANCH   9  11
ENDBRANCH   8   9
ENDBRANCH   1   8
TORSDOF 6
ENDMDL
MODEL 9
REMARK VINA RESULT:    -6.282      8.531     12.260
REMARK INTER + INTRA:         -10.615
REMARK INTER:                  -7.919
REMARK INTRA:                  -2.696
REMARK UNBOUND:                -2.129
REMARK SMILES CC[C@@H](CC[C@@H](C)[C@H]1CC[C@H]2[C@@H]3CC(=O)C4=CC(=O)CC[C@]4(C)[C@@H]3CC[C@@]12C)C(C)C
REMARK SMILES IDX 4 1 3 2 2 3 1 4 29 5 30 6 31 7 5 8 6 9 7 10 8 11 9 12 27 13
REMARK SMILES IDX 10 14 11 15 26 16 28 17 12 18 25 19 24 20 13 21 22 22 14 23
REMARK SMILES IDX 16 24 21 25 23 26 15 27 17 28 20 29 18 30 19 31
REMARK H PARENT
REMARK Flexibility Score: inf
ROOT
ATOM      1  C   UNL     1      -6.341   3.281  60.320  1.00  0.00     0.004 C 
ENDROOT
BRANCH   1   2
ATOM      2  C   UNL     1      -5.870   2.857  58.899  1.00  0.00    -0.009 C 
BRANCH   2   3
ATOM      3  C   UNL     1      -6.206   1.357  58.643  1.00  0.00     0.000 C 
ATOM      4  C   UNL     1      -7.360   0.813  59.485  1.00  0.00     0.004 C 
ENDBRANCH   2   3
BRANCH   2   5
ATOM      5  C   UNL     1      -4.359   3.243  58.705  1.00  0.00    -0.014 C 
ATOM      6  C   UNL     1      -3.528   3.178  59.997  1.00  0.00     0.007 C 
ATOM      7  C   UNL     1      -3.671   2.464  57.571  1.00  0.00     0.007 C 
ENDBRANCH   2   5
ENDBRANCH   1   2
BRANCH   1   8
ATOM      8  C   UNL     1      -7.083   4.636  60.351  1.00  0.00     0.004 C 
BRANCH   8   9
ATOM      9  C   UNL     1      -8.448   4.573  59.588  1.00  0.00    -0.011 C 
ATOM     10  C   UNL     1      -9.577   4.741  60.638  1.00  0.00     0.008 C 
BRANCH   9  11
ATOM     11  C   UNL     1      -8.530   5.645  58.430  1.00  0.00    -0.002 C 
ATOM     12  C   UNL     1      -7.120   6.144  58.015  1.00  0.00     0.005 C 
ATOM     13  C   UNL     1      -9.239   5.289  57.050  1.00  0.00    -0.026 C 
ATOM     14  C   UNL     1      -7.076   6.222  56.501  1.00  0.00     0.005 C 
ATOM     15  C   UNL     1      -8.068   5.162  56.022  1.00  0.00    -0.001 C 
ATOM     16  C   UNL     1     -10.215   4.065  56.993  1.00  0.00     0.007 C 
ATOM     17  C   UNL     1     -10.112   6.521  56.653  1.00  0.00     0.012 C 
ATOM     18  C   UNL     1      -7.429   3.732  56.025  1.00  0.00     0.004 C 
ATOM     19  C   UNL     1      -9.581   2.679  56.788  1.00  0.00     0.005 C 
ATOM     20  C   UNL     1      -8.472   2.644  55.712  1.00  0.00     0.003 C 
ATOM     21  C   UNL     1      -6.210   3.530  55.103  1.00  0.00     0.085 C 
ATOM     22  C   UNL     1      -8.915   2.526  54.173  1.00  0.00    -0.000 C 
ATOM     23  C   UNL     1      -6.582   3.619  53.664  1.00  0.00     0.159 C 
ATOM     24  C   UNL     1      -7.945   3.254  53.219  1.00  0.00     0.005 C 
ATOM     25  C   UNL     1     -10.344   3.091  53.897  1.00  0.00     0.020 C 
ATOM     26  C   UNL     1      -8.888   1.019  53.799  1.00  0.00     0.017 C 
ATOM     27  O   UNL     1      -5.706   3.985  52.832  1.00  0.00    -0.295 OA
ATOM     28  C   UNL     1      -8.323   3.565  51.962  1.00  0.00     0.055 C 
ATOM     29  C   UNL     1     -10.788   2.949  52.434  1.00  0.00     0.081 C 
ATOM     30  C   UNL     1      -9.704   3.376  51.492  1.00  0.00     0.156 C 
ATOM     31  O   UNL     1      -9.979   3.575  50.279  1.00  0.00    -0.295 OA
ENDBRANCH   9  11
ENDBRANCH   8   9
ENDBRANCH   1   8
TORSDOF 6
ENDMDL
