MODEL 1
REMARK VINA RESULT:    -3.286      0.000      0.000
REMARK INTER + INTRA:          -3.840
REMARK INTER:                  -3.767
REMARK INTRA:                  -0.073
REMARK UNBOUND:                -0.073
REMARK SMILES COc1cc(C=O)ccc1O
REMARK SMILES IDX 3 1 10 2 9 3 8 4 5 5 4 6 2 7 1 8 11 9 6 11 7 12
REMARK H PARENT 11 10
REMARK Flexibility Score: inf
ROOT
ATOM      1  C   UNL     1     135.810 136.664 143.936  1.00  0.00     0.161 A 
ATOM      2  C   UNL     1     135.767 138.032 143.612  1.00  0.00     0.157 A 
ATOM      3  C   UNL     1     134.540 138.698 143.545  1.00  0.00     0.051 A 
ATOM      4  C   UNL     1     133.349 138.015 143.799  1.00  0.00     0.015 A 
ATOM      5  C   UNL     1     133.371 136.651 144.123  1.00  0.00     0.018 A 
ATOM      6  C   UNL     1     134.604 135.978 144.191  1.00  0.00     0.062 A 
ENDROOT
BRANCH   1   7
ATOM      7  O   UNL     1     137.056 136.021 143.995  1.00  0.00    -0.493 OA
ATOM      8  C   UNL     1     137.617 135.447 145.172  1.00  0.00     0.278 C 
ENDBRANCH   1   7
BRANCH   2   9
ATOM      9  O   UNL     1     136.936 138.748 143.352  1.00  0.00    -0.504 OA
ATOM     10  H   UNL     1     137.821 138.289 143.172  1.00  0.00     0.293 HD
ENDBRANCH   2   9
BRANCH   5  11
ATOM     11  C   UNL     1     132.102 135.947 144.387  1.00  0.00     0.260 C 
ATOM     12  O   UNL     1     131.070 136.576 144.739  1.00  0.00    -0.298 OA
ENDBRANCH   5  11
TORSDOF 3
ENDMDL
MODEL 2
REMARK VINA RESULT:    -3.248      9.619     11.901
REMARK INTER + INTRA:          -3.796
REMARK INTER:                  -3.739
REMARK INTRA:                  -0.057
REMARK UNBOUND:                -0.073
REMARK SMILES COc1cc(C=O)ccc1O
REMARK SMILES IDX 3 1 10 2 9 3 8 4 5 5 4 6 2 7 1 8 11 9 6 11 7 12
REMARK H PARENT 11 10
REMARK Flexibility Score: inf
ROOT
ATOM      1  C   UNL     1     137.629 147.866 144.189  1.00  0.00     0.161 A 
ATOM      2  C   UNL     1     137.190 146.561 143.902  1.00  0.00     0.157 A 
ATOM      3  C   UNL     1     138.018 145.468 144.174  1.00  0.00     0.051 A 
ATOM      4  C   UNL     1     139.283 145.660 144.731  1.00  0.00     0.015 A 
ATOM      5  C   UNL     1     139.738 146.953 145.024  1.00  0.00     0.018 A 
ATOM      6  C   UNL     1     138.908 148.054 144.751  1.00  0.00     0.062 A 
ENDROOT
BRANCH   1   7
ATOM      7  O   UNL     1     136.776 148.945 143.904  1.00  0.00    -0.493 OA
ATOM      8  C   UNL     1     136.551 150.050 144.772  1.00  0.00     0.278 C 
ENDBRANCH   1   7
BRANCH   2   9
ATOM      9  O   UNL     1     135.932 146.329 143.344  1.00  0.00    -0.504 OA
ATOM     10  H   UNL     1     135.272 145.679 143.754  1.00  0.00     0.293 HD
ENDBRANCH   2   9
BRANCH   5  11
ATOM     11  C   UNL     1     141.078 147.135 145.612  1.00  0.00     0.260 C 
ATOM     12  O   UNL     1     142.030 147.605 144.934  1.00  0.00    -0.298 OA
ENDBRANCH   5  11
TORSDOF 3
ENDMDL
MODEL 3
REMARK VINA RESULT:    -3.232      1.627      3.981
REMARK INTER + INTRA:          -3.777
REMARK INTER:                  -3.711
REMARK INTRA:                  -0.066
REMARK UNBOUND:                -0.073
REMARK SMILES COc1cc(C=O)ccc1O
REMARK SMILES IDX 3 1 10 2 9 3 8 4 5 5 4 6 2 7 1 8 11 9 6 11 7 12
REMARK H PARENT 11 10
REMARK Flexibility Score: inf
ROOT
ATOM      1  C   UNL     1     133.248 136.004 144.099  1.00  0.00     0.161 A 
ATOM      2  C   UNL     1     132.197 136.930 144.223  1.00  0.00     0.157 A 
ATOM      3  C   UNL     1     132.466 138.302 144.204  1.00  0.00     0.051 A 
ATOM      4  C   UNL     1     133.776 138.764 144.063  1.00  0.00     0.015 A 
ATOM      5  C   UNL     1     134.837 137.856 143.939  1.00  0.00     0.018 A 
ATOM      6  C   UNL     1     134.569 136.476 143.957  1.00  0.00     0.062 A 
ENDROOT
BRANCH   1   7
ATOM      7  O   UNL     1     132.947 134.632 144.122  1.00  0.00    -0.493 OA
ATOM      8  C   UNL     1     133.482 133.702 145.058  1.00  0.00     0.278 C 
ENDBRANCH   1   7
BRANCH   2   9
ATOM      9  O   UNL     1     130.875 136.507 144.367  1.00  0.00    -0.504 OA
ATOM     10  H   UNL     1     130.444 135.858 143.720  1.00  0.00     0.293 HD
ENDBRANCH   2   9
BRANCH   5  11
ATOM     11  C   UNL     1     136.213 138.364 143.790  1.00  0.00     0.260 C 
ATOM     12  O   UNL     1     136.749 139.067 144.687  1.00  0.00    -0.298 OA
ENDBRANCH   5  11
TORSDOF 3
ENDMDL
MODEL 4
REMARK VINA RESULT:    -3.229     12.760     15.039
REMARK INTER + INTRA:          -3.774
REMARK INTER:                  -3.703
REMARK INTRA:                  -0.070
REMARK UNBOUND:                -0.073
REMARK SMILES COc1cc(C=O)ccc1O
REMARK SMILES IDX 3 1 10 2 9 3 8 4 5 5 4 6 2 7 1 8 11 9 6 11 7 12
REMARK H PARENT 11 10
REMARK Flexibility Score: inf
ROOT
ATOM      1  C   UNL     1     145.771 144.945 144.013  1.00  0.00     0.161 A 
ATOM      2  C   UNL     1     145.841 143.595 143.628  1.00  0.00     0.157 A 
ATOM      3  C   UNL     1     147.071 142.931 143.619  1.00  0.00     0.051 A 
ATOM      4  C   UNL     1     148.238 143.600 143.991  1.00  0.00     0.015 A 
ATOM      5  C   UNL     1     148.189 144.947 144.377  1.00  0.00     0.018 A 
ATOM      6  C   UNL     1     146.954 145.616 144.387  1.00  0.00     0.062 A 
ENDROOT
BRANCH   1   7
ATOM      7  O   UNL     1     144.522 145.587 144.012  1.00  0.00    -0.493 OA
ATOM      8  C   UNL     1     143.929 146.208 145.148  1.00  0.00     0.278 C 
ENDBRANCH   1   7
BRANCH   2   9
ATOM      9  O   UNL     1     144.695 142.893 143.249  1.00  0.00    -0.504 OA
ATOM     10  H   UNL     1     144.311 142.144 143.813  1.00  0.00     0.293 HD
ENDBRANCH   2   9
BRANCH   5  11
ATOM     11  C   UNL     1     149.434 145.635 144.767  1.00  0.00     0.260 C 
ATOM     12  O   UNL     1     150.548 145.051 144.706  1.00  0.00    -0.298 OA
ENDBRANCH   5  11
TORSDOF 3
ENDMDL
MODEL 5
REMARK VINA RESULT:    -3.225      9.717     11.750
REMARK INTER + INTRA:          -3.769
REMARK INTER:                  -3.702
REMARK INTRA:                  -0.067
REMARK UNBOUND:                -0.073
REMARK SMILES COc1cc(C=O)ccc1O
REMARK SMILES IDX 3 1 10 2 9 3 8 4 5 5 4 6 2 7 1 8 11 9 6 11 7 12
REMARK H PARENT 11 10
REMARK Flexibility Score: inf
ROOT
ATOM      1  C   UNL     1     135.961 148.397 144.079  1.00  0.00     0.161 A 
ATOM      2  C   UNL     1     136.900 149.428 144.257  1.00  0.00     0.157 A 
ATOM      3  C   UNL     1     138.266 149.134 144.293  1.00  0.00     0.051 A 
ATOM      4  C   UNL     1     138.711 147.818 144.153  1.00  0.00     0.015 A 
ATOM      5  C   UNL     1     137.790 146.776 143.976  1.00  0.00     0.018 A 
ATOM      6  C   UNL     1     136.416 147.069 143.939  1.00  0.00     0.062 A 
ENDROOT
BRANCH   1   7
ATOM      7  O   UNL     1     134.596 148.722 144.048  1.00  0.00    -0.493 OA
ATOM      8  C   UNL     1     133.618 148.198 144.941  1.00  0.00     0.278 C 
ENDBRANCH   1   7
BRANCH   2   9
ATOM      9  O   UNL     1     136.495 150.756 144.400  1.00  0.00    -0.504 OA
ATOM     10  H   UNL     1     135.545 151.053 144.209  1.00  0.00     0.293 HD
ENDBRANCH   2   9
BRANCH   5  11
ATOM     11  C   UNL     1     138.280 145.393 143.830  1.00  0.00     0.260 C 
ATOM     12  O   UNL     1     139.082 144.894 144.663  1.00  0.00    -0.298 OA
ENDBRANCH   5  11
TORSDOF 3
ENDMDL
MODEL 6
REMARK VINA RESULT:    -3.213     13.542     15.450
REMARK INTER + INTRA:          -3.755
REMARK INTER:                  -3.685
REMARK INTRA:                  -0.070
REMARK UNBOUND:                -0.073
REMARK SMILES COc1cc(C=O)ccc1O
REMARK SMILES IDX 3 1 10 2 9 3 8 4 5 5 4 6 2 7 1 8 11 9 6 11 7 12
REMARK H PARENT 11 10
REMARK Flexibility Score: inf
ROOT
ATOM      1  C   UNL     1     148.374 145.405 143.985  1.00  0.00     0.161 A 
ATOM      2  C   UNL     1     149.497 144.617 144.293  1.00  0.00     0.157 A 
ATOM      3  C   UNL     1     149.335 143.275 144.647  1.00  0.00     0.051 A 
ATOM      4  C   UNL     1     148.062 142.705 144.698  1.00  0.00     0.015 A 
ATOM      5  C   UNL     1     146.930 143.474 144.395  1.00  0.00     0.018 A 
ATOM      6  C   UNL     1     147.090 144.825 144.038  1.00  0.00     0.062 A 
ENDROOT
BRANCH   1   7
ATOM      7  O   UNL     1     148.567 146.751 143.633  1.00  0.00    -0.493 OA
ATOM      8  C   UNL     1     148.502 147.843 144.545  1.00  0.00     0.278 C 
ENDBRANCH   1   7
BRANCH   2   9
ATOM      9  O   UNL     1     150.786 145.151 144.254  1.00  0.00    -0.504 OA
ATOM     10  H   UNL     1     151.247 145.508 145.082  1.00  0.00     0.293 HD
ENDBRANCH   2   9
BRANCH   5  11
ATOM     11  C   UNL     1     145.594 142.854 144.454  1.00  0.00     0.260 C 
ATOM     12  O   UNL     1     144.833 142.848 143.450  1.00  0.00    -0.298 OA
ENDBRANCH   5  11
TORSDOF 3
ENDMDL
MODEL 7
REMARK VINA RESULT:    -3.208      8.748     10.634
REMARK INTER + INTRA:          -3.749
REMARK INTER:                  -3.680
REMARK INTRA:                  -0.070
REMARK UNBOUND:                -0.073
REMARK SMILES COc1cc(C=O)ccc1O
REMARK SMILES IDX 3 1 10 2 9 3 8 4 5 5 4 6 2 7 1 8 11 9 6 11 7 12
REMARK H PARENT 11 10
REMARK Flexibility Score: inf
ROOT
ATOM      1  C   UNL     1     136.659 145.792 144.031  1.00  0.00     0.161 A 
ATOM      2  C   UNL     1     138.004 145.867 143.628  1.00  0.00     0.157 A 
ATOM      3  C   UNL     1     138.674 147.093 143.647  1.00  0.00     0.051 A 
ATOM      4  C   UNL     1     138.017 148.252 144.065  1.00  0.00     0.015 A 
ATOM      5  C   UNL     1     136.676 148.198 144.470  1.00  0.00     0.018 A 
ATOM      6  C   UNL     1     136.000 146.966 144.452  1.00  0.00     0.062 A 
ENDROOT
BRANCH   1   7
ATOM      7  O   UNL     1     136.011 144.547 144.000  1.00  0.00    -0.493 OA
ATOM      8  C   UNL     1     135.393 143.928 145.124  1.00  0.00     0.278 C 
ENDBRANCH   1   7
BRANCH   2   9
ATOM      9  O   UNL     1     138.694 144.731 143.203  1.00  0.00    -0.504 OA
ATOM     10  H   UNL     1     139.321 144.221 143.813  1.00  0.00     0.293 HD
ENDBRANCH   2   9
BRANCH   5  11
ATOM     11  C   UNL     1     136.000 149.433 144.909  1.00  0.00     0.260 C 
ATOM     12  O   UNL     1     136.497 150.566 144.675  1.00  0.00    -0.298 OA
ENDBRANCH   5  11
TORSDOF 3
ENDMDL
MODEL 8
REMARK VINA RESULT:    -3.199      8.431     10.310
REMARK INTER + INTRA:          -3.740
REMARK INTER:                  -3.670
REMARK INTRA:                  -0.070
REMARK UNBOUND:                -0.073
REMARK SMILES COc1cc(C=O)ccc1O
REMARK SMILES IDX 3 1 10 2 9 3 8 4 5 5 4 6 2 7 1 8 11 9 6 11 7 12
REMARK H PARENT 11 10
REMARK Flexibility Score: inf
ROOT
ATOM      1  C   UNL     1     144.683 135.683 144.133  1.00  0.00     0.161 A 
ATOM      2  C   UNL     1     143.341 135.760 143.719  1.00  0.00     0.157 A 
ATOM      3  C   UNL     1     142.500 134.653 143.858  1.00  0.00     0.051 A 
ATOM      4  C   UNL     1     142.981 133.463 144.407  1.00  0.00     0.015 A 
ATOM      5  C   UNL     1     144.316 133.366 144.825  1.00  0.00     0.018 A 
ATOM      6  C   UNL     1     145.164 134.478 144.687  1.00  0.00     0.062 A 
ENDROOT
BRANCH   1   7
ATOM      7  O   UNL     1     145.505 136.811 143.981  1.00  0.00    -0.493 OA
ATOM      8  C   UNL     1     146.044 137.571 145.058  1.00  0.00     0.278 C 
ENDBRANCH   1   7
BRANCH   2   9
ATOM      9  O   UNL     1     142.824 136.932 143.166  1.00  0.00    -0.504 OA
ATOM     10  H   UNL     1     143.368 137.785 143.103  1.00  0.00     0.293 HD
ENDBRANCH   2   9
BRANCH   5  11
ATOM     11  C   UNL     1     144.805 132.100 145.402  1.00  0.00     0.260 C 
ATOM     12  O   UNL     1     145.056 131.105 144.672  1.00  0.00    -0.298 OA
ENDBRANCH   5  11
TORSDOF 3
ENDMDL
MODEL 9
REMARK VINA RESULT:    -3.187      8.715     10.786
REMARK INTER + INTRA:          -3.725
REMARK INTER:                  -3.661
REMARK INTRA:                  -0.064
REMARK UNBOUND:                -0.073
REMARK SMILES COc1cc(C=O)ccc1O
REMARK SMILES IDX 3 1 10 2 9 3 8 4 5 5 4 6 2 7 1 8 11 9 6 11 7 12
REMARK H PARENT 11 10
REMARK Flexibility Score: inf
ROOT
ATOM      1  C   UNL     1     145.600 133.242 144.128  1.00  0.00     0.161 A 
ATOM      2  C   UNL     1     144.654 132.209 144.260  1.00  0.00     0.157 A 
ATOM      3  C   UNL     1     143.288 132.504 144.254  1.00  0.00     0.051 A 
ATOM      4  C   UNL     1     142.850 133.823 144.117  1.00  0.00     0.015 A 
ATOM      5  C   UNL     1     143.777 134.866 143.986  1.00  0.00     0.018 A 
ATOM      6  C   UNL     1     145.151 134.572 143.991  1.00  0.00     0.062 A 
ENDROOT
BRANCH   1   7
ATOM      7  O   UNL     1     146.965 132.915 144.138  1.00  0.00    -0.493 OA
ATOM      8  C   UNL     1     147.920 133.455 145.046  1.00  0.00     0.278 C 
ENDBRANCH   1   7
BRANCH   2   9
ATOM      9  O   UNL     1     145.054 130.879 144.398  1.00  0.00    -0.504 OA
ATOM     10  H   UNL     1     144.750 130.303 145.174  1.00  0.00     0.293 HD
ENDBRANCH   2   9
BRANCH   5  11
ATOM     11  C   UNL     1     143.294 136.252 143.842  1.00  0.00     0.260 C 
ATOM     12  O   UNL     1     142.818 136.881 144.824  1.00  0.00    -0.298 OA
ENDBRANCH   5  11
TORSDOF 3
ENDMDL
