MODEL 1
REMARK VINA RESULT:    -4.305      0.000      0.000
REMARK INTER + INTRA:          -6.574
REMARK INTER:                  -5.941
REMARK INTRA:                  -0.633
REMARK UNBOUND:                -0.633
REMARK SMILES OC[C@@H](O)[C@@H](O)[C@@H](O)CO
REMARK SMILES IDX 5 1 3 2 2 3 1 4 4 6 7 8 9 9 10 10 8 12 6 14
REMARK H PARENT 1 5 4 7 10 11 8 13 6 15
REMARK Flexibility Score: inf
ROOT
ATOM      1  C   UNL     1      -8.714  24.588 -34.238  1.00  0.00     0.176 C 
ENDROOT
BRANCH   1   2
ATOM      2  C   UNL     1      -9.515  25.303 -35.364  1.00  0.00     0.171 C 
BRANCH   2   3
ATOM      3  C   UNL     1      -9.700  26.818 -35.146  1.00  0.00     0.190 C 
BRANCH   3   4
ATOM      4  O   UNL     1     -10.599  27.080 -34.102  1.00  0.00    -0.394 OA
ATOM      5  H   UNL     1     -11.197  26.290 -34.039  1.00  0.00     0.210 HD
ENDBRANCH   3   4
ENDBRANCH   2   3
BRANCH   2   6
ATOM      6  O   UNL     1      -8.900  25.077 -36.607  1.00  0.00    -0.388 OA
ATOM      7  H   UNL     1      -8.428  25.916 -36.855  1.00  0.00     0.211 HD
ENDBRANCH   2   6
ENDBRANCH   1   2
BRANCH   1   8
ATOM      8  C   UNL     1      -8.705  23.035 -34.346  1.00  0.00     0.171 C 
BRANCH   8   9
ATOM      9  C   UNL     1      -8.554  22.365 -32.968  1.00  0.00     0.190 C 
BRANCH   9  10
ATOM     10  O   UNL     1      -9.778  22.363 -32.286  1.00  0.00    -0.394 OA
ATOM     11  H   UNL     1      -9.927  21.428 -31.990  1.00  0.00     0.210 HD
ENDBRANCH   9  10
ENDBRANCH   8   9
BRANCH   8  12
ATOM     12  O   UNL     1      -7.630  22.630 -35.154  1.00  0.00    -0.388 OA
ATOM     13  H   UNL     1      -6.967  22.194 -34.557  1.00  0.00     0.211 HD
ENDBRANCH   8  12
ENDBRANCH   1   8
BRANCH   1  14
ATOM     14  O   UNL     1      -9.212  25.000 -32.988  1.00  0.00    -0.388 OA
ATOM     15  H   UNL     1      -9.975  24.407 -32.759  1.00  0.00     0.211 HD
ENDBRANCH   1  14
TORSDOF 9
ENDMDL
MODEL 2
REMARK VINA RESULT:    -3.938      1.153      2.151
REMARK INTER + INTRA:          -6.068
REMARK INTER:                  -5.348
REMARK INTRA:                  -0.719
REMARK UNBOUND:                -0.633
REMARK SMILES OC[C@@H](O)[C@@H](O)[C@@H](O)CO
REMARK SMILES IDX 5 1 3 2 2 3 1 4 4 6 7 8 9 9 10 10 8 12 6 14
REMARK H PARENT 1 5 4 7 10 11 8 13 6 15
REMARK Flexibility Score: inf
ROOT
ATOM      1  C   UNL     1      -9.032  23.385 -34.748  1.00  0.00     0.176 C 
ENDROOT
BRANCH   1   2
ATOM      2  C   UNL     1      -8.982  24.911 -34.448  1.00  0.00     0.171 C 
BRANCH   2   3
ATOM      3  C   UNL     1      -9.585  25.795 -35.559  1.00  0.00     0.190 C 
BRANCH   3   4
ATOM      4  O   UNL     1     -10.626  25.136 -36.229  1.00  0.00    -0.394 OA
ATOM      5  H   UNL     1     -10.202  24.439 -36.794  1.00  0.00     0.210 HD
ENDBRANCH   3   4
ENDBRANCH   2   3
BRANCH   2   6
ATOM      6  O   UNL     1      -9.624  25.182 -33.228  1.00  0.00    -0.388 OA
ATOM      7  H   UNL     1     -10.516  25.560 -33.448  1.00  0.00     0.211 HD
ENDBRANCH   2   6
ENDBRANCH   1   2
BRANCH   1   8
ATOM      8  C   UNL     1      -8.359  22.497 -33.661  1.00  0.00     0.171 C 
BRANCH   8   9
ATOM      9  C   UNL     1      -9.393  21.668 -32.877  1.00  0.00     0.190 C 
BRANCH   9  10
ATOM     10  O   UNL     1      -9.954  22.431 -31.844  1.00  0.00    -0.394 OA
ATOM     11  H   UNL     1     -10.786  21.963 -31.575  1.00  0.00     0.210 HD
ENDBRANCH   9  10
ENDBRANCH   8   9
BRANCH   8  12
ATOM     12  O   UNL     1      -7.670  23.316 -32.751  1.00  0.00    -0.388 OA
ATOM     13  H   UNL     1      -6.709  23.076 -32.815  1.00  0.00     0.211 HD
ENDBRANCH   8  12
ENDBRANCH   1   8
BRANCH   1  14
ATOM     14  O   UNL     1      -8.462  23.146 -36.012  1.00  0.00    -0.388 OA
ATOM     15  H   UNL     1      -9.116  22.620 -36.542  1.00  0.00     0.211 HD
ENDBRANCH   1  14
TORSDOF 9
ENDMDL
MODEL 3
REMARK VINA RESULT:    -3.869      1.131      2.906
REMARK INTER + INTRA:          -5.972
REMARK INTER:                  -5.316
REMARK INTRA:                  -0.656
REMARK UNBOUND:                -0.633
REMARK SMILES OC[C@@H](O)[C@@H](O)[C@@H](O)CO
REMARK SMILES IDX 5 1 3 2 2 3 1 4 4 6 7 8 9 9 10 10 8 12 6 14
REMARK H PARENT 1 5 4 7 10 11 8 13 6 15
REMARK Flexibility Score: inf
ROOT
ATOM      1  C   UNL     1      -9.591  25.397 -35.550  1.00  0.00     0.176 C 
ENDROOT
BRANCH   1   2
ATOM      2  C   UNL     1      -9.549  26.952 -35.604  1.00  0.00     0.171 C 
BRANCH   2   3
ATOM      3  C   UNL     1     -10.348  27.567 -36.772  1.00  0.00     0.190 C 
BRANCH   3   4
ATOM      4  O   UNL     1      -9.683  27.394 -37.994  1.00  0.00    -0.394 OA
ATOM      5  H   UNL     1      -9.097  28.186 -38.112  1.00  0.00     0.210 HD
ENDBRANCH   3   4
ENDBRANCH   2   3
BRANCH   2   6
ATOM      6  O   UNL     1     -10.005  27.486 -34.387  1.00  0.00    -0.388 OA
ATOM      7  H   UNL     1      -9.702  26.870 -33.669  1.00  0.00     0.211 HD
ENDBRANCH   2   6
ENDBRANCH   1   2
BRANCH   1   8
ATOM      8  C   UNL     1      -8.824  24.778 -34.345  1.00  0.00     0.171 C 
BRANCH   8   9
ATOM      9  C   UNL     1      -8.775  23.241 -34.425  1.00  0.00     0.190 C 
BRANCH   9  10
ATOM     10  O   UNL     1      -7.636  22.822 -35.126  1.00  0.00    -0.394 OA
ATOM     11  H   UNL     1      -6.935  22.662 -34.443  1.00  0.00     0.210 HD
ENDBRANCH   9  10
ENDBRANCH   8   9
BRANCH   8  12
ATOM     12  O   UNL     1      -9.466  25.137 -33.150  1.00  0.00    -0.388 OA
ATOM     13  H   UNL     1     -10.439  25.179 -33.343  1.00  0.00     0.211 HD
ENDBRANCH   8  12
ENDBRANCH   1   8
BRANCH   1  14
ATOM     14  O   UNL     1      -9.109  24.883 -36.768  1.00  0.00    -0.388 OA
ATOM     15  H   UNL     1      -8.611  25.610 -37.225  1.00  0.00     0.211 HD
ENDBRANCH   1  14
TORSDOF 9
ENDMDL
MODEL 4
REMARK VINA RESULT:    -3.803      0.991      3.706
REMARK INTER + INTRA:          -5.880
REMARK INTER:                  -5.209
REMARK INTRA:                  -0.671
REMARK UNBOUND:                -0.633
REMARK SMILES OC[C@@H](O)[C@@H](O)[C@@H](O)CO
REMARK SMILES IDX 5 1 3 2 2 3 1 4 4 6 7 8 9 9 10 10 8 12 6 14
REMARK H PARENT 1 5 4 7 10 11 8 13 6 15
REMARK Flexibility Score: inf
ROOT
ATOM      1  C   UNL     1      -9.120  24.196 -33.630  1.00  0.00     0.176 C 
ENDROOT
BRANCH   1   2
ATOM      2  C   UNL     1      -8.739  22.723 -33.959  1.00  0.00     0.171 C 
BRANCH   2   3
ATOM      3  C   UNL     1      -8.603  21.813 -32.722  1.00  0.00     0.190 C 
BRANCH   3   4
ATOM      4  O   UNL     1      -9.615  22.066 -31.786  1.00  0.00    -0.394 OA
ATOM      5  H   UNL     1     -10.431  22.292 -32.304  1.00  0.00     0.210 HD
ENDBRANCH   3   4
ENDBRANCH   2   3
BRANCH   2   6
ATOM      6  O   UNL     1      -9.677  22.174 -34.849  1.00  0.00    -0.388 OA
ATOM      7  H   UNL     1     -10.578  22.433 -34.519  1.00  0.00     0.211 HD
ENDBRANCH   2   6
ENDBRANCH   1   2
BRANCH   1   8
ATOM      8  C   UNL     1      -8.883  25.195 -34.800  1.00  0.00     0.171 C 
BRANCH   8   9
ATOM      9  C   UNL     1      -9.827  26.408 -34.718  1.00  0.00     0.190 C 
BRANCH   9  10
ATOM     10  O   UNL     1     -10.639  26.323 -33.580  1.00  0.00    -0.394 OA
ATOM     11  H   UNL     1     -10.023  26.300 -32.802  1.00  0.00     0.210 HD
ENDBRANCH   9  10
ENDBRANCH   8   9
BRANCH   8  12
ATOM     12  O   UNL     1      -9.109  24.542 -36.023  1.00  0.00    -0.388 OA
ATOM     13  H   UNL     1      -9.996  24.841 -36.353  1.00  0.00     0.211 HD
ENDBRANCH   8  12
ENDBRANCH   1   8
BRANCH   1  14
ATOM     14  O   UNL     1      -8.424  24.603 -32.476  1.00  0.00    -0.388 OA
ATOM     15  H   UNL     1      -7.489  24.283 -32.562  1.00  0.00     0.211 HD
ENDBRANCH   1  14
TORSDOF 9
ENDMDL
MODEL 5
REMARK VINA RESULT:    -3.801      2.593      4.123
REMARK INTER + INTRA:          -5.878
REMARK INTER:                  -5.085
REMARK INTRA:                  -0.793
REMARK UNBOUND:                -0.633
REMARK SMILES OC[C@@H](O)[C@@H](O)[C@@H](O)CO
REMARK SMILES IDX 5 1 3 2 2 3 1 4 4 6 7 8 9 9 10 10 8 12 6 14
REMARK H PARENT 1 5 4 7 10 11 8 13 6 15
REMARK Flexibility Score: inf
ROOT
ATOM      1  C   UNL     1     -10.374  26.489 -36.614  1.00  0.00     0.176 C 
ENDROOT
BRANCH   1   2
ATOM      2  C   UNL     1      -9.255  25.531 -37.113  1.00  0.00     0.171 C 
BRANCH   2   3
ATOM      3  C   UNL     1      -9.603  24.033 -36.994  1.00  0.00     0.190 C 
BRANCH   3   4
ATOM      4  O   UNL     1      -9.655  23.625 -35.653  1.00  0.00    -0.394 OA
ATOM      5  H   UNL     1     -10.013  22.699 -35.653  1.00  0.00     0.210 HD
ENDBRANCH   3   4
ENDBRANCH   2   3
BRANCH   2   6
ATOM      6  O   UNL     1      -8.923  25.834 -38.444  1.00  0.00    -0.388 OA
ATOM      7  H   UNL     1      -8.089  25.336 -38.656  1.00  0.00     0.211 HD
ENDBRANCH   2   6
ENDBRANCH   1   2
BRANCH   1   8
ATOM      8  C   UNL     1      -9.964  27.376 -35.402  1.00  0.00     0.171 C 
BRANCH   8   9
ATOM      9  C   UNL     1     -10.764  27.021 -34.135  1.00  0.00     0.190 C 
BRANCH   9  10
ATOM     10  O   UNL     1     -10.288  25.828 -33.573  1.00  0.00    -0.394 OA
ATOM     11  H   UNL     1     -10.199  25.999 -32.600  1.00  0.00     0.210 HD
ENDBRANCH   9  10
ENDBRANCH   8   9
BRANCH   8  12
ATOM     12  O   UNL     1     -10.202  28.725 -35.710  1.00  0.00    -0.388 OA
ATOM     13  H   UNL     1      -9.519  29.259 -35.225  1.00  0.00     0.211 HD
ENDBRANCH   8  12
ENDBRANCH   1   8
BRANCH   1  14
ATOM     14  O   UNL     1     -11.524  25.735 -36.316  1.00  0.00    -0.388 OA
ATOM     15  H   UNL     1     -12.315  26.300 -36.519  1.00  0.00     0.211 HD
ENDBRANCH   1  14
TORSDOF 9
ENDMDL
MODEL 6
REMARK VINA RESULT:    -3.779      2.537      5.314
REMARK INTER + INTRA:          -5.848
REMARK INTER:                  -5.270
REMARK INTRA:                  -0.578
REMARK UNBOUND:                -0.633
REMARK SMILES OC[C@@H](O)[C@@H](O)[C@@H](O)CO
REMARK SMILES IDX 5 1 3 2 2 3 1 4 4 6 7 8 9 9 10 10 8 12 6 14
REMARK H PARENT 1 5 4 7 10 11 8 13 6 15
REMARK Flexibility Score: inf
ROOT
ATOM      1  C   UNL     1     -10.365  27.640 -35.849  1.00  0.00     0.176 C 
ENDROOT
BRANCH   1   2
ATOM      2  C   UNL     1      -9.817  26.184 -35.852  1.00  0.00     0.171 C 
BRANCH   2   3
ATOM      3  C   UNL     1      -9.220  25.729 -34.505  1.00  0.00     0.190 C 
BRANCH   3   4
ATOM      4  O   UNL     1     -10.185  25.735 -33.488  1.00  0.00    -0.394 OA
ATOM      5  H   UNL     1      -9.799  26.253 -32.734  1.00  0.00     0.210 HD
ENDBRANCH   3   4
ENDBRANCH   2   3
BRANCH   2   6
ATOM      6  O   UNL     1     -10.828  25.292 -36.245  1.00  0.00    -0.388 OA
ATOM      7  H   UNL     1     -10.444  24.712 -36.955  1.00  0.00     0.211 HD
ENDBRANCH   2   6
ENDBRANCH   1   2
BRANCH   1   8
ATOM      8  C   UNL     1      -9.900  28.501 -37.059  1.00  0.00     0.171 C 
BRANCH   8   9
ATOM      9  C   UNL     1     -10.622  29.860 -37.107  1.00  0.00     0.190 C 
BRANCH   9  10
ATOM     10  O   UNL     1     -10.071  30.743 -36.168  1.00  0.00    -0.394 OA
ATOM     11  H   UNL     1     -10.159  30.297 -35.286  1.00  0.00     0.210 HD
ENDBRANCH   9  10
ENDBRANCH   8   9
BRANCH   8  12
ATOM     12  O   UNL     1     -10.173  27.814 -38.253  1.00  0.00    -0.388 OA
ATOM     13  H   UNL     1      -9.913  26.867 -38.109  1.00  0.00     0.211 HD
ENDBRANCH   8  12
ENDBRANCH   1   8
BRANCH   1  14
ATOM     14  O   UNL     1     -10.019  28.258 -34.632  1.00  0.00    -0.388 OA
ATOM     15  H   UNL     1      -9.790  29.203 -34.830  1.00  0.00     0.211 HD
ENDBRANCH   1  14
TORSDOF 9
ENDMDL
MODEL 7
REMARK VINA RESULT:    -3.769      2.397      3.677
REMARK INTER + INTRA:          -5.833
REMARK INTER:                  -5.158
REMARK INTRA:                  -0.675
REMARK UNBOUND:                -0.633
REMARK SMILES OC[C@@H](O)[C@@H](O)[C@@H](O)CO
REMARK SMILES IDX 5 1 3 2 2 3 1 4 4 6 7 8 9 9 10 10 8 12 6 14
REMARK H PARENT 1 5 4 7 10 11 8 13 6 15
REMARK Flexibility Score: inf
ROOT
ATOM      1  C   UNL     1      -9.680  27.586 -36.004  1.00  0.00     0.176 C 
ENDROOT
BRANCH   1   2
ATOM      2  C   UNL     1     -10.539  28.173 -37.162  1.00  0.00     0.171 C 
BRANCH   2   3
ATOM      3  C   UNL     1     -10.640  29.711 -37.158  1.00  0.00     0.190 C 
BRANCH   3   4
ATOM      4  O   UNL     1      -9.439  30.303 -36.742  1.00  0.00    -0.394 OA
ATOM      5  H   UNL     1      -9.306  30.039 -35.795  1.00  0.00     0.210 HD
ENDBRANCH   3   4
ENDBRANCH   2   3
BRANCH   2   6
ATOM      6  O   UNL     1     -10.038  27.735 -38.399  1.00  0.00    -0.388 OA
ATOM      7  H   UNL     1      -9.353  28.396 -38.685  1.00  0.00     0.211 HD
ENDBRANCH   2   6
ENDBRANCH   1   2
BRANCH   1   8
ATOM      8  C   UNL     1      -9.773  26.039 -35.859  1.00  0.00     0.171 C 
BRANCH   8   9
ATOM      9  C   UNL     1      -9.246  25.558 -34.495  1.00  0.00     0.190 C 
BRANCH   9  10
ATOM     10  O   UNL     1     -10.179  25.827 -33.485  1.00  0.00    -0.394 OA
ATOM     11  H   UNL     1     -10.158  25.045 -32.874  1.00  0.00     0.210 HD
ENDBRANCH   9  10
ENDBRANCH   8   9
BRANCH   8  12
ATOM     12  O   UNL     1      -9.009  25.430 -36.868  1.00  0.00    -0.388 OA
ATOM     13  H   UNL     1      -8.556  26.157 -37.369  1.00  0.00     0.211 HD
ENDBRANCH   8  12
ENDBRANCH   1   8
BRANCH   1  14
ATOM     14  O   UNL     1     -10.036  28.223 -34.801  1.00  0.00    -0.388 OA
ATOM     15  H   UNL     1     -10.930  28.634 -34.931  1.00  0.00     0.211 HD
ENDBRANCH   1  14
TORSDOF 9
ENDMDL
MODEL 8
REMARK VINA RESULT:    -3.651      2.337      4.237
REMARK INTER + INTRA:          -5.671
REMARK INTER:                  -5.544
REMARK INTRA:                  -0.127
REMARK UNBOUND:                -0.633
REMARK SMILES OC[C@@H](O)[C@@H](O)[C@@H](O)CO
REMARK SMILES IDX 5 1 3 2 2 3 1 4 4 6 7 8 9 9 10 10 8 12 6 14
REMARK H PARENT 1 5 4 7 10 11 8 13 6 15
REMARK Flexibility Score: inf
ROOT
ATOM      1  C   UNL     1     -10.467  26.547 -36.751  1.00  0.00     0.176 C 
ENDROOT
BRANCH   1   2
ATOM      2  C   UNL     1     -10.307  26.715 -35.212  1.00  0.00     0.171 C 
BRANCH   2   3
ATOM      3  C   UNL     1      -9.234  25.804 -34.583  1.00  0.00     0.190 C 
BRANCH   3   4
ATOM      4  O   UNL     1      -9.652  25.301 -33.343  1.00  0.00    -0.394 OA
ATOM      5  H   UNL     1      -8.918  25.486 -32.701  1.00  0.00     0.210 HD
ENDBRANCH   3   4
ENDBRANCH   2   3
BRANCH   2   6
ATOM      6  O   UNL     1     -10.028  28.057 -34.903  1.00  0.00    -0.388 OA
ATOM      7  H   UNL     1     -10.498  28.263 -34.052  1.00  0.00     0.211 HD
ENDBRANCH   2   6
ENDBRANCH   1   2
BRANCH   1   8
ATOM      8  C   UNL     1     -11.662  25.645 -37.176  1.00  0.00     0.171 C 
BRANCH   8   9
ATOM      9  C   UNL     1     -12.962  26.036 -36.449  1.00  0.00     0.190 C 
BRANCH   9  10
ATOM     10  O   UNL     1     -13.700  24.892 -36.114  1.00  0.00    -0.394 OA
ATOM     11  H   UNL     1     -13.596  24.775 -35.134  1.00  0.00     0.210 HD
ENDBRANCH   9  10
ENDBRANCH   8   9
BRANCH   8  12
ATOM     12  O   UNL     1     -11.369  24.307 -36.866  1.00  0.00    -0.388 OA
ATOM     13  H   UNL     1     -10.970  24.300 -35.956  1.00  0.00     0.211 HD
ENDBRANCH   8  12
ENDBRANCH   1   8
BRANCH   1  14
ATOM     14  O   UNL     1      -9.259  26.063 -37.287  1.00  0.00    -0.388 OA
ATOM     15  H   UNL     1      -9.257  26.269 -38.258  1.00  0.00     0.211 HD
ENDBRANCH   1  14
TORSDOF 9
ENDMDL
MODEL 9
REMARK VINA RESULT:    -3.648      2.319      4.078
REMARK INTER + INTRA:          -5.667
REMARK INTER:                  -5.200
REMARK INTRA:                  -0.467
REMARK UNBOUND:                -0.633
REMARK SMILES OC[C@@H](O)[C@@H](O)[C@@H](O)CO
REMARK SMILES IDX 5 1 3 2 2 3 1 4 4 6 7 8 9 9 10 10 8 12 6 14
REMARK H PARENT 1 5 4 7 10 11 8 13 6 15
REMARK Flexibility Score: inf
ROOT
ATOM      1  C   UNL     1     -11.140  26.680 -36.028  1.00  0.00     0.176 C 
ENDROOT
BRANCH   1   2
ATOM      2  C   UNL     1     -10.771  27.402 -37.357  1.00  0.00     0.171 C 
BRANCH   2   3
ATOM      3  C   UNL     1     -10.186  26.474 -38.440  1.00  0.00     0.190 C 
BRANCH   3   4
ATOM      4  O   UNL     1      -8.858  26.127 -38.155  1.00  0.00    -0.394 OA
ATOM      5  H   UNL     1      -8.369  26.977 -38.002  1.00  0.00     0.210 HD
ENDBRANCH   3   4
ENDBRANCH   2   3
BRANCH   2   6
ATOM      6  O   UNL     1     -11.896  28.072 -37.866  1.00  0.00    -0.388 OA
ATOM      7  H   UNL     1     -12.275  28.610 -37.121  1.00  0.00     0.211 HD
ENDBRANCH   2   6
ENDBRANCH   1   2
BRANCH   1   8
ATOM      8  C   UNL     1     -10.202  27.020 -34.833  1.00  0.00     0.171 C 
BRANCH   8   9
ATOM      9  C   UNL     1      -9.171  25.906 -34.578  1.00  0.00     0.190 C 
BRANCH   9  10
ATOM     10  O   UNL     1      -9.537  25.144 -33.460  1.00  0.00    -0.394 OA
ATOM     11  H   UNL     1     -10.491  25.354 -33.285  1.00  0.00     0.210 HD
ENDBRANCH   9  10
ENDBRANCH   8   9
BRANCH   8  12
ATOM     12  O   UNL     1     -10.971  27.185 -33.670  1.00  0.00    -0.388 OA
ATOM     13  H   UNL     1     -11.501  26.353 -33.552  1.00  0.00     0.211 HD
ENDBRANCH   8  12
ENDBRANCH   1   8
BRANCH   1  14
ATOM     14  O   UNL     1     -11.176  25.291 -36.256  1.00  0.00    -0.388 OA
ATOM     15  H   UNL     1     -10.777  25.123 -37.149  1.00  0.00     0.211 HD
ENDBRANCH   1  14
TORSDOF 9
ENDMDL
