MODEL 1
REMARK VINA RESULT:    -4.542      0.000      0.000
REMARK INTER + INTRA:          -9.671
REMARK INTER:                  -7.860
REMARK INTRA:                  -1.810
REMARK UNBOUND:                -1.810
REMARK SMILES OC[C@@H]1O[C@@H](O)[C@@H](O)[C@H](O)[C@H]1O[C@@H]1O[C@H](CO)[C@H](O[C@H]2O[C@H](CO)[C@@H](O)[C@@H](O)[C@@H]2O)[C@H](O)[C@H]1O
REMARK SMILES IDX 18 1 15 2 14 3 13 4 33 5 31 6 19 7 20 8 22 9 25 10 21 11
REMARK SMILES IDX 27 12 29 13 23 14 24 15 26 17 28 19 30 21 16 23 17 24 32 26
REMARK SMILES IDX 34 28 12 30 11 31 3 32 9 33 4 34 7 35 5 36 2 37 1 38 10 40
REMARK SMILES IDX 8 42 6 44
REMARK H PARENT 24 16 26 18 28 20 30 22 17 25 32 27 34 29 1 39 10 41 8 43 6 45
REMARK Flexibility Score: inf
ROOT
ATOM      1  C   UNL     1       8.596  -8.520  -2.826  1.00  0.00     0.184 C 
ATOM      2  C   UNL     1       9.504  -7.483  -2.082  1.00  0.00     0.178 C 
ATOM      3  O   UNL     1       8.775  -6.948  -0.957  1.00  0.00    -0.341 OA
ATOM      4  C   UNL     1       8.652  -7.939   0.076  1.00  0.00     0.282 C 
ATOM      5  C   UNL     1       8.547  -9.436  -0.455  1.00  0.00     0.202 C 
ATOM      6  C   UNL     1       7.722  -9.370  -1.778  1.00  0.00     0.180 C 
ENDROOT
BRANCH   1   7
ATOM      7  O   UNL     1       7.963  -8.038  -4.015  1.00  0.00    -0.341 OA
BRANCH   7   8
ATOM      8  C   UNL     1       7.657  -8.944  -5.075  1.00  0.00     0.282 C 
ATOM      9  C   UNL     1       5.484  -7.977  -5.276  1.00  0.00     0.178 C 
ATOM     10  C   UNL     1       5.889  -7.096  -6.504  1.00  0.00     0.177 C 
ATOM     11  O   UNL     1       6.247  -9.164  -5.142  1.00  0.00    -0.341 OA
ATOM     12  C   UNL     1       7.450  -6.909  -6.572  1.00  0.00     0.179 C 
ATOM     13  C   UNL     1       8.090  -8.312  -6.465  1.00  0.00     0.202 C 
BRANCH   9  14
ATOM     14  C   UNL     1       3.981  -8.378  -5.329  1.00  0.00     0.191 C 
BRANCH  14  15
ATOM     15  O   UNL     1       3.366  -7.806  -6.440  1.00  0.00    -0.394 OA
ATOM     16  H   UNL     1       2.809  -7.044  -6.099  1.00  0.00     0.210 HD
ENDBRANCH  14  15
ENDBRANCH   9  14
BRANCH  10  17
ATOM     17  O   UNL     1       5.218  -5.855  -6.398  1.00  0.00    -0.387 OA
ATOM     18  H   UNL     1       4.263  -5.994  -6.651  1.00  0.00     0.211 HD
ENDBRANCH  10  17
BRANCH  12  19
ATOM     19  O   UNL     1       7.938  -6.062  -5.545  1.00  0.00    -0.387 OA
ATOM     20  H   UNL     1       8.395  -6.607  -4.816  1.00  0.00     0.211 HD
ENDBRANCH  12  19
BRANCH  13  21
ATOM     21  O   UNL     1       7.599  -9.144  -7.510  1.00  0.00    -0.385 OA
ATOM     22  H   UNL     1       7.244  -9.977  -7.083  1.00  0.00     0.211 HD
ENDBRANCH  13  21
ENDBRANCH   7   8
ENDBRANCH   1   7
BRANCH   2  23
ATOM     23  C   UNL     1      10.113  -6.310  -2.901  1.00  0.00     0.191 C 
BRANCH  23  24
ATOM     24  O   UNL     1       9.105  -5.326  -2.991  1.00  0.00    -0.394 OA
ATOM     25  H   UNL     1       9.164  -4.782  -2.134  1.00  0.00     0.210 HD
ENDBRANCH  23  24
ENDBRANCH   2  23
BRANCH   6  26
ATOM     26  O   UNL     1       6.430  -8.882  -1.389  1.00  0.00    -0.387 OA
ATOM     27  H   UNL     1       5.772  -9.637  -1.418  1.00  0.00     0.211 HD
ENDBRANCH   6  26
BRANCH   5  28
ATOM     28  O   UNL     1       9.805 -10.045  -0.707  1.00  0.00    -0.385 OA
ATOM     29  H   UNL     1      10.505  -9.339  -0.793  1.00  0.00     0.211 HD
ENDBRANCH   5  28
BRANCH   4  30
ATOM     30  O   UNL     1       7.412  -7.688   0.747  1.00  0.00    -0.341 OA
BRANCH  30  31
ATOM     31  C   UNL     1       7.237  -8.473   1.928  1.00  0.00     0.184 C 
ATOM     32  C   UNL     1       7.918  -7.998   3.234  1.00  0.00     0.178 C 
ATOM     33  C   UNL     1       5.746  -8.746   2.219  1.00  0.00     0.180 C 
ATOM     34  O   UNL     1       7.865  -9.059   4.189  1.00  0.00    -0.342 OA
ATOM     35  C   UNL     1       5.690  -9.808   3.307  1.00  0.00     0.201 C 
ATOM     36  C   UNL     1       6.515  -9.390   4.548  1.00  0.00     0.279 C 
BRANCH  32  37
ATOM     37  C   UNL     1       9.403  -7.658   3.002  1.00  0.00     0.191 C 
BRANCH  37  38
ATOM     38  O   UNL     1       9.578  -6.281   2.972  1.00  0.00    -0.394 OA
ATOM     39  H   UNL     1       9.064  -5.891   3.746  1.00  0.00     0.210 HD
ENDBRANCH  37  38
ENDBRANCH  32  37
BRANCH  33  40
ATOM     40  O   UNL     1       5.073  -9.158   1.055  1.00  0.00    -0.387 OA
ATOM     41  H   UNL     1       5.625  -8.896   0.279  1.00  0.00     0.211 HD
ENDBRANCH  33  40
BRANCH  35  42
ATOM     42  O   UNL     1       4.350 -10.118   3.654  1.00  0.00    -0.385 OA
ATOM     43  H   UNL     1       3.905 -10.397   2.814  1.00  0.00     0.211 HD
ENDBRANCH  35  42
BRANCH  36  44
ATOM     44  O   UNL     1       5.895  -8.312   5.215  1.00  0.00    -0.366 OA
ATOM     45  H   UNL     1       5.443  -7.757   4.524  1.00  0.00     0.213 HD
ENDBRANCH  36  44
ENDBRANCH  30  31
ENDBRANCH   4  30
TORSDOF 18
ENDMDL
MODEL 2
REMARK VINA RESULT:    -3.491      2.802      8.511
REMARK INTER + INTRA:          -7.853
REMARK INTER:                  -5.955
REMARK INTRA:                  -1.898
REMARK UNBOUND:                -1.810
REMARK SMILES OC[C@@H]1O[C@@H](O)[C@@H](O)[C@H](O)[C@H]1O[C@@H]1O[C@H](CO)[C@H](O[C@H]2O[C@H](CO)[C@@H](O)[C@@H](O)[C@@H]2O)[C@H](O)[C@H]1O
REMARK SMILES IDX 18 1 15 2 14 3 13 4 33 5 31 6 19 7 20 8 22 9 25 10 21 11
REMARK SMILES IDX 27 12 29 13 23 14 24 15 26 17 28 19 30 21 16 23 17 24 32 26
REMARK SMILES IDX 34 28 12 30 11 31 3 32 9 33 4 34 7 35 5 36 2 37 1 38 10 40
REMARK SMILES IDX 8 42 6 44
REMARK H PARENT 24 16 26 18 28 20 30 22 17 25 32 27 34 29 1 39 10 41 8 43 6 45
REMARK Flexibility Score: inf
ROOT
ATOM      1  C   UNL     1       7.657  -6.502  -5.034  1.00  0.00     0.184 C 
ATOM      2  C   UNL     1       8.299  -6.839  -6.422  1.00  0.00     0.178 C 
ATOM      3  O   UNL     1       7.593  -7.954  -7.005  1.00  0.00    -0.341 OA
ATOM      4  C   UNL     1       6.287  -7.543  -7.443  1.00  0.00     0.282 C 
ATOM      5  C   UNL     1       5.623  -6.401  -6.556  1.00  0.00     0.202 C 
ATOM      6  C   UNL     1       6.060  -6.684  -5.085  1.00  0.00     0.180 C 
ENDROOT
BRANCH   1   7
ATOM      7  O   UNL     1       8.366  -6.995  -3.894  1.00  0.00    -0.341 OA
BRANCH   7   8
ATOM      8  C   UNL     1       8.376  -6.241  -2.682  1.00  0.00     0.282 C 
ATOM      9  C   UNL     1       7.198  -8.000  -1.578  1.00  0.00     0.178 C 
ATOM     10  C   UNL     1       8.493  -8.576  -0.916  1.00  0.00     0.177 C 
ATOM     11  O   UNL     1       7.265  -6.613  -1.864  1.00  0.00    -0.341 OA
ATOM     12  C   UNL     1       9.778  -8.106  -1.692  1.00  0.00     0.179 C 
ATOM     13  C   UNL     1       9.688  -6.571  -1.853  1.00  0.00     0.202 C 
BRANCH   9  14
ATOM     14  C   UNL     1       5.943  -8.245  -0.691  1.00  0.00     0.191 C 
BRANCH  14  15
ATOM     15  O   UNL     1       5.234  -9.352  -1.150  1.00  0.00    -0.394 OA
ATOM     16  H   UNL     1       5.722 -10.163  -0.818  1.00  0.00     0.210 HD
ENDBRANCH  14  15
ENDBRANCH   9  14
BRANCH  10  17
ATOM     17  O   UNL     1       8.385  -9.986  -0.889  1.00  0.00    -0.387 OA
ATOM     18  H   UNL     1       7.427 -10.228  -1.032  1.00  0.00     0.211 HD
ENDBRANCH  10  17
BRANCH  12  19
ATOM     19  O   UNL     1       9.903  -8.731  -2.959  1.00  0.00    -0.387 OA
ATOM     20  H   UNL     1       8.986  -8.959  -3.340  1.00  0.00     0.211 HD
ENDBRANCH  12  19
BRANCH  13  21
ATOM     21  O   UNL     1       9.577  -5.962  -0.571  1.00  0.00    -0.385 OA
ATOM     22  H   UNL     1       9.441  -6.697   0.094  1.00  0.00     0.211 HD
ENDBRANCH  13  21
ENDBRANCH   7   8
ENDBRANCH   1   7
BRANCH   2  23
ATOM     23  C   UNL     1       9.829  -7.114  -6.482  1.00  0.00     0.191 C 
BRANCH  23  24
ATOM     24  O   UNL     1      10.033  -8.347  -5.824  1.00  0.00    -0.394 OA
ATOM     25  H   UNL     1       9.447  -8.324  -4.994  1.00  0.00     0.210 HD
ENDBRANCH  23  24
ENDBRANCH   2  23
BRANCH   6  26
ATOM     26  O   UNL     1       5.492  -7.963  -4.766  1.00  0.00    -0.387 OA
ATOM     27  H   UNL     1       5.528  -8.099  -3.775  1.00  0.00     0.211 HD
ENDBRANCH   6  26
BRANCH   5  28
ATOM     28  O   UNL     1       6.014  -5.087  -6.926  1.00  0.00    -0.385 OA
ATOM     29  H   UNL     1       6.462  -4.643  -6.152  1.00  0.00     0.211 HD
ENDBRANCH   5  28
BRANCH   4  30
ATOM     30  O   UNL     1       5.427  -8.680  -7.303  1.00  0.00    -0.341 OA
BRANCH  30  31
ATOM     31  C   UNL     1       4.090  -8.437  -7.747  1.00  0.00     0.184 C 
ATOM     32  C   UNL     1       3.796  -8.508  -9.265  1.00  0.00     0.178 C 
ATOM     33  C   UNL     1       3.070  -9.324  -7.003  1.00  0.00     0.180 C 
ATOM     34  O   UNL     1       2.503  -7.952  -9.506  1.00  0.00    -0.342 OA
ATOM     35  C   UNL     1       1.686  -8.790  -7.339  1.00  0.00     0.201 C 
ATOM     36  C   UNL     1       1.465  -8.711  -8.868  1.00  0.00     0.279 C 
BRANCH  32  37
ATOM     37  C   UNL     1       4.814  -7.682 -10.074  1.00  0.00     0.191 C 
BRANCH  37  38
ATOM     38  O   UNL     1       4.428  -6.348 -10.106  1.00  0.00    -0.394 OA
ATOM     39  H   UNL     1       3.922  -6.156  -9.256  1.00  0.00     0.210 HD
ENDBRANCH  37  38
ENDBRANCH  32  37
BRANCH  33  40
ATOM     40  O   UNL     1       3.309  -9.314  -5.617  1.00  0.00    -0.387 OA
ATOM     41  H   UNL     1       4.102  -9.877  -5.445  1.00  0.00     0.211 HD
ENDBRANCH  33  40
BRANCH  35  42
ATOM     42  O   UNL     1       0.672  -9.555  -6.706  1.00  0.00    -0.385 OA
ATOM     43  H   UNL     1       0.900 -10.505  -6.868  1.00  0.00     0.211 HD
ENDBRANCH  35  42
BRANCH  36  44
ATOM     44  O   UNL     1       1.377 -10.005  -9.424  1.00  0.00    -0.366 OA
ATOM     45  H   UNL     1       0.516 -10.056  -9.920  1.00  0.00     0.213 HD
ENDBRANCH  36  44
ENDBRANCH  30  31
ENDBRANCH   4  30
TORSDOF 18
ENDMDL
MODEL 3
REMARK VINA RESULT:    -3.106      2.675      7.928
REMARK INTER + INTRA:          -7.186
REMARK INTER:                  -4.790
REMARK INTRA:                  -2.396
REMARK UNBOUND:                -1.810
REMARK SMILES OC[C@@H]1O[C@@H](O)[C@@H](O)[C@H](O)[C@H]1O[C@@H]1O[C@H](CO)[C@H](O[C@H]2O[C@H](CO)[C@@H](O)[C@@H](O)[C@@H]2O)[C@H](O)[C@H]1O
REMARK SMILES IDX 18 1 15 2 14 3 13 4 33 5 31 6 19 7 20 8 22 9 25 10 21 11
REMARK SMILES IDX 27 12 29 13 23 14 24 15 26 17 28 19 30 21 16 23 17 24 32 26
REMARK SMILES IDX 34 28 12 30 11 31 3 32 9 33 4 34 7 35 5 36 2 37 1 38 10 40
REMARK SMILES IDX 8 42 6 44
REMARK H PARENT 24 16 26 18 28 20 30 22 17 25 32 27 34 29 1 39 10 41 8 43 6 45
REMARK Flexibility Score: inf
ROOT
ATOM      1  C   UNL     1       9.707  -6.743  -4.217  1.00  0.00     0.184 C 
ATOM      2  C   UNL     1       9.653  -7.702  -5.454  1.00  0.00     0.178 C 
ATOM      3  O   UNL     1       8.316  -7.691  -5.996  1.00  0.00    -0.341 OA
ATOM      4  C   UNL     1       8.056  -6.440  -6.655  1.00  0.00     0.282 C 
ATOM      5  C   UNL     1       8.792  -5.187  -6.007  1.00  0.00     0.202 C 
ATOM      6  C   UNL     1       8.802  -5.437  -4.467  1.00  0.00     0.180 C 
ENDROOT
BRANCH   1   7
ATOM      7  O   UNL     1       9.644  -7.385  -2.940  1.00  0.00    -0.341 OA
BRANCH   7   8
ATOM      8  C   UNL     1       9.377  -6.615  -1.768  1.00  0.00     0.282 C 
ATOM      9  C   UNL     1       7.415  -7.912  -1.361  1.00  0.00     0.178 C 
ATOM     10  C   UNL     1       8.119  -8.806  -0.287  1.00  0.00     0.177 C 
ATOM     11  O   UNL     1       7.976  -6.616  -1.488  1.00  0.00    -0.341 OA
ATOM     12  C   UNL     1       9.682  -8.759  -0.452  1.00  0.00     0.179 C 
ATOM     13  C   UNL     1      10.097  -7.271  -0.516  1.00  0.00     0.202 C 
BRANCH   9  14
ATOM     14  C   UNL     1       5.896  -7.748  -1.065  1.00  0.00     0.191 C 
BRANCH  14  15
ATOM     15  O   UNL     1       5.258  -8.985  -1.108  1.00  0.00    -0.394 OA
ATOM     16  H   UNL     1       5.748  -9.538  -1.787  1.00  0.00     0.210 HD
ENDBRANCH  14  15
ENDBRANCH   9  14
BRANCH  10  17
ATOM     17  O   UNL     1       7.619 -10.124  -0.415  1.00  0.00    -0.387 OA
ATOM     18  H   UNL     1       6.678 -10.070  -0.741  1.00  0.00     0.211 HD
ENDBRANCH  10  17
BRANCH  12  19
ATOM     19  O   UNL     1      10.125  -9.447  -1.611  1.00  0.00    -0.387 OA
ATOM     20  H   UNL     1       9.467  -9.318  -2.378  1.00  0.00     0.211 HD
ENDBRANCH  12  19
BRANCH  13  21
ATOM     21  O   UNL     1       9.656  -6.600   0.660  1.00  0.00    -0.385 OA
ATOM     22  H   UNL     1       8.728  -6.924   0.853  1.00  0.00     0.211 HD
ENDBRANCH  13  21
ENDBRANCH   7   8
ENDBRANCH   1   7
BRANCH   2  23
ATOM     23  C   UNL     1      10.117  -9.175  -5.269  1.00  0.00     0.191 C 
BRANCH  23  24
ATOM     24  O   UNL     1       9.230  -9.754  -4.336  1.00  0.00    -0.394 OA
ATOM     25  H   UNL     1       9.657 -10.630  -4.046  1.00  0.00     0.210 HD
ENDBRANCH  23  24
ENDBRANCH   2  23
BRANCH   6  26
ATOM     26  O   UNL     1       7.419  -5.462  -4.084  1.00  0.00    -0.387 OA
ATOM     27  H   UNL     1       6.869  -5.062  -4.819  1.00  0.00     0.211 HD
ENDBRANCH   6  26
BRANCH   5  28
ATOM     28  O   UNL     1      10.122  -5.001  -6.469  1.00  0.00    -0.385 OA
ATOM     29  H   UNL     1      10.742  -5.574  -5.936  1.00  0.00     0.211 HD
ENDBRANCH   5  28
BRANCH   4  30
ATOM     30  O   UNL     1       6.656  -6.176  -6.505  1.00  0.00    -0.341 OA
BRANCH  30  31
ATOM     31  C   UNL     1       5.827  -7.265  -6.915  1.00  0.00     0.184 C 
ATOM     32  C   UNL     1       4.608  -7.632  -6.035  1.00  0.00     0.178 C 
ATOM     33  C   UNL     1       5.352  -7.106  -8.375  1.00  0.00     0.180 C 
ATOM     34  O   UNL     1       4.108  -8.903  -6.454  1.00  0.00    -0.342 OA
ATOM     35  C   UNL     1       4.731  -8.431  -8.789  1.00  0.00     0.201 C 
ATOM     36  C   UNL     1       3.622  -8.869  -7.803  1.00  0.00     0.279 C 
BRANCH  32  37
ATOM     37  C   UNL     1       5.003  -7.757  -4.551  1.00  0.00     0.191 C 
BRANCH  37  38
ATOM     38  O   UNL     1       4.157  -8.649  -3.905  1.00  0.00    -0.394 OA
ATOM     39  H   UNL     1       3.365  -8.127  -3.566  1.00  0.00     0.210 HD
ENDBRANCH  37  38
ENDBRANCH  32  37
BRANCH  33  40
ATOM     40  O   UNL     1       6.421  -6.747  -9.216  1.00  0.00    -0.387 OA
ATOM     41  H   UNL     1       6.288  -5.806  -9.485  1.00  0.00     0.211 HD
ENDBRANCH  33  40
BRANCH  35  42
ATOM     42  O   UNL     1       4.250  -8.378 -10.124  1.00  0.00    -0.385 OA
ATOM     43  H   UNL     1       4.470  -9.253 -10.532  1.00  0.00     0.211 HD
ENDBRANCH  35  42
BRANCH  36  44
ATOM     44  O   UNL     1       2.499  -8.020  -7.911  1.00  0.00    -0.366 OA
ATOM     45  H   UNL     1       1.693  -8.600  -7.957  1.00  0.00     0.213 HD
ENDBRANCH  36  44
ENDBRANCH  30  31
ENDBRANCH   4  30
TORSDOF 18
ENDMDL
MODEL 4
REMARK VINA RESULT:    -2.993      2.358      4.854
REMARK INTER + INTRA:          -6.990
REMARK INTER:                  -4.588
REMARK INTRA:                  -2.402
REMARK UNBOUND:                -1.810
REMARK SMILES OC[C@@H]1O[C@@H](O)[C@@H](O)[C@H](O)[C@H]1O[C@@H]1O[C@H](CO)[C@H](O[C@H]2O[C@H](CO)[C@@H](O)[C@@H](O)[C@@H]2O)[C@H](O)[C@H]1O
REMARK SMILES IDX 18 1 15 2 14 3 13 4 33 5 31 6 19 7 20 8 22 9 25 10 21 11
REMARK SMILES IDX 27 12 29 13 23 14 24 15 26 17 28 19 30 21 16 23 17 24 32 26
REMARK SMILES IDX 34 28 12 30 11 31 3 32 9 33 4 34 7 35 5 36 2 37 1 38 10 40
REMARK SMILES IDX 8 42 6 44
REMARK H PARENT 24 16 26 18 28 20 30 22 17 25 32 27 34 29 1 39 10 41 8 43 6 45
REMARK Flexibility Score: inf
ROOT
ATOM      1  C   UNL     1       8.711  -5.837  -6.903  1.00  0.00     0.184 C 
ATOM      2  C   UNL     1       7.421  -5.555  -6.062  1.00  0.00     0.178 C 
ATOM      3  O   UNL     1       7.353  -6.504  -4.978  1.00  0.00    -0.341 OA
ATOM      4  C   UNL     1       8.351  -6.204  -3.988  1.00  0.00     0.282 C 
ATOM      5  C   UNL     1       9.691  -5.574  -4.572  1.00  0.00     0.202 C 
ATOM      6  C   UNL     1       9.932  -6.267  -5.949  1.00  0.00     0.180 C 
ENDROOT
BRANCH   1   7
ATOM      7  O   UNL     1       8.504  -6.561  -8.119  1.00  0.00    -0.341 OA
BRANCH   7   8
ATOM      8  C   UNL     1       9.003  -7.892  -8.249  1.00  0.00     0.282 C 
ATOM      9  C   UNL     1       6.862  -8.756  -7.645  1.00  0.00     0.178 C 
ATOM     10  C   UNL     1       6.460  -9.049  -9.128  1.00  0.00     0.177 C 
ATOM     11  O   UNL     1       8.260  -8.780  -7.411  1.00  0.00    -0.341 OA
ATOM     12  C   UNL     1       7.327  -8.195 -10.125  1.00  0.00     0.179 C 
ATOM     13  C   UNL     1       8.811  -8.398  -9.740  1.00  0.00     0.202 C 
BRANCH   9  14
ATOM     14  C   UNL     1       6.196  -9.762  -6.661  1.00  0.00     0.191 C 
BRANCH  14  15
ATOM     15  O   UNL     1       4.910  -9.340  -6.332  1.00  0.00    -0.394 OA
ATOM     16  H   UNL     1       4.609  -8.735  -7.074  1.00  0.00     0.210 HD
ENDBRANCH  14  15
ENDBRANCH   9  14
BRANCH  10  17
ATOM     17  O   UNL     1       5.078  -8.778  -9.272  1.00  0.00    -0.387 OA
ATOM     18  H   UNL     1       4.980  -7.890  -9.716  1.00  0.00     0.211 HD
ENDBRANCH  10  17
BRANCH  12  19
ATOM     19  O   UNL     1       6.989  -6.818 -10.092  1.00  0.00    -0.387 OA
ATOM     20  H   UNL     1       6.092  -6.657 -10.546  1.00  0.00     0.211 HD
ENDBRANCH  12  19
BRANCH  13  21
ATOM     21  O   UNL     1       9.133  -9.783  -9.792  1.00  0.00    -0.385 OA
ATOM     22  H   UNL     1       8.412 -10.273  -9.300  1.00  0.00     0.211 HD
ENDBRANCH  13  21
ENDBRANCH   7   8
ENDBRANCH   1   7
BRANCH   2  23
ATOM     23  C   UNL     1       6.050  -5.520  -6.797  1.00  0.00     0.191 C 
BRANCH  23  24
ATOM     24  O   UNL     1       5.165  -6.296  -6.018  1.00  0.00    -0.394 OA
ATOM     25  H   UNL     1       4.886  -5.708  -5.237  1.00  0.00     0.210 HD
ENDBRANCH  23  24
ENDBRANCH   2  23
BRANCH   6  26
ATOM     26  O   UNL     1      10.121  -7.656  -5.640  1.00  0.00    -0.387 OA
ATOM     27  H   UNL     1       9.550  -8.208  -6.250  1.00  0.00     0.211 HD
ENDBRANCH   6  26
BRANCH   5  28
ATOM     28  O   UNL     1       9.633  -4.167  -4.750  1.00  0.00    -0.385 OA
ATOM     29  H   UNL     1       9.323  -3.961  -5.676  1.00  0.00     0.211 HD
ENDBRANCH   5  28
BRANCH   4  30
ATOM     30  O   UNL     1       8.742  -7.451  -3.402  1.00  0.00    -0.341 OA
BRANCH  30  31
ATOM     31  C   UNL     1       8.107  -7.712  -2.149  1.00  0.00     0.184 C 
ATOM     32  C   UNL     1       7.409  -9.079  -1.949  1.00  0.00     0.178 C 
ATOM     33  C   UNL     1       9.062  -7.466  -0.961  1.00  0.00     0.180 C 
ATOM     34  O   UNL     1       6.604  -9.013  -0.772  1.00  0.00    -0.342 OA
ATOM     35  C   UNL     1       8.217  -7.493   0.304  1.00  0.00     0.201 C 
ATOM     36  C   UNL     1       7.395  -8.800   0.407  1.00  0.00     0.279 C 
BRANCH  32  37
ATOM     37  C   UNL     1       6.477  -9.411  -3.129  1.00  0.00     0.191 C 
BRANCH  37  38
ATOM     38  O   UNL     1       5.756  -8.284  -3.501  1.00  0.00    -0.394 OA
ATOM     39  H   UNL     1       4.793  -8.441  -3.247  1.00  0.00     0.210 HD
ENDBRANCH  37  38
ENDBRANCH  32  37
BRANCH  33  40
ATOM     40  O   UNL     1       9.742  -6.244  -1.106  1.00  0.00    -0.387 OA
ATOM     41  H   UNL     1      10.705  -6.418  -0.974  1.00  0.00     0.211 HD
ENDBRANCH  33  40
BRANCH  35  42
ATOM     42  O   UNL     1       9.014  -7.287   1.459  1.00  0.00    -0.385 OA
ATOM     43  H   UNL     1       8.634  -6.498   1.921  1.00  0.00     0.211 HD
ENDBRANCH  35  42
BRANCH  36  44
ATOM     44  O   UNL     1       8.244  -9.902   0.648  1.00  0.00    -0.366 OA
ATOM     45  H   UNL     1       8.750  -9.708   1.482  1.00  0.00     0.213 HD
ENDBRANCH  36  44
ENDBRANCH  30  31
ENDBRANCH   4  30
TORSDOF 18
ENDMDL
MODEL 5
REMARK VINA RESULT:    -2.959      2.155      4.180
REMARK INTER + INTRA:          -6.932
REMARK INTER:                  -5.641
REMARK INTRA:                  -1.291
REMARK UNBOUND:                -1.810
REMARK SMILES OC[C@@H]1O[C@@H](O)[C@@H](O)[C@H](O)[C@H]1O[C@@H]1O[C@H](CO)[C@H](O[C@H]2O[C@H](CO)[C@@H](O)[C@@H](O)[C@@H]2O)[C@H](O)[C@H]1O
REMARK SMILES IDX 18 1 15 2 14 3 13 4 33 5 31 6 19 7 20 8 22 9 25 10 21 11
REMARK SMILES IDX 27 12 29 13 23 14 24 15 26 17 28 19 30 21 16 23 17 24 32 26
REMARK SMILES IDX 34 28 12 30 11 31 3 32 9 33 4 34 7 35 5 36 2 37 1 38 10 40
REMARK SMILES IDX 8 42 6 44
REMARK H PARENT 24 16 26 18 28 20 30 22 17 25 32 27 34 29 1 39 10 41 8 43 6 45
REMARK Flexibility Score: inf
ROOT
ATOM      1  C   UNL     1       8.359  -6.017  -5.949  1.00  0.00     0.184 C 
ATOM      2  C   UNL     1       6.874  -6.095  -5.459  1.00  0.00     0.178 C 
ATOM      3  O   UNL     1       6.675  -7.347  -4.770  1.00  0.00    -0.341 OA
ATOM      4  C   UNL     1       7.343  -7.328  -3.498  1.00  0.00     0.282 C 
ATOM      5  C   UNL     1       8.683  -6.468  -3.468  1.00  0.00     0.202 C 
ATOM      6  C   UNL     1       9.354  -6.663  -4.863  1.00  0.00     0.180 C 
ENDROOT
BRANCH   1   7
ATOM      7  O   UNL     1       8.566  -6.318  -7.332  1.00  0.00    -0.341 OA
BRANCH   7   8
ATOM      8  C   UNL     1       9.282  -7.495  -7.705  1.00  0.00     0.282 C 
ATOM      9  C   UNL     1       7.226  -8.698  -7.866  1.00  0.00     0.178 C 
ATOM     10  C   UNL     1       7.166  -8.565  -9.424  1.00  0.00     0.177 C 
ATOM     11  O   UNL     1       8.540  -8.660  -7.335  1.00  0.00    -0.341 OA
ATOM     12  C   UNL     1       8.063  -7.373  -9.922  1.00  0.00     0.179 C 
ATOM     13  C   UNL     1       9.459  -7.543  -9.280  1.00  0.00     0.202 C 
BRANCH   9  14
ATOM     14  C   UNL     1       6.551 -10.011  -7.375  1.00  0.00     0.191 C 
BRANCH  14  15
ATOM     15  O   UNL     1       5.659  -9.740  -6.341  1.00  0.00    -0.394 OA
ATOM     16  H   UNL     1       5.323 -10.626  -6.013  1.00  0.00     0.210 HD
ENDBRANCH  14  15
ENDBRANCH   9  14
BRANCH  10  17
ATOM     17  O   UNL     1       5.813  -8.394  -9.800  1.00  0.00    -0.387 OA
ATOM     18  H   UNL     1       5.538  -9.183 -10.345  1.00  0.00     0.211 HD
ENDBRANCH  10  17
BRANCH  12  19
ATOM     19  O   UNL     1       7.515  -6.108  -9.591  1.00  0.00    -0.387 OA
ATOM     20  H   UNL     1       7.678  -5.438 -10.341  1.00  0.00     0.211 HD
ENDBRANCH  12  19
BRANCH  13  21
ATOM     21  O   UNL     1       9.998  -8.812  -9.636  1.00  0.00    -0.385 OA
ATOM     22  H   UNL     1       9.224  -9.425  -9.802  1.00  0.00     0.211 HD
ENDBRANCH  13  21
ENDBRANCH   7   8
ENDBRANCH   1   7
BRANCH   2  23
ATOM     23  C   UNL     1       5.738  -5.901  -6.504  1.00  0.00     0.191 C 
BRANCH  23  24
ATOM     24  O   UNL     1       4.687  -6.756  -6.107  1.00  0.00    -0.394 OA
ATOM     25  H   UNL     1       4.012  -6.746  -6.867  1.00  0.00     0.210 HD
ENDBRANCH  23  24
ENDBRANCH   2  23
BRANCH   6  26
ATOM     26  O   UNL     1       9.656  -8.064  -4.940  1.00  0.00    -0.387 OA
ATOM     27  H   UNL     1       9.081  -8.485  -5.643  1.00  0.00     0.211 HD
ENDBRANCH   6  26
BRANCH   5  28
ATOM     28  O   UNL     1       8.471  -5.085  -3.229  1.00  0.00    -0.385 OA
ATOM     29  H   UNL     1       7.578  -4.819  -3.586  1.00  0.00     0.211 HD
ENDBRANCH   5  28
BRANCH   4  30
ATOM     30  O   UNL     1       7.751  -8.673  -3.222  1.00  0.00    -0.341 OA
BRANCH  30  31
ATOM     31  C   UNL     1       7.509  -9.073  -1.872  1.00  0.00     0.184 C 
ATOM     32  C   UNL     1       8.703  -9.096  -0.887  1.00  0.00     0.178 C 
ATOM     33  C   UNL     1       6.357  -8.268  -1.233  1.00  0.00     0.180 C 
ATOM     34  O   UNL     1       8.308  -9.795   0.294  1.00  0.00    -0.342 OA
ATOM     35  C   UNL     1       6.002  -8.959   0.075  1.00  0.00     0.201 C 
ATOM     36  C   UNL     1       7.244  -9.123   0.983  1.00  0.00     0.279 C 
BRANCH  32  37
ATOM     37  C   UNL     1       9.910  -9.843  -1.485  1.00  0.00     0.191 C 
BRANCH  37  38
ATOM     38  O   UNL     1       9.681 -10.125  -2.826  1.00  0.00    -0.394 OA
ATOM     39  H   UNL     1       8.683 -10.158  -2.964  1.00  0.00     0.210 HD
ENDBRANCH  37  38
ENDBRANCH  32  37
BRANCH  33  40
ATOM     40  O   UNL     1       5.252  -8.195  -2.100  1.00  0.00    -0.387 OA
ATOM     41  H   UNL     1       5.201  -9.049  -2.594  1.00  0.00     0.211 HD
ENDBRANCH  33  40
BRANCH  35  42
ATOM     42  O   UNL     1       4.952  -8.279   0.746  1.00  0.00    -0.385 OA
ATOM     43  H   UNL     1       4.698  -7.519   0.164  1.00  0.00     0.211 HD
ENDBRANCH  35  42
BRANCH  36  44
ATOM     44  O   UNL     1       7.672  -7.869   1.469  1.00  0.00    -0.366 OA
ATOM     45  H   UNL     1       7.746  -7.945   2.458  1.00  0.00     0.213 HD
ENDBRANCH  36  44
ENDBRANCH  30  31
ENDBRANCH   4  30
TORSDOF 18
ENDMDL
MODEL 6
REMARK VINA RESULT:    -2.903      1.759      3.160
REMARK INTER + INTRA:          -6.835
REMARK INTER:                  -5.746
REMARK INTRA:                  -1.089
REMARK UNBOUND:                -1.810
REMARK SMILES OC[C@@H]1O[C@@H](O)[C@@H](O)[C@H](O)[C@H]1O[C@@H]1O[C@H](CO)[C@H](O[C@H]2O[C@H](CO)[C@@H](O)[C@@H](O)[C@@H]2O)[C@H](O)[C@H]1O
REMARK SMILES IDX 18 1 15 2 14 3 13 4 33 5 31 6 19 7 20 8 22 9 25 10 21 11
REMARK SMILES IDX 27 12 29 13 23 14 24 15 26 17 28 19 30 21 16 23 17 24 32 26
REMARK SMILES IDX 34 28 12 30 11 31 3 32 9 33 4 34 7 35 5 36 2 37 1 38 10 40
REMARK SMILES IDX 8 42 6 44
REMARK H PARENT 24 16 26 18 28 20 30 22 17 25 32 27 34 29 1 39 10 41 8 43 6 45
REMARK Flexibility Score: inf
ROOT
ATOM      1  C   UNL     1       7.111  -7.337  -4.285  1.00  0.00     0.184 C 
ATOM      2  C   UNL     1       5.852  -7.400  -3.356  1.00  0.00     0.178 C 
ATOM      3  O   UNL     1       6.072  -8.400  -2.339  1.00  0.00    -0.341 OA
ATOM      4  C   UNL     1       7.045  -7.938  -1.388  1.00  0.00     0.282 C 
ATOM      5  C   UNL     1       8.168  -6.991  -2.000  1.00  0.00     0.202 C 
ATOM      6  C   UNL     1       8.460  -7.534  -3.433  1.00  0.00     0.180 C 
ENDROOT
BRANCH   1   7
ATOM      7  O   UNL     1       6.985  -8.020  -5.536  1.00  0.00    -0.341 OA
BRANCH   7   8
ATOM      8  C   UNL     1       8.053  -7.975  -6.482  1.00  0.00     0.282 C 
ATOM      9  C   UNL     1       6.632  -8.950  -8.134  1.00  0.00     0.178 C 
ATOM     10  C   UNL     1       6.327  -7.574  -8.815  1.00  0.00     0.177 C 
ATOM     11  O   UNL     1       7.881  -8.997  -7.466  1.00  0.00    -0.341 OA
ATOM     12  C   UNL     1       6.612  -6.383  -7.828  1.00  0.00     0.179 C 
ATOM     13  C   UNL     1       8.032  -6.588  -7.252  1.00  0.00     0.202 C 
BRANCH   9  14
ATOM     14  C   UNL     1       6.594 -10.119  -9.161  1.00  0.00     0.191 C 
BRANCH  14  15
ATOM     15  O   UNL     1       7.750 -10.119  -9.937  1.00  0.00    -0.394 OA
ATOM     16  H   UNL     1       7.970 -11.080 -10.124  1.00  0.00     0.210 HD
ENDBRANCH  14  15
ENDBRANCH   9  14
BRANCH  10  17
ATOM     17  O   UNL     1       4.979  -7.585  -9.246  1.00  0.00    -0.387 OA
ATOM     18  H   UNL     1       4.875  -8.308  -9.926  1.00  0.00     0.211 HD
ENDBRANCH  10  17
BRANCH  12  19
ATOM     19  O   UNL     1       5.658  -6.307  -6.782  1.00  0.00    -0.387 OA
ATOM     20  H   UNL     1       5.928  -5.598  -6.101  1.00  0.00     0.211 HD
ENDBRANCH  12  19
BRANCH  13  21
ATOM     21  O   UNL     1       8.976  -6.648  -8.316  1.00  0.00    -0.385 OA
ATOM     22  H   UNL     1       9.788  -7.117  -7.964  1.00  0.00     0.211 HD
ENDBRANCH  13  21
ENDBRANCH   7   8
ENDBRANCH   1   7
BRANCH   2  23
ATOM     23  C   UNL     1       4.460  -7.634  -4.010  1.00  0.00     0.191 C 
BRANCH  23  24
ATOM     24  O   UNL     1       4.394  -9.011  -4.315  1.00  0.00    -0.394 OA
ATOM     25  H   UNL     1       4.749  -9.108  -5.262  1.00  0.00     0.210 HD
ENDBRANCH  23  24
ENDBRANCH   2  23
BRANCH   6  26
ATOM     26  O   UNL     1       8.973  -8.860  -3.233  1.00  0.00    -0.387 OA
ATOM     27  H   UNL     1       9.969  -8.844  -3.335  1.00  0.00     0.211 HD
ENDBRANCH   6  26
BRANCH   5  28
ATOM     28  O   UNL     1       7.788  -5.625  -2.075  1.00  0.00    -0.385 OA
ATOM     29  H   UNL     1       7.431  -5.330  -1.190  1.00  0.00     0.211 HD
ENDBRANCH   5  28
BRANCH   4  30
ATOM     30  O   UNL     1       7.742  -9.095  -0.913  1.00  0.00    -0.341 OA
BRANCH  30  31
ATOM     31  C   UNL     1       7.642  -9.277   0.501  1.00  0.00     0.184 C 
ATOM     32  C   UNL     1       8.691  -8.588   1.406  1.00  0.00     0.178 C 
ATOM     33  C   UNL     1       6.233  -8.929   1.025  1.00  0.00     0.180 C 
ATOM     34  O   UNL     1       8.587  -9.132   2.722  1.00  0.00    -0.342 OA
ATOM     35  C   UNL     1       6.156  -9.424   2.461  1.00  0.00     0.201 C 
ATOM     36  C   UNL     1       7.312  -8.855   3.318  1.00  0.00     0.279 C 
BRANCH  32  37
ATOM     37  C   UNL     1      10.125  -8.852   0.908  1.00  0.00     0.191 C 
BRANCH  37  38
ATOM     38  O   UNL     1      10.093  -9.399  -0.369  1.00  0.00    -0.394 OA
ATOM     39  H   UNL     1      10.326 -10.376  -0.288  1.00  0.00     0.210 HD
ENDBRANCH  37  38
ENDBRANCH  32  37
BRANCH  33  40
ATOM     40  O   UNL     1       5.238  -9.513   0.220  1.00  0.00    -0.387 OA
ATOM     41  H   UNL     1       5.025  -8.876  -0.504  1.00  0.00     0.211 HD
ENDBRANCH  33  40
BRANCH  35  42
ATOM     42  O   UNL     1       4.891  -9.136   3.037  1.00  0.00    -0.385 OA
ATOM     43  H   UNL     1       5.044  -9.052   4.012  1.00  0.00     0.211 HD
ENDBRANCH  35  42
BRANCH  36  44
ATOM     44  O   UNL     1       7.143  -7.468   3.520  1.00  0.00    -0.366 OA
ATOM     45  H   UNL     1       7.538  -7.248   4.406  1.00  0.00     0.213 HD
ENDBRANCH  36  44
ENDBRANCH  30  31
ENDBRANCH   4  30
TORSDOF 18
ENDMDL
MODEL 7
REMARK VINA RESULT:    -2.841      1.742      3.418
REMARK INTER + INTRA:          -6.727
REMARK INTER:                  -5.730
REMARK INTRA:                  -0.996
REMARK UNBOUND:                -1.810
REMARK SMILES OC[C@@H]1O[C@@H](O)[C@@H](O)[C@H](O)[C@H]1O[C@@H]1O[C@H](CO)[C@H](O[C@H]2O[C@H](CO)[C@@H](O)[C@@H](O)[C@@H]2O)[C@H](O)[C@H]1O
REMARK SMILES IDX 18 1 15 2 14 3 13 4 33 5 31 6 19 7 20 8 22 9 25 10 21 11
REMARK SMILES IDX 27 12 29 13 23 14 24 15 26 17 28 19 30 21 16 23 17 24 32 26
REMARK SMILES IDX 34 28 12 30 11 31 3 32 9 33 4 34 7 35 5 36 2 37 1 38 10 40
REMARK SMILES IDX 8 42 6 44
REMARK H PARENT 24 16 26 18 28 20 30 22 17 25 32 27 34 29 1 39 10 41 8 43 6 45
REMARK Flexibility Score: inf
ROOT
ATOM      1  C   UNL     1       7.095  -7.365  -4.351  1.00  0.00     0.184 C 
ATOM      2  C   UNL     1       5.822  -7.450  -3.442  1.00  0.00     0.178 C 
ATOM      3  O   UNL     1       6.029  -8.470  -2.443  1.00  0.00    -0.341 OA
ATOM      4  C   UNL     1       6.986  -8.026  -1.467  1.00  0.00     0.282 C 
ATOM      5  C   UNL     1       8.116  -7.063  -2.042  1.00  0.00     0.202 C 
ATOM      6  C   UNL     1       8.432  -7.575  -3.482  1.00  0.00     0.180 C 
ENDROOT
BRANCH   1   7
ATOM      7  O   UNL     1       6.990  -8.022  -5.617  1.00  0.00    -0.341 OA
BRANCH   7   8
ATOM      8  C   UNL     1       6.366  -7.357  -6.714  1.00  0.00     0.282 C 
ATOM      9  C   UNL     1       7.852  -5.509  -6.441  1.00  0.00     0.178 C 
ATOM     10  C   UNL     1       8.790  -5.974  -7.604  1.00  0.00     0.177 C 
ATOM     11  O   UNL     1       6.509  -5.942  -6.577  1.00  0.00    -0.341 OA
ATOM     12  C   UNL     1       8.600  -7.506  -7.901  1.00  0.00     0.179 C 
ATOM     13  C   UNL     1       7.084  -7.762  -8.070  1.00  0.00     0.202 C 
BRANCH   9  14
ATOM     14  C   UNL     1       7.842  -3.959  -6.297  1.00  0.00     0.191 C 
BRANCH  14  15
ATOM     15  O   UNL     1       8.266  -3.359  -7.480  1.00  0.00    -0.394 OA
ATOM     16  H   UNL     1       8.482  -4.103  -8.117  1.00  0.00     0.210 HD
ENDBRANCH  14  15
ENDBRANCH   9  14
BRANCH  10  17
ATOM     17  O   UNL     1      10.124  -5.673  -7.241  1.00  0.00    -0.387 OA
ATOM     18  H   UNL     1      10.578  -5.266  -8.031  1.00  0.00     0.211 HD
ENDBRANCH  10  17
BRANCH  12  19
ATOM     19  O   UNL     1       9.130  -8.327  -6.873  1.00  0.00    -0.387 OA
ATOM     20  H   UNL     1       8.817  -9.290  -6.984  1.00  0.00     0.211 HD
ENDBRANCH  12  19
BRANCH  13  21
ATOM     21  O   UNL     1       6.574  -6.941  -9.114  1.00  0.00    -0.385 OA
ATOM     22  H   UNL     1       5.812  -6.416  -8.731  1.00  0.00     0.211 HD
ENDBRANCH  13  21
ENDBRANCH   7   8
ENDBRANCH   1   7
BRANCH   2  23
ATOM     23  C   UNL     1       4.441  -7.674  -4.122  1.00  0.00     0.191 C 
BRANCH  23  24
ATOM     24  O   UNL     1       4.403  -9.034  -4.499  1.00  0.00    -0.394 OA
ATOM     25  H   UNL     1       5.112  -9.502  -3.940  1.00  0.00     0.210 HD
ENDBRANCH  23  24
ENDBRANCH   2  23
BRANCH   6  26
ATOM     26  O   UNL     1       8.945  -8.904  -3.301  1.00  0.00    -0.387 OA
ATOM     27  H   UNL     1       8.875  -9.153  -2.334  1.00  0.00     0.211 HD
ENDBRANCH   6  26
BRANCH   5  28
ATOM     28  O   UNL     1       7.733  -5.697  -2.095  1.00  0.00    -0.385 OA
ATOM     29  H   UNL     1       7.063  -5.567  -2.823  1.00  0.00     0.211 HD
ENDBRANCH   5  28
BRANCH   4  30
ATOM     30  O   UNL     1       7.680  -9.190  -1.006  1.00  0.00    -0.341 OA
BRANCH  30  31
ATOM     31  C   UNL     1       7.640  -9.348   0.414  1.00  0.00     0.184 C 
ATOM     32  C   UNL     1       8.655  -8.554   1.270  1.00  0.00     0.178 C 
ATOM     33  C   UNL     1       6.223  -9.109   0.977  1.00  0.00     0.180 C 
ATOM     34  O   UNL     1       8.639  -9.076   2.599  1.00  0.00    -0.342 OA
ATOM     35  C   UNL     1       6.234  -9.577   2.425  1.00  0.00     0.201 C 
ATOM     36  C   UNL     1       7.364  -8.894   3.232  1.00  0.00     0.279 C 
BRANCH  32  37
ATOM     37  C   UNL     1      10.089  -8.708   0.730  1.00  0.00     0.191 C 
BRANCH  37  38
ATOM     38  O   UNL     1      10.124  -9.683  -0.259  1.00  0.00    -0.394 OA
ATOM     39  H   UNL     1      11.052 -10.077  -0.266  1.00  0.00     0.210 HD
ENDBRANCH  37  38
ENDBRANCH  32  37
BRANCH  33  40
ATOM     40  O   UNL     1       5.256  -9.791   0.218  1.00  0.00    -0.387 OA
ATOM     41  H   UNL     1       5.197 -10.714   0.566  1.00  0.00     0.211 HD
ENDBRANCH  33  40
BRANCH  35  42
ATOM     42  O   UNL     1       4.968  -9.383   3.037  1.00  0.00    -0.385 OA
ATOM     43  H   UNL     1       4.808  -8.406   3.040  1.00  0.00     0.211 HD
ENDBRANCH  35  42
BRANCH  36  44
ATOM     44  O   UNL     1       7.085  -7.522   3.412  1.00  0.00    -0.366 OA
ATOM     45  H   UNL     1       6.128  -7.447   3.675  1.00  0.00     0.213 HD
ENDBRANCH  36  44
ENDBRANCH  30  31
ENDBRANCH   4  30
TORSDOF 18
ENDMDL
MODEL 8
REMARK VINA RESULT:    -2.630      2.124      8.125
REMARK INTER + INTRA:          -6.362
REMARK INTER:                  -4.780
REMARK INTRA:                  -1.582
REMARK UNBOUND:                -1.810
REMARK SMILES OC[C@@H]1O[C@@H](O)[C@@H](O)[C@H](O)[C@H]1O[C@@H]1O[C@H](CO)[C@H](O[C@H]2O[C@H](CO)[C@@H](O)[C@@H](O)[C@@H]2O)[C@H](O)[C@H]1O
REMARK SMILES IDX 18 1 15 2 14 3 13 4 33 5 31 6 19 7 20 8 22 9 25 10 21 11
REMARK SMILES IDX 27 12 29 13 23 14 24 15 26 17 28 19 30 21 16 23 17 24 32 26
REMARK SMILES IDX 34 28 12 30 11 31 3 32 9 33 4 34 7 35 5 36 2 37 1 38 10 40
REMARK SMILES IDX 8 42 6 44
REMARK H PARENT 24 16 26 18 28 20 30 22 17 25 32 27 34 29 1 39 10 41 8 43 6 45
REMARK Flexibility Score: inf
ROOT
ATOM      1  C   UNL     1       9.080  -7.498  -3.911  1.00  0.00     0.184 C 
ATOM      2  C   UNL     1       8.695  -8.658  -4.889  1.00  0.00     0.178 C 
ATOM      3  O   UNL     1       7.301  -8.532  -5.238  1.00  0.00    -0.341 OA
ATOM      4  C   UNL     1       7.106  -7.409  -6.114  1.00  0.00     0.282 C 
ATOM      5  C   UNL     1       8.101  -6.193  -5.861  1.00  0.00     0.202 C 
ATOM      6  C   UNL     1       8.331  -6.135  -4.319  1.00  0.00     0.180 C 
ENDROOT
BRANCH   1   7
ATOM      7  O   UNL     1       9.144  -7.857  -2.528  1.00  0.00    -0.341 OA
BRANCH   7   8
ATOM      8  C   UNL     1       8.958  -6.859  -1.524  1.00  0.00     0.282 C 
ATOM      9  C   UNL     1       7.295  -8.217  -0.480  1.00  0.00     0.178 C 
ATOM     10  C   UNL     1       8.283  -8.748   0.611  1.00  0.00     0.177 C 
ATOM     11  O   UNL     1       7.634  -6.939  -0.991  1.00  0.00    -0.341 OA
ATOM     12  C   UNL     1       9.776  -8.579   0.147  1.00  0.00     0.179 C 
ATOM     13  C   UNL     1       9.955  -7.115  -0.318  1.00  0.00     0.202 C 
BRANCH   9  14
ATOM     14  C   UNL     1       5.835  -8.146   0.054  1.00  0.00     0.191 C 
BRANCH  14  15
ATOM     15  O   UNL     1       5.794  -8.501   1.400  1.00  0.00    -0.394 OA
ATOM     16  H   UNL     1       6.658  -8.192   1.805  1.00  0.00     0.210 HD
ENDBRANCH  14  15
ENDBRANCH   9  14
BRANCH  10  17
ATOM     17  O   UNL     1       7.966 -10.103   0.871  1.00  0.00    -0.387 OA
ATOM     18  H   UNL     1       7.066 -10.136   1.299  1.00  0.00     0.211 HD
ENDBRANCH  10  17
BRANCH  12  19
ATOM     19  O   UNL     1      10.124  -9.476  -0.895  1.00  0.00    -0.387 OA
ATOM     20  H   UNL     1      11.132  -9.621  -0.923  1.00  0.00     0.211 HD
ENDBRANCH  12  19
BRANCH  13  21
ATOM     21  O   UNL     1       9.615  -6.232   0.745  1.00  0.00    -0.385 OA
ATOM     22  H   UNL     1       8.655  -5.975   0.619  1.00  0.00     0.211 HD
ENDBRANCH  13  21
ENDBRANCH   7   8
ENDBRANCH   1   7
BRANCH   2  23
ATOM     23  C   UNL     1       8.981 -10.122  -4.449  1.00  0.00     0.191 C 
BRANCH  23  24
ATOM     24  O   UNL     1      10.029 -10.053  -3.506  1.00  0.00    -0.394 OA
ATOM     25  H   UNL     1      10.460 -10.974  -3.494  1.00  0.00     0.210 HD
ENDBRANCH  23  24
ENDBRANCH   2  23
BRANCH   6  26
ATOM     26  O   UNL     1       7.039  -5.854  -3.759  1.00  0.00    -0.387 OA
ATOM     27  H   UNL     1       6.412  -6.599  -3.992  1.00  0.00     0.211 HD
ENDBRANCH   6  26
BRANCH   5  28
ATOM     28  O   UNL     1       9.349  -6.326  -6.525  1.00  0.00    -0.385 OA
ATOM     29  H   UNL     1       9.678  -5.424  -6.798  1.00  0.00     0.211 HD
ENDBRANCH   5  28
BRANCH   4  30
ATOM     30  O   UNL     1       5.799  -6.892  -5.841  1.00  0.00    -0.341 OA
BRANCH  30  31
ATOM     31  C   UNL     1       4.801  -7.364  -6.750  1.00  0.00     0.184 C 
ATOM     32  C   UNL     1       5.207  -7.613  -8.222  1.00  0.00     0.178 C 
ATOM     33  C   UNL     1       4.089  -8.624  -6.214  1.00  0.00     0.180 C 
ATOM     34  O   UNL     1       4.022  -7.786  -9.000  1.00  0.00    -0.342 OA
ATOM     35  C   UNL     1       2.878  -8.865  -7.103  1.00  0.00     0.201 C 
ATOM     36  C   UNL     1       3.280  -8.947  -8.596  1.00  0.00     0.279 C 
BRANCH  32  37
ATOM     37  C   UNL     1       5.971  -6.409  -8.806  1.00  0.00     0.191 C 
BRANCH  37  38
ATOM     38  O   UNL     1       5.558  -5.236  -8.187  1.00  0.00    -0.394 OA
ATOM     39  H   UNL     1       5.053  -4.693  -8.869  1.00  0.00     0.210 HD
ENDBRANCH  37  38
ENDBRANCH  32  37
BRANCH  33  40
ATOM     40  O   UNL     1       3.720  -8.460  -4.867  1.00  0.00    -0.387 OA
ATOM     41  H   UNL     1       4.036  -7.571  -4.574  1.00  0.00     0.211 HD
ENDBRANCH  33  40
BRANCH  35  42
ATOM     42  O   UNL     1       2.161 -10.019  -6.694  1.00  0.00    -0.385 OA
ATOM     43  H   UNL     1       2.823 -10.754  -6.647  1.00  0.00     0.211 HD
ENDBRANCH  35  42
BRANCH  36  44
ATOM     44  O   UNL     1       4.016 -10.125  -8.847  1.00  0.00    -0.366 OA
ATOM     45  H   UNL     1       4.324 -10.085  -9.792  1.00  0.00     0.213 HD
ENDBRANCH  36  44
ENDBRANCH  30  31
ENDBRANCH   4  30
TORSDOF 18
ENDMDL
MODEL 9
REMARK VINA RESULT:    -2.446      8.649     14.371
REMARK INTER + INTRA:          -6.043
REMARK INTER:                  -6.311
REMARK INTRA:                   0.268
REMARK UNBOUND:                -1.810
REMARK SMILES OC[C@@H]1O[C@@H](O)[C@@H](O)[C@H](O)[C@H]1O[C@@H]1O[C@H](CO)[C@H](O[C@H]2O[C@H](CO)[C@@H](O)[C@@H](O)[C@@H]2O)[C@H](O)[C@H]1O
REMARK SMILES IDX 18 1 15 2 14 3 13 4 33 5 31 6 19 7 20 8 22 9 25 10 21 11
REMARK SMILES IDX 27 12 29 13 23 14 24 15 26 17 28 19 30 21 16 23 17 24 32 26
REMARK SMILES IDX 34 28 12 30 11 31 3 32 9 33 4 34 7 35 5 36 2 37 1 38 10 40
REMARK SMILES IDX 8 42 6 44
REMARK H PARENT 24 16 26 18 28 20 30 22 17 25 32 27 34 29 1 39 10 41 8 43 6 45
REMARK Flexibility Score: inf
ROOT
ATOM      1  C   UNL     1      -2.045  -8.632  -7.827  1.00  0.00     0.184 C 
ATOM      2  C   UNL     1      -2.560  -7.191  -7.496  1.00  0.00     0.178 C 
ATOM      3  O   UNL     1      -3.426  -6.748  -8.563  1.00  0.00    -0.341 OA
ATOM      4  C   UNL     1      -4.674  -7.461  -8.520  1.00  0.00     0.282 C 
ATOM      5  C   UNL     1      -4.561  -8.958  -7.993  1.00  0.00     0.202 C 
ATOM      6  C   UNL     1      -3.200  -9.505  -8.527  1.00  0.00     0.180 C 
ENDROOT
BRANCH   1   7
ATOM      7  O   UNL     1      -0.718  -8.703  -8.356  1.00  0.00    -0.341 OA
BRANCH   7   8
ATOM      8  C   UNL     1       0.038  -7.507  -8.543  1.00  0.00     0.282 C 
ATOM      9  C   UNL     1       1.942  -8.554  -7.554  1.00  0.00     0.178 C 
ATOM     10  C   UNL     1       2.602  -8.869  -8.937  1.00  0.00     0.177 C 
ATOM     11  O   UNL     1       1.081  -7.428  -7.569  1.00  0.00    -0.341 OA
ATOM     12  C   UNL     1       1.530  -8.852 -10.088  1.00  0.00     0.179 C 
ATOM     13  C   UNL     1       0.739  -7.529  -9.966  1.00  0.00     0.202 C 
BRANCH   9  14
ATOM     14  C   UNL     1       3.011  -8.323  -6.447  1.00  0.00     0.191 C 
BRANCH  14  15
ATOM     15  O   UNL     1       3.092  -9.435  -5.612  1.00  0.00    -0.394 OA
ATOM     16  H   UNL     1       2.175  -9.839  -5.582  1.00  0.00     0.210 HD
ENDBRANCH  14  15
ENDBRANCH   9  14
BRANCH  10  17
ATOM     17  O   UNL     1       3.247 -10.125  -8.842  1.00  0.00    -0.387 OA
ATOM     18  H   UNL     1       2.613 -10.770  -8.421  1.00  0.00     0.211 HD
ENDBRANCH  10  17
BRANCH  12  19
ATOM     19  O   UNL     1       0.651  -9.963 -10.026  1.00  0.00    -0.387 OA
ATOM     20  H   UNL     1      -0.081  -9.803  -9.335  1.00  0.00     0.211 HD
ENDBRANCH  12  19
BRANCH  13  21
ATOM     21  O   UNL     1       1.636  -6.426 -10.044  1.00  0.00    -0.385 OA
ATOM     22  H   UNL     1       1.540  -6.032 -10.959  1.00  0.00     0.211 HD
ENDBRANCH  13  21
ENDBRANCH   7   8
ENDBRANCH   1   7
BRANCH   2  23
ATOM     23  C   UNL     1      -1.513  -6.081  -7.195  1.00  0.00     0.191 C 
BRANCH  23  24
ATOM     24  O   UNL     1      -2.247  -4.943  -6.797  1.00  0.00    -0.394 OA
ATOM     25  H   UNL     1      -3.202  -5.260  -6.653  1.00  0.00     0.210 HD
ENDBRANCH  23  24
ENDBRANCH   2  23
BRANCH   6  26
ATOM     26  O   UNL     1      -3.324  -9.482  -9.957  1.00  0.00    -0.387 OA
ATOM     27  H   UNL     1      -3.656  -8.582 -10.242  1.00  0.00     0.211 HD
ENDBRANCH   6  26
BRANCH   5  28
ATOM     28  O   UNL     1      -4.599  -9.073  -6.578  1.00  0.00    -0.385 OA
ATOM     29  H   UNL     1      -4.883  -9.996  -6.327  1.00  0.00     0.211 HD
ENDBRANCH   5  28
BRANCH   4  30
ATOM     30  O   UNL     1      -5.136  -7.569  -9.871  1.00  0.00    -0.341 OA
BRANCH  30  31
ATOM     31  C   UNL     1      -6.442  -7.023 -10.069  1.00  0.00     0.184 C 
ATOM     32  C   UNL     1      -7.661  -7.836  -9.571  1.00  0.00     0.178 C 
ATOM     33  C   UNL     1      -6.550  -5.584  -9.520  1.00  0.00     0.180 C 
ATOM     34  O   UNL     1      -8.847  -7.265 -10.125  1.00  0.00    -0.342 OA
ATOM     35  C   UNL     1      -7.863  -5.009 -10.032  1.00  0.00     0.201 C 
ATOM     36  C   UNL     1      -9.059  -5.921  -9.668  1.00  0.00     0.279 C 
BRANCH  32  37
ATOM     37  C   UNL     1      -7.589  -9.301 -10.042  1.00  0.00     0.191 C 
BRANCH  37  38
ATOM     38  O   UNL     1      -8.252 -10.125  -9.141  1.00  0.00    -0.394 OA
ATOM     39  H   UNL     1      -7.662 -10.226  -8.330  1.00  0.00     0.210 HD
ENDBRANCH  37  38
ENDBRANCH  32  37
BRANCH  33  40
ATOM     40  O   UNL     1      -5.450  -4.807  -9.924  1.00  0.00    -0.387 OA
ATOM     41  H   UNL     1      -4.752  -4.890  -9.230  1.00  0.00     0.211 HD
ENDBRANCH  33  40
BRANCH  35  42
ATOM     42  O   UNL     1      -8.059  -3.683  -9.566  1.00  0.00    -0.385 OA
ATOM     43  H   UNL     1      -8.680  -3.254 -10.207  1.00  0.00     0.211 HD
ENDBRANCH  35  42
BRANCH  36  44
ATOM     44  O   UNL     1      -9.297  -5.895  -8.277  1.00  0.00    -0.366 OA
ATOM     45  H   UNL     1      -8.986  -6.765  -7.908  1.00  0.00     0.213 HD
ENDBRANCH  36  44
ENDBRANCH  30  31
ENDBRANCH   4  30
TORSDOF 18
ENDMDL
