MODEL 1
REMARK VINA RESULT:    -3.032      0.000      0.000
REMARK INTER + INTRA:          -3.428
REMARK INTER:                  -4.628
REMARK INTRA:                   1.200
REMARK UNBOUND:                 1.200
REMARK SMILES CC1=CCC[C@H](C)C(=O)C[C@@H](C(C)C)C(=O)C1
REMARK SMILES IDX 8 1 9 2 6 3 7 4 5 5 4 6 3 7 2 8 1 9 10 11 11 12 15 13 16 14
REMARK SMILES IDX 17 15 12 17 13 18 14 19
REMARK H PARENT
REMARK Flexibility Score: 70.00
ROOT
ATOM      1  C   UNL     1       7.532 -34.149  15.874  1.00  0.00     0.136 C 
ATOM      2  O   UNL     1       8.150 -34.641  16.804  1.00  0.00    -0.299 OA
ENDROOT
BRANCH   1   3
ATOM      3  C   UNL     1       6.696 -35.059  14.990  1.00  0.00     0.053 C 
ATOM      4  C   UNL     1       5.964 -34.235  13.922  1.00  0.00     0.016 C 
BRANCH   3   5
ATOM      5  C   UNL     1       7.544 -36.176  14.343  1.00  0.00     0.015 C 
BRANCH   5   6
ATOM      6  C   UNL     1       8.067 -35.779  12.949  1.00  0.00     0.028 C 
BRANCH   6   7
ATOM      7  C   UNL     1       9.545 -35.489  12.980  1.00  0.00    -0.028 C 
ATOM      8  C   UNL     1      10.087 -34.256  13.108  1.00  0.00    -0.070 CG0
ATOM      9  C   UNL     1      11.591 -34.145  13.120  1.00  0.00     0.039 C 
ATOM     10  G   UNL     1       9.263 -32.990  13.288  1.00  0.00     0.000 G0
ENDBRANCH   6   7
ENDBRANCH   5   6
ENDBRANCH   3   5
ENDBRANCH   1   3
BRANCH   1  11
ATOM     11  C   UNL     1       7.473 -32.644  15.734  1.00  0.00     0.087 C 
BRANCH  11  12
ATOM     12  C   UNL     1       8.820 -31.873  15.717  1.00  0.00     0.066 C 
BRANCH  12  13
ATOM     13  C   UNL     1       9.705 -32.150  14.502  1.00  0.00     0.140 C 
ATOM     14  O   UNL     1      10.857 -31.738  14.525  1.00  0.00    -0.299 OA
BRANCH  13  15
ATOM     15  C   UNL     1       9.264 -32.976  13.313  1.00  0.00     0.106 CG0
ATOM     16  G   UNL     1      10.094 -34.238  13.132  1.00  0.00     0.000 G0
ENDBRANCH  13  15
ENDBRANCH  12  13
BRANCH  12  17
ATOM     17  C   UNL     1       9.553 -31.791  17.106  1.00  0.00    -0.006 C 
ATOM     18  C   UNL     1       8.544 -31.902  18.264  1.00  0.00     0.008 C 
ATOM     19  C   UNL     1      10.425 -30.545  17.333  1.00  0.00     0.008 C 
ENDBRANCH  12  17
ENDBRANCH  11  12
ENDBRANCH   1  11
TORSDOF 1
ENDMDL
MODEL 2
REMARK VINA RESULT:    -2.966      1.430      3.700
REMARK INTER + INTRA:          -3.327
REMARK INTER:                  -4.440
REMARK INTRA:                   1.113
REMARK UNBOUND:                 1.200
REMARK SMILES CC1=CCC[C@H](C)C(=O)C[C@@H](C(C)C)C(=O)C1
REMARK SMILES IDX 8 1 9 2 6 3 7 4 5 5 4 6 3 7 2 8 1 9 10 11 11 12 15 13 16 14
REMARK SMILES IDX 17 15 12 17 13 18 14 19
REMARK H PARENT
REMARK Flexibility Score: 70.00
ROOT
ATOM      1  C   UNL     1      10.224 -32.212  13.506  1.00  0.00     0.136 C 
ATOM      2  O   UNL     1      10.849 -31.165  13.475  1.00  0.00    -0.299 OA
ENDROOT
BRANCH   1   3
ATOM      3  C   UNL     1      10.849 -33.454  12.893  1.00  0.00     0.053 C 
ATOM      4  C   UNL     1      12.371 -33.434  13.088  1.00  0.00     0.016 C 
BRANCH   3   5
ATOM      5  C   UNL     1      10.235 -34.752  13.461  1.00  0.00     0.015 C 
BRANCH   5   6
ATOM      6  C   UNL     1       8.839 -35.043  12.875  1.00  0.00     0.028 C 
BRANCH   6   7
ATOM      7  C   UNL     1       8.120 -36.099  13.674  1.00  0.00    -0.028 C 
ATOM      8  C   UNL     1       7.354 -35.856  14.762  1.00  0.00    -0.070 CG0
ATOM      9  C   UNL     1       6.704 -37.034  15.445  1.00  0.00     0.039 C 
ATOM     10  G   UNL     1       7.077 -34.460  15.301  1.00  0.00     0.000 G0
ENDBRANCH   6   7
ENDBRANCH   5   6
ENDBRANCH   3   5
ENDBRANCH   1   3
BRANCH   1  11
ATOM     11  C   UNL     1       8.938 -32.287  14.299  1.00  0.00     0.087 C 
BRANCH  11  12
ATOM     12  C   UNL     1       9.039 -32.715  15.788  1.00  0.00     0.066 C 
BRANCH  12  13
ATOM     13  C   UNL     1       8.175 -33.916  16.174  1.00  0.00     0.140 C 
ATOM     14  O   UNL     1       8.356 -34.425  17.271  1.00  0.00    -0.299 OA
BRANCH  13  15
ATOM     15  C   UNL     1       7.055 -34.456  15.310  1.00  0.00     0.106 CG0
ATOM     16  G   UNL     1       7.354 -35.844  14.761  1.00  0.00     0.000 G0
ENDBRANCH  13  15
ENDBRANCH  12  13
BRANCH  12  17
ATOM     17  C   UNL     1       9.073 -31.526  16.817  1.00  0.00    -0.006 C 
ATOM     18  C   UNL     1      10.501 -30.969  16.962  1.00  0.00     0.008 C 
ATOM     19  C   UNL     1       8.523 -31.835  18.219  1.00  0.00     0.008 C 
ENDBRANCH  12  17
ENDBRANCH  11  12
ENDBRANCH   1  11
TORSDOF 1
ENDMDL
MODEL 3
REMARK VINA RESULT:    -2.549      1.490      3.932
REMARK INTER + INTRA:          -2.690
REMARK INTER:                  -3.014
REMARK INTRA:                   0.324
REMARK UNBOUND:                 1.200
REMARK SMILES CC1=CCC[C@H](C)C(=O)C[C@@H](C(C)C)C(=O)C1
REMARK SMILES IDX 8 1 9 2 6 3 7 4 5 5 4 6 3 7 2 8 1 9 10 11 11 12 15 13 16 14
REMARK SMILES IDX 17 15 12 17 13 18 14 19
REMARK H PARENT
REMARK Flexibility Score: 70.00
ROOT
ATOM      1  C   UNL     1       8.237 -33.303  16.926  1.00  0.00     0.136 C 
ATOM      2  O   UNL     1       8.820 -34.286  17.353  1.00  0.00    -0.299 OA
ENDROOT
BRANCH   1   3
ATOM      3  C   UNL     1       8.577 -31.941  17.508  1.00  0.00     0.053 C 
ATOM      4  C   UNL     1       8.370 -31.948  19.029  1.00  0.00     0.016 C 
BRANCH   3   5
ATOM      5  C   UNL     1      10.010 -31.497  17.146  1.00  0.00     0.015 C 
BRANCH   5   6
ATOM      6  C   UNL     1      10.125 -31.033  15.681  1.00  0.00     0.028 C 
BRANCH   6   7
ATOM      7  C   UNL     1      10.898 -32.024  14.851  1.00  0.00    -0.028 C 
ATOM      8  C   UNL     1      10.541 -32.443  13.616  1.00  0.00    -0.070 CG0
ATOM      9  C   UNL     1      11.432 -33.443  12.924  1.00  0.00     0.039 C 
ATOM     10  G   UNL     1       9.318 -31.924  12.874  1.00  0.00     0.000 G0
ENDBRANCH   6   7
ENDBRANCH   5   6
ENDBRANCH   3   5
ENDBRANCH   1   3
BRANCH   1  11
ATOM     11  C   UNL     1       7.332 -33.441  15.721  1.00  0.00     0.087 C 
BRANCH  11  12
ATOM     12  C   UNL     1       8.000 -33.766  14.358  1.00  0.00     0.066 C 
BRANCH  12  13
ATOM     13  C   UNL     1       8.036 -32.604  13.366  1.00  0.00     0.140 C 
ATOM     14  O   UNL     1       6.970 -32.127  13.000  1.00  0.00    -0.299 OA
BRANCH  13  15
ATOM     15  C   UNL     1       9.314 -31.958  12.875  1.00  0.00     0.106 CG0
ATOM     16  G   UNL     1      10.545 -32.446  13.626  1.00  0.00     0.000 G0
ENDBRANCH  13  15
ENDBRANCH  12  13
BRANCH  12  17
ATOM     17  C   UNL     1       7.636 -35.175  13.764  1.00  0.00    -0.006 C 
ATOM     18  C   UNL     1       6.728 -35.959  14.729  1.00  0.00     0.008 C 
ATOM     19  C   UNL     1       8.827 -36.069  13.377  1.00  0.00     0.008 C 
ENDBRANCH  12  17
ENDBRANCH  11  12
ENDBRANCH   1  11
TORSDOF 1
ENDMDL
MODEL 4
REMARK VINA RESULT:    -2.121      1.668      3.772
REMARK INTER + INTRA:          -2.037
REMARK INTER:                  -3.782
REMARK INTRA:                   1.745
REMARK UNBOUND:                 1.200
REMARK SMILES CC1=CCC[C@H](C)C(=O)C[C@@H](C(C)C)C(=O)C1
REMARK SMILES IDX 8 1 9 2 6 3 7 4 5 5 4 6 3 7 2 8 1 9 10 11 11 12 15 13 16 14
REMARK SMILES IDX 17 15 12 17 13 18 14 19
REMARK H PARENT
REMARK Flexibility Score: 70.00
ROOT
ATOM      1  C   UNL     1       7.895 -35.574  13.255  1.00  0.00     0.136 C 
ATOM      2  O   UNL     1       8.438 -36.664  13.179  1.00  0.00    -0.299 OA
ENDROOT
BRANCH   1   3
ATOM      3  C   UNL     1       6.516 -35.487  13.888  1.00  0.00     0.053 C 
ATOM      4  C   UNL     1       5.885 -36.883  13.979  1.00  0.00     0.016 C 
BRANCH   3   5
ATOM      5  C   UNL     1       6.558 -34.807  15.273  1.00  0.00     0.015 C 
BRANCH   5   6
ATOM      6  C   UNL     1       7.840 -35.152  16.056  1.00  0.00     0.028 C 
BRANCH   6   7
ATOM      7  C   UNL     1       8.174 -34.080  17.061  1.00  0.00    -0.028 C 
ATOM      8  C   UNL     1       8.493 -32.803  16.750  1.00  0.00    -0.070 CG0
ATOM      9  C   UNL     1       8.801 -31.857  17.884  1.00  0.00     0.039 C 
ATOM     10  G   UNL     1       8.509 -32.263  15.328  1.00  0.00     0.000 G0
ENDBRANCH   6   7
ENDBRANCH   5   6
ENDBRANCH   3   5
ENDBRANCH   1   3
BRANCH   1  11
ATOM     11  C   UNL     1       8.670 -34.329  12.882  1.00  0.00     0.087 C 
BRANCH  11  12
ATOM     12  C   UNL     1       9.889 -33.953  13.767  1.00  0.00     0.066 C 
BRANCH  12  13
ATOM     13  C   UNL     1       9.738 -32.648  14.550  1.00  0.00     0.140 C 
ATOM     14  O   UNL     1      10.655 -31.839  14.498  1.00  0.00    -0.299 OA
BRANCH  13  15
ATOM     15  C   UNL     1       8.488 -32.267  15.314  1.00  0.00     0.106 CG0
ATOM     16  G   UNL     1       8.488 -32.796  16.741  1.00  0.00     0.000 G0
ENDBRANCH  13  15
ENDBRANCH  12  13
BRANCH  12  17
ATOM     17  C   UNL     1      11.291 -34.206  13.104  1.00  0.00    -0.006 C 
ATOM     18  C   UNL     1      11.902 -35.528  13.603  1.00  0.00     0.008 C 
ATOM     19  C   UNL     1      12.332 -33.088  13.283  1.00  0.00     0.008 C 
ENDBRANCH  12  17
ENDBRANCH  11  12
ENDBRANCH   1  11
TORSDOF 1
ENDMDL
MODEL 5
REMARK VINA RESULT:    -1.749      2.356      4.068
REMARK INTER + INTRA:          -1.470
REMARK INTER:                  -3.060
REMARK INTRA:                   1.590
REMARK UNBOUND:                 1.200
REMARK SMILES CC1=CCC[C@H](C)C(=O)C[C@@H](C(C)C)C(=O)C1
REMARK SMILES IDX 8 1 9 2 6 3 7 4 5 5 4 6 3 7 2 8 1 9 10 11 11 12 15 13 16 14
REMARK SMILES IDX 17 15 12 17 13 18 14 19
REMARK H PARENT
REMARK Flexibility Score: 70.00
ROOT
ATOM      1  C   UNL     1       8.737 -32.797  13.433  1.00  0.00     0.136 C 
ATOM      2  O   UNL     1       9.179 -33.839  12.979  1.00  0.00    -0.299 OA
ENDROOT
BRANCH   1   3
ATOM      3  C   UNL     1       7.314 -32.778  13.967  1.00  0.00     0.053 C 
ATOM      4  C   UNL     1       6.355 -33.399  12.943  1.00  0.00     0.016 C 
BRANCH   3   5
ATOM      5  C   UNL     1       7.200 -33.485  15.335  1.00  0.00     0.015 C 
BRANCH   5   6
ATOM      6  C   UNL     1       8.578 -33.822  15.936  1.00  0.00     0.028 C 
BRANCH   6   7
ATOM      7  C   UNL     1       8.706 -33.295  17.342  1.00  0.00    -0.028 C 
ATOM      8  C   UNL     1       9.080 -32.036  17.664  1.00  0.00    -0.070 CG0
ATOM      9  C   UNL     1       9.157 -31.675  19.126  1.00  0.00     0.039 C 
ATOM     10  G   UNL     1       9.378 -30.958  16.632  1.00  0.00     0.000 G0
ENDBRANCH   6   7
ENDBRANCH   5   6
ENDBRANCH   3   5
ENDBRANCH   1   3
BRANCH   1  11
ATOM     11  C   UNL     1       9.662 -31.613  13.614  1.00  0.00     0.087 C 
BRANCH  11  12
ATOM     12  C   UNL     1      10.880 -31.794  14.559  1.00  0.00     0.066 C 
BRANCH  12  13
ATOM     13  C   UNL     1      10.733 -31.140  15.933  1.00  0.00     0.140 C 
ATOM     14  O   UNL     1      11.738 -30.684  16.462  1.00  0.00    -0.299 OA
BRANCH  13  15
ATOM     15  C   UNL     1       9.405 -30.951  16.635  1.00  0.00     0.106 CG0
ATOM     16  G   UNL     1       9.121 -32.040  17.658  1.00  0.00     0.000 G0
ENDBRANCH  13  15
ENDBRANCH  12  13
BRANCH  12  17
ATOM     17  C   UNL     1      12.283 -31.644  13.865  1.00  0.00    -0.006 C 
ATOM     18  C   UNL     1      12.775 -32.998  13.325  1.00  0.00     0.008 C 
ATOM     19  C   UNL     1      13.397 -31.027  14.728  1.00  0.00     0.008 C 
ENDBRANCH  12  17
ENDBRANCH  11  12
ENDBRANCH   1  11
TORSDOF 1
ENDMDL
MODEL 6
REMARK VINA RESULT:    -1.545      1.614      4.071
REMARK INTER + INTRA:          -1.158
REMARK INTER:                  -3.619
REMARK INTRA:                   2.461
REMARK UNBOUND:                 1.200
REMARK SMILES CC1=CCC[C@H](C)C(=O)C[C@@H](C(C)C)C(=O)C1
REMARK SMILES IDX 8 1 9 2 6 3 7 4 5 5 4 6 3 7 2 8 1 9 10 11 11 12 15 13 16 14
REMARK SMILES IDX 17 15 12 17 13 18 14 19
REMARK H PARENT
REMARK Flexibility Score: 70.00
ROOT
ATOM      1  C   UNL     1       9.231 -32.360  15.123  1.00  0.00     0.136 C 
ATOM      2  O   UNL     1      10.250 -31.908  15.618  1.00  0.00    -0.299 OA
ENDROOT
BRANCH   1   3
ATOM      3  C   UNL     1       8.048 -32.658  16.030  1.00  0.00     0.053 C 
ATOM      4  C   UNL     1       8.325 -32.143  17.448  1.00  0.00     0.016 C 
BRANCH   3   5
ATOM      5  C   UNL     1       6.732 -32.074  15.474  1.00  0.00     0.015 C 
BRANCH   5   6
ATOM      6  C   UNL     1       5.938 -33.105  14.648  1.00  0.00     0.028 C 
BRANCH   6   7
ATOM      7  C   UNL     1       6.165 -34.505  15.155  1.00  0.00    -0.028 C 
ATOM      8  C   UNL     1       6.863 -35.460  14.499  1.00  0.00    -0.070 CG0
ATOM      9  C   UNL     1       6.993 -36.813  15.152  1.00  0.00     0.039 C 
ATOM     10  G   UNL     1       7.562 -35.225  13.168  1.00  0.00     0.000 G0
ENDBRANCH   6   7
ENDBRANCH   5   6
ENDBRANCH   3   5
ENDBRANCH   1   3
BRANCH   1  11
ATOM     11  C   UNL     1       9.110 -32.445  13.617  1.00  0.00     0.087 C 
BRANCH  11  12
ATOM     12  C   UNL     1       9.729 -33.685  12.918  1.00  0.00     0.066 C 
BRANCH  12  13
ATOM     13  C   UNL     1       9.042 -35.013  13.237  1.00  0.00     0.140 C 
ATOM     14  O   UNL     1       9.735 -35.932  13.653  1.00  0.00    -0.299 OA
BRANCH  13  15
ATOM     15  C   UNL     1       7.546 -35.229  13.147  1.00  0.00     0.106 CG0
ATOM     16  G   UNL     1       6.901 -35.447  14.507  1.00  0.00     0.000 G0
ENDBRANCH  13  15
ENDBRANCH  12  13
BRANCH  12  17
ATOM     17  C   UNL     1      11.300 -33.707  12.881  1.00  0.00    -0.006 C 
ATOM     18  C   UNL     1      11.843 -35.023  13.466  1.00  0.00     0.008 C 
ATOM     19  C   UNL     1      12.006 -32.533  13.580  1.00  0.00     0.008 C 
ENDBRANCH  12  17
ENDBRANCH  11  12
ENDBRANCH   1  11
TORSDOF 1
ENDMDL
MODEL 7
REMARK VINA RESULT:    -1.115      1.669      2.311
REMARK INTER + INTRA:          -0.502
REMARK INTER:                  -0.699
REMARK INTRA:                   0.197
REMARK UNBOUND:                 1.200
REMARK SMILES CC1=CCC[C@H](C)C(=O)C[C@@H](C(C)C)C(=O)C1
REMARK SMILES IDX 8 1 9 2 6 3 7 4 5 5 4 6 3 7 2 8 1 9 10 11 11 12 15 13 16 14
REMARK SMILES IDX 17 15 12 17 13 18 14 19
REMARK H PARENT
REMARK Flexibility Score: 70.00
ROOT
ATOM      1  C   UNL     1       7.061 -33.416  14.996  1.00  0.00     0.136 C 
ATOM      2  O   UNL     1       5.878 -33.564  15.253  1.00  0.00    -0.299 OA
ENDROOT
BRANCH   1   3
ATOM      3  C   UNL     1       7.822 -34.572  14.367  1.00  0.00     0.053 C 
ATOM      4  C   UNL     1       6.910 -35.800  14.239  1.00  0.00     0.016 C 
BRANCH   3   5
ATOM      5  C   UNL     1       8.432 -34.190  13.002  1.00  0.00     0.015 C 
BRANCH   5   6
ATOM      6  C   UNL     1       9.968 -34.317  12.992  1.00  0.00     0.028 C 
BRANCH   6   7
ATOM      7  C   UNL     1      10.629 -32.969  12.876  1.00  0.00    -0.028 C 
ATOM      8  C   UNL     1      10.999 -32.197  13.923  1.00  0.00    -0.070 CG0
ATOM      9  C   UNL     1      11.650 -30.869  13.626  1.00  0.00     0.039 C 
ATOM     10  G   UNL     1      10.838 -32.619  15.376  1.00  0.00     0.000 G0
ENDBRANCH   6   7
ENDBRANCH   5   6
ENDBRANCH   3   5
ENDBRANCH   1   3
BRANCH   1  11
ATOM     11  C   UNL     1       7.689 -32.047  15.141  1.00  0.00     0.087 C 
BRANCH  11  12
ATOM     12  C   UNL     1       8.530 -31.778  16.418  1.00  0.00     0.066 C 
BRANCH  12  13
ATOM     13  C   UNL     1      10.035 -31.646  16.182  1.00  0.00     0.140 C 
ATOM     14  O   UNL     1      10.627 -30.737  16.749  1.00  0.00    -0.299 OA
BRANCH  13  15
ATOM     15  C   UNL     1      10.844 -32.622  15.355  1.00  0.00     0.106 CG0
ATOM     16  G   UNL     1      10.993 -32.182  13.906  1.00  0.00     0.000 G0
ENDBRANCH  13  15
ENDBRANCH  12  13
BRANCH  12  17
ATOM     17  C   UNL     1       8.096 -32.605  17.682  1.00  0.00    -0.006 C 
ATOM     18  C   UNL     1       8.500 -31.878  18.977  1.00  0.00     0.008 C 
ATOM     19  C   UNL     1       8.615 -34.051  17.750  1.00  0.00     0.008 C 
ENDBRANCH  12  17
ENDBRANCH  11  12
ENDBRANCH   1  11
TORSDOF 1
ENDMDL
MODEL 8
REMARK VINA RESULT:    -0.965      1.817      4.897
REMARK INTER + INTRA:          -0.273
REMARK INTER:                  -1.667
REMARK INTRA:                   1.394
REMARK UNBOUND:                 1.200
REMARK SMILES CC1=CCC[C@H](C)C(=O)C[C@@H](C(C)C)C(=O)C1
REMARK SMILES IDX 8 1 9 2 6 3 7 4 5 5 4 6 3 7 2 8 1 9 10 11 11 12 15 13 16 14
REMARK SMILES IDX 17 15 12 17 13 18 14 19
REMARK H PARENT
REMARK Flexibility Score: 70.00
ROOT
ATOM      1  C   UNL     1      10.765 -34.843  13.506  1.00  0.00     0.136 C 
ATOM      2  O   UNL     1      11.615 -35.495  12.922  1.00  0.00    -0.299 OA
ENDROOT
BRANCH   1   3
ATOM      3  C   UNL     1      11.080 -33.406  13.885  1.00  0.00     0.053 C 
ATOM      4  C   UNL     1      12.456 -33.002  13.339  1.00  0.00     0.016 C 
BRANCH   3   5
ATOM      5  C   UNL     1       9.985 -32.428  13.407  1.00  0.00     0.015 C 
BRANCH   5   6
ATOM      6  C   UNL     1       9.923 -31.153  14.270  1.00  0.00     0.028 C 
BRANCH   6   7
ATOM      7  C   UNL     1       9.970 -31.483  15.739  1.00  0.00    -0.028 C 
ATOM      8  C   UNL     1       8.995 -32.129  16.418  1.00  0.00    -0.070 CG0
ATOM      9  C   UNL     1       9.206 -32.378  17.890  1.00  0.00     0.039 C 
ATOM     10  G   UNL     1       7.726 -32.657  15.765  1.00  0.00     0.000 G0
ENDBRANCH   6   7
ENDBRANCH   5   6
ENDBRANCH   3   5
ENDBRANCH   1   3
BRANCH   1  11
ATOM     11  C   UNL     1       9.375 -35.417  13.677  1.00  0.00     0.087 C 
BRANCH  11  12
ATOM     12  C   UNL     1       8.203 -34.413  13.847  1.00  0.00     0.066 C 
BRANCH  12  13
ATOM     13  C   UNL     1       7.866 -34.057  15.296  1.00  0.00     0.140 C 
ATOM     14  O   UNL     1       7.760 -34.972  16.102  1.00  0.00    -0.299 OA
BRANCH  13  15
ATOM     15  C   UNL     1       7.739 -32.637  15.804  1.00  0.00     0.106 CG0
ATOM     16  G   UNL     1       9.022 -32.122  16.439  1.00  0.00     0.000 G0
ENDBRANCH  13  15
ENDBRANCH  12  13
BRANCH  12  17
ATOM     17  C   UNL     1       6.981 -34.655  12.890  1.00  0.00    -0.006 C 
ATOM     18  C   UNL     1       6.027 -33.447  12.903  1.00  0.00     0.008 C 
ATOM     19  C   UNL     1       6.160 -35.929  13.156  1.00  0.00     0.008 C 
ENDBRANCH  12  17
ENDBRANCH  11  12
ENDBRANCH   1  11
TORSDOF 1
ENDMDL
