MODEL 1
REMARK VINA RESULT:    -3.007      0.000      0.000
REMARK INTER + INTRA:          -3.271
REMARK INTER:                  -3.271
REMARK INTRA:                   0.000
REMARK UNBOUND:                 0.000
REMARK SMILES [NH3+]CC(=O)[O-]
REMARK SMILES IDX 2 1 1 2 3 6 4 7 5 8
REMARK H PARENT 1 3 1 4 1 5
REMARK Flexibility Score: inf
ROOT
ATOM      1  C   UNL     1      10.126  39.602  13.703  1.00  0.00     0.312 C 
ENDROOT
BRANCH   1   2
ATOM      2  N   UNL     1      11.536  39.230  13.787  1.00  0.00    -0.353 N 
ATOM      3  H   UNL     1      12.126  39.951  13.310  1.00  0.00     0.344 HD
ATOM      4  H   UNL     1      11.689  38.296  13.340  1.00  0.00     0.344 HD
ATOM      5  H   UNL     1      11.816  39.174  14.792  1.00  0.00     0.344 HD
ENDBRANCH   1   2
BRANCH   1   6
ATOM      6  C   UNL     1       9.977  41.086  13.577  1.00  0.00     0.096 C 
ATOM      7  O   UNL     1       8.833  41.612  13.607  1.00  0.00    -0.544 OA
ATOM      8  O   UNL     1      11.103  41.893  13.477  1.00  0.00    -0.544 OA
ENDBRANCH   1   6
TORSDOF 2
ENDMDL
MODEL 2
REMARK VINA RESULT:    -2.987      2.183      2.695
REMARK INTER + INTRA:          -3.248
REMARK INTER:                  -3.248
REMARK INTRA:                   0.000
REMARK UNBOUND:                 0.000
REMARK SMILES [NH3+]CC(=O)[O-]
REMARK SMILES IDX 2 1 1 2 3 6 4 7 5 8
REMARK H PARENT 1 3 1 4 1 5
REMARK Flexibility Score: inf
ROOT
ATOM      1  C   UNL     1      10.916  41.979  13.738  1.00  0.00     0.312 C 
ENDROOT
BRANCH   1   2
ATOM      2  N   UNL     1      10.915  42.945  12.641  1.00  0.00    -0.353 N 
ATOM      3  H   UNL     1      11.611  43.703  12.830  1.00  0.00     0.344 HD
ATOM      4  H   UNL     1       9.961  43.360  12.529  1.00  0.00     0.344 HD
ATOM      5  H   UNL     1      11.178  42.456  11.755  1.00  0.00     0.344 HD
ENDBRANCH   1   2
BRANCH   1   6
ATOM      6  C   UNL     1      10.192  40.730  13.343  1.00  0.00     0.096 C 
ATOM      7  O   UNL     1      10.776  39.616  13.399  1.00  0.00    -0.544 OA
ATOM      8  O   UNL     1       8.858  40.789  12.962  1.00  0.00    -0.544 OA
ENDBRANCH   1   6
TORSDOF 2
ENDMDL
MODEL 3
REMARK VINA RESULT:    -2.732     21.465     21.675
REMARK INTER + INTRA:          -2.971
REMARK INTER:                  -2.971
REMARK INTRA:                   0.000
REMARK UNBOUND:                 0.000
REMARK SMILES [NH3+]CC(=O)[O-]
REMARK SMILES IDX 2 1 1 2 3 6 4 7 5 8
REMARK H PARENT 1 3 1 4 1 5
REMARK Flexibility Score: inf
ROOT
ATOM      1  C   UNL     1      25.870  35.151  28.035  1.00  0.00     0.312 C 
ENDROOT
BRANCH   1   2
ATOM      2  N   UNL     1      25.185  34.306  27.059  1.00  0.00    -0.353 N 
ATOM      3  H   UNL     1      24.838  34.888  26.262  1.00  0.00     0.344 HD
ATOM      4  H   UNL     1      24.382  33.813  27.513  1.00  0.00     0.344 HD
ATOM      5  H   UNL     1      25.856  33.594  26.691  1.00  0.00     0.344 HD
ENDBRANCH   1   2
BRANCH   1   6
ATOM      6  C   UNL     1      26.627  36.245  27.348  1.00  0.00     0.096 C 
ATOM      7  O   UNL     1      26.247  37.440  27.455  1.00  0.00    -0.544 OA
ATOM      8  O   UNL     1      27.780  35.950  26.632  1.00  0.00    -0.544 OA
ENDBRANCH   1   6
TORSDOF 2
ENDMDL
MODEL 4
REMARK VINA RESULT:    -2.702      2.036      2.328
REMARK INTER + INTRA:          -2.938
REMARK INTER:                  -2.938
REMARK INTRA:                   0.000
REMARK UNBOUND:                 0.000
REMARK SMILES [NH3+]CC(=O)[O-]
REMARK SMILES IDX 2 1 1 2 3 6 4 7 5 8
REMARK H PARENT 1 3 1 4 1 5
REMARK Flexibility Score: inf
ROOT
ATOM      1  C   UNL     1       9.402  39.899  13.314  1.00  0.00     0.312 C 
ENDROOT
BRANCH   1   2
ATOM      2  N   UNL     1       8.672  40.969  12.638  1.00  0.00    -0.353 N 
ATOM      3  H   UNL     1       7.650  40.895  12.850  1.00  0.00     0.344 HD
ATOM      4  H   UNL     1       8.824  40.910  11.604  1.00  0.00     0.344 HD
ATOM      5  H   UNL     1       9.023  41.892  12.980  1.00  0.00     0.344 HD
ENDBRANCH   1   2
BRANCH   1   6
ATOM      6  C   UNL     1      10.796  40.335  13.641  1.00  0.00     0.096 C 
ATOM      7  O   UNL     1      11.625  39.509  14.104  1.00  0.00    -0.544 OA
ATOM      8  O   UNL     1      11.194  41.641  13.389  1.00  0.00    -0.544 OA
ENDBRANCH   1   6
TORSDOF 2
ENDMDL
MODEL 5
REMARK VINA RESULT:    -2.681     11.888     12.279
REMARK INTER + INTRA:          -2.916
REMARK INTER:                  -2.916
REMARK INTRA:                   0.000
REMARK UNBOUND:                 0.000
REMARK SMILES [NH3+]CC(=O)[O-]
REMARK SMILES IDX 2 1 1 2 3 6 4 7 5 8
REMARK H PARENT 1 3 1 4 1 5
REMARK Flexibility Score: inf
ROOT
ATOM      1  C   UNL     1      15.855  31.261  14.664  1.00  0.00     0.312 C 
ENDROOT
BRANCH   1   2
ATOM      2  N   UNL     1      16.218  32.446  15.439  1.00  0.00    -0.353 N 
ATOM      3  H   UNL     1      16.542  33.208  14.799  1.00  0.00     0.344 HD
ATOM      4  H   UNL     1      16.977  32.210  16.120  1.00  0.00     0.344 HD
ATOM      5  H   UNL     1      15.381  32.780  15.967  1.00  0.00     0.344 HD
ENDBRANCH   1   2
BRANCH   1   6
ATOM      6  C   UNL     1      16.585  30.056  15.168  1.00  0.00     0.096 C 
ATOM      7  O   UNL     1      17.733  30.175  15.668  1.00  0.00    -0.544 OA
ATOM      8  O   UNL     1      15.976  28.808  15.130  1.00  0.00    -0.544 OA
ENDBRANCH   1   6
TORSDOF 2
ENDMDL
MODEL 6
REMARK VINA RESULT:    -2.630     11.317     11.824
REMARK INTER + INTRA:          -2.860
REMARK INTER:                  -2.860
REMARK INTRA:                   0.000
REMARK UNBOUND:                 0.000
REMARK SMILES [NH3+]CC(=O)[O-]
REMARK SMILES IDX 2 1 1 2 3 6 4 7 5 8
REMARK H PARENT 1 3 1 4 1 5
REMARK Flexibility Score: inf
ROOT
ATOM      1  C   UNL     1      15.875  31.444  14.755  1.00  0.00     0.312 C 
ENDROOT
BRANCH   1   2
ATOM      2  N   UNL     1      15.832  32.837  15.194  1.00  0.00    -0.353 N 
ATOM      3  H   UNL     1      16.478  32.979  16.004  1.00  0.00     0.344 HD
ATOM      4  H   UNL     1      14.856  33.097  15.470  1.00  0.00     0.344 HD
ATOM      5  H   UNL     1      16.136  33.454  14.407  1.00  0.00     0.344 HD
ENDBRANCH   1   2
BRANCH   1   6
ATOM      6  C   UNL     1      17.286  30.947  14.713  1.00  0.00     0.096 C 
ATOM      7  O   UNL     1      18.091  31.399  13.856  1.00  0.00    -0.544 OA
ATOM      8  O   UNL     1      17.727  30.023  15.652  1.00  0.00    -0.544 OA
ENDBRANCH   1   6
TORSDOF 2
ENDMDL
MODEL 7
REMARK VINA RESULT:    -2.583     11.755     12.056
REMARK INTER + INTRA:          -2.810
REMARK INTER:                  -2.810
REMARK INTRA:                   0.000
REMARK UNBOUND:                 0.000
REMARK SMILES [NH3+]CC(=O)[O-]
REMARK SMILES IDX 2 1 1 2 3 6 4 7 5 8
REMARK H PARENT 1 3 1 4 1 5
REMARK Flexibility Score: inf
ROOT
ATOM      1  C   UNL     1      15.719  31.356  14.559  1.00  0.00     0.312 C 
ENDROOT
BRANCH   1   2
ATOM      2  N   UNL     1      16.073  32.519  15.369  1.00  0.00    -0.353 N 
ATOM      3  H   UNL     1      15.223  33.100  15.555  1.00  0.00     0.344 HD
ATOM      4  H   UNL     1      16.794  33.095  14.876  1.00  0.00     0.344 HD
ATOM      5  H   UNL     1      16.467  32.194  16.281  1.00  0.00     0.344 HD
ENDBRANCH   1   2
BRANCH   1   6
ATOM      6  C   UNL     1      16.432  30.134  15.048  1.00  0.00     0.096 C 
ATOM      7  O   UNL     1      15.966  28.990  14.805  1.00  0.00    -0.544 OA
ATOM      8  O   UNL     1      17.636  30.256  15.730  1.00  0.00    -0.544 OA
ENDBRANCH   1   6
TORSDOF 2
ENDMDL
MODEL 8
REMARK VINA RESULT:    -2.513     11.022     11.278
REMARK INTER + INTRA:          -2.733
REMARK INTER:                  -2.733
REMARK INTRA:                   0.000
REMARK UNBOUND:                 0.000
REMARK SMILES [NH3+]CC(=O)[O-]
REMARK SMILES IDX 2 1 1 2 3 6 4 7 5 8
REMARK H PARENT 1 3 1 4 1 5
REMARK Flexibility Score: inf
ROOT
ATOM      1  C   UNL     1      17.159  31.489  14.735  1.00  0.00     0.312 C 
ENDROOT
BRANCH   1   2
ATOM      2  N   UNL     1      16.251  32.394  15.437  1.00  0.00    -0.353 N 
ATOM      3  H   UNL     1      15.259  32.100  15.281  1.00  0.00     0.344 HD
ATOM      4  H   UNL     1      16.388  33.374  15.097  1.00  0.00     0.344 HD
ATOM      5  H   UNL     1      16.457  32.359  16.461  1.00  0.00     0.344 HD
ENDBRANCH   1   2
BRANCH   1   6
ATOM      6  C   UNL     1      17.485  32.018  13.374  1.00  0.00     0.096 C 
ATOM      7  O   UNL     1      18.621  32.508  13.141  1.00  0.00    -0.544 OA
ATOM      8  O   UNL     1      16.553  31.924  12.349  1.00  0.00    -0.544 OA
ENDBRANCH   1   6
TORSDOF 2
ENDMDL
MODEL 9
REMARK VINA RESULT:    -2.500      2.625      2.758
REMARK INTER + INTRA:          -2.719
REMARK INTER:                  -2.719
REMARK INTRA:                   0.000
REMARK UNBOUND:                 0.000
REMARK SMILES [NH3+]CC(=O)[O-]
REMARK SMILES IDX 2 1 1 2 3 6 4 7 5 8
REMARK H PARENT 1 3 1 4 1 5
REMARK Flexibility Score: inf
ROOT
ATOM      1  C   UNL     1       9.506  41.671  13.910  1.00  0.00     0.312 C 
ENDROOT
BRANCH   1   2
ATOM      2  N   UNL     1       8.717  42.766  13.350  1.00  0.00    -0.353 N 
ATOM      3  H   UNL     1       8.844  43.631  13.926  1.00  0.00     0.344 HD
ATOM      4  H   UNL     1       7.705  42.503  13.326  1.00  0.00     0.344 HD
ATOM      5  H   UNL     1       9.041  42.958  12.375  1.00  0.00     0.344 HD
ENDBRANCH   1   2
BRANCH   1   6
ATOM      6  C   UNL     1       9.173  40.379  13.233  1.00  0.00     0.096 C 
ATOM      7  O   UNL     1       8.150  40.292  12.505  1.00  0.00    -0.544 OA
ATOM      8  O   UNL     1      10.018  39.285  13.365  1.00  0.00    -0.544 OA
ENDBRANCH   1   6
TORSDOF 2
ENDMDL
