MODEL 1
REMARK VINA RESULT:    -5.049      0.000      0.000
REMARK INTER + INTRA:          -5.512
REMARK INTER:                  -5.345
REMARK INTRA:                  -0.167
REMARK UNBOUND:                -0.167
REMARK SMILES C=C(C)[C@@H]1CC=C(C)C(=O)C1
REMARK SMILES IDX 8 1 7 2 6 3 5 4 4 5 11 6 9 7 10 8 2 9 1 10 3 11
REMARK H PARENT
REMARK Flexibility Score: inf
ROOT
ATOM      1  C   UNL     1      25.038  -4.722   6.372  1.00  0.00     0.048 C 
ATOM      2  C   UNL     1      24.364  -3.518   6.970  1.00  0.00    -0.012 C 
ATOM      3  C   UNL     1      24.288  -2.378   6.264  1.00  0.00    -0.019 C 
ATOM      4  C   UNL     1      23.621  -1.139   6.806  1.00  0.00     0.036 C 
ATOM      5  C   UNL     1      22.500  -1.451   7.822  1.00  0.00     0.025 C 
ATOM      6  C   UNL     1      23.012  -2.431   8.894  1.00  0.00     0.089 C 
ATOM      7  C   UNL     1      23.669  -3.632   8.273  1.00  0.00     0.158 C 
ATOM      8  O   UNL     1      23.659  -4.729   8.894  1.00  0.00    -0.295 OA
ENDROOT
BRANCH   5   9
ATOM      9  C   UNL     1      21.193  -1.942   7.194  1.00  0.00    -0.077 C 
ATOM     10  C   UNL     1      20.908  -1.585   5.929  1.00  0.00     0.008 C 
ATOM     11  C   UNL     1      20.184  -2.756   7.972  1.00  0.00     0.039 C 
ENDBRANCH   5   9
TORSDOF 1
ENDMDL
MODEL 2
REMARK VINA RESULT:    -4.592      1.550      3.188
REMARK INTER + INTRA:          -5.028
REMARK INTER:                  -4.855
REMARK INTRA:                  -0.173
REMARK UNBOUND:                -0.167
REMARK SMILES C=C(C)[C@@H]1CC=C(C)C(=O)C1
REMARK SMILES IDX 8 1 7 2 6 3 5 4 4 5 11 6 9 7 10 8 2 9 1 10 3 11
REMARK H PARENT
REMARK Flexibility Score: inf
ROOT
ATOM      1  C   UNL     1      23.230  -5.624   9.545  1.00  0.00     0.048 C 
ATOM      2  C   UNL     1      22.918  -4.728   8.377  1.00  0.00    -0.012 C 
ATOM      3  C   UNL     1      22.040  -3.723   8.525  1.00  0.00    -0.019 C 
ATOM      4  C   UNL     1      21.689  -2.788   7.396  1.00  0.00     0.036 C 
ATOM      5  C   UNL     1      22.834  -2.620   6.372  1.00  0.00     0.025 C 
ATOM      6  C   UNL     1      23.360  -3.999   5.931  1.00  0.00     0.089 C 
ATOM      7  C   UNL     1      23.678  -4.870   7.114  1.00  0.00     0.158 C 
ATOM      8  O   UNL     1      24.570  -5.755   7.004  1.00  0.00    -0.295 OA
ENDROOT
BRANCH   5   9
ATOM      9  C   UNL     1      23.973  -1.711   6.839  1.00  0.00    -0.077 C 
ATOM     10  C   UNL     1      23.691  -0.695   7.674  1.00  0.00     0.008 C 
ATOM     11  C   UNL     1      25.390  -1.877   6.338  1.00  0.00     0.039 C 
ENDBRANCH   5   9
TORSDOF 1
ENDMDL
MODEL 3
REMARK VINA RESULT:    -4.240      1.912      3.582
REMARK INTER + INTRA:          -4.655
REMARK INTER:                  -4.582
REMARK INTRA:                  -0.072
REMARK UNBOUND:                -0.167
REMARK SMILES C=C(C)[C@@H]1CC=C(C)C(=O)C1
REMARK SMILES IDX 8 1 7 2 6 3 5 4 4 5 11 6 9 7 10 8 2 9 1 10 3 11
REMARK H PARENT
REMARK Flexibility Score: inf
ROOT
ATOM      1  C   UNL     1      24.000   0.098   7.364  1.00  0.00     0.048 C 
ATOM      2  C   UNL     1      23.678  -1.281   6.859  1.00  0.00    -0.012 C 
ATOM      3  C   UNL     1      24.663  -2.066   6.391  1.00  0.00    -0.019 C 
ATOM      4  C   UNL     1      24.406  -3.459   5.875  1.00  0.00     0.036 C 
ATOM      5  C   UNL     1      23.181  -4.131   6.535  1.00  0.00     0.025 C 
ATOM      6  C   UNL     1      21.965  -3.187   6.483  1.00  0.00     0.089 C 
ATOM      7  C   UNL     1      22.306  -1.820   7.005  1.00  0.00     0.158 C 
ATOM      8  O   UNL     1      21.400  -1.118   7.531  1.00  0.00    -0.295 OA
ENDROOT
BRANCH   5   9
ATOM      9  C   UNL     1      23.428  -4.646   7.955  1.00  0.00    -0.077 C 
ATOM     10  C   UNL     1      22.458  -4.500   8.875  1.00  0.00     0.008 C 
ATOM     11  C   UNL     1      24.750  -5.251   8.372  1.00  0.00     0.039 C 
ENDBRANCH   5   9
TORSDOF 1
ENDMDL
MODEL 4
REMARK VINA RESULT:    -4.233      3.624      5.335
REMARK INTER + INTRA:          -4.648
REMARK INTER:                  -4.581
REMARK INTRA:                  -0.067
REMARK UNBOUND:                -0.167
REMARK SMILES C=C(C)[C@@H]1CC=C(C)C(=O)C1
REMARK SMILES IDX 8 1 7 2 6 3 5 4 4 5 11 6 9 7 10 8 2 9 1 10 3 11
REMARK H PARENT
REMARK Flexibility Score: inf
ROOT
ATOM      1  C   UNL     1      22.328  -9.199  10.240  1.00  0.00     0.048 C 
ATOM      2  C   UNL     1      23.302  -8.249   9.600  1.00  0.00    -0.012 C 
ATOM      3  C   UNL     1      24.280  -8.726   8.813  1.00  0.00    -0.019 C 
ATOM      4  C   UNL     1      25.284  -7.826   8.140  1.00  0.00     0.036 C 
ATOM      5  C   UNL     1      24.729  -6.414   7.848  1.00  0.00     0.025 C 
ATOM      6  C   UNL     1      24.079  -5.826   9.114  1.00  0.00     0.089 C 
ATOM      7  C   UNL     1      23.100  -6.787   9.728  1.00  0.00     0.158 C 
ATOM      8  O   UNL     1      22.126  -6.335  10.390  1.00  0.00    -0.295 OA
ENDROOT
BRANCH   5   9
ATOM      9  C   UNL     1      23.781  -6.340   6.648  1.00  0.00    -0.077 C 
ATOM     10  C   UNL     1      23.254  -5.150   6.311  1.00  0.00     0.008 C 
ATOM     11  C   UNL     1      23.366  -7.572   5.875  1.00  0.00     0.039 C 
ENDBRANCH   5   9
TORSDOF 1
ENDMDL
MODEL 5
REMARK VINA RESULT:    -4.178     11.850     13.876
REMARK INTER + INTRA:          -4.589
REMARK INTER:                  -4.418
REMARK INTRA:                  -0.171
REMARK UNBOUND:                -0.167
REMARK SMILES C=C(C)[C@@H]1CC=C(C)C(=O)C1
REMARK SMILES IDX 8 1 7 2 6 3 5 4 4 5 11 6 9 7 10 8 2 9 1 10 3 11
REMARK H PARENT
REMARK Flexibility Score: inf
ROOT
ATOM      1  C   UNL     1      13.102  -8.264  17.106  1.00  0.00     0.048 C 
ATOM      2  C   UNL     1      14.115  -7.301  17.660  1.00  0.00    -0.012 C 
ATOM      3  C   UNL     1      14.441  -7.352  18.962  1.00  0.00    -0.019 C 
ATOM      4  C   UNL     1      15.452  -6.418  19.576  1.00  0.00     0.036 C 
ATOM      5  C   UNL     1      16.522  -5.938  18.570  1.00  0.00     0.025 C 
ATOM      6  C   UNL     1      15.847  -5.410  17.289  1.00  0.00     0.089 C 
ATOM      7  C   UNL     1      14.850  -6.394  16.747  1.00  0.00     0.158 C 
ATOM      8  O   UNL     1      14.612  -6.411  15.508  1.00  0.00    -0.295 OA
ENDROOT
BRANCH   5   9
ATOM      9  C   UNL     1      17.599  -6.976  18.246  1.00  0.00    -0.077 C 
ATOM     10  C   UNL     1      18.020  -7.799  19.223  1.00  0.00     0.008 C 
ATOM     11  C   UNL     1      18.252  -7.059  16.885  1.00  0.00     0.039 C 
ENDBRANCH   5   9
TORSDOF 1
ENDMDL
MODEL 6
REMARK VINA RESULT:    -4.068     12.551     14.017
REMARK INTER + INTRA:          -4.473
REMARK INTER:                  -4.352
REMARK INTRA:                  -0.121
REMARK UNBOUND:                -0.167
REMARK SMILES C=C(C)[C@@H]1CC=C(C)C(=O)C1
REMARK SMILES IDX 8 1 7 2 6 3 5 4 4 5 11 6 9 7 10 8 2 9 1 10 3 11
REMARK H PARENT
REMARK Flexibility Score: inf
ROOT
ATOM      1  C   UNL     1      17.922  -6.924  17.917  1.00  0.00     0.048 C 
ATOM      2  C   UNL     1      16.484  -6.592  17.629  1.00  0.00    -0.012 C 
ATOM      3  C   UNL     1      15.958  -6.893  16.430  1.00  0.00    -0.019 C 
ATOM      4  C   UNL     1      14.523  -6.590  16.082  1.00  0.00     0.036 C 
ATOM      5  C   UNL     1      13.590  -6.585  17.314  1.00  0.00     0.025 C 
ATOM      6  C   UNL     1      14.186  -5.704  18.428  1.00  0.00     0.089 C 
ATOM      7  C   UNL     1      15.618  -6.063  18.707  1.00  0.00     0.158 C 
ATOM      8  O   UNL     1      16.087  -5.868  19.862  1.00  0.00    -0.295 OA
ENDROOT
BRANCH   5   9
ATOM      9  C   UNL     1      13.224  -7.976  17.838  1.00  0.00    -0.077 C 
ATOM     10  C   UNL     1      12.832  -8.916  16.960  1.00  0.00     0.008 C 
ATOM     11  C   UNL     1      13.223  -8.304  19.314  1.00  0.00     0.039 C 
ENDBRANCH   5   9
TORSDOF 1
ENDMDL
MODEL 7
REMARK VINA RESULT:    -4.028      2.138      3.327
REMARK INTER + INTRA:          -4.431
REMARK INTER:                  -4.366
REMARK INTRA:                  -0.065
REMARK UNBOUND:                -0.167
REMARK SMILES C=C(C)[C@@H]1CC=C(C)C(=O)C1
REMARK SMILES IDX 8 1 7 2 6 3 5 4 4 5 11 6 9 7 10 8 2 9 1 10 3 11
REMARK H PARENT
REMARK Flexibility Score: inf
ROOT
ATOM      1  C   UNL     1      26.929  -2.204   6.154  1.00  0.00     0.048 C 
ATOM      2  C   UNL     1      25.570  -2.845   6.087  1.00  0.00    -0.012 C 
ATOM      3  C   UNL     1      25.467  -4.177   5.955  1.00  0.00    -0.019 C 
ATOM      4  C   UNL     1      24.135  -4.879   5.887  1.00  0.00     0.036 C 
ATOM      5  C   UNL     1      23.016  -4.127   6.642  1.00  0.00     0.025 C 
ATOM      6  C   UNL     1      22.990  -2.647   6.216  1.00  0.00     0.089 C 
ATOM      7  C   UNL     1      24.356  -2.025   6.304  1.00  0.00     0.158 C 
ATOM      8  O   UNL     1      24.455  -0.787   6.522  1.00  0.00    -0.295 OA
ENDROOT
BRANCH   5   9
ATOM      9  C   UNL     1      23.071  -4.269   8.165  1.00  0.00    -0.077 C 
ATOM     10  C   UNL     1      22.804  -3.193   8.926  1.00  0.00     0.008 C 
ATOM     11  C   UNL     1      23.483  -5.559   8.837  1.00  0.00     0.039 C 
ENDBRANCH   5   9
TORSDOF 1
ENDMDL
MODEL 8
REMARK VINA RESULT:    -3.991     13.325     14.842
REMARK INTER + INTRA:          -4.391
REMARK INTER:                  -4.218
REMARK INTRA:                  -0.173
REMARK UNBOUND:                -0.167
REMARK SMILES C=C(C)[C@@H]1CC=C(C)C(=O)C1
REMARK SMILES IDX 8 1 7 2 6 3 5 4 4 5 11 6 9 7 10 8 2 9 1 10 3 11
REMARK H PARENT
REMARK Flexibility Score: inf
ROOT
ATOM      1  C   UNL     1      12.759  -8.011  17.667  1.00  0.00     0.048 C 
ATOM      2  C   UNL     1      13.933  -7.154  18.053  1.00  0.00    -0.012 C 
ATOM      3  C   UNL     1      14.354  -6.187  17.221  1.00  0.00    -0.019 C 
ATOM      4  C   UNL     1      15.522  -5.293  17.552  1.00  0.00     0.036 C 
ATOM      5  C   UNL     1      15.718  -5.093  19.072  1.00  0.00     0.025 C 
ATOM      6  C   UNL     1      15.722  -6.455  19.791  1.00  0.00     0.089 C 
ATOM      7  C   UNL     1      14.533  -7.287  19.400  1.00  0.00     0.158 C 
ATOM      8  O   UNL     1      14.078  -8.132  20.218  1.00  0.00    -0.295 OA
ENDROOT
BRANCH   5   9
ATOM      9  C   UNL     1      14.725  -4.124  19.718  1.00  0.00    -0.077 C 
ATOM     10  C   UNL     1      14.270  -3.085  18.995  1.00  0.00     0.008 C 
ATOM     11  C   UNL     1      14.295  -4.258  21.161  1.00  0.00     0.039 C 
ENDBRANCH   5   9
TORSDOF 1
ENDMDL
