MODEL 1
REMARK VINA RESULT:    -2.169      0.000      0.000
REMARK INTER + INTRA:          -2.169
REMARK INTER:                  -2.169
REMARK INTRA:                   0.000
REMARK UNBOUND:                 0.000
REMARK SMILES CC(=O)[O-]
REMARK SMILES IDX 1 1 2 2 3 3 4 4
REMARK H PARENT
REMARK Flexibility Score: inf
ROOT
ATOM      1  C   UNL     1     -49.229   4.361  -9.793  1.00  0.00     0.063 C 
ATOM      2  C   UNL     1     -49.769   5.744  -9.650  1.00  0.00     0.038 C 
ATOM      3  O   UNL     1     -49.592   6.383  -8.580  1.00  0.00    -0.550 OA
ATOM      4  O   UNL     1     -50.421   6.350 -10.715  1.00  0.00    -0.550 OA
ENDROOT
TORSDOF 0
ENDMDL
MODEL 2
REMARK VINA RESULT:    -2.162     19.498     19.630
REMARK INTER + INTRA:          -2.162
REMARK INTER:                  -2.162
REMARK INTRA:                   0.000
REMARK UNBOUND:                 0.000
REMARK SMILES CC(=O)[O-]
REMARK SMILES IDX 1 1 2 2 3 3 4 4
REMARK H PARENT
REMARK Flexibility Score: inf
ROOT
ATOM      1  C   UNL     1     -32.768   3.048 -18.557  1.00  0.00     0.063 C 
ATOM      2  C   UNL     1     -32.686   4.366 -19.250  1.00  0.00     0.038 C 
ATOM      3  O   UNL     1     -32.266   5.379 -18.633  1.00  0.00    -0.550 OA
ATOM      4  O   UNL     1     -33.024   4.469 -20.593  1.00  0.00    -0.550 OA
ENDROOT
TORSDOF 0
ENDMDL
MODEL 3
REMARK VINA RESULT:    -2.144     20.075     20.284
REMARK INTER + INTRA:          -2.144
REMARK INTER:                  -2.144
REMARK INTRA:                   0.000
REMARK UNBOUND:                 0.000
REMARK SMILES CC(=O)[O-]
REMARK SMILES IDX 1 1 2 2 3 3 4 4
REMARK H PARENT
REMARK Flexibility Score: inf
ROOT
ATOM      1  C   UNL     1     -32.473   4.677 -18.999  1.00  0.00     0.063 C 
ATOM      2  C   UNL     1     -32.658   3.926 -20.273  1.00  0.00     0.038 C 
ATOM      3  O   UNL     1     -32.757   4.546 -21.364  1.00  0.00    -0.550 OA
ATOM      4  O   UNL     1     -32.668   2.537 -20.267  1.00  0.00    -0.550 OA
ENDROOT
TORSDOF 0
ENDMDL
MODEL 4
REMARK VINA RESULT:    -2.104      1.359      1.677
REMARK INTER + INTRA:          -2.104
REMARK INTER:                  -2.104
REMARK INTRA:                   0.000
REMARK UNBOUND:                 0.000
REMARK SMILES CC(=O)[O-]
REMARK SMILES IDX 1 1 2 2 3 3 4 4
REMARK H PARENT
REMARK Flexibility Score: inf
ROOT
ATOM      1  C   UNL     1     -49.623   6.211  -8.395  1.00  0.00     0.063 C 
ATOM      2  C   UNL     1     -49.738   5.657  -9.774  1.00  0.00     0.038 C 
ATOM      3  O   UNL     1     -49.243   4.532 -10.046  1.00  0.00    -0.550 OA
ATOM      4  O   UNL     1     -50.437   6.356 -10.750  1.00  0.00    -0.550 OA
ENDROOT
TORSDOF 0
ENDMDL
MODEL 5
REMARK VINA RESULT:    -2.084     11.834     12.158
REMARK INTER + INTRA:          -2.084
REMARK INTER:                  -2.084
REMARK INTRA:                   0.000
REMARK UNBOUND:                 0.000
REMARK SMILES CC(=O)[O-]
REMARK SMILES IDX 1 1 2 2 3 3 4 4
REMARK H PARENT
REMARK Flexibility Score: inf
ROOT
ATOM      1  C   UNL     1     -38.392   4.096 -12.248  1.00  0.00     0.063 C 
ATOM      2  C   UNL     1     -38.323   2.682 -11.780  1.00  0.00     0.038 C 
ATOM      3  O   UNL     1     -37.344   1.958 -12.099  1.00  0.00    -0.550 OA
ATOM      4  O   UNL     1     -39.313   2.174 -10.948  1.00  0.00    -0.550 OA
ENDROOT
TORSDOF 0
ENDMDL
MODEL 6
REMARK VINA RESULT:    -2.061      1.590      1.951
REMARK INTER + INTRA:          -2.061
REMARK INTER:                  -2.061
REMARK INTRA:                   0.000
REMARK UNBOUND:                 0.000
REMARK SMILES CC(=O)[O-]
REMARK SMILES IDX 1 1 2 2 3 3 4 4
REMARK H PARENT
REMARK Flexibility Score: inf
ROOT
ATOM      1  C   UNL     1     -49.627   5.176  -9.887  1.00  0.00     0.063 C 
ATOM      2  C   UNL     1     -49.637   5.467  -8.425  1.00  0.00     0.038 C 
ATOM      3  O   UNL     1     -49.633   4.524  -7.593  1.00  0.00    -0.550 OA
ATOM      4  O   UNL     1     -49.596   6.781  -7.977  1.00  0.00    -0.550 OA
ENDROOT
TORSDOF 0
ENDMDL
MODEL 7
REMARK VINA RESULT:    -2.006     11.734     12.026
REMARK INTER + INTRA:          -2.006
REMARK INTER:                  -2.006
REMARK INTRA:                   0.000
REMARK UNBOUND:                 0.000
REMARK SMILES CC(=O)[O-]
REMARK SMILES IDX 1 1 2 2 3 3 4 4
REMARK H PARENT
REMARK Flexibility Score: inf
ROOT
ATOM      1  C   UNL     1     -39.478   2.646 -11.076  1.00  0.00     0.063 C 
ATOM      2  C   UNL     1     -38.367   3.098 -11.962  1.00  0.00     0.038 C 
ATOM      3  O   UNL     1     -38.367   4.265 -12.430  1.00  0.00    -0.550 OA
ATOM      4  O   UNL     1     -37.302   2.248 -12.231  1.00  0.00    -0.550 OA
ENDROOT
TORSDOF 0
ENDMDL
MODEL 8
REMARK VINA RESULT:    -1.995     11.508     11.779
REMARK INTER + INTRA:          -1.995
REMARK INTER:                  -1.995
REMARK INTRA:                   0.000
REMARK UNBOUND:                 0.000
REMARK SMILES CC(=O)[O-]
REMARK SMILES IDX 1 1 2 2 3 3 4 4
REMARK H PARENT
REMARK Flexibility Score: inf
ROOT
ATOM      1  C   UNL     1     -37.746   1.936 -11.952  1.00  0.00     0.063 C 
ATOM      2  C   UNL     1     -38.546   3.189 -11.837  1.00  0.00     0.038 C 
ATOM      3  O   UNL     1     -39.603   3.204 -11.156  1.00  0.00    -0.550 OA
ATOM      4  O   UNL     1     -38.097   4.358 -12.438  1.00  0.00    -0.550 OA
ENDROOT
TORSDOF 0
ENDMDL
MODEL 9
REMARK VINA RESULT:    -1.980     23.330     23.643
REMARK INTER + INTRA:          -1.980
REMARK INTER:                  -1.980
REMARK INTRA:                   0.000
REMARK UNBOUND:                 0.000
REMARK SMILES CC(=O)[O-]
REMARK SMILES IDX 1 1 2 2 3 3 4 4
REMARK H PARENT
REMARK Flexibility Score: inf
ROOT
ATOM      1  C   UNL     1     -31.671   4.880 -24.255  1.00  0.00     0.063 C 
ATOM      2  C   UNL     1     -32.173   5.643 -25.433  1.00  0.00     0.038 C 
ATOM      3  O   UNL     1     -33.125   5.192 -26.119  1.00  0.00    -0.550 OA
ATOM      4  O   UNL     1     -31.625   6.882 -25.744  1.00  0.00    -0.550 OA
ENDROOT
TORSDOF 0
ENDMDL
