MODEL 1
REMARK VINA RESULT:    -2.813      0.000      0.000
REMARK INTER + INTRA:          -3.153
REMARK INTER:                  -3.142
REMARK INTRA:                  -0.010
REMARK UNBOUND:                -0.010
REMARK SMILES CCCC(=O)[O-]
REMARK SMILES IDX 3 1 4 2 5 3 6 4 2 5 1 6
REMARK H PARENT
REMARK Flexibility Score: inf
ROOT
ATOM      1  C   UNL     1     106.800  49.971 231.396  1.00  0.00     0.052 C 
ENDROOT
BRANCH   1   2
ATOM      2  C   UNL     1     107.591  48.934 232.133  1.00  0.00     0.041 C 
ATOM      3  O   UNL     1     107.035  47.875 232.526  1.00  0.00    -0.550 OA
ATOM      4  O   UNL     1     108.949  49.123 232.357  1.00  0.00    -0.550 OA
ENDBRANCH   1   2
BRANCH   1   5
ATOM      5  C   UNL     1     105.975  49.356 230.259  1.00  0.00     0.003 C 
ATOM      6  C   UNL     1     104.867  50.288 229.774  1.00  0.00     0.004 C 
ENDBRANCH   1   5
TORSDOF 2
ENDMDL
MODEL 2
REMARK VINA RESULT:    -2.805      1.776      2.282
REMARK INTER + INTRA:          -3.144
REMARK INTER:                  -3.090
REMARK INTRA:                  -0.054
REMARK UNBOUND:                -0.010
REMARK SMILES CCCC(=O)[O-]
REMARK SMILES IDX 3 1 4 2 5 3 6 4 2 5 1 6
REMARK H PARENT
REMARK Flexibility Score: inf
ROOT
ATOM      1  C   UNL     1     107.107  49.342 231.275  1.00  0.00     0.052 C 
ENDROOT
BRANCH   1   2
ATOM      2  C   UNL     1     108.240  49.884 232.091  1.00  0.00     0.041 C 
ATOM      3  O   UNL     1     108.206  51.071 232.511  1.00  0.00    -0.550 OA
ATOM      4  O   UNL     1     109.318  49.070 232.414  1.00  0.00    -0.550 OA
ENDBRANCH   1   2
BRANCH   1   5
ATOM      5  C   UNL     1     106.358  48.225 232.013  1.00  0.00     0.003 C 
ATOM      6  C   UNL     1     105.361  48.768 233.035  1.00  0.00     0.004 C 
ENDBRANCH   1   5
TORSDOF 2
ENDMDL
MODEL 3
REMARK VINA RESULT:    -2.664      4.900      5.773
REMARK INTER + INTRA:          -2.986
REMARK INTER:                  -2.965
REMARK INTRA:                  -0.021
REMARK UNBOUND:                -0.010
REMARK SMILES CCCC(=O)[O-]
REMARK SMILES IDX 3 1 4 2 5 3 6 4 2 5 1 6
REMARK H PARENT
REMARK Flexibility Score: inf
ROOT
ATOM      1  C   UNL     1     110.494  53.417 232.432  1.00  0.00     0.052 C 
ENDROOT
BRANCH   1   2
ATOM      2  C   UNL     1     109.644  52.343 233.039  1.00  0.00     0.041 C 
ATOM      3  O   UNL     1     109.681  51.172 232.579  1.00  0.00    -0.550 OA
ATOM      4  O   UNL     1     108.837  52.629 234.133  1.00  0.00    -0.550 OA
ENDBRANCH   1   2
BRANCH   1   5
ATOM      5  C   UNL     1     111.949  52.963 232.261  1.00  0.00     0.003 C 
ATOM      6  C   UNL     1     112.563  53.458 230.952  1.00  0.00     0.004 C 
ENDBRANCH   1   5
TORSDOF 2
ENDMDL
MODEL 4
REMARK VINA RESULT:    -2.592     22.347     23.129
REMARK INTER + INTRA:          -2.905
REMARK INTER:                  -2.875
REMARK INTRA:                  -0.030
REMARK UNBOUND:                -0.010
REMARK SMILES CCCC(=O)[O-]
REMARK SMILES IDX 3 1 4 2 5 3 6 4 2 5 1 6
REMARK H PARENT
REMARK Flexibility Score: inf
ROOT
ATOM      1  C   UNL     1     111.534  65.477 216.463  1.00  0.00     0.052 C 
ENDROOT
BRANCH   1   2
ATOM      2  C   UNL     1     112.633  66.317 215.890  1.00  0.00     0.041 C 
ATOM      3  O   UNL     1     113.502  65.798 215.140  1.00  0.00    -0.550 OA
ATOM      4  O   UNL     1     112.680  67.680 216.156  1.00  0.00    -0.550 OA
ENDBRANCH   1   2
BRANCH   1   5
ATOM      5  C   UNL     1     111.211  64.274 215.568  1.00  0.00     0.003 C 
ATOM      6  C   UNL     1     111.163  62.963 216.350  1.00  0.00     0.004 C 
ENDBRANCH   1   5
TORSDOF 2
ENDMDL
MODEL 5
REMARK VINA RESULT:    -2.583     22.250     23.034
REMARK INTER + INTRA:          -2.895
REMARK INTER:                  -2.878
REMARK INTRA:                  -0.018
REMARK UNBOUND:                -0.010
REMARK SMILES CCCC(=O)[O-]
REMARK SMILES IDX 3 1 4 2 5 3 6 4 2 5 1 6
REMARK H PARENT
REMARK Flexibility Score: inf
ROOT
ATOM      1  C   UNL     1     111.455  65.291 216.547  1.00  0.00     0.052 C 
ENDROOT
BRANCH   1   2
ATOM      2  C   UNL     1     112.405  66.337 216.050  1.00  0.00     0.041 C 
ATOM      3  O   UNL     1     112.260  67.539 216.396  1.00  0.00    -0.550 OA
ATOM      4  O   UNL     1     113.470  65.980 215.232  1.00  0.00    -0.550 OA
ENDBRANCH   1   2
BRANCH   1   5
ATOM      5  C   UNL     1     111.160  64.235 215.475  1.00  0.00     0.003 C 
ATOM      6  C   UNL     1     111.006  62.834 216.065  1.00  0.00     0.004 C 
ENDBRANCH   1   5
TORSDOF 2
ENDMDL
MODEL 6
REMARK VINA RESULT:    -2.541     18.287     18.762
REMARK INTER + INTRA:          -2.848
REMARK INTER:                  -2.776
REMARK INTRA:                  -0.072
REMARK UNBOUND:                -0.010
REMARK SMILES CCCC(=O)[O-]
REMARK SMILES IDX 3 1 4 2 5 3 6 4 2 5 1 6
REMARK H PARENT
REMARK Flexibility Score: inf
ROOT
ATOM      1  C   UNL     1      99.043  59.713 216.710  1.00  0.00     0.052 C 
ENDROOT
BRANCH   1   2
ATOM      2  C   UNL     1      99.342  59.783 218.175  1.00  0.00     0.041 C 
ATOM      3  O   UNL     1     100.263  60.531 218.598  1.00  0.00    -0.550 OA
ATOM      4  O   UNL     1      98.584  59.048 219.078  1.00  0.00    -0.550 OA
ENDBRANCH   1   2
BRANCH   1   5
ATOM      5  C   UNL     1      99.125  58.276 216.180  1.00  0.00     0.003 C 
ATOM      6  C   UNL     1     100.519  57.673 216.347  1.00  0.00     0.004 C 
ENDBRANCH   1   5
TORSDOF 2
ENDMDL
MODEL 7
REMARK VINA RESULT:    -2.439     21.589     22.398
REMARK INTER + INTRA:          -2.734
REMARK INTER:                  -2.703
REMARK INTRA:                  -0.031
REMARK UNBOUND:                -0.010
REMARK SMILES CCCC(=O)[O-]
REMARK SMILES IDX 3 1 4 2 5 3 6 4 2 5 1 6
REMARK H PARENT
REMARK Flexibility Score: inf
ROOT
ATOM      1  C   UNL     1     111.858  64.748 215.559  1.00  0.00     0.052 C 
ENDROOT
BRANCH   1   2
ATOM      2  C   UNL     1     111.501  65.869 216.486  1.00  0.00     0.041 C 
ATOM      3  O   UNL     1     111.944  67.029 216.276  1.00  0.00    -0.550 OA
ATOM      4  O   UNL     1     110.654  65.640 217.563  1.00  0.00    -0.550 OA
ENDBRANCH   1   2
BRANCH   1   5
ATOM      5  C   UNL     1     110.721  63.726 215.438  1.00  0.00     0.003 C 
ATOM      6  C   UNL     1     111.025  62.426 216.182  1.00  0.00     0.004 C 
ENDBRANCH   1   5
TORSDOF 2
ENDMDL
MODEL 8
REMARK VINA RESULT:    -2.432      8.191      8.700
REMARK INTER + INTRA:          -2.727
REMARK INTER:                  -2.716
REMARK INTRA:                  -0.010
REMARK UNBOUND:                -0.010
REMARK SMILES CCCC(=O)[O-]
REMARK SMILES IDX 3 1 4 2 5 3 6 4 2 5 1 6
REMARK H PARENT
REMARK Flexibility Score: inf
ROOT
ATOM      1  C   UNL     1     110.991  53.797 226.069  1.00  0.00     0.052 C 
ENDROOT
BRANCH   1   2
ATOM      2  C   UNL     1     110.123  52.987 225.156  1.00  0.00     0.041 C 
ATOM      3  O   UNL     1     109.601  51.916 225.564  1.00  0.00    -0.550 OA
ATOM      4  O   UNL     1     109.864  53.431 223.865  1.00  0.00    -0.550 OA
ENDBRANCH   1   2
BRANCH   1   5
ATOM      5  C   UNL     1     112.451  53.329 226.031  1.00  0.00     0.003 C 
ATOM      6  C   UNL     1     113.124  53.413 227.400  1.00  0.00     0.004 C 
ENDBRANCH   1   5
TORSDOF 2
ENDMDL
MODEL 9
REMARK VINA RESULT:    -2.348      8.232      8.932
REMARK INTER + INTRA:          -2.633
REMARK INTER:                  -2.627
REMARK INTRA:                  -0.006
REMARK UNBOUND:                -0.010
REMARK SMILES CCCC(=O)[O-]
REMARK SMILES IDX 3 1 4 2 5 3 6 4 2 5 1 6
REMARK H PARENT
REMARK Flexibility Score: inf
ROOT
ATOM      1  C   UNL     1     111.978  54.328 226.939  1.00  0.00     0.052 C 
ENDROOT
BRANCH   1   2
ATOM      2  C   UNL     1     111.613  53.541 225.718  1.00  0.00     0.041 C 
ATOM      3  O   UNL     1     112.323  53.618 224.681  1.00  0.00    -0.550 OA
ATOM      4  O   UNL     1     110.509  52.699 225.737  1.00  0.00    -0.550 OA
ENDBRANCH   1   2
BRANCH   1   5
ATOM      5  C   UNL     1     113.021  53.599 227.796  1.00  0.00     0.003 C 
ATOM      6  C   UNL     1     112.942  53.993 229.270  1.00  0.00     0.004 C 
ENDBRANCH   1   5
TORSDOF 2
ENDMDL
