MODEL 1
REMARK VINA RESULT:    -3.188      0.000      0.000
REMARK INTER + INTRA:          -3.623
REMARK INTER:                  -3.561
REMARK INTRA:                  -0.062
REMARK UNBOUND:                -0.062
REMARK SMILES CCCC(=O)[O-]
REMARK SMILES IDX 3 1 4 2 5 3 6 4 2 5 1 6
REMARK H PARENT
REMARK Flexibility Score: inf
ROOT
ATOM      1  C   UNL     1      -1.947  56.600  47.362  1.00  0.00     0.052 C 
ENDROOT
BRANCH   1   2
ATOM      2  C   UNL     1      -2.364  57.159  48.689  1.00  0.00     0.041 C 
ATOM      3  O   UNL     1      -2.624  56.386  49.647  1.00  0.00    -0.550 OA
ATOM      4  O   UNL     1      -2.432  58.534  48.875  1.00  0.00    -0.550 OA
ENDBRANCH   1   2
BRANCH   1   5
ATOM      5  C   UNL     1      -2.627  57.330  46.198  1.00  0.00     0.003 C 
ATOM      6  C   UNL     1      -4.116  57.001  46.095  1.00  0.00     0.004 C 
ENDBRANCH   1   5
TORSDOF 2
ENDMDL
MODEL 2
REMARK VINA RESULT:    -3.029      2.171      2.754
REMARK INTER + INTRA:          -3.445
REMARK INTER:                  -3.397
REMARK INTRA:                  -0.048
REMARK UNBOUND:                -0.062
REMARK SMILES CCCC(=O)[O-]
REMARK SMILES IDX 3 1 4 2 5 3 6 4 2 5 1 6
REMARK H PARENT
REMARK Flexibility Score: inf
ROOT
ATOM      1  C   UNL     1      -2.609  57.193  48.823  1.00  0.00     0.052 C 
ENDROOT
BRANCH   1   2
ATOM      2  C   UNL     1      -2.459  56.616  47.447  1.00  0.00     0.041 C 
ATOM      3  O   UNL     1      -1.319  56.314  47.009  1.00  0.00    -0.550 OA
ATOM      4  O   UNL     1      -3.582  56.383  46.664  1.00  0.00    -0.550 OA
ENDBRANCH   1   2
BRANCH   1   5
ATOM      5  C   UNL     1      -2.310  58.697  48.845  1.00  0.00     0.003 C 
ATOM      6  C   UNL     1      -3.520  59.536  48.436  1.00  0.00     0.004 C 
ENDBRANCH   1   5
TORSDOF 2
ENDMDL
MODEL 3
REMARK VINA RESULT:    -2.988      2.212      3.196
REMARK INTER + INTRA:          -3.399
REMARK INTER:                  -3.363
REMARK INTRA:                  -0.037
REMARK UNBOUND:                -0.062
REMARK SMILES CCCC(=O)[O-]
REMARK SMILES IDX 3 1 4 2 5 3 6 4 2 5 1 6
REMARK H PARENT
REMARK Flexibility Score: inf
ROOT
ATOM      1  C   UNL     1      -3.490  56.543  46.796  1.00  0.00     0.052 C 
ENDROOT
BRANCH   1   2
ATOM      2  C   UNL     1      -3.561  57.788  45.965  1.00  0.00     0.041 C 
ATOM      3  O   UNL     1      -3.210  57.763  44.756  1.00  0.00    -0.550 OA
ATOM      4  O   UNL     1      -4.046  58.967  46.516  1.00  0.00    -0.550 OA
ENDBRANCH   1   2
BRANCH   1   5
ATOM      5  C   UNL     1      -2.191  56.473  47.608  1.00  0.00     0.003 C 
ATOM      6  C   UNL     1      -2.412  56.794  49.086  1.00  0.00     0.004 C 
ENDBRANCH   1   5
TORSDOF 2
ENDMDL
MODEL 4
REMARK VINA RESULT:    -2.958      2.131      2.572
REMARK INTER + INTRA:          -3.365
REMARK INTER:                  -3.326
REMARK INTRA:                  -0.039
REMARK UNBOUND:                -0.062
REMARK SMILES CCCC(=O)[O-]
REMARK SMILES IDX 3 1 4 2 5 3 6 4 2 5 1 6
REMARK H PARENT
REMARK Flexibility Score: inf
ROOT
ATOM      1  C   UNL     1      -2.296  57.862  48.930  1.00  0.00     0.052 C 
ENDROOT
BRANCH   1   2
ATOM      2  C   UNL     1      -3.195  58.988  48.517  1.00  0.00     0.041 C 
ATOM      3  O   UNL     1      -3.269  60.029  49.221  1.00  0.00    -0.550 OA
ATOM      4  O   UNL     1      -3.926  58.900  47.339  1.00  0.00    -0.550 OA
ENDBRANCH   1   2
BRANCH   1   5
ATOM      5  C   UNL     1      -2.534  56.605  48.084  1.00  0.00     0.003 C 
ATOM      6  C   UNL     1      -1.404  56.353  47.087  1.00  0.00     0.004 C 
ENDBRANCH   1   5
TORSDOF 2
ENDMDL
MODEL 5
REMARK VINA RESULT:    -2.952      2.234      3.260
REMARK INTER + INTRA:          -3.358
REMARK INTER:                  -3.320
REMARK INTRA:                  -0.039
REMARK UNBOUND:                -0.062
REMARK SMILES CCCC(=O)[O-]
REMARK SMILES IDX 3 1 4 2 5 3 6 4 2 5 1 6
REMARK H PARENT
REMARK Flexibility Score: inf
ROOT
ATOM      1  C   UNL     1      -3.571  56.627  46.887  1.00  0.00     0.052 C 
ENDROOT
BRANCH   1   2
ATOM      2  C   UNL     1      -3.586  57.847  46.017  1.00  0.00     0.041 C 
ATOM      3  O   UNL     1      -4.058  58.929  46.453  1.00  0.00    -0.550 OA
ATOM      4  O   UNL     1      -3.047  57.796  44.738  1.00  0.00    -0.550 OA
ENDBRANCH   1   2
BRANCH   1   5
ATOM      5  C   UNL     1      -2.230  56.461  47.613  1.00  0.00     0.003 C 
ATOM      6  C   UNL     1      -2.273  56.996  49.044  1.00  0.00     0.004 C 
ENDBRANCH   1   5
TORSDOF 2
ENDMDL
MODEL 6
REMARK VINA RESULT:    -2.916     12.544     13.369
REMARK INTER + INTRA:          -3.318
REMARK INTER:                  -3.269
REMARK INTRA:                  -0.049
REMARK UNBOUND:                -0.062
REMARK SMILES CCCC(=O)[O-]
REMARK SMILES IDX 3 1 4 2 5 3 6 4 2 5 1 6
REMARK H PARENT
REMARK Flexibility Score: inf
ROOT
ATOM      1  C   UNL     1      -2.985  55.054  60.114  1.00  0.00     0.052 C 
ENDROOT
BRANCH   1   2
ATOM      2  C   UNL     1      -2.799  53.597  59.814  1.00  0.00     0.041 C 
ATOM      3  O   UNL     1      -3.746  52.788  59.995  1.00  0.00    -0.550 OA
ATOM      4  O   UNL     1      -1.591  53.140  59.303  1.00  0.00    -0.550 OA
ENDBRANCH   1   2
BRANCH   1   5
ATOM      5  C   UNL     1      -2.883  55.343  61.617  1.00  0.00     0.003 C 
ATOM      6  C   UNL     1      -1.459  55.172  62.147  1.00  0.00     0.004 C 
ENDBRANCH   1   5
TORSDOF 2
ENDMDL
MODEL 7
REMARK VINA RESULT:    -2.908     13.050     13.465
REMARK INTER + INTRA:          -3.309
REMARK INTER:                  -3.279
REMARK INTRA:                  -0.031
REMARK UNBOUND:                -0.062
REMARK SMILES CCCC(=O)[O-]
REMARK SMILES IDX 3 1 4 2 5 3 6 4 2 5 1 6
REMARK H PARENT
REMARK Flexibility Score: inf
ROOT
ATOM      1  C   UNL     1      -2.984  54.900  60.251  1.00  0.00     0.052 C 
ENDROOT
BRANCH   1   2
ATOM      2  C   UNL     1      -2.675  55.275  61.669  1.00  0.00     0.041 C 
ATOM      3  O   UNL     1      -3.602  55.612  62.450  1.00  0.00    -0.550 OA
ATOM      4  O   UNL     1      -1.368  55.218  62.135  1.00  0.00    -0.550 OA
ENDBRANCH   1   2
BRANCH   1   5
ATOM      5  C   UNL     1      -1.864  54.057  59.628  1.00  0.00     0.003 C 
ATOM      6  C   UNL     1      -2.276  52.598  59.430  1.00  0.00     0.004 C 
ENDBRANCH   1   5
TORSDOF 2
ENDMDL
MODEL 8
REMARK VINA RESULT:    -2.907     13.143     13.821
REMARK INTER + INTRA:          -3.308
REMARK INTER:                  -3.298
REMARK INTRA:                  -0.010
REMARK UNBOUND:                -0.062
REMARK SMILES CCCC(=O)[O-]
REMARK SMILES IDX 3 1 4 2 5 3 6 4 2 5 1 6
REMARK H PARENT
REMARK Flexibility Score: inf
ROOT
ATOM      1  C   UNL     1       7.880  60.634  55.940  1.00  0.00     0.052 C 
ENDROOT
BRANCH   1   2
ATOM      2  C   UNL     1       8.594  61.217  54.759  1.00  0.00     0.041 C 
ATOM      3  O   UNL     1       8.161  61.015  53.594  1.00  0.00    -0.550 OA
ATOM      4  O   UNL     1       9.718  62.011  54.947  1.00  0.00    -0.550 OA
ENDBRANCH   1   2
BRANCH   1   5
ATOM      5  C   UNL     1       7.798  59.105  55.858  1.00  0.00     0.003 C 
ATOM      6  C   UNL     1       6.663  58.537  56.709  1.00  0.00     0.004 C 
ENDBRANCH   1   5
TORSDOF 2
ENDMDL
MODEL 9
REMARK VINA RESULT:    -2.743     13.062     13.503
REMARK INTER + INTRA:          -3.125
REMARK INTER:                  -3.093
REMARK INTRA:                  -0.032
REMARK UNBOUND:                -0.062
REMARK SMILES CCCC(=O)[O-]
REMARK SMILES IDX 3 1 4 2 5 3 6 4 2 5 1 6
REMARK H PARENT
REMARK Flexibility Score: inf
ROOT
ATOM      1  C   UNL     1       7.574  60.590  56.920  1.00  0.00     0.052 C 
ENDROOT
BRANCH   1   2
ATOM      2  C   UNL     1       6.177  60.299  57.376  1.00  0.00     0.041 C 
ATOM      3  O   UNL     1       5.197  60.836  56.796  1.00  0.00    -0.550 OA
ATOM      4  O   UNL     1       5.956  59.410  58.420  1.00  0.00    -0.550 OA
ENDBRANCH   1   2
BRANCH   1   5
ATOM      5  C   UNL     1       7.921  59.834  55.632  1.00  0.00     0.003 C 
ATOM      6  C   UNL     1       8.236  60.778  54.471  1.00  0.00     0.004 C 
ENDBRANCH   1   5
TORSDOF 2
ENDMDL
