MODEL 1
REMARK VINA RESULT:    -2.557      0.000      0.000
REMARK INTER + INTRA:          -3.385
REMARK INTER:                  -3.005
REMARK INTRA:                  -0.380
REMARK UNBOUND:                -0.380
REMARK SMILES [NH3+][C@H](CO)C(=O)[O-]
REMARK SMILES IDX 3 1 2 2 1 3 5 7 6 8 7 9 4 10
REMARK H PARENT 1 4 1 5 1 6 4 11
REMARK Flexibility Score: inf
ROOT
ATOM      1  C   UNL     1      25.557  41.517  37.576  1.00  0.00     0.227 C 
ENDROOT
BRANCH   1   2
ATOM      2  C   UNL     1      24.685  41.455  38.843  1.00  0.00     0.253 C 
BRANCH   2   3
ATOM      3  N   UNL     1      25.484  41.667  40.056  1.00  0.00    -0.348 N 
ATOM      4  H   UNL     1      26.487  41.415  39.896  1.00  0.00     0.345 HD
ATOM      5  H   UNL     1      25.105  41.083  40.836  1.00  0.00     0.345 HD
ATOM      6  H   UNL     1      25.427  42.672  40.341  1.00  0.00     0.345 HD
ENDBRANCH   2   3
BRANCH   2   7
ATOM      7  C   UNL     1      23.558  42.451  38.763  1.00  0.00     0.102 C 
ATOM      8  O   UNL     1      22.503  42.161  38.139  1.00  0.00    -0.544 OA
ATOM      9  O   UNL     1      23.687  43.710  39.339  1.00  0.00    -0.544 OA
ENDBRANCH   2   7
ENDBRANCH   1   2
BRANCH   1  10
ATOM     10  O   UNL     1      25.262  42.652  36.805  1.00  0.00    -0.390 OA
ATOM     11  H   UNL     1      25.717  42.534  35.931  1.00  0.00     0.210 HD
ENDBRANCH   1  10
TORSDOF 4
ENDMDL
MODEL 2
REMARK VINA RESULT:    -2.544      2.256      2.390
REMARK INTER + INTRA:          -3.370
REMARK INTER:                  -3.043
REMARK INTRA:                  -0.327
REMARK UNBOUND:                -0.380
REMARK SMILES [NH3+][C@H](CO)C(=O)[O-]
REMARK SMILES IDX 3 1 2 2 1 3 5 7 6 8 7 9 4 10
REMARK H PARENT 1 4 1 5 1 6 4 11
REMARK Flexibility Score: inf
ROOT
ATOM      1  C   UNL     1      24.581  41.510  38.839  1.00  0.00     0.227 C 
ENDROOT
BRANCH   1   2
ATOM      2  C   UNL     1      23.585  42.600  38.400  1.00  0.00     0.253 C 
BRANCH   2   3
ATOM      3  N   UNL     1      22.411  42.018  37.740  1.00  0.00    -0.348 N 
ATOM      4  H   UNL     1      22.205  41.060  38.108  1.00  0.00     0.345 HD
ATOM      5  H   UNL     1      22.577  41.960  36.709  1.00  0.00     0.345 HD
ATOM      6  H   UNL     1      21.578  42.630  37.904  1.00  0.00     0.345 HD
ENDBRANCH   2   3
BRANCH   2   7
ATOM      7  C   UNL     1      23.175  43.450  39.574  1.00  0.00     0.102 C 
ATOM      8  O   UNL     1      22.197  43.107  40.290  1.00  0.00    -0.544 OA
ATOM      9  O   UNL     1      23.843  44.636  39.854  1.00  0.00    -0.544 OA
ENDBRANCH   2   7
ENDBRANCH   1   2
BRANCH   1  10
ATOM     10  O   UNL     1      25.202  41.841  40.054  1.00  0.00    -0.390 OA
ATOM     11  H   UNL     1      25.425  42.807  40.011  1.00  0.00     0.210 HD
ENDBRANCH   1  10
TORSDOF 4
ENDMDL
MODEL 3
REMARK VINA RESULT:    -2.537      3.599      4.432
REMARK INTER + INTRA:          -3.361
REMARK INTER:                  -3.011
REMARK INTRA:                  -0.350
REMARK UNBOUND:                -0.380
REMARK SMILES [NH3+][C@H](CO)C(=O)[O-]
REMARK SMILES IDX 3 1 2 2 1 3 5 7 6 8 7 9 4 10
REMARK H PARENT 1 4 1 5 1 6 4 11
REMARK Flexibility Score: inf
ROOT
ATOM      1  C   UNL     1      26.041  41.879  43.143  1.00  0.00     0.227 C 
ENDROOT
BRANCH   1   2
ATOM      2  C   UNL     1      26.010  42.720  41.854  1.00  0.00     0.253 C 
BRANCH   2   3
ATOM      3  N   UNL     1      25.834  41.875  40.667  1.00  0.00    -0.348 N 
ATOM      4  H   UNL     1      26.595  41.161  40.594  1.00  0.00     0.345 HD
ATOM      5  H   UNL     1      25.837  42.469  39.806  1.00  0.00     0.345 HD
ATOM      6  H   UNL     1      24.912  41.383  40.722  1.00  0.00     0.345 HD
ENDBRANCH   2   3
BRANCH   2   7
ATOM      7  C   UNL     1      24.933  43.771  41.929  1.00  0.00     0.102 C 
ATOM      8  O   UNL     1      23.869  43.632  41.271  1.00  0.00    -0.544 OA
ATOM      9  O   UNL     1      25.120  44.919  42.691  1.00  0.00    -0.544 OA
ENDBRANCH   2   7
ENDBRANCH   1   2
BRANCH   1  10
ATOM     10  O   UNL     1      24.879  42.068  43.907  1.00  0.00    -0.390 OA
ATOM     11  H   UNL     1      24.894  41.388  44.630  1.00  0.00     0.210 HD
ENDBRANCH   1  10
TORSDOF 4
ENDMDL
MODEL 4
REMARK VINA RESULT:    -2.523      3.501      3.782
REMARK INTER + INTRA:          -3.345
REMARK INTER:                  -3.000
REMARK INTRA:                  -0.345
REMARK UNBOUND:                -0.380
REMARK SMILES [NH3+][C@H](CO)C(=O)[O-]
REMARK SMILES IDX 3 1 2 2 1 3 5 7 6 8 7 9 4 10
REMARK H PARENT 1 4 1 5 1 6 4 11
REMARK Flexibility Score: inf
ROOT
ATOM      1  C   UNL     1      25.782  42.745  41.834  1.00  0.00     0.227 C 
ENDROOT
BRANCH   1   2
ATOM      2  C   UNL     1      24.778  43.824  42.280  1.00  0.00     0.253 C 
BRANCH   2   3
ATOM      3  N   UNL     1      25.461  44.984  42.863  1.00  0.00    -0.348 N 
ATOM      4  H   UNL     1      24.886  45.852  42.763  1.00  0.00     0.345 HD
ATOM      5  H   UNL     1      26.382  45.128  42.390  1.00  0.00     0.345 HD
ATOM      6  H   UNL     1      25.640  44.811  43.880  1.00  0.00     0.345 HD
ENDBRANCH   2   3
BRANCH   2   7
ATOM      7  C   UNL     1      23.898  44.240  41.130  1.00  0.00     0.102 C 
ATOM      8  O   UNL     1      24.182  45.267  40.459  1.00  0.00    -0.544 OA
ATOM      9  O   UNL     1      22.748  43.522  40.826  1.00  0.00    -0.544 OA
ENDBRANCH   2   7
ENDBRANCH   1   2
BRANCH   1  10
ATOM     10  O   UNL     1      25.481  42.264  40.550  1.00  0.00    -0.390 OA
ATOM     11  H   UNL     1      24.653  41.724  40.631  1.00  0.00     0.210 HD
ENDBRANCH   1  10
TORSDOF 4
ENDMDL
MODEL 5
REMARK VINA RESULT:    -2.402      3.890      4.657
REMARK INTER + INTRA:          -3.204
REMARK INTER:                  -2.974
REMARK INTRA:                  -0.230
REMARK UNBOUND:                -0.380
REMARK SMILES [NH3+][C@H](CO)C(=O)[O-]
REMARK SMILES IDX 3 1 2 2 1 3 5 7 6 8 7 9 4 10
REMARK H PARENT 1 4 1 5 1 6 4 11
REMARK Flexibility Score: inf
ROOT
ATOM      1  C   UNL     1      24.576  43.541  41.356  1.00  0.00     0.227 C 
ENDROOT
BRANCH   1   2
ATOM      2  C   UNL     1      25.512  43.292  42.554  1.00  0.00     0.253 C 
BRANCH   2   3
ATOM      3  N   UNL     1      24.907  42.371  43.524  1.00  0.00    -0.348 N 
ATOM      4  H   UNL     1      23.928  42.123  43.251  1.00  0.00     0.345 HD
ATOM      5  H   UNL     1      24.897  42.813  44.472  1.00  0.00     0.345 HD
ATOM      6  H   UNL     1      25.477  41.495  43.577  1.00  0.00     0.345 HD
ENDBRANCH   2   3
BRANCH   2   7
ATOM      7  C   UNL     1      26.849  42.777  42.087  1.00  0.00     0.102 C 
ATOM      8  O   UNL     1      27.854  43.535  42.095  1.00  0.00    -0.544 OA
ATOM      9  O   UNL     1      26.976  41.478  41.606  1.00  0.00    -0.544 OA
ENDBRANCH   2   7
ENDBRANCH   1   2
BRANCH   1  10
ATOM     10  O   UNL     1      24.793  42.605  40.332  1.00  0.00    -0.390 OA
ATOM     11  H   UNL     1      24.316  41.775  40.594  1.00  0.00     0.210 HD
ENDBRANCH   1  10
TORSDOF 4
ENDMDL
MODEL 6
REMARK VINA RESULT:    -2.364      3.132      3.815
REMARK INTER + INTRA:          -3.158
REMARK INTER:                  -2.935
REMARK INTRA:                  -0.223
REMARK UNBOUND:                -0.380
REMARK SMILES [NH3+][C@H](CO)C(=O)[O-]
REMARK SMILES IDX 3 1 2 2 1 3 5 7 6 8 7 9 4 10
REMARK H PARENT 1 4 1 5 1 6 4 11
REMARK Flexibility Score: inf
ROOT
ATOM      1  C   UNL     1      25.020  43.525  42.322  1.00  0.00     0.227 C 
ENDROOT
BRANCH   1   2
ATOM      2  C   UNL     1      24.510  43.690  40.878  1.00  0.00     0.253 C 
BRANCH   2   3
ATOM      3  N   UNL     1      24.695  42.459  40.101  1.00  0.00    -0.348 N 
ATOM      4  H   UNL     1      24.293  41.632  40.599  1.00  0.00     0.345 HD
ATOM      5  H   UNL     1      25.715  42.295  39.934  1.00  0.00     0.345 HD
ATOM      6  H   UNL     1      24.224  42.558  39.172  1.00  0.00     0.345 HD
ENDBRANCH   2   3
BRANCH   2   7
ATOM      7  C   UNL     1      23.066  44.119  40.869  1.00  0.00     0.102 C 
ATOM      8  O   UNL     1      22.171  43.310  40.509  1.00  0.00    -0.544 OA
ATOM      9  O   UNL     1      22.714  45.418  41.218  1.00  0.00    -0.544 OA
ENDBRANCH   2   7
ENDBRANCH   1   2
BRANCH   1  10
ATOM     10  O   UNL     1      25.081  44.759  42.989  1.00  0.00    -0.390 OA
ATOM     11  H   UNL     1      24.829  45.456  42.330  1.00  0.00     0.210 HD
ENDBRANCH   1  10
TORSDOF 4
ENDMDL
MODEL 7
REMARK VINA RESULT:    -2.333      2.729      3.628
REMARK INTER + INTRA:          -3.122
REMARK INTER:                  -2.905
REMARK INTRA:                  -0.217
REMARK UNBOUND:                -0.380
REMARK SMILES [NH3+][C@H](CO)C(=O)[O-]
REMARK SMILES IDX 3 1 2 2 1 3 5 7 6 8 7 9 4 10
REMARK H PARENT 1 4 1 5 1 6 4 11
REMARK Flexibility Score: inf
ROOT
ATOM      1  C   UNL     1      22.468  43.477  40.350  1.00  0.00     0.227 C 
ENDROOT
BRANCH   1   2
ATOM      2  C   UNL     1      23.801  43.551  41.117  1.00  0.00     0.253 C 
BRANCH   2   3
ATOM      3  N   UNL     1      24.831  42.719  40.484  1.00  0.00    -0.348 N 
ATOM      4  H   UNL     1      24.982  42.998  39.487  1.00  0.00     0.345 HD
ATOM      5  H   UNL     1      24.546  41.714  40.520  1.00  0.00     0.345 HD
ATOM      6  H   UNL     1      25.733  42.822  41.005  1.00  0.00     0.345 HD
ENDBRANCH   2   3
BRANCH   2   7
ATOM      7  C   UNL     1      24.265  44.979  41.241  1.00  0.00     0.102 C 
ATOM      8  O   UNL     1      24.119  45.775  40.277  1.00  0.00    -0.544 OA
ATOM      9  O   UNL     1      24.893  45.418  42.401  1.00  0.00    -0.544 OA
ENDBRANCH   2   7
ENDBRANCH   1   2
BRANCH   1  10
ATOM     10  O   UNL     1      22.677  43.448  38.962  1.00  0.00    -0.390 OA
ATOM     11  H   UNL     1      22.515  44.367  38.626  1.00  0.00     0.210 HD
ENDBRANCH   1  10
TORSDOF 4
ENDMDL
MODEL 8
REMARK VINA RESULT:    -2.328      2.799      3.357
REMARK INTER + INTRA:          -3.116
REMARK INTER:                  -2.896
REMARK INTRA:                  -0.220
REMARK UNBOUND:                -0.380
REMARK SMILES [NH3+][C@H](CO)C(=O)[O-]
REMARK SMILES IDX 3 1 2 2 1 3 5 7 6 8 7 9 4 10
REMARK H PARENT 1 4 1 5 1 6 4 11
REMARK Flexibility Score: inf
ROOT
ATOM      1  C   UNL     1      24.955  43.581  41.661  1.00  0.00     0.227 C 
ENDROOT
BRANCH   1   2
ATOM      2  C   UNL     1      23.786  44.352  41.020  1.00  0.00     0.253 C 
BRANCH   2   3
ATOM      3  N   UNL     1      24.252  45.578  40.359  1.00  0.00    -0.348 N 
ATOM      4  H   UNL     1      23.594  45.871  39.601  1.00  0.00     0.345 HD
ATOM      5  H   UNL     1      25.200  45.420  39.948  1.00  0.00     0.345 HD
ATOM      6  H   UNL     1      24.324  46.349  41.063  1.00  0.00     0.345 HD
ENDBRANCH   2   3
BRANCH   2   7
ATOM      7  C   UNL     1      23.035  43.474  40.054  1.00  0.00     0.102 C 
ATOM      8  O   UNL     1      21.875  43.074  40.336  1.00  0.00    -0.544 OA
ATOM      9  O   UNL     1      23.628  43.065  38.864  1.00  0.00    -0.544 OA
ENDBRANCH   2   7
ENDBRANCH   1   2
BRANCH   1  10
ATOM     10  O   UNL     1      25.270  42.425  40.928  1.00  0.00    -0.390 OA
ATOM     11  H   UNL     1      25.646  42.727  40.061  1.00  0.00     0.210 HD
ENDBRANCH   1  10
TORSDOF 4
ENDMDL
MODEL 9
REMARK VINA RESULT:    -2.299      3.856      4.483
REMARK INTER + INTRA:          -3.082
REMARK INTER:                  -2.856
REMARK INTRA:                  -0.226
REMARK UNBOUND:                -0.380
REMARK SMILES [NH3+][C@H](CO)C(=O)[O-]
REMARK SMILES IDX 3 1 2 2 1 3 5 7 6 8 7 9 4 10
REMARK H PARENT 1 4 1 5 1 6 4 11
REMARK Flexibility Score: inf
ROOT
ATOM      1  C   UNL     1      23.636  45.032  40.320  1.00  0.00     0.227 C 
ENDROOT
BRANCH   1   2
ATOM      2  C   UNL     1      24.152  43.860  41.174  1.00  0.00     0.253 C 
BRANCH   2   3
ATOM      3  N   UNL     1      24.672  42.774  40.335  1.00  0.00    -0.348 N 
ATOM      4  H   UNL     1      25.396  43.126  39.667  1.00  0.00     0.345 HD
ATOM      5  H   UNL     1      23.890  42.338  39.794  1.00  0.00     0.345 HD
ATOM      6  H   UNL     1      25.101  42.037  40.942  1.00  0.00     0.345 HD
ENDBRANCH   2   3
BRANCH   2   7
ATOM      7  C   UNL     1      25.198  44.332  42.150  1.00  0.00     0.102 C 
ATOM      8  O   UNL     1      26.299  43.729  42.235  1.00  0.00    -0.544 OA
ATOM      9  O   UNL     1      24.942  45.409  42.992  1.00  0.00    -0.544 OA
ENDBRANCH   2   7
ENDBRANCH   1   2
BRANCH   1  10
ATOM     10  O   UNL     1      22.740  45.837  41.042  1.00  0.00    -0.390 OA
ATOM     11  H   UNL     1      21.833  45.459  40.901  1.00  0.00     0.210 HD
ENDBRANCH   1  10
TORSDOF 4
ENDMDL
