MODEL 1
REMARK VINA RESULT:    -2.666      0.000      0.000
REMARK INTER + INTRA:          -2.666
REMARK INTER:                  -2.666
REMARK INTRA:                   0.000
REMARK UNBOUND:                 0.000
REMARK SMILES CC(=O)[O-]
REMARK SMILES IDX 1 1 2 2 3 3 4 4
REMARK H PARENT
REMARK Flexibility Score: inf
ROOT
ATOM      1  C   UNL     1      -1.801 -34.055  22.874  1.00  0.00     0.063 C 
ATOM      2  C   UNL     1      -1.830 -32.815  23.701  1.00  0.00     0.038 C 
ATOM      3  O   UNL     1      -2.864 -32.097  23.725  1.00  0.00    -0.550 OA
ATOM      4  O   UNL     1      -0.699 -32.420  24.403  1.00  0.00    -0.550 OA
ENDROOT
TORSDOF 0
ENDMDL
MODEL 2
REMARK VINA RESULT:    -2.433      6.881      7.367
REMARK INTER + INTRA:          -2.433
REMARK INTER:                  -2.433
REMARK INTRA:                   0.000
REMARK UNBOUND:                 0.000
REMARK SMILES CC(=O)[O-]
REMARK SMILES IDX 1 1 2 2 3 3 4 4
REMARK H PARENT
REMARK Flexibility Score: inf
ROOT
ATOM      1  C   UNL     1      -4.693 -35.859  17.368  1.00  0.00     0.063 C 
ATOM      2  C   UNL     1      -3.954 -36.897  18.142  1.00  0.00     0.038 C 
ATOM      3  O   UNL     1      -3.842 -38.064  17.684  1.00  0.00    -0.550 OA
ATOM      4  O   UNL     1      -3.436 -36.595  19.394  1.00  0.00    -0.550 OA
ENDROOT
TORSDOF 0
ENDMDL
MODEL 3
REMARK VINA RESULT:    -2.321      1.395      2.092
REMARK INTER + INTRA:          -2.321
REMARK INTER:                  -2.321
REMARK INTRA:                   0.000
REMARK UNBOUND:                 0.000
REMARK SMILES CC(=O)[O-]
REMARK SMILES IDX 1 1 2 2 3 3 4 4
REMARK H PARENT
REMARK Flexibility Score: inf
ROOT
ATOM      1  C   UNL     1      -2.861 -31.876  23.778  1.00  0.00     0.063 C 
ATOM      2  C   UNL     1      -1.666 -32.768  23.755  1.00  0.00     0.038 C 
ATOM      3  O   UNL     1      -0.604 -32.414  24.331  1.00  0.00    -0.550 OA
ATOM      4  O   UNL     1      -1.704 -33.965  23.053  1.00  0.00    -0.550 OA
ENDROOT
TORSDOF 0
ENDMDL
MODEL 4
REMARK VINA RESULT:    -2.317      2.562      2.860
REMARK INTER + INTRA:          -2.317
REMARK INTER:                  -2.317
REMARK INTRA:                   0.000
REMARK UNBOUND:                 0.000
REMARK SMILES CC(=O)[O-]
REMARK SMILES IDX 1 1 2 2 3 3 4 4
REMARK H PARENT
REMARK Flexibility Score: inf
ROOT
ATOM      1  C   UNL     1      -0.966 -35.510  21.269  1.00  0.00     0.063 C 
ATOM      2  C   UNL     1      -2.029 -35.016  22.190  1.00  0.00     0.038 C 
ATOM      3  O   UNL     1      -3.129 -35.623  22.267  1.00  0.00    -0.550 OA
ATOM      4  O   UNL     1      -1.830 -33.855  22.924  1.00  0.00    -0.550 OA
ENDROOT
TORSDOF 0
ENDMDL
MODEL 5
REMARK VINA RESULT:    -2.317      2.835      3.088
REMARK INTER + INTRA:          -2.317
REMARK INTER:                  -2.317
REMARK INTRA:                   0.000
REMARK UNBOUND:                 0.000
REMARK SMILES CC(=O)[O-]
REMARK SMILES IDX 1 1 2 2 3 3 4 4
REMARK H PARENT
REMARK Flexibility Score: inf
ROOT
ATOM      1  C   UNL     1      -3.213 -35.900  22.094  1.00  0.00     0.063 C 
ATOM      2  C   UNL     1      -1.981 -35.060  22.083  1.00  0.00     0.038 C 
ATOM      3  O   UNL     1      -1.895 -34.056  22.837  1.00  0.00    -0.550 OA
ATOM      4  O   UNL     1      -0.948 -35.351  21.202  1.00  0.00    -0.550 OA
ENDROOT
TORSDOF 0
ENDMDL
MODEL 6
REMARK VINA RESULT:    -2.316      2.671      3.208
REMARK INTER + INTRA:          -2.316
REMARK INTER:                  -2.316
REMARK INTRA:                   0.000
REMARK UNBOUND:                 0.000
REMARK SMILES CC(=O)[O-]
REMARK SMILES IDX 1 1 2 2 3 3 4 4
REMARK H PARENT
REMARK Flexibility Score: inf
ROOT
ATOM      1  C   UNL     1      -0.974 -35.505  21.290  1.00  0.00     0.063 C 
ATOM      2  C   UNL     1      -2.104 -35.070  22.160  1.00  0.00     0.038 C 
ATOM      3  O   UNL     1      -1.976 -34.063  22.904  1.00  0.00    -0.550 OA
ATOM      4  O   UNL     1      -3.280 -35.807  22.194  1.00  0.00    -0.550 OA
ENDROOT
TORSDOF 0
ENDMDL
MODEL 7
REMARK VINA RESULT:    -2.232      3.101      3.340
REMARK INTER + INTRA:          -2.232
REMARK INTER:                  -2.232
REMARK INTRA:                   0.000
REMARK UNBOUND:                 0.000
REMARK SMILES CC(=O)[O-]
REMARK SMILES IDX 1 1 2 2 3 3 4 4
REMARK H PARENT
REMARK Flexibility Score: inf
ROOT
ATOM      1  C   UNL     1      -1.877 -33.965  22.971  1.00  0.00     0.063 C 
ATOM      2  C   UNL     1      -2.178 -35.125  22.085  1.00  0.00     0.038 C 
ATOM      3  O   UNL     1      -3.252 -35.766  22.228  1.00  0.00    -0.550 OA
ATOM      4  O   UNL     1      -1.251 -35.537  21.137  1.00  0.00    -0.550 OA
ENDROOT
TORSDOF 0
ENDMDL
MODEL 8
REMARK VINA RESULT:    -2.194      3.478      4.067
REMARK INTER + INTRA:          -2.194
REMARK INTER:                  -2.194
REMARK INTRA:                   0.000
REMARK UNBOUND:                 0.000
REMARK SMILES CC(=O)[O-]
REMARK SMILES IDX 1 1 2 2 3 3 4 4
REMARK H PARENT
REMARK Flexibility Score: inf
ROOT
ATOM      1  C   UNL     1      -1.875 -34.466  22.541  1.00  0.00     0.063 C 
ATOM      2  C   UNL     1      -1.279 -35.362  21.509  1.00  0.00     0.038 C 
ATOM      3  O   UNL     1      -0.046 -35.614  21.527  1.00  0.00    -0.550 OA
ATOM      4  O   UNL     1      -2.072 -35.877  20.492  1.00  0.00    -0.550 OA
ENDROOT
TORSDOF 0
ENDMDL
MODEL 9
REMARK VINA RESULT:    -2.154      4.315      4.645
REMARK INTER + INTRA:          -2.154
REMARK INTER:                  -2.154
REMARK INTRA:                   0.000
REMARK UNBOUND:                 0.000
REMARK SMILES CC(=O)[O-]
REMARK SMILES IDX 1 1 2 2 3 3 4 4
REMARK H PARENT
REMARK Flexibility Score: inf
ROOT
ATOM      1  C   UNL     1      -3.274 -37.811  20.666  1.00  0.00     0.063 C 
ATOM      2  C   UNL     1      -2.903 -36.485  21.237  1.00  0.00     0.038 C 
ATOM      3  O   UNL     1      -3.555 -36.010  22.203  1.00  0.00    -0.550 OA
ATOM      4  O   UNL     1      -1.873 -35.746  20.670  1.00  0.00    -0.550 OA
ENDROOT
TORSDOF 0
ENDMDL
