MODEL 1
REMARK VINA RESULT:    -3.846      0.000      0.000
REMARK INTER + INTRA:          -5.069
REMARK INTER:                  -4.970
REMARK INTRA:                  -0.099
REMARK UNBOUND:                -0.099
REMARK SMILES C=CC(=O)CCCCC
REMARK SMILES IDX 6 1 7 2 8 3 9 4 5 5 3 6 4 7 2 8 1 9
REMARK H PARENT
REMARK Flexibility Score: inf
ROOT
ATOM      1  C   UNL     1      20.985  23.759  25.473  1.00  0.00     0.008 C 
ENDROOT
BRANCH   1   2
ATOM      2  C   UNL     1      20.742  24.833  26.553  1.00  0.00     0.000 C 
BRANCH   2   3
ATOM      3  C   UNL     1      19.454  24.647  27.373  1.00  0.00    -0.003 C 
ATOM      4  C   UNL     1      19.594  25.107  28.823  1.00  0.00     0.004 C 
ENDBRANCH   2   3
ENDBRANCH   1   2
BRANCH   1   5
ATOM      5  C   UNL     1      21.466  24.313  24.122  1.00  0.00     0.080 C 
BRANCH   5   6
ATOM      6  C   UNL     1      22.163  23.266  23.300  1.00  0.00     0.155 C 
ATOM      7  O   UNL     1      23.423  23.208  23.320  1.00  0.00    -0.295 OA
BRANCH   6   8
ATOM      8  C   UNL     1      21.382  22.302  22.501  1.00  0.00     0.039 C 
ATOM      9  C   UNL     1      21.957  21.360  21.756  1.00  0.00     0.012 C 
ENDBRANCH   6   8
ENDBRANCH   5   6
ENDBRANCH   1   5
TORSDOF 5
ENDMDL
MODEL 2
REMARK VINA RESULT:    -3.668      1.705      5.371
REMARK INTER + INTRA:          -4.840
REMARK INTER:                  -4.725
REMARK INTRA:                  -0.115
REMARK UNBOUND:                -0.099
REMARK SMILES C=CC(=O)CCCCC
REMARK SMILES IDX 6 1 7 2 8 3 9 4 5 5 3 6 4 7 2 8 1 9
REMARK H PARENT
REMARK Flexibility Score: inf
ROOT
ATOM      1  C   UNL     1      21.395  24.269  24.518  1.00  0.00     0.008 C 
ENDROOT
BRANCH   1   2
ATOM      2  C   UNL     1      22.087  23.340  23.500  1.00  0.00     0.000 C 
BRANCH   2   3
ATOM      3  C   UNL     1      21.131  22.507  22.629  1.00  0.00    -0.003 C 
ATOM      4  C   UNL     1      21.843  21.420  21.826  1.00  0.00     0.004 C 
ENDBRANCH   2   3
ENDBRANCH   1   2
BRANCH   1   5
ATOM      5  C   UNL     1      20.533  23.539  25.561  1.00  0.00     0.080 C 
BRANCH   5   6
ATOM      6  C   UNL     1      20.516  24.259  26.880  1.00  0.00     0.155 C 
ATOM      7  O   UNL     1      21.435  24.033  27.715  1.00  0.00    -0.295 OA
BRANCH   6   8
ATOM      8  C   UNL     1      19.453  25.236  27.183  1.00  0.00     0.039 C 
ATOM      9  C   UNL     1      18.893  25.332  28.388  1.00  0.00     0.012 C 
ENDBRANCH   6   8
ENDBRANCH   5   6
ENDBRANCH   1   5
TORSDOF 5
ENDMDL
MODEL 3
REMARK VINA RESULT:    -3.446      3.849      5.380
REMARK INTER + INTRA:          -4.553
REMARK INTER:                  -4.111
REMARK INTRA:                  -0.441
REMARK UNBOUND:                -0.099
REMARK SMILES C=CC(=O)CCCCC
REMARK SMILES IDX 6 1 7 2 8 3 9 4 5 5 3 6 4 7 2 8 1 9
REMARK H PARENT
REMARK Flexibility Score: inf
ROOT
ATOM      1  C   UNL     1      16.944  25.260  28.216  1.00  0.00     0.008 C 
ENDROOT
BRANCH   1   2
ATOM      2  C   UNL     1      15.764  24.904  27.289  1.00  0.00     0.000 C 
BRANCH   2   3
ATOM      3  C   UNL     1      15.557  23.397  27.056  1.00  0.00    -0.003 C 
ATOM      4  C   UNL     1      15.455  23.028  25.577  1.00  0.00     0.004 C 
ENDBRANCH   2   3
ENDBRANCH   1   2
BRANCH   1   5
ATOM      5  C   UNL     1      18.211  25.728  27.480  1.00  0.00     0.080 C 
BRANCH   5   6
ATOM      6  C   UNL     1      19.428  24.961  27.913  1.00  0.00     0.155 C 
ATOM      7  O   UNL     1      19.932  25.195  29.045  1.00  0.00    -0.295 OA
BRANCH   6   8
ATOM      8  C   UNL     1      20.011  23.928  27.034  1.00  0.00     0.039 C 
ATOM      9  C   UNL     1      19.262  23.136  26.268  1.00  0.00     0.012 C 
ENDBRANCH   6   8
ENDBRANCH   5   6
ENDBRANCH   1   5
TORSDOF 5
ENDMDL
MODEL 4
REMARK VINA RESULT:    -3.420      3.502      4.697
REMARK INTER + INTRA:          -4.518
REMARK INTER:                  -4.032
REMARK INTRA:                  -0.487
REMARK UNBOUND:                -0.099
REMARK SMILES C=CC(=O)CCCCC
REMARK SMILES IDX 6 1 7 2 8 3 9 4 5 5 3 6 4 7 2 8 1 9
REMARK H PARENT
REMARK Flexibility Score: inf
ROOT
ATOM      1  C   UNL     1      18.683  26.500  27.802  1.00  0.00     0.008 C 
ENDROOT
BRANCH   1   2
ATOM      2  C   UNL     1      17.142  26.518  27.723  1.00  0.00     0.000 C 
BRANCH   2   3
ATOM      3  C   UNL     1      16.453  25.244  28.241  1.00  0.00    -0.003 C 
ATOM      4  C   UNL     1      15.842  24.396  27.126  1.00  0.00     0.004 C 
ENDBRANCH   2   3
ENDBRANCH   1   2
BRANCH   1   5
ATOM      5  C   UNL     1      19.266  25.295  28.558  1.00  0.00     0.080 C 
BRANCH   5   6
ATOM      6  C   UNL     1      20.472  24.726  27.866  1.00  0.00     0.155 C 
ATOM      7  O   UNL     1      21.611  24.889  28.383  1.00  0.00    -0.295 OA
BRANCH   6   8
ATOM      8  C   UNL     1      20.322  23.965  26.611  1.00  0.00     0.039 C 
ATOM      9  C   UNL     1      19.289  23.154  26.386  1.00  0.00     0.012 C 
ENDBRANCH   6   8
ENDBRANCH   5   6
ENDBRANCH   1   5
TORSDOF 5
ENDMDL
MODEL 5
REMARK VINA RESULT:    -3.398      3.107      3.856
REMARK INTER + INTRA:          -4.490
REMARK INTER:                  -4.137
REMARK INTRA:                  -0.353
REMARK UNBOUND:                -0.099
REMARK SMILES C=CC(=O)CCCCC
REMARK SMILES IDX 6 1 7 2 8 3 9 4 5 5 3 6 4 7 2 8 1 9
REMARK H PARENT
REMARK Flexibility Score: inf
ROOT
ATOM      1  C   UNL     1      19.795  25.138  28.638  1.00  0.00     0.008 C 
ENDROOT
BRANCH   1   2
ATOM      2  C   UNL     1      19.893  26.592  29.143  1.00  0.00     0.000 C 
BRANCH   2   3
ATOM      3  C   UNL     1      19.162  27.630  28.274  1.00  0.00    -0.003 C 
ATOM      4  C   UNL     1      17.950  27.053  27.544  1.00  0.00     0.004 C 
ENDBRANCH   2   3
ENDBRANCH   1   2
BRANCH   1   5
ATOM      5  C   UNL     1      20.860  24.753  27.598  1.00  0.00     0.080 C 
BRANCH   5   6
ATOM      6  C   UNL     1      20.284  23.928  26.482  1.00  0.00     0.155 C 
ATOM      7  O   UNL     1      21.004  23.657  25.483  1.00  0.00    -0.295 OA
BRANCH   6   8
ATOM      8  C   UNL     1      18.900  23.420  26.567  1.00  0.00     0.039 C 
ATOM      9  C   UNL     1      18.524  22.273  26.003  1.00  0.00     0.012 C 
ENDBRANCH   6   8
ENDBRANCH   5   6
ENDBRANCH   1   5
TORSDOF 5
ENDMDL
MODEL 6
REMARK VINA RESULT:    -3.386      3.785      5.747
REMARK INTER + INTRA:          -4.476
REMARK INTER:                  -4.072
REMARK INTRA:                  -0.403
REMARK UNBOUND:                -0.099
REMARK SMILES C=CC(=O)CCCCC
REMARK SMILES IDX 6 1 7 2 8 3 9 4 5 5 3 6 4 7 2 8 1 9
REMARK H PARENT
REMARK Flexibility Score: inf
ROOT
ATOM      1  C   UNL     1      21.004  24.694  27.867  1.00  0.00     0.008 C 
ENDROOT
BRANCH   1   2
ATOM      2  C   UNL     1      20.405  23.971  26.644  1.00  0.00     0.000 C 
BRANCH   2   3
ATOM      3  C   UNL     1      18.904  23.651  26.753  1.00  0.00    -0.003 C 
ATOM      4  C   UNL     1      18.505  22.384  25.998  1.00  0.00     0.004 C 
ENDBRANCH   2   3
ENDBRANCH   1   2
BRANCH   1   5
ATOM      5  C   UNL     1      19.977  25.460  28.719  1.00  0.00     0.080 C 
BRANCH   5   6
ATOM      6  C   UNL     1      20.025  26.939  28.462  1.00  0.00     0.155 C 
ATOM      7  O   UNL     1      21.140  27.530  28.478  1.00  0.00    -0.295 OA
BRANCH   6   8
ATOM      8  C   UNL     1      18.786  27.687  28.170  1.00  0.00     0.039 C 
ATOM      9  C   UNL     1      17.781  27.159  27.472  1.00  0.00     0.012 C 
ENDBRANCH   6   8
ENDBRANCH   5   6
ENDBRANCH   1   5
TORSDOF 5
ENDMDL
MODEL 7
REMARK VINA RESULT:    -3.373      3.570      5.941
REMARK INTER + INTRA:          -4.458
REMARK INTER:                  -4.187
REMARK INTRA:                  -0.271
REMARK UNBOUND:                -0.099
REMARK SMILES C=CC(=O)CCCCC
REMARK SMILES IDX 6 1 7 2 8 3 9 4 5 5 3 6 4 7 2 8 1 9
REMARK H PARENT
REMARK Flexibility Score: inf
ROOT
ATOM      1  C   UNL     1      20.533  25.144  28.927  1.00  0.00     0.008 C 
ENDROOT
BRANCH   1   2
ATOM      2  C   UNL     1      19.671  25.127  27.648  1.00  0.00     0.000 C 
BRANCH   2   3
ATOM      3  C   UNL     1      19.776  23.838  26.814  1.00  0.00    -0.003 C 
ATOM      4  C   UNL     1      20.862  23.904  25.741  1.00  0.00     0.004 C 
ENDBRANCH   2   3
ENDBRANCH   1   2
BRANCH   1   5
ATOM      5  C   UNL     1      20.621  26.516  29.615  1.00  0.00     0.080 C 
BRANCH   5   6
ATOM      6  C   UNL     1      21.351  27.523  28.770  1.00  0.00     0.155 C 
ATOM      7  O   UNL     1      20.817  28.645  28.553  1.00  0.00    -0.295 OA
BRANCH   6   8
ATOM      8  C   UNL     1      22.686  27.211  28.225  1.00  0.00     0.039 C 
ATOM      9  C   UNL     1      23.398  28.097  27.529  1.00  0.00     0.012 C 
ENDBRANCH   6   8
ENDBRANCH   5   6
ENDBRANCH   1   5
TORSDOF 5
ENDMDL
MODEL 8
REMARK VINA RESULT:    -3.361      4.328      5.917
REMARK INTER + INTRA:          -4.443
REMARK INTER:                  -3.958
REMARK INTRA:                  -0.485
REMARK UNBOUND:                -0.099
REMARK SMILES C=CC(=O)CCCCC
REMARK SMILES IDX 6 1 7 2 8 3 9 4 5 5 3 6 4 7 2 8 1 9
REMARK H PARENT
REMARK Flexibility Score: inf
ROOT
ATOM      1  C   UNL     1      17.448  25.647  28.321  1.00  0.00     0.008 C 
ENDROOT
BRANCH   1   2
ATOM      2  C   UNL     1      18.722  25.701  27.454  1.00  0.00     0.000 C 
BRANCH   2   3
ATOM      3  C   UNL     1      19.713  24.547  27.687  1.00  0.00    -0.003 C 
ATOM      4  C   UNL     1      20.542  24.209  26.448  1.00  0.00     0.004 C 
ENDBRANCH   2   3
ENDBRANCH   1   2
BRANCH   1   5
ATOM      5  C   UNL     1      16.147  25.447  27.526  1.00  0.00     0.080 C 
BRANCH   5   6
ATOM      6  C   UNL     1      15.772  23.996  27.416  1.00  0.00     0.155 C 
ATOM      7  O   UNL     1      15.209  23.431  28.393  1.00  0.00    -0.295 OA
BRANCH   6   8
ATOM      8  C   UNL     1      16.037  23.250  26.170  1.00  0.00     0.039 C 
ATOM      9  C   UNL     1      17.175  22.589  25.962  1.00  0.00     0.012 C 
ENDBRANCH   6   8
ENDBRANCH   5   6
ENDBRANCH   1   5
TORSDOF 5
ENDMDL
MODEL 9
REMARK VINA RESULT:    -3.346      4.413      5.530
REMARK INTER + INTRA:          -4.423
REMARK INTER:                  -3.908
REMARK INTRA:                  -0.515
REMARK UNBOUND:                -0.099
REMARK SMILES C=CC(=O)CCCCC
REMARK SMILES IDX 6 1 7 2 8 3 9 4 5 5 3 6 4 7 2 8 1 9
REMARK H PARENT
REMARK Flexibility Score: inf
ROOT
ATOM      1  C   UNL     1      19.565  25.084  26.870  1.00  0.00     0.008 C 
ENDROOT
BRANCH   1   2
ATOM      2  C   UNL     1      18.174  24.853  27.494  1.00  0.00     0.000 C 
BRANCH   2   3
ATOM      3  C   UNL     1      17.438  26.133  27.925  1.00  0.00    -0.003 C 
ATOM      4  C   UNL     1      18.100  27.409  27.408  1.00  0.00     0.004 C 
ENDBRANCH   2   3
ENDBRANCH   1   2
BRANCH   1   5
ATOM      5  C   UNL     1      20.730  24.489  27.678  1.00  0.00     0.080 C 
BRANCH   5   6
ATOM      6  C   UNL     1      21.169  25.402  28.788  1.00  0.00     0.155 C 
ATOM      7  O   UNL     1      20.768  25.177  29.963  1.00  0.00    -0.295 OA
BRANCH   6   8
ATOM      8  C   UNL     1      22.077  26.531  28.511  1.00  0.00     0.039 C 
ATOM      9  C   UNL     1      21.669  27.799  28.535  1.00  0.00     0.012 C 
ENDBRANCH   6   8
ENDBRANCH   5   6
ENDBRANCH   1   5
TORSDOF 5
ENDMDL
