MODEL 1
REMARK VINA RESULT:    17.721      0.000      0.000
REMARK INTER + INTRA:          26.624
REMARK INTER:                  27.045
REMARK INTRA:                  -0.421
REMARK UNBOUND:                -0.421
REMARK SMILES OC[C@H]1O[C@H](O[C@]2(CO)O[C@H](CO)[C@@H](O)[C@@H]2O)[C@@H](O)[C@@H](O)[C@H]1O
REMARK SMILES IDX 6 1 5 2 3 3 22 4 4 5 20 6 18 7 2 8 1 9 23 11 21 13 19 15
REMARK SMILES IDX 7 17 16 18 10 19 14 20 11 21 8 22 9 23 17 25 15 27 12 29
REMARK SMILES IDX 13 30
REMARK H PARENT 1 10 23 12 21 14 19 16 9 24 17 26 15 28 13 31
REMARK Flexibility Score: inf
ROOT
ATOM      1  O   UNL     1       9.033  22.174  35.748  1.00  0.00    -0.313 OA
ENDROOT
BRANCH   1   2
ATOM      2  C   UNL     1       7.692  22.654  35.735  1.00  0.00     0.285 C 
ATOM      3  C   UNL     1       8.339  24.690  36.729  1.00  0.00     0.178 C 
ATOM      4  C   UNL     1       8.068  25.524  35.451  1.00  0.00     0.177 C 
ATOM      5  O   UNL     1       7.465  23.572  36.798  1.00  0.00    -0.341 OA
ATOM      6  C   UNL     1       8.184  24.614  34.207  1.00  0.00     0.179 C 
ATOM      7  C   UNL     1       7.388  23.301  34.369  1.00  0.00     0.202 C 
BRANCH   3   8
ATOM      8  C   UNL     1       8.165  25.526  38.006  1.00  0.00     0.191 C 
BRANCH   8   9
ATOM      9  O   UNL     1       8.907  26.714  37.935  1.00  0.00    -0.394 OA
ATOM     10  H   UNL     1       8.376  27.410  38.403  1.00  0.00     0.210 HD
ENDBRANCH   8   9
ENDBRANCH   3   8
BRANCH   4  11
ATOM     11  O   UNL     1       6.824  26.185  35.502  1.00  0.00    -0.387 OA
ATOM     12  H   UNL     1       6.413  26.011  36.388  1.00  0.00     0.211 HD
ENDBRANCH   4  11
BRANCH   6  13
ATOM     13  O   UNL     1       7.843  25.295  33.023  1.00  0.00    -0.387 OA
ATOM     14  H   UNL     1       6.942  25.689  33.138  1.00  0.00     0.211 HD
ENDBRANCH   6  13
BRANCH   7  15
ATOM     15  O   UNL     1       6.004  23.531  34.267  1.00  0.00    -0.385 OA
ATOM     16  H   UNL     1       5.546  22.705  34.575  1.00  0.00     0.211 HD
ENDBRANCH   7  15
ENDBRANCH   1   2
BRANCH   1  17
ATOM     17  C   UNL     1       9.258  20.989  34.985  1.00  0.00     0.224 C 
ATOM     18  C   UNL     1      10.063  21.270  33.692  1.00  0.00     0.208 C 
ATOM     19  O   UNL     1      10.077  20.153  35.778  1.00  0.00    -0.337 OA
ATOM     20  C   UNL     1      10.941  20.047  33.532  1.00  0.00     0.180 C 
ATOM     21  C   UNL     1      10.901  19.391  34.919  1.00  0.00     0.179 C 
BRANCH  17  22
ATOM     22  C   UNL     1       7.933  20.205  34.728  1.00  0.00     0.225 C 
BRANCH  22  23
ATOM     23  O   UNL     1       7.682  19.233  35.711  1.00  0.00    -0.391 OA
ATOM     24  H   UNL     1       6.826  18.790  35.476  1.00  0.00     0.210 HD
ENDBRANCH  22  23
ENDBRANCH  17  22
BRANCH  18  25
ATOM     25  O   UNL     1      10.851  22.433  33.806  1.00  0.00    -0.385 OA
ATOM     26  H   UNL     1      11.230  22.464  34.723  1.00  0.00     0.211 HD
ENDBRANCH  18  25
BRANCH  20  27
ATOM     27  O   UNL     1      10.389  19.188  32.567  1.00  0.00    -0.387 OA
ATOM     28  H   UNL     1      10.182  19.750  31.774  1.00  0.00     0.211 HD
ENDBRANCH  20  27
BRANCH  21  29
ATOM     29  C   UNL     1      12.295  19.237  35.544  1.00  0.00     0.191 C 
BRANCH  29  30
ATOM     30  O   UNL     1      12.347  19.828  36.816  1.00  0.00    -0.394 OA
ATOM     31  H   UNL     1      12.889  20.655  36.731  1.00  0.00     0.210 HD
ENDBRANCH  29  30
ENDBRANCH  21  29
ENDBRANCH   1  17
TORSDOF 13
ENDMDL
MODEL 2
REMARK VINA RESULT:    19.206      1.268      2.611
REMARK INTER + INTRA:          28.889
REMARK INTER:                  27.357
REMARK INTRA:                   1.532
REMARK UNBOUND:                -0.421
REMARK SMILES OC[C@H]1O[C@H](O[C@]2(CO)O[C@H](CO)[C@@H](O)[C@@H]2O)[C@@H](O)[C@@H](O)[C@H]1O
REMARK SMILES IDX 6 1 5 2 3 3 22 4 4 5 20 6 18 7 2 8 1 9 23 11 21 13 19 15
REMARK SMILES IDX 7 17 16 18 10 19 14 20 11 21 8 22 9 23 17 25 15 27 12 29
REMARK SMILES IDX 13 30
REMARK H PARENT 1 10 23 12 21 14 19 16 9 24 17 26 15 28 13 31
REMARK Flexibility Score: inf
ROOT
ATOM      1  O   UNL     1       8.586  21.707  35.745  1.00  0.00    -0.313 OA
ENDROOT
BRANCH   1   2
ATOM      2  C   UNL     1       9.417  22.863  35.772  1.00  0.00     0.285 C 
ATOM      3  C   UNL     1       7.727  24.186  34.801  1.00  0.00     0.178 C 
ATOM      4  C   UNL     1       7.480  25.010  36.092  1.00  0.00     0.177 C 
ATOM      5  O   UNL     1       9.080  23.763  34.723  1.00  0.00    -0.341 OA
ATOM      6  C   UNL     1       7.905  24.177  37.323  1.00  0.00     0.179 C 
ATOM      7  C   UNL     1       9.305  23.549  37.148  1.00  0.00     0.202 C 
BRANCH   3   8
ATOM      8  C   UNL     1       7.391  24.992  33.536  1.00  0.00     0.191 C 
BRANCH   8   9
ATOM      9  O   UNL     1       8.429  24.909  32.597  1.00  0.00    -0.394 OA
ATOM     10  H   UNL     1       8.253  25.609  31.916  1.00  0.00     0.210 HD
ENDBRANCH   8   9
ENDBRANCH   3   8
BRANCH   4  11
ATOM     11  O   UNL     1       8.130  26.260  36.056  1.00  0.00    -0.387 OA
ATOM     12  H   UNL     1       9.004  26.172  36.516  1.00  0.00     0.211 HD
ENDBRANCH   4  11
BRANCH   6  13
ATOM     13  O   UNL     1       7.803  24.914  38.518  1.00  0.00    -0.387 OA
ATOM     14  H   UNL     1       8.657  25.395  38.661  1.00  0.00     0.211 HD
ENDBRANCH   6  13
BRANCH   7  15
ATOM     15  O   UNL     1      10.314  24.522  37.260  1.00  0.00    -0.385 OA
ATOM     16  H   UNL     1       9.930  25.381  36.943  1.00  0.00     0.211 HD
ENDBRANCH   7  15
ENDBRANCH   1   2
BRANCH   1  17
ATOM     17  C   UNL     1       9.178  20.551  35.154  1.00  0.00     0.224 C 
ATOM     18  C   UNL     1      10.055  20.905  33.928  1.00  0.00     0.208 C 
ATOM     19  O   UNL     1      10.060  20.017  36.121  1.00  0.00    -0.337 OA
ATOM     20  C   UNL     1      11.208  19.927  34.006  1.00  0.00     0.180 C 
ATOM     21  C   UNL     1      11.144  19.407  35.449  1.00  0.00     0.179 C 
BRANCH  17  22
ATOM     22  C   UNL     1       8.118  19.445  34.856  1.00  0.00     0.225 C 
BRANCH  22  23
ATOM     23  O   UNL     1       6.800  19.926  34.935  1.00  0.00    -0.391 OA
ATOM     24  H   UNL     1       6.205  19.138  35.041  1.00  0.00     0.210 HD
ENDBRANCH  22  23
ENDBRANCH  17  22
BRANCH  18  25
ATOM     25  O   UNL     1      10.528  22.232  33.985  1.00  0.00    -0.385 OA
ATOM     26  H   UNL     1      11.517  22.213  33.898  1.00  0.00     0.211 HD
ENDBRANCH  18  25
BRANCH  20  27
ATOM     27  O   UNL     1      11.002  18.875  33.096  1.00  0.00    -0.387 OA
ATOM     28  H   UNL     1      11.487  18.088  33.461  1.00  0.00     0.211 HD
ENDBRANCH  20  27
BRANCH  21  29
ATOM     29  C   UNL     1      12.442  19.658  36.229  1.00  0.00     0.191 C 
BRANCH  29  30
ATOM     30  O   UNL     1      12.175  20.196  37.497  1.00  0.00    -0.394 OA
ATOM     31  H   UNL     1      12.181  21.183  37.402  1.00  0.00     0.210 HD
ENDBRANCH  29  30
ENDBRANCH  21  29
ENDBRANCH   1  17
TORSDOF 13
ENDMDL
MODEL 3
REMARK VINA RESULT:    19.774      1.678      5.414
REMARK INTER + INTRA:          29.757
REMARK INTER:                  27.213
REMARK INTRA:                   2.544
REMARK UNBOUND:                -0.421
REMARK SMILES OC[C@H]1O[C@H](O[C@]2(CO)O[C@H](CO)[C@@H](O)[C@@H]2O)[C@@H](O)[C@@H](O)[C@H]1O
REMARK SMILES IDX 6 1 5 2 3 3 22 4 4 5 20 6 18 7 2 8 1 9 23 11 21 13 19 15
REMARK SMILES IDX 7 17 16 18 10 19 14 20 11 21 8 22 9 23 17 25 15 27 12 29
REMARK SMILES IDX 13 30
REMARK H PARENT 1 10 23 12 21 14 19 16 9 24 17 26 15 28 13 31
REMARK Flexibility Score: inf
ROOT
ATOM      1  O   UNL     1       7.502  22.925  36.451  1.00  0.00    -0.313 OA
ENDROOT
BRANCH   1   2
ATOM      2  C   UNL     1       7.336  22.354  35.157  1.00  0.00     0.285 C 
ATOM      3  C   UNL     1       9.654  22.439  34.746  1.00  0.00     0.178 C 
ATOM      4  C   UNL     1       9.829  20.900  34.798  1.00  0.00     0.177 C 
ATOM      5  O   UNL     1       8.361  22.785  34.269  1.00  0.00    -0.341 OA
ATOM      6  C   UNL     1       8.705  20.282  35.661  1.00  0.00     0.179 C 
ATOM      7  C   UNL     1       7.309  20.817  35.268  1.00  0.00     0.202 C 
BRANCH   3   8
ATOM      8  C   UNL     1      10.703  23.104  33.840  1.00  0.00     0.191 C 
BRANCH   8   9
ATOM      9  O   UNL     1      10.362  22.964  32.488  1.00  0.00    -0.394 OA
ATOM     10  H   UNL     1      10.597  23.820  32.045  1.00  0.00     0.210 HD
ENDBRANCH   8   9
ENDBRANCH   3   8
BRANCH   4  11
ATOM     11  O   UNL     1       9.877  20.327  33.512  1.00  0.00    -0.387 OA
ATOM     12  H   UNL     1      10.822  20.311  33.211  1.00  0.00     0.211 HD
ENDBRANCH   4  11
BRANCH   6  13
ATOM     13  O   UNL     1       8.750  18.875  35.657  1.00  0.00    -0.387 OA
ATOM     14  H   UNL     1       8.153  18.542  36.374  1.00  0.00     0.211 HD
ENDBRANCH   6  13
BRANCH   7  15
ATOM     15  O   UNL     1       6.885  20.274  34.043  1.00  0.00    -0.385 OA
ATOM     16  H   UNL     1       6.282  19.513  34.252  1.00  0.00     0.211 HD
ENDBRANCH   7  15
ENDBRANCH   1   2
BRANCH   1  17
ATOM     17  C   UNL     1       8.107  24.217  36.468  1.00  0.00     0.224 C 
ATOM     18  C   UNL     1       7.718  25.029  37.727  1.00  0.00     0.208 C 
ATOM     19  O   UNL     1       9.501  24.003  36.559  1.00  0.00    -0.337 OA
ATOM     20  C   UNL     1       8.973  25.805  38.068  1.00  0.00     0.180 C 
ATOM     21  C   UNL     1      10.072  25.076  37.282  1.00  0.00     0.179 C 
BRANCH  17  22
ATOM     22  C   UNL     1       7.859  24.991  35.135  1.00  0.00     0.225 C 
BRANCH  22  23
ATOM     23  O   UNL     1       6.871  25.981  35.261  1.00  0.00    -0.391 OA
ATOM     24  H   UNL     1       7.278  26.841  34.979  1.00  0.00     0.210 HD
ENDBRANCH  22  23
ENDBRANCH  17  22
BRANCH  18  25
ATOM     25  O   UNL     1       7.349  24.191  38.800  1.00  0.00    -0.385 OA
ATOM     26  H   UNL     1       6.577  23.638  38.512  1.00  0.00     0.211 HD
ENDBRANCH  18  25
BRANCH  20  27
ATOM     27  O   UNL     1       8.847  27.131  37.620  1.00  0.00    -0.387 OA
ATOM     28  H   UNL     1       8.207  27.113  36.861  1.00  0.00     0.211 HD
ENDBRANCH  20  27
BRANCH  21  29
ATOM     29  C   UNL     1      11.198  24.551  38.183  1.00  0.00     0.191 C 
BRANCH  29  30
ATOM     30  O   UNL     1      11.005  23.197  38.498  1.00  0.00    -0.394 OA
ATOM     31  H   UNL     1      10.118  22.937  38.135  1.00  0.00     0.210 HD
ENDBRANCH  29  30
ENDBRANCH  21  29
ENDBRANCH   1  17
TORSDOF 13
ENDMDL
MODEL 4
REMARK VINA RESULT:    19.933      1.680      3.566
REMARK INTER + INTRA:          30.000
REMARK INTER:                  30.359
REMARK INTRA:                  -0.359
REMARK UNBOUND:                -0.421
REMARK SMILES OC[C@H]1O[C@H](O[C@]2(CO)O[C@H](CO)[C@@H](O)[C@@H]2O)[C@@H](O)[C@@H](O)[C@H]1O
REMARK SMILES IDX 6 1 5 2 3 3 22 4 4 5 20 6 18 7 2 8 1 9 23 11 21 13 19 15
REMARK SMILES IDX 7 17 16 18 10 19 14 20 11 21 8 22 9 23 17 25 15 27 12 29
REMARK SMILES IDX 13 30
REMARK H PARENT 1 10 23 12 21 14 19 16 9 24 17 26 15 28 13 31
REMARK Flexibility Score: inf
ROOT
ATOM      1  O   UNL     1       9.092  23.528  36.316  1.00  0.00    -0.313 OA
ENDROOT
BRANCH   1   2
ATOM      2  C   UNL     1       7.973  24.408  36.338  1.00  0.00     0.285 C 
ATOM      3  C   UNL     1       7.636  24.035  38.640  1.00  0.00     0.178 C 
ATOM      4  C   UNL     1       8.072  25.466  39.046  1.00  0.00     0.177 C 
ATOM      5  O   UNL     1       7.044  24.034  37.349  1.00  0.00    -0.341 OA
ATOM      6  C   UNL     1       9.020  26.042  37.968  1.00  0.00     0.179 C 
ATOM      7  C   UNL     1       8.458  25.857  36.541  1.00  0.00     0.202 C 
BRANCH   3   8
ATOM      8  C   UNL     1       6.633  23.438  39.639  1.00  0.00     0.191 C 
BRANCH   8   9
ATOM      9  O   UNL     1       5.975  24.447  40.357  1.00  0.00    -0.394 OA
ATOM     10  H   UNL     1       5.282  23.999  40.908  1.00  0.00     0.210 HD
ENDBRANCH   8   9
ENDBRANCH   3   8
BRANCH   4  11
ATOM     11  O   UNL     1       6.969  26.311  39.278  1.00  0.00    -0.387 OA
ATOM     12  H   UNL     1       6.678  26.693  38.411  1.00  0.00     0.211 HD
ENDBRANCH   4  11
BRANCH   6  13
ATOM     13  O   UNL     1       9.364  27.381  38.230  1.00  0.00    -0.387 OA
ATOM     14  H   UNL     1       8.653  27.782  38.791  1.00  0.00     0.211 HD
ENDBRANCH   6  13
BRANCH   7  15
ATOM     15  O   UNL     1       7.390  26.739  36.298  1.00  0.00    -0.385 OA
ATOM     16  H   UNL     1       6.602  26.185  36.058  1.00  0.00     0.211 HD
ENDBRANCH   7  15
ENDBRANCH   1   2
BRANCH   1  17
ATOM     17  C   UNL     1       9.198  22.715  35.148  1.00  0.00     0.224 C 
ATOM     18  C   UNL     1      10.330  21.666  35.266  1.00  0.00     0.208 C 
ATOM     19  O   UNL     1       7.994  21.979  35.064  1.00  0.00    -0.337 OA
ATOM     20  C   UNL     1       9.782  20.450  34.548  1.00  0.00     0.180 C 
ATOM     21  C   UNL     1       8.275  20.729  34.466  1.00  0.00     0.179 C 
BRANCH  17  22
ATOM     22  C   UNL     1       9.287  23.576  33.849  1.00  0.00     0.225 C 
BRANCH  22  23
ATOM     23  O   UNL     1      10.291  23.128  32.973  1.00  0.00    -0.391 OA
ATOM     24  H   UNL     1      11.146  23.529  33.277  1.00  0.00     0.210 HD
ENDBRANCH  22  23
ENDBRANCH  17  22
BRANCH  18  25
ATOM     25  O   UNL     1      10.623  21.356  36.610  1.00  0.00    -0.385 OA
ATOM     26  H   UNL     1      11.137  20.507  36.628  1.00  0.00     0.211 HD
ENDBRANCH  18  25
BRANCH  20  27
ATOM     27  O   UNL     1      10.337  20.369  33.260  1.00  0.00    -0.387 OA
ATOM     28  H   UNL     1      10.823  19.503  33.216  1.00  0.00     0.211 HD
ENDBRANCH  20  27
BRANCH  21  29
ATOM     29  C   UNL     1       7.431  19.635  35.135  1.00  0.00     0.191 C 
BRANCH  29  30
ATOM     30  O   UNL     1       6.070  19.977  35.139  1.00  0.00    -0.394 OA
ATOM     31  H   UNL     1       6.000  20.887  35.529  1.00  0.00     0.210 HD
ENDBRANCH  29  30
ENDBRANCH  21  29
ENDBRANCH   1  17
TORSDOF 13
ENDMDL
MODEL 5
REMARK VINA RESULT:    19.968      1.437      3.500
REMARK INTER + INTRA:          30.053
REMARK INTER:                  30.284
REMARK INTRA:                  -0.231
REMARK UNBOUND:                -0.421
REMARK SMILES OC[C@H]1O[C@H](O[C@]2(CO)O[C@H](CO)[C@@H](O)[C@@H]2O)[C@@H](O)[C@@H](O)[C@H]1O
REMARK SMILES IDX 6 1 5 2 3 3 22 4 4 5 20 6 18 7 2 8 1 9 23 11 21 13 19 15
REMARK SMILES IDX 7 17 16 18 10 19 14 20 11 21 8 22 9 23 17 25 15 27 12 29
REMARK SMILES IDX 13 30
REMARK H PARENT 1 10 23 12 21 14 19 16 9 24 17 26 15 28 13 31
REMARK Flexibility Score: inf
ROOT
ATOM      1  O   UNL     1       9.629  21.904  36.374  1.00  0.00    -0.313 OA
ENDROOT
BRANCH   1   2
ATOM      2  C   UNL     1      10.011  23.270  36.248  1.00  0.00     0.285 C 
ATOM      3  C   UNL     1       7.977  23.812  35.189  1.00  0.00     0.178 C 
ATOM      4  C   UNL     1       7.449  24.641  36.387  1.00  0.00     0.177 C 
ATOM      5  O   UNL     1       9.394  23.873  35.117  1.00  0.00    -0.341 OA
ATOM      6  C   UNL     1       8.122  24.151  37.690  1.00  0.00     0.179 C 
ATOM      7  C   UNL     1       9.655  24.028  37.543  1.00  0.00     0.202 C 
BRANCH   3   8
ATOM      8  C   UNL     1       7.397  24.303  33.853  1.00  0.00     0.191 C 
BRANCH   8   9
ATOM      9  O   UNL     1       8.249  25.237  33.248  1.00  0.00    -0.394 OA
ATOM     10  H   UNL     1       9.008  24.725  32.866  1.00  0.00     0.210 HD
ENDBRANCH   8   9
ENDBRANCH   3   8
BRANCH   4  11
ATOM     11  O   UNL     1       7.628  26.025  36.194  1.00  0.00    -0.387 OA
ATOM     12  H   UNL     1       6.802  26.394  35.788  1.00  0.00     0.211 HD
ENDBRANCH   4  11
BRANCH   6  13
ATOM     13  O   UNL     1       7.761  24.939  38.798  1.00  0.00    -0.387 OA
ATOM     14  H   UNL     1       7.663  24.345  39.585  1.00  0.00     0.211 HD
ENDBRANCH   6  13
BRANCH   7  15
ATOM     15  O   UNL     1      10.265  25.294  37.516  1.00  0.00    -0.385 OA
ATOM     16  H   UNL     1       9.907  25.809  38.287  1.00  0.00     0.211 HD
ENDBRANCH   7  15
ENDBRANCH   1   2
BRANCH   1  17
ATOM     17  C   UNL     1      10.052  21.058  35.305  1.00  0.00     0.224 C 
ATOM     18  C   UNL     1       8.858  20.400  34.573  1.00  0.00     0.208 C 
ATOM     19  O   UNL     1      10.675  21.898  34.355  1.00  0.00    -0.337 OA
ATOM     20  C   UNL     1       9.292  20.359  33.122  1.00  0.00     0.180 C 
ATOM     21  C   UNL     1      10.459  21.355  33.068  1.00  0.00     0.179 C 
BRANCH  17  22
ATOM     22  C   UNL     1      11.132  20.031  35.771  1.00  0.00     0.225 C 
BRANCH  22  23
ATOM     23  O   UNL     1      11.487  20.196  37.120  1.00  0.00    -0.391 OA
ATOM     24  H   UNL     1      11.234  21.120  37.380  1.00  0.00     0.210 HD
ENDBRANCH  22  23
ENDBRANCH  17  22
BRANCH  18  25
ATOM     25  O   UNL     1       7.674  21.153  34.712  1.00  0.00    -0.385 OA
ATOM     26  H   UNL     1       7.090  20.696  35.372  1.00  0.00     0.211 HD
ENDBRANCH  18  25
BRANCH  20  27
ATOM     27  O   UNL     1       9.735  19.066  32.795  1.00  0.00    -0.387 OA
ATOM     28  H   UNL     1       9.528  18.933  31.832  1.00  0.00     0.211 HD
ENDBRANCH  20  27
BRANCH  21  29
ATOM     29  C   UNL     1      10.225  22.490  32.061  1.00  0.00     0.191 C 
BRANCH  29  30
ATOM     30  O   UNL     1      10.650  23.722  32.579  1.00  0.00    -0.394 OA
ATOM     31  H   UNL     1      11.024  24.243  31.823  1.00  0.00     0.210 HD
ENDBRANCH  29  30
ENDBRANCH  21  29
ENDBRANCH   1  17
TORSDOF 13
ENDMDL
MODEL 6
REMARK VINA RESULT:    20.071      1.938      5.533
REMARK INTER + INTRA:          30.209
REMARK INTER:                  30.028
REMARK INTRA:                   0.182
REMARK UNBOUND:                -0.421
REMARK SMILES OC[C@H]1O[C@H](O[C@]2(CO)O[C@H](CO)[C@@H](O)[C@@H]2O)[C@@H](O)[C@@H](O)[C@H]1O
REMARK SMILES IDX 6 1 5 2 3 3 22 4 4 5 20 6 18 7 2 8 1 9 23 11 21 13 19 15
REMARK SMILES IDX 7 17 16 18 10 19 14 20 11 21 8 22 9 23 17 25 15 27 12 29
REMARK SMILES IDX 13 30
REMARK H PARENT 1 10 23 12 21 14 19 16 9 24 17 26 15 28 13 31
REMARK Flexibility Score: inf
ROOT
ATOM      1  O   UNL     1       7.249  23.505  36.590  1.00  0.00    -0.313 OA
ENDROOT
BRANCH   1   2
ATOM      2  C   UNL     1       6.811  23.160  35.280  1.00  0.00     0.285 C 
ATOM      3  C   UNL     1       7.617  20.959  35.515  1.00  0.00     0.178 C 
ATOM      4  C   UNL     1       6.201  20.329  35.558  1.00  0.00     0.177 C 
ATOM      5  O   UNL     1       7.624  22.135  34.720  1.00  0.00    -0.341 OA
ATOM      6  C   UNL     1       5.185  21.380  36.061  1.00  0.00     0.179 C 
ATOM      7  C   UNL     1       5.331  22.731  35.325  1.00  0.00     0.202 C 
BRANCH   3   8
ATOM      8  C   UNL     1       8.661  19.981  34.952  1.00  0.00     0.191 C 
BRANCH   8   9
ATOM      9  O   UNL     1       9.957  20.351  35.338  1.00  0.00    -0.394 OA
ATOM     10  H   UNL     1       9.862  20.921  36.145  1.00  0.00     0.210 HD
ENDBRANCH   8   9
ENDBRANCH   3   8
BRANCH   4  11
ATOM     11  O   UNL     1       5.822  19.789  34.313  1.00  0.00    -0.387 OA
ATOM     12  H   UNL     1       4.891  20.070  34.119  1.00  0.00     0.211 HD
ENDBRANCH   4  11
BRANCH   6  13
ATOM     13  O   UNL     1       3.863  20.897  36.019  1.00  0.00    -0.387 OA
ATOM     14  H   UNL     1       3.848  20.079  35.461  1.00  0.00     0.211 HD
ENDBRANCH   6  13
BRANCH   7  15
ATOM     15  O   UNL     1       4.836  22.648  34.011  1.00  0.00    -0.385 OA
ATOM     16  H   UNL     1       5.248  21.848  33.592  1.00  0.00     0.211 HD
ENDBRANCH   7  15
ENDBRANCH   1   2
BRANCH   1  17
ATOM     17  C   UNL     1       8.016  24.705  36.674  1.00  0.00     0.224 C 
ATOM     18  C   UNL     1       7.852  25.410  38.042  1.00  0.00     0.208 C 
ATOM     19  O   UNL     1       9.373  24.317  36.599  1.00  0.00    -0.337 OA
ATOM     20  C   UNL     1       9.222  25.987  38.327  1.00  0.00     0.180 C 
ATOM     21  C   UNL     1      10.141  25.225  37.362  1.00  0.00     0.179 C 
BRANCH  17  22
ATOM     22  C   UNL     1       7.752  25.648  35.458  1.00  0.00     0.225 C 
BRANCH  22  23
ATOM     23  O   UNL     1       7.923  24.998  34.225  1.00  0.00    -0.391 OA
ATOM     24  H   UNL     1       8.857  24.665  34.195  1.00  0.00     0.210 HD
ENDBRANCH  22  23
ENDBRANCH  17  22
BRANCH  18  25
ATOM     25  O   UNL     1       7.475  24.508  39.058  1.00  0.00    -0.385 OA
ATOM     26  H   UNL     1       7.754  24.889  39.932  1.00  0.00     0.211 HD
ENDBRANCH  18  25
BRANCH  20  27
ATOM     27  O   UNL     1       9.231  27.361  38.031  1.00  0.00    -0.387 OA
ATOM     28  H   UNL     1       9.498  27.828  38.866  1.00  0.00     0.211 HD
ENDBRANCH  20  27
BRANCH  21  29
ATOM     29  C   UNL     1      11.266  24.470  38.084  1.00  0.00     0.191 C 
BRANCH  29  30
ATOM     30  O   UNL     1      10.849  23.187  38.469  1.00  0.00    -0.394 OA
ATOM     31  H   UNL     1      10.964  22.595  37.681  1.00  0.00     0.210 HD
ENDBRANCH  29  30
ENDBRANCH  21  29
ENDBRANCH   1  17
TORSDOF 13
ENDMDL
MODEL 7
REMARK VINA RESULT:    20.154      1.968      5.817
REMARK INTER + INTRA:          30.337
REMARK INTER:                  29.657
REMARK INTRA:                   0.680
REMARK UNBOUND:                -0.421
REMARK SMILES OC[C@H]1O[C@H](O[C@]2(CO)O[C@H](CO)[C@@H](O)[C@@H]2O)[C@@H](O)[C@@H](O)[C@H]1O
REMARK SMILES IDX 6 1 5 2 3 3 22 4 4 5 20 6 18 7 2 8 1 9 23 11 21 13 19 15
REMARK SMILES IDX 7 17 16 18 10 19 14 20 11 21 8 22 9 23 17 25 15 27 12 29
REMARK SMILES IDX 13 30
REMARK H PARENT 1 10 23 12 21 14 19 16 9 24 17 26 15 28 13 31
REMARK Flexibility Score: inf
ROOT
ATOM      1  O   UNL     1      10.213  23.390  36.362  1.00  0.00    -0.313 OA
ENDROOT
BRANCH   1   2
ATOM      2  C   UNL     1       9.133  22.669  35.776  1.00  0.00     0.285 C 
ATOM      3  C   UNL     1       9.954  23.067  33.604  1.00  0.00     0.178 C 
ATOM      4  C   UNL     1      10.349  21.587  33.366  1.00  0.00     0.177 C 
ATOM      5  O   UNL     1       8.835  23.158  34.474  1.00  0.00    -0.341 OA
ATOM      6  C   UNL     1      10.607  20.896  34.725  1.00  0.00     0.179 C 
ATOM      7  C   UNL     1       9.474  21.166  35.740  1.00  0.00     0.202 C 
BRANCH   3   8
ATOM      8  C   UNL     1       9.614  23.787  32.290  1.00  0.00     0.191 C 
BRANCH   8   9
ATOM      9  O   UNL     1       8.642  24.777  32.495  1.00  0.00    -0.394 OA
ATOM     10  H   UNL     1       8.257  24.616  33.396  1.00  0.00     0.210 HD
ENDBRANCH   8   9
ENDBRANCH   3   8
BRANCH   4  11
ATOM     11  O   UNL     1       9.385  20.897  32.603  1.00  0.00    -0.387 OA
ATOM     12  H   UNL     1       9.765  20.721  31.704  1.00  0.00     0.211 HD
ENDBRANCH   4  11
BRANCH   6  13
ATOM     13  O   UNL     1      10.865  19.521  34.576  1.00  0.00    -0.387 OA
ATOM     14  H   UNL     1      11.184  19.168  35.445  1.00  0.00     0.211 HD
ENDBRANCH   6  13
BRANCH   7  15
ATOM     15  O   UNL     1       8.315  20.440  35.411  1.00  0.00    -0.385 OA
ATOM     16  H   UNL     1       8.199  20.503  34.427  1.00  0.00     0.211 HD
ENDBRANCH   7  15
ENDBRANCH   1   2
BRANCH   1  17
ATOM     17  C   UNL     1       9.833  24.359  37.338  1.00  0.00     0.224 C 
ATOM     18  C   UNL     1       8.928  25.465  36.744  1.00  0.00     0.208 C 
ATOM     19  O   UNL     1       9.039  23.677  38.288  1.00  0.00    -0.337 OA
ATOM     20  C   UNL     1       7.954  25.784  37.859  1.00  0.00     0.180 C 
ATOM     21  C   UNL     1       8.083  24.581  38.805  1.00  0.00     0.179 C 
BRANCH  17  22
ATOM     22  C   UNL     1      11.069  24.921  38.109  1.00  0.00     0.225 C 
BRANCH  22  23
ATOM     23  O   UNL     1      11.830  23.910  38.718  1.00  0.00    -0.391 OA
ATOM     24  H   UNL     1      11.272  23.089  38.730  1.00  0.00     0.210 HD
ENDBRANCH  22  23
ENDBRANCH  17  22
BRANCH  18  25
ATOM     25  O   UNL     1       8.237  25.021  35.598  1.00  0.00    -0.385 OA
ATOM     26  H   UNL     1       7.703  24.222  35.847  1.00  0.00     0.211 HD
ENDBRANCH  18  25
BRANCH  20  27
ATOM     27  O   UNL     1       8.349  26.965  38.511  1.00  0.00    -0.387 OA
ATOM     28  H   UNL     1       8.149  26.834  39.476  1.00  0.00     0.211 HD
ENDBRANCH  20  27
BRANCH  21  29
ATOM     29  C   UNL     1       6.750  23.854  39.026  1.00  0.00     0.191 C 
BRANCH  29  30
ATOM     30  O   UNL     1       6.058  24.389  40.123  1.00  0.00    -0.394 OA
ATOM     31  H   UNL     1       6.083  25.376  40.030  1.00  0.00     0.210 HD
ENDBRANCH  29  30
ENDBRANCH  21  29
ENDBRANCH   1  17
TORSDOF 13
ENDMDL
