MODEL 1
REMARK VINA RESULT:    70.461      0.000      0.000
REMARK INTER + INTRA:          89.497
REMARK INTER:                  88.997
REMARK INTRA:                   0.500
REMARK UNBOUND:                 0.500
REMARK SMILES CC(C)[C@H](C)C=C[C@H](C)[C@@H]1CC[C@H]2C3=CC=C4C[C@@H](O)CC[C@@]4(C)[C@@H]3CC[C@]21C
REMARK SMILES IDX 8 1 9 2 7 3 6 4 4 5 5 6 2 7 1 8 3 9 10 10 11 11 28 12 12 13
REMARK SMILES IDX 13 14 27 15 29 16 14 17 26 18 25 19 15 20 23 21 16 22 17 23
REMARK SMILES IDX 22 24 24 25 18 26 21 27 19 28 20 29
REMARK H PARENT 20 30
REMARK Flexibility Score: inf
ROOT
ATOM      1  C   UNL     1     -15.339  -2.082  12.970  1.00  0.00     0.012 C 
ATOM      2  C   UNL     1     -15.688  -2.452  11.515  1.00  0.00     0.012 C 
ENDROOT
BRANCH   1   3
ATOM      3  C   UNL     1     -15.299  -3.313  13.863  1.00  0.00    -0.028 C 
ATOM      4  C   UNL     1     -15.892  -3.533  15.062  1.00  0.00    -0.028 C 
BRANCH   4   5
ATOM      5  C   UNL     1     -16.827  -2.677  15.919  1.00  0.00     0.011 C 
ATOM      6  C   UNL     1     -16.500  -1.183  16.040  1.00  0.00     0.012 C 
BRANCH   5   7
ATOM      7  C   UNL     1     -18.337  -2.939  15.628  1.00  0.00    -0.011 C 
ATOM      8  C   UNL     1     -19.123  -1.625  15.480  1.00  0.00     0.008 C 
ATOM      9  C   UNL     1     -19.013  -3.838  16.670  1.00  0.00     0.008 C 
ENDBRANCH   5   7
ENDBRANCH   4   5
ENDBRANCH   1   3
BRANCH   1  10
ATOM     10  C   UNL     1     -14.042  -1.216  13.155  1.00  0.00     0.002 C 
ATOM     11  C   UNL     1     -13.400  -0.817  11.821  1.00  0.00     0.005 C 
ATOM     12  C   UNL     1     -12.855  -1.657  14.110  1.00  0.00    -0.023 C 
ATOM     13  C   UNL     1     -11.975  -0.441  12.164  1.00  0.00     0.009 C 
ATOM     14  C   UNL     1     -11.573  -1.427  13.255  1.00  0.00     0.021 C 
ATOM     15  C   UNL     1     -12.856  -0.733  15.367  1.00  0.00     0.008 C 
ATOM     16  C   UNL     1     -12.893  -3.144  14.552  1.00  0.00     0.012 C 
ATOM     17  C   UNL     1     -10.315  -0.976  13.989  1.00  0.00    -0.063 C 
ATOM     18  C   UNL     1     -11.581  -0.838  16.199  1.00  0.00     0.009 C 
ATOM     19  C   UNL     1     -10.347  -0.387  15.393  1.00  0.00     0.025 C 
ATOM     20  C   UNL     1      -9.159  -0.941  13.307  1.00  0.00    -0.000 C 
ATOM     21  C   UNL     1      -8.984  -0.611  16.157  1.00  0.00    -0.005 C 
ATOM     22  C   UNL     1      -7.916  -0.445  13.917  1.00  0.00    -0.000 C 
ATOM     23  C   UNL     1      -7.827  -0.209  15.236  1.00  0.00    -0.061 C 
ATOM     24  C   UNL     1      -8.970   0.266  17.447  1.00  0.00     0.014 C 
ATOM     25  C   UNL     1      -8.787  -2.103  16.535  1.00  0.00     0.017 C 
ATOM     26  C   UNL     1      -6.474   0.145  15.817  1.00  0.00     0.063 C 
ATOM     27  C   UNL     1      -7.577   0.427  18.066  1.00  0.00     0.033 C 
ATOM     28  C   UNL     1      -6.593   1.034  17.061  1.00  0.00     0.118 C 
BRANCH  28  29
ATOM     29  O   UNL     1      -7.015   2.325  16.702  1.00  0.00    -0.393 OA
ATOM     30  H   UNL     1      -7.444   2.250  15.810  1.00  0.00     0.210 HD
ENDBRANCH  28  29
ENDBRANCH   1  10
TORSDOF 5
ENDMDL
MODEL 2
REMARK VINA RESULT:    70.511      2.557      4.691
REMARK INTER + INTRA:          89.561
REMARK INTER:                  89.836
REMARK INTRA:                  -0.275
REMARK UNBOUND:                 0.500
REMARK SMILES CC(C)[C@H](C)C=C[C@H](C)[C@@H]1CC[C@H]2C3=CC=C4C[C@@H](O)CC[C@@]4(C)[C@@H]3CC[C@]21C
REMARK SMILES IDX 8 1 9 2 7 3 6 4 4 5 5 6 2 7 1 8 3 9 10 10 11 11 28 12 12 13
REMARK SMILES IDX 13 14 27 15 29 16 14 17 26 18 25 19 15 20 23 21 16 22 17 23
REMARK SMILES IDX 22 24 24 25 18 26 21 27 19 28 20 29
REMARK H PARENT 20 30
REMARK Flexibility Score: inf
ROOT
ATOM      1  C   UNL     1     -11.570  -0.691  14.295  1.00  0.00     0.012 C 
ATOM      2  C   UNL     1     -11.018   0.122  13.108  1.00  0.00     0.012 C 
ENDROOT
BRANCH   1   3
ATOM      3  C   UNL     1     -11.862  -2.131  13.896  1.00  0.00    -0.028 C 
ATOM      4  C   UNL     1     -13.046  -2.731  13.626  1.00  0.00    -0.028 C 
BRANCH   4   5
ATOM      5  C   UNL     1     -14.481  -2.200  13.575  1.00  0.00     0.011 C 
ATOM      6  C   UNL     1     -15.044  -1.827  12.197  1.00  0.00     0.012 C 
BRANCH   5   7
ATOM      7  C   UNL     1     -15.479  -3.048  14.421  1.00  0.00    -0.011 C 
ATOM      8  C   UNL     1     -16.461  -2.159  15.202  1.00  0.00     0.008 C 
ATOM      9  C   UNL     1     -14.790  -4.031  15.376  1.00  0.00     0.008 C 
ENDBRANCH   5   7
ENDBRANCH   4   5
ENDBRANCH   1   3
BRANCH   1  10
ATOM     10  C   UNL     1     -10.710  -0.640  15.608  1.00  0.00     0.002 C 
ATOM     11  C   UNL     1     -10.982   0.616  16.446  1.00  0.00     0.005 C 
ATOM     12  C   UNL     1      -9.137  -0.844  15.603  1.00  0.00    -0.023 C 
ATOM     13  C   UNL     1      -9.783   0.749  17.359  1.00  0.00     0.009 C 
ATOM     14  C   UNL     1      -8.601   0.308  16.504  1.00  0.00     0.021 C 
ATOM     15  C   UNL     1      -8.813  -2.235  16.230  1.00  0.00     0.008 C 
ATOM     16  C   UNL     1      -8.471  -0.730  14.207  1.00  0.00     0.012 C 
ATOM     17  C   UNL     1      -7.368   0.016  17.351  1.00  0.00    -0.063 C 
ATOM     18  C   UNL     1      -7.338  -2.415  16.579  1.00  0.00     0.009 C 
ATOM     19  C   UNL     1      -6.887  -1.398  17.647  1.00  0.00     0.025 C 
ATOM     20  C   UNL     1      -6.784   1.039  17.998  1.00  0.00    -0.000 C 
ATOM     21  C   UNL     1      -5.337  -1.445  17.940  1.00  0.00    -0.005 C 
ATOM     22  C   UNL     1      -5.638   0.831  18.897  1.00  0.00    -0.000 C 
ATOM     23  C   UNL     1      -4.989  -0.343  18.947  1.00  0.00    -0.061 C 
ATOM     24  C   UNL     1      -4.968  -2.842  18.527  1.00  0.00     0.014 C 
ATOM     25  C   UNL     1      -4.511  -1.182  16.653  1.00  0.00     0.017 C 
ATOM     26  C   UNL     1      -3.724  -0.434  19.774  1.00  0.00     0.063 C 
ATOM     27  C   UNL     1      -3.589  -2.884  19.196  1.00  0.00     0.033 C 
ATOM     28  C   UNL     1      -3.489  -1.848  20.320  1.00  0.00     0.118 C 
BRANCH  28  29
ATOM     29  O   UNL     1      -4.423  -2.146  21.327  1.00  0.00    -0.393 OA
ATOM     30  H   UNL     1      -3.933  -2.119  22.190  1.00  0.00     0.210 HD
ENDBRANCH  28  29
ENDBRANCH   1  10
TORSDOF 5
ENDMDL
MODEL 3
REMARK VINA RESULT:    72.212      7.268     10.819
REMARK INTER + INTRA:          91.709
REMARK INTER:                  91.432
REMARK INTRA:                   0.277
REMARK UNBOUND:                 0.500
REMARK SMILES CC(C)[C@H](C)C=C[C@H](C)[C@@H]1CC[C@H]2C3=CC=C4C[C@@H](O)CC[C@@]4(C)[C@@H]3CC[C@]21C
REMARK SMILES IDX 8 1 9 2 7 3 6 4 4 5 5 6 2 7 1 8 3 9 10 10 11 11 28 12 12 13
REMARK SMILES IDX 13 14 27 15 29 16 14 17 26 18 25 19 15 20 23 21 16 22 17 23
REMARK SMILES IDX 22 24 24 25 18 26 21 27 19 28 20 29
REMARK H PARENT 20 30
REMARK Flexibility Score: inf
ROOT
ATOM      1  C   UNL     1     -15.817  -9.609  22.383  1.00  0.00     0.012 C 
ATOM      2  C   UNL     1     -16.240 -11.062  22.086  1.00  0.00     0.012 C 
ENDROOT
BRANCH   1   3
ATOM      3  C   UNL     1     -14.658  -9.557  23.368  1.00  0.00    -0.028 C 
ATOM      4  C   UNL     1     -13.402 -10.056  23.255  1.00  0.00    -0.028 C 
BRANCH   4   5
ATOM      5  C   UNL     1     -12.686 -10.791  22.120  1.00  0.00     0.011 C 
ATOM      6  C   UNL     1     -11.570 -10.035  21.386  1.00  0.00     0.012 C 
BRANCH   5   7
ATOM      7  C   UNL     1     -12.276 -12.248  22.495  1.00  0.00    -0.011 C 
ATOM      8  C   UNL     1     -10.785 -12.507  22.225  1.00  0.00     0.008 C 
ATOM      9  C   UNL     1     -13.127 -13.320  21.802  1.00  0.00     0.008 C 
ENDBRANCH   5   7
ENDBRANCH   4   5
ENDBRANCH   1   3
BRANCH   1  10
ATOM     10  C   UNL     1     -15.519  -8.721  21.124  1.00  0.00     0.002 C 
ATOM     11  C   UNL     1     -14.052  -8.278  21.043  1.00  0.00     0.005 C 
ATOM     12  C   UNL     1     -16.391  -7.448  20.754  1.00  0.00    -0.023 C 
ATOM     13  C   UNL     1     -14.048  -7.089  20.108  1.00  0.00     0.009 C 
ATOM     14  C   UNL     1     -15.339  -6.346  20.429  1.00  0.00     0.021 C 
ATOM     15  C   UNL     1     -17.252  -7.781  19.497  1.00  0.00     0.008 C 
ATOM     16  C   UNL     1     -17.307  -6.934  21.897  1.00  0.00     0.012 C 
ATOM     17  C   UNL     1     -15.696  -5.338  19.343  1.00  0.00    -0.063 C 
ATOM     18  C   UNL     1     -17.885  -6.552  18.851  1.00  0.00     0.009 C 
ATOM     19  C   UNL     1     -16.811  -5.575  18.333  1.00  0.00     0.025 C 
ATOM     20  C   UNL     1     -14.888  -4.280  19.167  1.00  0.00    -0.000 C 
ATOM     21  C   UNL     1     -17.408  -4.221  17.786  1.00  0.00    -0.005 C 
ATOM     22  C   UNL     1     -15.118  -3.303  18.092  1.00  0.00    -0.000 C 
ATOM     23  C   UNL     1     -16.254  -3.298  17.378  1.00  0.00    -0.061 C 
ATOM     24  C   UNL     1     -18.314  -4.522  16.552  1.00  0.00     0.014 C 
ATOM     25  C   UNL     1     -18.234  -3.487  18.875  1.00  0.00     0.017 C 
ATOM     26  C   UNL     1     -16.489  -2.167  16.399  1.00  0.00     0.063 C 
ATOM     27  C   UNL     1     -18.643  -3.282  15.713  1.00  0.00     0.033 C 
ATOM     28  C   UNL     1     -17.366  -2.597  15.216  1.00  0.00     0.118 C 
BRANCH  28  29
ATOM     29  O   UNL     1     -16.657  -3.466  14.371  1.00  0.00    -0.393 OA
ATOM     30  H   UNL     1     -17.209  -4.285  14.271  1.00  0.00     0.210 HD
ENDBRANCH  28  29
ENDBRANCH   1  10
TORSDOF 5
ENDMDL
MODEL 4
REMARK VINA RESULT:    72.789     12.955     15.042
REMARK INTER + INTRA:          92.437
REMARK INTER:                  92.258
REMARK INTRA:                   0.179
REMARK UNBOUND:                 0.500
REMARK SMILES CC(C)[C@H](C)C=C[C@H](C)[C@@H]1CC[C@H]2C3=CC=C4C[C@@H](O)CC[C@@]4(C)[C@@H]3CC[C@]21C
REMARK SMILES IDX 8 1 9 2 7 3 6 4 4 5 5 6 2 7 1 8 3 9 10 10 11 11 28 12 12 13
REMARK SMILES IDX 13 14 27 15 29 16 14 17 26 18 25 19 15 20 23 21 16 22 17 23
REMARK SMILES IDX 22 24 24 25 18 26 21 27 19 28 20 29
REMARK H PARENT 20 30
REMARK Flexibility Score: inf
ROOT
ATOM      1  C   UNL     1     -11.238 -16.228  21.436  1.00  0.00     0.012 C 
ATOM      2  C   UNL     1     -10.758 -15.863  20.018  1.00  0.00     0.012 C 
ENDROOT
BRANCH   1   3
ATOM      3  C   UNL     1     -10.204 -17.066  22.176  1.00  0.00    -0.028 C 
ATOM      4  C   UNL     1      -9.895 -17.092  23.495  1.00  0.00    -0.028 C 
BRANCH   4   5
ATOM      5  C   UNL     1     -10.475 -16.354  24.703  1.00  0.00     0.011 C 
ATOM      6  C   UNL     1     -11.538 -17.087  25.532  1.00  0.00     0.012 C 
BRANCH   5   7
ATOM      7  C   UNL     1      -9.385 -15.677  25.590  1.00  0.00    -0.011 C 
ATOM      8  C   UNL     1      -9.677 -14.183  25.808  1.00  0.00     0.008 C 
ATOM      9  C   UNL     1      -7.961 -15.858  25.051  1.00  0.00     0.008 C 
ENDBRANCH   5   7
ENDBRANCH   4   5
ENDBRANCH   1   3
BRANCH   1  10
ATOM     10  C   UNL     1     -11.713 -15.021  22.321  1.00  0.00     0.002 C 
ATOM     11  C   UNL     1     -13.065 -15.277  22.998  1.00  0.00     0.005 C 
ATOM     12  C   UNL     1     -11.761 -13.532  21.774  1.00  0.00    -0.023 C 
ATOM     13  C   UNL     1     -13.583 -13.908  23.380  1.00  0.00     0.009 C 
ATOM     14  C   UNL     1     -13.154 -13.004  22.230  1.00  0.00     0.021 C 
ATOM     15  C   UNL     1     -10.613 -12.717  22.444  1.00  0.00     0.008 C 
ATOM     16  C   UNL     1     -11.666 -13.404  20.231  1.00  0.00     0.012 C 
ATOM     17  C   UNL     1     -13.254 -11.529  22.603  1.00  0.00    -0.063 C 
ATOM     18  C   UNL     1     -10.747 -11.209  22.254  1.00  0.00     0.009 C 
ATOM     19  C   UNL     1     -12.033 -10.673  22.915  1.00  0.00     0.025 C 
ATOM     20  C   UNL     1     -14.472 -11.012  22.828  1.00  0.00    -0.000 C 
ATOM     21  C   UNL     1     -12.296  -9.144  22.626  1.00  0.00    -0.005 C 
ATOM     22  C   UNL     1     -14.651  -9.619  23.268  1.00  0.00    -0.000 C 
ATOM     23  C   UNL     1     -13.634  -8.743  23.256  1.00  0.00    -0.061 C 
ATOM     24  C   UNL     1     -11.139  -8.300  23.244  1.00  0.00     0.014 C 
ATOM     25  C   UNL     1     -12.392  -8.867  21.102  1.00  0.00     0.017 C 
ATOM     26  C   UNL     1     -13.927  -7.291  23.568  1.00  0.00     0.063 C 
ATOM     27  C   UNL     1     -11.462  -6.806  23.361  1.00  0.00     0.033 C 
ATOM     28  C   UNL     1     -12.724  -6.579  24.199  1.00  0.00     0.118 C 
BRANCH  28  29
ATOM     29  O   UNL     1     -12.515  -7.040  25.510  1.00  0.00    -0.393 OA
ATOM     30  H   UNL     1     -13.047  -6.454  26.109  1.00  0.00     0.210 HD
ENDBRANCH  28  29
ENDBRANCH   1  10
TORSDOF 5
ENDMDL
MODEL 5
REMARK VINA RESULT:    73.281      1.326      1.925
REMARK INTER + INTRA:          93.059
REMARK INTER:                  93.220
REMARK INTRA:                  -0.161
REMARK UNBOUND:                 0.500
REMARK SMILES CC(C)[C@H](C)C=C[C@H](C)[C@@H]1CC[C@H]2C3=CC=C4C[C@@H](O)CC[C@@]4(C)[C@@H]3CC[C@]21C
REMARK SMILES IDX 8 1 9 2 7 3 6 4 4 5 5 6 2 7 1 8 3 9 10 10 11 11 28 12 12 13
REMARK SMILES IDX 13 14 27 15 29 16 14 17 26 18 25 19 15 20 23 21 16 22 17 23
REMARK SMILES IDX 22 24 24 25 18 26 21 27 19 28 20 29
REMARK H PARENT 20 30
REMARK Flexibility Score: inf
ROOT
ATOM      1  C   UNL     1     -14.965  -2.082  12.560  1.00  0.00     0.012 C 
ATOM      2  C   UNL     1     -15.379  -2.088  11.076  1.00  0.00     0.012 C 
ENDROOT
BRANCH   1   3
ATOM      3  C   UNL     1     -15.499  -3.304  13.293  1.00  0.00    -0.028 C 
ATOM      4  C   UNL     1     -16.086  -3.395  14.511  1.00  0.00    -0.028 C 
BRANCH   4   5
ATOM      5  C   UNL     1     -16.461  -2.340  15.554  1.00  0.00     0.011 C 
ATOM      6  C   UNL     1     -17.332  -1.167  15.084  1.00  0.00     0.012 C 
BRANCH   5   7
ATOM      7  C   UNL     1     -16.958  -2.955  16.898  1.00  0.00    -0.011 C 
ATOM      8  C   UNL     1     -15.884  -3.842  17.548  1.00  0.00     0.008 C 
ATOM      9  C   UNL     1     -18.271  -3.737  16.763  1.00  0.00     0.008 C 
ENDBRANCH   5   7
ENDBRANCH   4   5
ENDBRANCH   1   3
BRANCH   1  10
ATOM     10  C   UNL     1     -13.430  -1.896  12.833  1.00  0.00     0.002 C 
ATOM     11  C   UNL     1     -12.629  -3.188  12.626  1.00  0.00     0.005 C 
ATOM     12  C   UNL     1     -12.876  -1.234  14.164  1.00  0.00    -0.023 C 
ATOM     13  C   UNL     1     -11.331  -2.974  13.372  1.00  0.00     0.009 C 
ATOM     14  C   UNL     1     -11.731  -2.190  14.617  1.00  0.00     0.021 C 
ATOM     15  C   UNL     1     -12.315   0.180  13.822  1.00  0.00     0.008 C 
ATOM     16  C   UNL     1     -13.911  -1.125  15.315  1.00  0.00     0.012 C 
ATOM     17  C   UNL     1     -10.523  -1.558  15.299  1.00  0.00    -0.063 C 
ATOM     18  C   UNL     1     -11.468   0.784  14.939  1.00  0.00     0.009 C 
ATOM     19  C   UNL     1     -10.214  -0.069  15.215  1.00  0.00     0.025 C 
ATOM     20  C   UNL     1      -9.609  -2.371  15.853  1.00  0.00    -0.000 C 
ATOM     21  C   UNL     1      -9.378   0.430  16.457  1.00  0.00    -0.005 C 
ATOM     22  C   UNL     1      -8.377  -1.847  16.464  1.00  0.00    -0.000 C 
ATOM     23  C   UNL     1      -8.209  -0.535  16.689  1.00  0.00    -0.061 C 
ATOM     24  C   UNL     1      -8.838   1.865  16.168  1.00  0.00     0.014 C 
ATOM     25  C   UNL     1     -10.238   0.444  17.748  1.00  0.00     0.017 C 
ATOM     26  C   UNL     1      -6.989  -0.085  17.464  1.00  0.00     0.063 C 
ATOM     27  C   UNL     1      -7.717   2.303  17.117  1.00  0.00     0.033 C 
ATOM     28  C   UNL     1      -6.538   1.327  17.067  1.00  0.00     0.118 C 
BRANCH  28  29
ATOM     29  O   UNL     1      -5.980   1.319  15.778  1.00  0.00    -0.393 OA
ATOM     30  H   UNL     1      -6.670   0.949  15.168  1.00  0.00     0.210 HD
ENDBRANCH  28  29
ENDBRANCH   1  10
TORSDOF 5
ENDMDL
