MODEL 1
REMARK VINA RESULT:    26.130      0.000      0.000
REMARK INTER + INTRA:          32.557
REMARK INTER:                  32.241
REMARK INTRA:                   0.316
REMARK UNBOUND:                 0.316
REMARK SMILES Oc1cc(O)c2cc(O)c(-c3cc(O)c(O)c(O)c3)[o+]c2c1
REMARK SMILES IDX 10 1 20 2 21 3 22 4 2 5 3 6 4 7 6 8 7 9 8 10 11 11 12 12
REMARK SMILES IDX 13 13 19 14 15 15 17 16 14 17 16 19 18 21 9 23 1 25 5 27
REMARK H PARENT 14 18 16 20 18 22 9 24 1 26 5 28
REMARK Flexibility Score: inf
ROOT
ATOM      1  C   UNL     1     -33.389  22.744   6.865  1.00  0.00     0.402 A 
ATOM      2  O   UNL     1     -34.206  22.697   5.814  1.00  0.00    -0.202 OA
ATOM      3  C   UNL     1     -35.324  21.978   5.794  1.00  0.00     0.368 A 
ATOM      4  C   UNL     1     -36.131  21.986   4.653  1.00  0.00     0.162 A 
ATOM      5  C   UNL     1     -37.314  21.235   4.620  1.00  0.00     0.128 A 
ATOM      6  C   UNL     1     -37.688  20.475   5.732  1.00  0.00     0.093 A 
ATOM      7  C   UNL     1     -36.888  20.456   6.885  1.00  0.00     0.136 A 
ATOM      8  C   UNL     1     -35.699  21.211   6.917  1.00  0.00     0.125 A 
ATOM      9  C   UNL     1     -34.859  21.224   8.036  1.00  0.00     0.078 A 
ATOM     10  C   UNL     1     -33.686  21.985   8.015  1.00  0.00     0.223 A 
ENDROOT
BRANCH   1  11
ATOM     11  C   UNL     1     -32.177  23.590   6.772  1.00  0.00     0.091 A 
ATOM     12  C   UNL     1     -32.133  24.632   5.835  1.00  0.00     0.068 A 
ATOM     13  C   UNL     1     -31.011  25.464   5.732  1.00  0.00     0.162 A 
ATOM     14  C   UNL     1     -31.090  23.407   7.640  1.00  0.00     0.068 A 
ATOM     15  C   UNL     1     -29.909  25.259   6.596  1.00  0.00     0.200 A 
ATOM     16  C   UNL     1     -29.961  24.232   7.549  1.00  0.00     0.162 A 
BRANCH  13  17
ATOM     17  O   UNL     1     -31.036  26.472   4.767  1.00  0.00    -0.504 OA
ATOM     18  H   UNL     1     -30.222  26.797   4.267  1.00  0.00     0.293 HD
ENDBRANCH  13  17
BRANCH  15  19
ATOM     19  O   UNL     1     -28.757  26.047   6.542  1.00  0.00    -0.502 OA
ATOM     20  H   UNL     1     -28.486  26.701   7.262  1.00  0.00     0.293 HD
ENDBRANCH  15  19
BRANCH  16  21
ATOM     21  O   UNL     1     -28.882  24.040   8.411  1.00  0.00    -0.504 OA
ATOM     22  H   UNL     1     -28.532  24.788   8.999  1.00  0.00     0.293 HD
ENDBRANCH  16  21
ENDBRANCH   1  11
BRANCH  10  23
ATOM     23  O   UNL     1     -32.819  21.964   9.107  1.00  0.00    -0.500 OA
ATOM     24  H   UNL     1     -32.764  21.163   9.726  1.00  0.00     0.294 HD
ENDBRANCH  10  23
BRANCH   5  25
ATOM     25  O   UNL     1     -38.124  21.237   3.487  1.00  0.00    -0.507 OA
ATOM     26  H   UNL     1     -37.734  21.331   2.556  1.00  0.00     0.293 HD
ENDBRANCH   5  25
BRANCH   7  27
ATOM     27  O   UNL     1     -37.272  19.692   7.987  1.00  0.00    -0.507 OA
ATOM     28  H   UNL     1     -36.754  19.716   8.857  1.00  0.00     0.293 HD
ENDBRANCH   7  27
TORSDOF 7
ENDMDL
MODEL 2
REMARK VINA RESULT:    28.514      1.250      2.499
REMARK INTER + INTRA:          35.498
REMARK INTER:                  35.768
REMARK INTRA:                  -0.270
REMARK UNBOUND:                 0.316
REMARK SMILES Oc1cc(O)c2cc(O)c(-c3cc(O)c(O)c(O)c3)[o+]c2c1
REMARK SMILES IDX 10 1 20 2 21 3 22 4 2 5 3 6 4 7 6 8 7 9 8 10 11 11 12 12
REMARK SMILES IDX 13 13 19 14 15 15 17 16 14 17 16 19 18 21 9 23 1 25 5 27
REMARK H PARENT 14 18 16 20 18 22 9 24 1 26 5 28
REMARK Flexibility Score: inf
ROOT
ATOM      1  C   UNL     1     -33.280  22.930   5.943  1.00  0.00     0.402 A 
ATOM      2  O   UNL     1     -34.094  22.789   6.989  1.00  0.00    -0.202 OA
ATOM      3  C   UNL     1     -35.282  22.199   6.911  1.00  0.00     0.368 A 
ATOM      4  C   UNL     1     -36.075  22.086   8.056  1.00  0.00     0.162 A 
ATOM      5  C   UNL     1     -37.328  21.463   7.989  1.00  0.00     0.128 A 
ATOM      6  C   UNL     1     -37.788  20.953   6.770  1.00  0.00     0.093 A 
ATOM      7  C   UNL     1     -37.004  21.059   5.611  1.00  0.00     0.136 A 
ATOM      8  C   UNL     1     -35.744  21.685   5.680  1.00  0.00     0.125 A 
ATOM      9  C   UNL     1     -34.924  21.827   4.556  1.00  0.00     0.078 A 
ATOM     10  C   UNL     1     -33.684  22.463   4.676  1.00  0.00     0.223 A 
ENDROOT
BRANCH   1  11
ATOM     11  C   UNL     1     -31.975  23.597   6.157  1.00  0.00     0.091 A 
ATOM     12  C   UNL     1     -31.766  24.885   5.644  1.00  0.00     0.068 A 
ATOM     13  C   UNL     1     -30.553  25.554   5.843  1.00  0.00     0.162 A 
ATOM     14  C   UNL     1     -30.959  22.991   6.912  1.00  0.00     0.068 A 
ATOM     15  C   UNL     1     -29.525  24.927   6.586  1.00  0.00     0.200 A 
ATOM     16  C   UNL     1     -29.740  23.649   7.120  1.00  0.00     0.162 A 
BRANCH  13  17
ATOM     17  O   UNL     1     -30.415  26.829   5.291  1.00  0.00    -0.504 OA
ATOM     18  H   UNL     1     -30.474  27.685   5.822  1.00  0.00     0.293 HD
ENDBRANCH  13  17
BRANCH  15  19
ATOM     19  O   UNL     1     -28.289  25.535   6.818  1.00  0.00    -0.502 OA
ATOM     20  H   UNL     1     -27.547  25.587   6.135  1.00  0.00     0.293 HD
ENDBRANCH  15  19
BRANCH  16  21
ATOM     21  O   UNL     1     -28.733  23.037   7.867  1.00  0.00    -0.504 OA
ATOM     22  H   UNL     1     -27.757  23.114   7.605  1.00  0.00     0.293 HD
ENDBRANCH  16  21
ENDBRANCH   1  11
BRANCH  10  23
ATOM     23  O   UNL     1     -32.883  22.651   3.551  1.00  0.00    -0.500 OA
ATOM     24  H   UNL     1     -33.260  22.587   2.613  1.00  0.00     0.294 HD
ENDBRANCH  10  23
BRANCH   5  25
ATOM     25  O   UNL     1     -38.125  21.347   9.125  1.00  0.00    -0.507 OA
ATOM     26  H   UNL     1     -38.317  22.143   9.722  1.00  0.00     0.293 HD
ENDBRANCH   5  25
BRANCH   7  27
ATOM     27  O   UNL     1     -37.475  20.547   4.402  1.00  0.00    -0.507 OA
ATOM     28  H   UNL     1     -37.679  21.150   3.613  1.00  0.00     0.293 HD
ENDBRANCH   7  27
TORSDOF 7
ENDMDL
