MODEL 1
REMARK VINA RESULT:    -3.366      0.000      0.000
REMARK INTER + INTRA:          -4.077
REMARK INTER:                  -3.956
REMARK INTRA:                  -0.121
REMARK UNBOUND:                -0.121
REMARK SMILES CCCCC(=O)[O-]
REMARK SMILES IDX 4 1 5 2 6 3 7 4 3 5 2 6 1 7
REMARK H PARENT
REMARK Flexibility Score: inf
ROOT
ATOM      1  C   UNL     1      41.512  18.171  12.223  1.00  0.00     0.053 C 
ENDROOT
BRANCH   1   2
ATOM      2  C   UNL     1      41.377  19.496  12.910  1.00  0.00     0.041 C 
ATOM      3  O   UNL     1      40.611  19.622  13.901  1.00  0.00    -0.550 OA
ATOM      4  O   UNL     1      42.122  20.584  12.473  1.00  0.00    -0.550 OA
ENDBRANCH   1   2
BRANCH   1   5
ATOM      5  C   UNL     1      40.225  17.775  11.483  1.00  0.00     0.006 C 
BRANCH   5   6
ATOM      6  C   UNL     1      39.642  18.888  10.594  1.00  0.00    -0.003 C 
ATOM      7  C   UNL     1      38.141  19.087  10.799  1.00  0.00     0.004 C 
ENDBRANCH   5   6
ENDBRANCH   1   5
TORSDOF 3
ENDMDL
MODEL 2
REMARK VINA RESULT:    -3.334      2.861      3.244
REMARK INTER + INTRA:          -4.039
REMARK INTER:                  -3.928
REMARK INTRA:                  -0.111
REMARK UNBOUND:                -0.121
REMARK SMILES CCCCC(=O)[O-]
REMARK SMILES IDX 4 1 5 2 6 3 7 4 3 5 2 6 1 7
REMARK H PARENT
REMARK Flexibility Score: inf
ROOT
ATOM      1  C   UNL     1      41.676  18.365  10.659  1.00  0.00     0.053 C 
ENDROOT
BRANCH   1   2
ATOM      2  C   UNL     1      41.591  18.365   9.163  1.00  0.00     0.041 C 
ATOM      3  O   UNL     1      42.039  17.393   8.501  1.00  0.00    -0.550 OA
ATOM      4  O   UNL     1      40.988  19.429   8.502  1.00  0.00    -0.550 OA
ENDBRANCH   1   2
BRANCH   1   5
ATOM      5  C   UNL     1      40.378  17.858  11.307  1.00  0.00     0.006 C 
BRANCH   5   6
ATOM      6  C   UNL     1      39.347  18.962  11.600  1.00  0.00    -0.003 C 
ATOM      7  C   UNL     1      38.146  18.920  10.656  1.00  0.00     0.004 C 
ENDBRANCH   5   6
ENDBRANCH   1   5
TORSDOF 3
ENDMDL
MODEL 3
REMARK VINA RESULT:    -3.331     15.683     15.912
REMARK INTER + INTRA:          -4.036
REMARK INTER:                  -4.009
REMARK INTRA:                  -0.027
REMARK UNBOUND:                -0.121
REMARK SMILES CCCCC(=O)[O-]
REMARK SMILES IDX 4 1 5 2 6 3 7 4 3 5 2 6 1 7
REMARK H PARENT
REMARK Flexibility Score: inf
ROOT
ATOM      1  C   UNL     1      35.293   4.631  14.810  1.00  0.00     0.053 C 
ENDROOT
BRANCH   1   2
ATOM      2  C   UNL     1      36.362   3.940  14.019  1.00  0.00     0.041 C 
ATOM      3  O   UNL     1      37.432   3.580  14.577  1.00  0.00    -0.550 OA
ATOM      4  O   UNL     1      36.162   3.666  12.672  1.00  0.00    -0.550 OA
ENDBRANCH   1   2
BRANCH   1   5
ATOM      5  C   UNL     1      35.622   4.664  16.311  1.00  0.00     0.006 C 
BRANCH   5   6
ATOM      6  C   UNL     1      34.887   5.767  17.093  1.00  0.00    -0.003 C 
ATOM      7  C   UNL     1      33.408   5.873  16.724  1.00  0.00     0.004 C 
ENDBRANCH   5   6
ENDBRANCH   1   5
TORSDOF 3
ENDMDL
MODEL 4
REMARK VINA RESULT:    -3.309     15.642     15.880
REMARK INTER + INTRA:          -4.010
REMARK INTER:                  -3.980
REMARK INTRA:                  -0.030
REMARK UNBOUND:                -0.121
REMARK SMILES CCCCC(=O)[O-]
REMARK SMILES IDX 4 1 5 2 6 3 7 4 3 5 2 6 1 7
REMARK H PARENT
REMARK Flexibility Score: inf
ROOT
ATOM      1  C   UNL     1      34.908   4.779  15.249  1.00  0.00     0.053 C 
ENDROOT
BRANCH   1   2
ATOM      2  C   UNL     1      36.096   4.059  14.690  1.00  0.00     0.041 C 
ATOM      3  O   UNL     1      36.189   3.852  13.452  1.00  0.00    -0.550 OA
ATOM      4  O   UNL     1      37.117   3.643  15.536  1.00  0.00    -0.550 OA
ENDBRANCH   1   2
BRANCH   1   5
ATOM      5  C   UNL     1      35.239   5.496  16.567  1.00  0.00     0.006 C 
BRANCH   5   6
ATOM      6  C   UNL     1      34.021   6.126  17.266  1.00  0.00    -0.003 C 
ATOM      7  C   UNL     1      32.730   5.970  16.465  1.00  0.00     0.004 C 
ENDBRANCH   5   6
ENDBRANCH   1   5
TORSDOF 3
ENDMDL
MODEL 5
REMARK VINA RESULT:    -3.286      2.178      3.854
REMARK INTER + INTRA:          -3.983
REMARK INTER:                  -3.960
REMARK INTRA:                  -0.023
REMARK UNBOUND:                -0.121
REMARK SMILES CCCCC(=O)[O-]
REMARK SMILES IDX 4 1 5 2 6 3 7 4 3 5 2 6 1 7
REMARK H PARENT
REMARK Flexibility Score: inf
ROOT
ATOM      1  C   UNL     1      41.668  17.547  12.247  1.00  0.00     0.053 C 
ENDROOT
BRANCH   1   2
ATOM      2  C   UNL     1      41.150  18.948  12.362  1.00  0.00     0.041 C 
ATOM      3  O   UNL     1      40.889  19.616  11.327  1.00  0.00    -0.550 OA
ATOM      4  O   UNL     1      40.927  19.506  13.615  1.00  0.00    -0.550 OA
ENDBRANCH   1   2
BRANCH   1   5
ATOM      5  C   UNL     1      43.066  17.503  11.611  1.00  0.00     0.006 C 
BRANCH   5   6
ATOM      6  C   UNL     1      44.170  16.987  12.552  1.00  0.00    -0.003 C 
ATOM      7  C   UNL     1      44.595  15.553  12.237  1.00  0.00     0.004 C 
ENDBRANCH   5   6
ENDBRANCH   1   5
TORSDOF 3
ENDMDL
MODEL 6
REMARK VINA RESULT:    -3.286      1.633      3.030
REMARK INTER + INTRA:          -3.983
REMARK INTER:                  -3.893
REMARK INTRA:                  -0.090
REMARK UNBOUND:                -0.121
REMARK SMILES CCCCC(=O)[O-]
REMARK SMILES IDX 4 1 5 2 6 3 7 4 3 5 2 6 1 7
REMARK H PARENT
REMARK Flexibility Score: inf
ROOT
ATOM      1  C   UNL     1      41.026  18.899  12.138  1.00  0.00     0.053 C 
ENDROOT
BRANCH   1   2
ATOM      2  C   UNL     1      41.302  19.750  13.340  1.00  0.00     0.041 C 
ATOM      3  O   UNL     1      40.503  19.753  14.312  1.00  0.00    -0.550 OA
ATOM      4  O   UNL     1      42.459  20.517  13.397  1.00  0.00    -0.550 OA
ENDBRANCH   1   2
BRANCH   1   5
ATOM      5  C   UNL     1      41.702  17.523  12.243  1.00  0.00     0.006 C 
BRANCH   5   6
ATOM      6  C   UNL     1      43.111  17.464  11.627  1.00  0.00    -0.003 C 
ATOM      7  C   UNL     1      44.170  16.974  12.613  1.00  0.00     0.004 C 
ENDBRANCH   5   6
ENDBRANCH   1   5
TORSDOF 3
ENDMDL
MODEL 7
REMARK VINA RESULT:    -3.266      1.831      2.082
REMARK INTER + INTRA:          -3.960
REMARK INTER:                  -3.940
REMARK INTRA:                  -0.020
REMARK UNBOUND:                -0.121
REMARK SMILES CCCCC(=O)[O-]
REMARK SMILES IDX 4 1 5 2 6 3 7 4 3 5 2 6 1 7
REMARK H PARENT
REMARK Flexibility Score: inf
ROOT
ATOM      1  C   UNL     1      41.803  17.473  12.139  1.00  0.00     0.053 C 
ENDROOT
BRANCH   1   2
ATOM      2  C   UNL     1      43.094  18.063  12.617  1.00  0.00     0.041 C 
ATOM      3  O   UNL     1      43.123  19.231  13.087  1.00  0.00    -0.550 OA
ATOM      4  O   UNL     1      44.261  17.311  12.570  1.00  0.00    -0.550 OA
ENDBRANCH   1   2
BRANCH   1   5
ATOM      5  C   UNL     1      40.719  18.545  11.948  1.00  0.00     0.006 C 
BRANCH   5   6
ATOM      6  C   UNL     1      39.474  18.055  11.189  1.00  0.00    -0.003 C 
ATOM      7  C   UNL     1      38.469  19.172  10.910  1.00  0.00     0.004 C 
ENDBRANCH   5   6
ENDBRANCH   1   5
TORSDOF 3
ENDMDL
MODEL 8
REMARK VINA RESULT:    -3.246      2.504      4.026
REMARK INTER + INTRA:          -3.937
REMARK INTER:                  -3.916
REMARK INTRA:                  -0.021
REMARK UNBOUND:                -0.121
REMARK SMILES CCCCC(=O)[O-]
REMARK SMILES IDX 4 1 5 2 6 3 7 4 3 5 2 6 1 7
REMARK H PARENT
REMARK Flexibility Score: inf
ROOT
ATOM      1  C   UNL     1      40.323  17.903  11.483  1.00  0.00     0.053 C 
ENDROOT
BRANCH   1   2
ATOM      2  C   UNL     1      39.578  18.648  10.417  1.00  0.00     0.041 C 
ATOM      3  O   UNL     1      40.191  19.110   9.419  1.00  0.00    -0.550 OA
ATOM      4  O   UNL     1      38.201  18.806  10.514  1.00  0.00    -0.550 OA
ENDBRANCH   1   2
BRANCH   1   5
ATOM      5  C   UNL     1      41.845  17.988  11.284  1.00  0.00     0.006 C 
BRANCH   5   6
ATOM      6  C   UNL     1      42.663  17.250  12.359  1.00  0.00    -0.003 C 
ATOM      7  C   UNL     1      44.158  17.553  12.280  1.00  0.00     0.004 C 
ENDBRANCH   5   6
ENDBRANCH   1   5
TORSDOF 3
ENDMDL
MODEL 9
REMARK VINA RESULT:    -3.196     15.510     15.961
REMARK INTER + INTRA:          -3.877
REMARK INTER:                  -3.825
REMARK INTRA:                  -0.052
REMARK UNBOUND:                -0.121
REMARK SMILES CCCCC(=O)[O-]
REMARK SMILES IDX 4 1 5 2 6 3 7 4 3 5 2 6 1 7
REMARK H PARENT
REMARK Flexibility Score: inf
ROOT
ATOM      1  C   UNL     1      34.884   5.873  17.080  1.00  0.00     0.053 C 
ENDROOT
BRANCH   1   2
ATOM      2  C   UNL     1      33.412   5.788  17.346  1.00  0.00     0.041 C 
ATOM      3  O   UNL     1      32.987   5.247  18.399  1.00  0.00    -0.550 OA
ATOM      4  O   UNL     1      32.510   6.336  16.441  1.00  0.00    -0.550 OA
ENDBRANCH   1   2
BRANCH   1   5
ATOM      5  C   UNL     1      35.403   4.637  16.329  1.00  0.00     0.006 C 
BRANCH   5   6
ATOM      6  C   UNL     1      35.296   4.739  14.797  1.00  0.00    -0.003 C 
ATOM      7  C   UNL     1      36.423   4.004  14.073  1.00  0.00     0.004 C 
ENDBRANCH   5   6
ENDBRANCH   1   5
TORSDOF 3
ENDMDL
