MODEL 1
REMARK VINA RESULT:    -6.198      0.000      0.000
REMARK INTER + INTRA:         -10.517
REMARK INTER:                  -9.460
REMARK INTRA:                  -1.058
REMARK UNBOUND:                -1.058
REMARK SMILES OC[C@H]1O[C@H](O[C@@]2(CO)O[C@H](CO)[C@@H](O)[C@@H]2O)[C@@H](O)[C@@H](O)[C@H]1O
REMARK SMILES IDX 6 1 5 2 3 3 22 4 4 5 20 6 18 7 2 8 1 9 23 11 21 13 19 15
REMARK SMILES IDX 7 17 16 18 10 19 14 20 11 21 8 22 9 23 17 25 15 27 12 29
REMARK SMILES IDX 13 30
REMARK H PARENT 1 10 23 12 21 14 19 16 9 24 17 26 15 28 13 31
REMARK Flexibility Score: inf
ROOT
ATOM      1  O   UNL     1     -26.722 -12.935   3.035  1.00  0.00    -0.313 OA
ENDROOT
BRANCH   1   2
ATOM      2  C   UNL     1     -27.749 -13.928   3.149  1.00  0.00     0.285 C 
ATOM      3  C   UNL     1     -26.869 -16.147   3.078  1.00  0.00     0.178 C 
ATOM      4  C   UNL     1     -27.604 -16.571   4.353  1.00  0.00     0.177 C 
ATOM      5  O   UNL     1     -27.603 -15.137   2.406  1.00  0.00    -0.341 OA
ATOM      6  C   UNL     1     -27.593 -15.376   5.314  1.00  0.00     0.179 C 
ATOM      7  C   UNL     1     -28.176 -14.105   4.644  1.00  0.00     0.202 C 
BRANCH   3   8
ATOM      8  C   UNL     1     -26.650 -17.330   2.105  1.00  0.00     0.191 C 
BRANCH   8   9
ATOM      9  O   UNL     1     -26.724 -18.564   2.782  1.00  0.00    -0.394 OA
ATOM     10  H   UNL     1     -27.628 -18.629   3.201  1.00  0.00     0.210 HD
ENDBRANCH   8   9
ENDBRANCH   3   8
BRANCH   4  11
ATOM     11  O   UNL     1     -28.932 -16.932   4.059  1.00  0.00    -0.387 OA
ATOM     12  H   UNL     1     -29.206 -17.648   4.683  1.00  0.00     0.211 HD
ENDBRANCH   4  11
BRANCH   6  13
ATOM     13  O   UNL     1     -28.326 -15.698   6.470  1.00  0.00    -0.387 OA
ATOM     14  H   UNL     1     -28.911 -14.924   6.662  1.00  0.00     0.211 HD
ENDBRANCH   6  13
BRANCH   7  15
ATOM     15  O   UNL     1     -29.584 -14.122   4.729  1.00  0.00    -0.385 OA
ATOM     16  H   UNL     1     -29.908 -13.284   4.306  1.00  0.00     0.211 HD
ENDBRANCH   7  15
ENDBRANCH   1   2
BRANCH   1  17
ATOM     17  C   UNL     1     -26.955 -11.648   2.451  1.00  0.00     0.224 C 
ATOM     18  C   UNL     1     -27.775 -11.884   1.171  1.00  0.00     0.208 C 
ATOM     19  O   UNL     1     -25.775 -10.982   2.040  1.00  0.00    -0.337 OA
ATOM     20  C   UNL     1     -26.689 -12.194   0.167  1.00  0.00     0.180 C 
ATOM     21  C   UNL     1     -25.506 -11.368   0.706  1.00  0.00     0.179 C 
BRANCH  17  22
ATOM     22  C   UNL     1     -27.749 -10.785   3.475  1.00  0.00     0.225 C 
BRANCH  22  23
ATOM     23  O   UNL     1     -29.124 -11.053   3.369  1.00  0.00    -0.391 OA
ATOM     24  H   UNL     1     -29.558 -10.209   3.073  1.00  0.00     0.210 HD
ENDBRANCH  22  23
ENDBRANCH  17  22
BRANCH  18  25
ATOM     25  O   UNL     1     -28.467 -10.726   0.764  1.00  0.00    -0.385 OA
ATOM     26  H   UNL     1     -28.301 -10.610  -0.212  1.00  0.00     0.211 HD
ENDBRANCH  18  25
BRANCH  20  27
ATOM     27  O   UNL     1     -26.395 -13.570   0.207  1.00  0.00    -0.387 OA
ATOM     28  H   UNL     1     -27.245 -14.059   0.029  1.00  0.00     0.211 HD
ENDBRANCH  20  27
BRANCH  21  29
ATOM     29  C   UNL     1     -25.246 -10.106  -0.136  1.00  0.00     0.191 C 
BRANCH  29  30
ATOM     30  O   UNL     1     -23.861  -9.832  -0.169  1.00  0.00    -0.394 OA
ATOM     31  H   UNL     1     -23.494 -10.323  -0.957  1.00  0.00     0.210 HD
ENDBRANCH  29  30
ENDBRANCH  21  29
ENDBRANCH   1  17
TORSDOF 13
ENDMDL
MODEL 2
REMARK VINA RESULT:    -6.180      1.253      2.654
REMARK INTER + INTRA:         -10.489
REMARK INTER:                  -8.945
REMARK INTRA:                  -1.544
REMARK UNBOUND:                -1.058
REMARK SMILES OC[C@H]1O[C@H](O[C@@]2(CO)O[C@H](CO)[C@@H](O)[C@@H]2O)[C@@H](O)[C@@H](O)[C@H]1O
REMARK SMILES IDX 6 1 5 2 3 3 22 4 4 5 20 6 18 7 2 8 1 9 23 11 21 13 19 15
REMARK SMILES IDX 7 17 16 18 10 19 14 20 11 21 8 22 9 23 17 25 15 27 12 29
REMARK SMILES IDX 13 30
REMARK H PARENT 1 10 23 12 21 14 19 16 9 24 17 26 15 28 13 31
REMARK Flexibility Score: inf
ROOT
ATOM      1  O   UNL     1     -27.081 -13.466   2.494  1.00  0.00    -0.313 OA
ENDROOT
BRANCH   1   2
ATOM      2  C   UNL     1     -27.997 -14.557   2.652  1.00  0.00     0.285 C 
ATOM      3  C   UNL     1     -26.875 -16.659   2.812  1.00  0.00     0.178 C 
ATOM      4  C   UNL     1     -27.623 -17.058   4.088  1.00  0.00     0.177 C 
ATOM      5  O   UNL     1     -27.681 -15.798   2.024  1.00  0.00    -0.341 OA
ATOM      6  C   UNL     1     -27.793 -15.794   4.940  1.00  0.00     0.179 C 
ATOM      7  C   UNL     1     -28.477 -14.657   4.138  1.00  0.00     0.202 C 
BRANCH   3   8
ATOM      8  C   UNL     1     -26.478 -17.885   1.956  1.00  0.00     0.191 C 
BRANCH   8   9
ATOM      9  O   UNL     1     -26.488 -19.066   2.726  1.00  0.00    -0.394 OA
ATOM     10  H   UNL     1     -27.325 -19.566   2.509  1.00  0.00     0.210 HD
ENDBRANCH   8   9
ENDBRANCH   3   8
BRANCH   4  11
ATOM     11  O   UNL     1     -28.886 -17.590   3.772  1.00  0.00    -0.387 OA
ATOM     12  H   UNL     1     -29.485 -16.844   3.520  1.00  0.00     0.211 HD
ENDBRANCH   4  11
BRANCH   6  13
ATOM     13  O   UNL     1     -28.543 -16.101   6.089  1.00  0.00    -0.387 OA
ATOM     14  H   UNL     1     -28.255 -17.000   6.385  1.00  0.00     0.211 HD
ENDBRANCH   6  13
BRANCH   7  15
ATOM     15  O   UNL     1     -29.876 -14.827   4.166  1.00  0.00    -0.385 OA
ATOM     16  H   UNL     1     -30.079 -15.422   4.936  1.00  0.00     0.211 HD
ENDBRANCH   7  15
ENDBRANCH   1   2
BRANCH   1  17
ATOM     17  C   UNL     1     -27.257 -12.448   1.501  1.00  0.00     0.224 C 
ATOM     18  C   UNL     1     -26.563 -11.183   2.037  1.00  0.00     0.208 C 
ATOM     19  O   UNL     1     -28.609 -12.088   1.283  1.00  0.00    -0.337 OA
ATOM     20  C   UNL     1     -27.646 -10.588   2.907  1.00  0.00     0.180 C 
ATOM     21  C   UNL     1     -28.927 -11.047   2.187  1.00  0.00     0.179 C 
BRANCH  17  22
ATOM     22  C   UNL     1     -26.594 -12.934   0.180  1.00  0.00     0.225 C 
BRANCH  22  23
ATOM     23  O   UNL     1     -27.124 -12.231  -0.914  1.00  0.00    -0.391 OA
ATOM     24  H   UNL     1     -27.172 -11.275  -0.644  1.00  0.00     0.210 HD
ENDBRANCH  22  23
ENDBRANCH  17  22
BRANCH  18  25
ATOM     25  O   UNL     1     -26.245 -10.277   1.006  1.00  0.00    -0.385 OA
ATOM     26  H   UNL     1     -27.056 -10.183   0.434  1.00  0.00     0.211 HD
ENDBRANCH  18  25
BRANCH  20  27
ATOM     27  O   UNL     1     -27.571 -11.149   4.196  1.00  0.00    -0.387 OA
ATOM     28  H   UNL     1     -27.826 -12.110   4.116  1.00  0.00     0.211 HD
ENDBRANCH  20  27
BRANCH  21  29
ATOM     29  C   UNL     1     -29.601  -9.901   1.411  1.00  0.00     0.191 C 
BRANCH  29  30
ATOM     30  O   UNL     1     -28.999  -9.765   0.141  1.00  0.00    -0.394 OA
ATOM     31  H   UNL     1     -29.265 -10.570  -0.386  1.00  0.00     0.210 HD
ENDBRANCH  29  30
ENDBRANCH  21  29
ENDBRANCH   1  17
TORSDOF 13
ENDMDL
MODEL 3
REMARK VINA RESULT:    -6.123      1.586      6.230
REMARK INTER + INTRA:         -10.403
REMARK INTER:                  -9.267
REMARK INTRA:                  -1.135
REMARK UNBOUND:                -1.058
REMARK SMILES OC[C@H]1O[C@H](O[C@@]2(CO)O[C@H](CO)[C@@H](O)[C@@H]2O)[C@@H](O)[C@@H](O)[C@H]1O
REMARK SMILES IDX 6 1 5 2 3 3 22 4 4 5 20 6 18 7 2 8 1 9 23 11 21 13 19 15
REMARK SMILES IDX 7 17 16 18 10 19 14 20 11 21 8 22 9 23 17 25 15 27 12 29
REMARK SMILES IDX 13 30
REMARK H PARENT 1 10 23 12 21 14 19 16 9 24 17 26 15 28 13 31
REMARK Flexibility Score: inf
ROOT
ATOM      1  O   UNL     1     -27.401 -13.071   1.432  1.00  0.00    -0.313 OA
ENDROOT
BRANCH   1   2
ATOM      2  C   UNL     1     -26.959 -11.720   1.252  1.00  0.00     0.285 C 
ATOM      3  C   UNL     1     -24.577 -11.538   1.287  1.00  0.00     0.178 C 
ATOM      4  C   UNL     1     -24.533 -10.749  -0.025  1.00  0.00     0.177 C 
ATOM      5  O   UNL     1     -25.799 -11.290   1.963  1.00  0.00    -0.341 OA
ATOM      6  C   UNL     1     -25.614 -11.324  -0.949  1.00  0.00     0.179 C 
ATOM      7  C   UNL     1     -27.004 -11.326  -0.262  1.00  0.00     0.202 C 
BRANCH   3   8
ATOM      8  C   UNL     1     -23.407 -11.176   2.232  1.00  0.00     0.191 C 
BRANCH   8   9
ATOM      9  O   UNL     1     -22.365 -10.541   1.526  1.00  0.00    -0.394 OA
ATOM     10  H   UNL     1     -22.767  -9.811   0.976  1.00  0.00     0.210 HD
ENDBRANCH   8   9
ENDBRANCH   3   8
BRANCH   4  11
ATOM     11  O   UNL     1     -24.786  -9.386   0.212  1.00  0.00    -0.387 OA
ATOM     12  H   UNL     1     -25.426  -9.313   0.962  1.00  0.00     0.211 HD
ENDBRANCH   4  11
BRANCH   6  13
ATOM     13  O   UNL     1     -25.658 -10.576  -2.138  1.00  0.00    -0.387 OA
ATOM     14  H   UNL     1     -24.806 -10.076  -2.193  1.00  0.00     0.211 HD
ENDBRANCH   6  13
BRANCH   7  15
ATOM     15  O   UNL     1     -27.605 -10.057  -0.396  1.00  0.00    -0.385 OA
ATOM     16  H   UNL     1     -27.981  -9.820   0.493  1.00  0.00     0.211 HD
ENDBRANCH   7  15
ENDBRANCH   1   2
BRANCH   1  17
ATOM     17  C   UNL     1     -28.224 -13.474   2.533  1.00  0.00     0.224 C 
ATOM     18  C   UNL     1     -27.294 -13.616   3.751  1.00  0.00     0.208 C 
ATOM     19  O   UNL     1     -28.835 -14.739   2.359  1.00  0.00    -0.337 OA
ATOM     20  C   UNL     1     -26.769 -15.022   3.569  1.00  0.00     0.180 C 
ATOM     21  C   UNL     1     -27.947 -15.718   2.864  1.00  0.00     0.179 C 
BRANCH  17  22
ATOM     22  C   UNL     1     -29.295 -12.370   2.771  1.00  0.00     0.225 C 
BRANCH  22  23
ATOM     23  O   UNL     1     -30.406 -12.912   3.437  1.00  0.00    -0.391 OA
ATOM     24  H   UNL     1     -30.753 -12.202   4.040  1.00  0.00     0.210 HD
ENDBRANCH  22  23
ENDBRANCH  17  22
BRANCH  18  25
ATOM     25  O   UNL     1     -28.000 -13.538   4.968  1.00  0.00    -0.385 OA
ATOM     26  H   UNL     1     -28.788 -12.947   4.814  1.00  0.00     0.211 HD
ENDBRANCH  18  25
BRANCH  20  27
ATOM     27  O   UNL     1     -25.635 -14.992   2.734  1.00  0.00    -0.387 OA
ATOM     28  H   UNL     1     -24.897 -15.451   3.223  1.00  0.00     0.211 HD
ENDBRANCH  20  27
BRANCH  21  29
ATOM     29  C   UNL     1     -28.720 -16.654   3.810  1.00  0.00     0.191 C 
BRANCH  29  30
ATOM     30  O   UNL     1     -27.884 -17.714   4.222  1.00  0.00    -0.394 OA
ATOM     31  H   UNL     1     -28.053 -18.469   3.591  1.00  0.00     0.210 HD
ENDBRANCH  29  30
ENDBRANCH  21  29
ENDBRANCH   1  17
TORSDOF 13
ENDMDL
MODEL 4
REMARK VINA RESULT:    -6.122      1.705      6.187
REMARK INTER + INTRA:         -10.401
REMARK INTER:                  -9.060
REMARK INTRA:                  -1.341
REMARK UNBOUND:                -1.058
REMARK SMILES OC[C@H]1O[C@H](O[C@@]2(CO)O[C@H](CO)[C@@H](O)[C@@H]2O)[C@@H](O)[C@@H](O)[C@H]1O
REMARK SMILES IDX 6 1 5 2 3 3 22 4 4 5 20 6 18 7 2 8 1 9 23 11 21 13 19 15
REMARK SMILES IDX 7 17 16 18 10 19 14 20 11 21 8 22 9 23 17 25 15 27 12 29
REMARK SMILES IDX 13 30
REMARK H PARENT 1 10 23 12 21 14 19 16 9 24 17 26 15 28 13 31
REMARK Flexibility Score: inf
ROOT
ATOM      1  O   UNL     1     -27.237 -14.389   2.984  1.00  0.00    -0.313 OA
ENDROOT
BRANCH   1   2
ATOM      2  C   UNL     1     -27.599 -13.317   2.105  1.00  0.00     0.285 C 
ATOM      3  C   UNL     1     -25.711 -12.422   0.947  1.00  0.00     0.178 C 
ATOM      4  C   UNL     1     -26.387 -12.540  -0.422  1.00  0.00     0.177 C 
ATOM      5  O   UNL     1     -26.688 -12.229   1.957  1.00  0.00    -0.341 OA
ATOM      6  C   UNL     1     -27.211 -13.834  -0.423  1.00  0.00     0.179 C 
ATOM      7  C   UNL     1     -28.197 -13.879   0.772  1.00  0.00     0.202 C 
BRANCH   3   8
ATOM      8  C   UNL     1     -24.701 -11.252   1.006  1.00  0.00     0.191 C 
BRANCH   8   9
ATOM      9  O   UNL     1     -24.529 -10.667  -0.265  1.00  0.00    -0.394 OA
ATOM     10  H   UNL     1     -23.895 -11.239  -0.782  1.00  0.00     0.210 HD
ENDBRANCH   8   9
ENDBRANCH   3   8
BRANCH   4  11
ATOM     11  O   UNL     1     -27.233 -11.439  -0.650  1.00  0.00    -0.387 OA
ATOM     12  H   UNL     1     -28.033 -11.757  -1.137  1.00  0.00     0.211 HD
ENDBRANCH   4  11
BRANCH   6  13
ATOM     13  O   UNL     1     -27.910 -13.943  -1.638  1.00  0.00    -0.387 OA
ATOM     14  H   UNL     1     -27.951 -14.907  -1.858  1.00  0.00     0.211 HD
ENDBRANCH   6  13
BRANCH   7  15
ATOM     15  O   UNL     1     -29.371 -13.167   0.450  1.00  0.00    -0.385 OA
ATOM     16  H   UNL     1     -29.201 -12.214   0.674  1.00  0.00     0.211 HD
ENDBRANCH   7  15
ENDBRANCH   1   2
BRANCH   1  17
ATOM     17  C   UNL     1     -27.752 -14.503   4.315  1.00  0.00     0.224 C 
ATOM     18  C   UNL     1     -27.500 -15.954   4.764  1.00  0.00     0.208 C 
ATOM     19  O   UNL     1     -29.151 -14.304   4.408  1.00  0.00    -0.337 OA
ATOM     20  C   UNL     1     -28.704 -16.663   4.188  1.00  0.00     0.180 C 
ATOM     21  C   UNL     1     -29.777 -15.559   4.223  1.00  0.00     0.179 C 
BRANCH  17  22
ATOM     22  C   UNL     1     -26.988 -13.495   5.222  1.00  0.00     0.225 C 
BRANCH  22  23
ATOM     23  O   UNL     1     -27.633 -13.379   6.465  1.00  0.00    -0.391 OA
ATOM     24  H   UNL     1     -27.624 -14.283   6.878  1.00  0.00     0.210 HD
ENDBRANCH  22  23
ENDBRANCH  17  22
BRANCH  18  25
ATOM     25  O   UNL     1     -27.512 -16.084   6.167  1.00  0.00    -0.385 OA
ATOM     26  H   UNL     1     -27.391 -17.051   6.375  1.00  0.00     0.211 HD
ENDBRANCH  18  25
BRANCH  20  27
ATOM     27  O   UNL     1     -28.429 -17.048   2.862  1.00  0.00    -0.387 OA
ATOM     28  H   UNL     1     -28.395 -18.045   2.844  1.00  0.00     0.211 HD
ENDBRANCH  20  27
BRANCH  21  29
ATOM     29  C   UNL     1     -30.800 -15.778   5.351  1.00  0.00     0.191 C 
BRANCH  29  30
ATOM     30  O   UNL     1     -30.436 -16.910   6.113  1.00  0.00    -0.394 OA
ATOM     31  H   UNL     1     -29.490 -17.119   5.874  1.00  0.00     0.210 HD
ENDBRANCH  29  30
ENDBRANCH  21  29
ENDBRANCH   1  17
TORSDOF 13
ENDMDL
MODEL 5
REMARK VINA RESULT:    -6.089      1.622      3.297
REMARK INTER + INTRA:         -10.351
REMARK INTER:                  -8.919
REMARK INTRA:                  -1.432
REMARK UNBOUND:                -1.058
REMARK SMILES OC[C@H]1O[C@H](O[C@@]2(CO)O[C@H](CO)[C@@H](O)[C@@H]2O)[C@@H](O)[C@@H](O)[C@H]1O
REMARK SMILES IDX 6 1 5 2 3 3 22 4 4 5 20 6 18 7 2 8 1 9 23 11 21 13 19 15
REMARK SMILES IDX 7 17 16 18 10 19 14 20 11 21 8 22 9 23 17 25 15 27 12 29
REMARK SMILES IDX 13 30
REMARK H PARENT 1 10 23 12 21 14 19 16 9 24 17 26 15 28 13 31
REMARK Flexibility Score: inf
ROOT
ATOM      1  O   UNL     1     -26.461 -13.639   2.057  1.00  0.00    -0.313 OA
ENDROOT
BRANCH   1   2
ATOM      2  C   UNL     1     -26.332 -14.902   2.721  1.00  0.00     0.285 C 
ATOM      3  C   UNL     1     -28.238 -15.411   4.068  1.00  0.00     0.178 C 
ATOM      4  C   UNL     1     -28.412 -16.801   3.447  1.00  0.00     0.177 C 
ATOM      5  O   UNL     1     -26.872 -15.031   4.035  1.00  0.00    -0.341 OA
ATOM      6  C   UNL     1     -28.073 -16.689   1.955  1.00  0.00     0.179 C 
ATOM      7  C   UNL     1     -26.667 -16.074   1.739  1.00  0.00     0.202 C 
BRANCH   3   8
ATOM      8  C   UNL     1     -28.733 -15.355   5.532  1.00  0.00     0.191 C 
BRANCH   8   9
ATOM      9  O   UNL     1     -27.815 -15.979   6.401  1.00  0.00    -0.394 OA
ATOM     10  H   UNL     1     -26.898 -15.837   6.031  1.00  0.00     0.210 HD
ENDBRANCH   8   9
ENDBRANCH   3   8
BRANCH   4  11
ATOM     11  O   UNL     1     -27.548 -17.726   4.062  1.00  0.00    -0.387 OA
ATOM     12  H   UNL     1     -26.846 -17.976   3.412  1.00  0.00     0.211 HD
ENDBRANCH   4  11
BRANCH   6  13
ATOM     13  O   UNL     1     -28.146 -17.962   1.362  1.00  0.00    -0.387 OA
ATOM     14  H   UNL     1     -27.318 -18.077   0.832  1.00  0.00     0.211 HD
ENDBRANCH   6  13
BRANCH   7  15
ATOM     15  O   UNL     1     -25.682 -17.077   1.856  1.00  0.00    -0.385 OA
ATOM     16  H   UNL     1     -25.080 -16.982   1.071  1.00  0.00     0.211 HD
ENDBRANCH   7  15
ENDBRANCH   1   2
BRANCH   1  17
ATOM     17  C   UNL     1     -25.428 -12.647   2.079  1.00  0.00     0.224 C 
ATOM     18  C   UNL     1     -26.034 -11.391   2.730  1.00  0.00     0.208 C 
ATOM     19  O   UNL     1     -24.991 -12.246   0.793  1.00  0.00    -0.337 OA
ATOM     20  C   UNL     1     -26.707 -10.731   1.549  1.00  0.00     0.180 C 
ATOM     21  C   UNL     1     -25.806 -11.167   0.379  1.00  0.00     0.179 C 
BRANCH  17  22
ATOM     22  C   UNL     1     -24.240 -13.198   2.920  1.00  0.00     0.225 C 
BRANCH  22  23
ATOM     23  O   UNL     1     -23.086 -12.431   2.686  1.00  0.00    -0.391 OA
ATOM     24  H   UNL     1     -22.777 -12.101   3.572  1.00  0.00     0.210 HD
ENDBRANCH  22  23
ENDBRANCH  17  22
BRANCH  18  25
ATOM     25  O   UNL     1     -25.043 -10.529   3.241  1.00  0.00    -0.385 OA
ATOM     26  H   UNL     1     -24.483 -10.234   2.471  1.00  0.00     0.211 HD
ENDBRANCH  18  25
BRANCH  20  27
ATOM     27  O   UNL     1     -28.006 -11.254   1.399  1.00  0.00    -0.387 OA
ATOM     28  H   UNL     1     -28.409 -11.310   2.310  1.00  0.00     0.211 HD
ENDBRANCH  20  27
BRANCH  21  29
ATOM     29  C   UNL     1     -24.905 -10.023  -0.120  1.00  0.00     0.191 C 
BRANCH  29  30
ATOM     30  O   UNL     1     -23.613 -10.158   0.433  1.00  0.00    -0.394 OA
ATOM     31  H   UNL     1     -23.606  -9.617   1.272  1.00  0.00     0.210 HD
ENDBRANCH  29  30
ENDBRANCH  21  29
ENDBRANCH   1  17
TORSDOF 13
ENDMDL
MODEL 6
REMARK VINA RESULT:    -6.073      1.950      6.129
REMARK INTER + INTRA:         -10.327
REMARK INTER:                  -8.814
REMARK INTRA:                  -1.512
REMARK UNBOUND:                -1.058
REMARK SMILES OC[C@H]1O[C@H](O[C@@]2(CO)O[C@H](CO)[C@@H](O)[C@@H]2O)[C@@H](O)[C@@H](O)[C@H]1O
REMARK SMILES IDX 6 1 5 2 3 3 22 4 4 5 20 6 18 7 2 8 1 9 23 11 21 13 19 15
REMARK SMILES IDX 7 17 16 18 10 19 14 20 11 21 8 22 9 23 17 25 15 27 12 29
REMARK SMILES IDX 13 30
REMARK H PARENT 1 10 23 12 21 14 19 16 9 24 17 26 15 28 13 31
REMARK Flexibility Score: inf
ROOT
ATOM      1  O   UNL     1     -26.911 -12.974   1.816  1.00  0.00    -0.313 OA
ENDROOT
BRANCH   1   2
ATOM      2  C   UNL     1     -26.570 -11.611   1.532  1.00  0.00     0.285 C 
ATOM      3  C   UNL     1     -24.208 -11.283   1.391  1.00  0.00     0.178 C 
ATOM      4  C   UNL     1     -24.301 -10.572   0.038  1.00  0.00     0.177 C 
ATOM      5  O   UNL     1     -25.396 -11.070   2.136  1.00  0.00    -0.341 OA
ATOM      6  C   UNL     1     -25.402 -11.265  -0.775  1.00  0.00     0.179 C 
ATOM      7  C   UNL     1     -26.740 -11.311   0.006  1.00  0.00     0.202 C 
BRANCH   3   8
ATOM      8  C   UNL     1     -23.003 -10.795   2.230  1.00  0.00     0.191 C 
BRANCH   8   9
ATOM      9  O   UNL     1     -21.947 -10.369   1.400  1.00  0.00    -0.394 OA
ATOM     10  H   UNL     1     -22.190 -10.591   0.457  1.00  0.00     0.210 HD
ENDBRANCH   8   9
ENDBRANCH   3   8
BRANCH   4  11
ATOM     11  O   UNL     1     -24.626  -9.215   0.216  1.00  0.00    -0.387 OA
ATOM     12  H   UNL     1     -23.837  -8.671  -0.028  1.00  0.00     0.211 HD
ENDBRANCH   4  11
BRANCH   6  13
ATOM     13  O   UNL     1     -25.573 -10.593  -1.998  1.00  0.00    -0.387 OA
ATOM     14  H   UNL     1     -24.703 -10.630  -2.468  1.00  0.00     0.211 HD
ENDBRANCH   6  13
BRANCH   7  15
ATOM     15  O   UNL     1     -27.430 -10.092  -0.156  1.00  0.00    -0.385 OA
ATOM     16  H   UNL     1     -26.742  -9.383  -0.264  1.00  0.00     0.211 HD
ENDBRANCH   7  15
ENDBRANCH   1   2
BRANCH   1  17
ATOM     17  C   UNL     1     -27.905 -13.335   2.781  1.00  0.00     0.224 C 
ATOM     18  C   UNL     1     -28.557 -14.636   2.279  1.00  0.00     0.208 C 
ATOM     19  O   UNL     1     -28.956 -12.394   2.902  1.00  0.00    -0.337 OA
ATOM     20  C   UNL     1     -29.605 -14.103   1.330  1.00  0.00     0.180 C 
ATOM     21  C   UNL     1     -29.957 -12.746   1.966  1.00  0.00     0.179 C 
BRANCH  17  22
ATOM     22  C   UNL     1     -27.199 -13.554   4.151  1.00  0.00     0.225 C 
BRANCH  22  23
ATOM     23  O   UNL     1     -28.144 -13.531   5.190  1.00  0.00    -0.391 OA
ATOM     24  H   UNL     1     -27.996 -14.351   5.731  1.00  0.00     0.210 HD
ENDBRANCH  22  23
ENDBRANCH  17  22
BRANCH  18  25
ATOM     25  O   UNL     1     -29.190 -15.347   3.318  1.00  0.00    -0.385 OA
ATOM     26  H   UNL     1     -30.005 -14.832   3.574  1.00  0.00     0.211 HD
ENDBRANCH  18  25
BRANCH  20  27
ATOM     27  O   UNL     1     -29.033 -13.923   0.056  1.00  0.00    -0.387 OA
ATOM     28  H   UNL     1     -28.273 -14.564  -0.021  1.00  0.00     0.211 HD
ENDBRANCH  20  27
BRANCH  21  29
ATOM     29  C   UNL     1     -31.321 -12.773   2.679  1.00  0.00     0.191 C 
BRANCH  29  30
ATOM     30  O   UNL     1     -31.158 -13.243   4.001  1.00  0.00    -0.394 OA
ATOM     31  H   UNL     1     -30.210 -13.547   4.078  1.00  0.00     0.210 HD
ENDBRANCH  29  30
ENDBRANCH  21  29
ENDBRANCH   1  17
TORSDOF 13
ENDMDL
MODEL 7
REMARK VINA RESULT:    -5.991      2.201      3.903
REMARK INTER + INTRA:         -10.202
REMARK INTER:                  -9.553
REMARK INTRA:                  -0.649
REMARK UNBOUND:                -1.058
REMARK SMILES OC[C@H]1O[C@H](O[C@@]2(CO)O[C@H](CO)[C@@H](O)[C@@H]2O)[C@@H](O)[C@@H](O)[C@H]1O
REMARK SMILES IDX 6 1 5 2 3 3 22 4 4 5 20 6 18 7 2 8 1 9 23 11 21 13 19 15
REMARK SMILES IDX 7 17 16 18 10 19 14 20 11 21 8 22 9 23 17 25 15 27 12 29
REMARK SMILES IDX 13 30
REMARK H PARENT 1 10 23 12 21 14 19 16 9 24 17 26 15 28 13 31
REMARK Flexibility Score: inf
ROOT
ATOM      1  O   UNL     1     -27.797 -15.253   2.293  1.00  0.00    -0.313 OA
ENDROOT
BRANCH   1   2
ATOM      2  C   UNL     1     -27.483 -15.796   3.581  1.00  0.00     0.285 C 
ATOM      3  C   UNL     1     -27.750 -14.188   5.327  1.00  0.00     0.178 C 
ATOM      4  C   UNL     1     -28.622 -15.123   6.171  1.00  0.00     0.177 C 
ATOM      5  O   UNL     1     -26.850 -14.945   4.535  1.00  0.00    -0.341 OA
ATOM      6  C   UNL     1     -29.518 -15.915   5.210  1.00  0.00     0.179 C 
ATOM      7  C   UNL     1     -28.682 -16.642   4.125  1.00  0.00     0.202 C 
BRANCH   3   8
ATOM      8  C   UNL     1     -26.936 -13.201   6.196  1.00  0.00     0.191 C 
BRANCH   8   9
ATOM      9  O   UNL     1     -25.782 -12.761   5.516  1.00  0.00    -0.394 OA
ATOM     10  H   UNL     1     -25.014 -13.322   5.821  1.00  0.00     0.210 HD
ENDBRANCH   8   9
ENDBRANCH   3   8
BRANCH   4  11
ATOM     11  O   UNL     1     -27.819 -16.010   6.911  1.00  0.00    -0.387 OA
ATOM     12  H   UNL     1     -28.412 -16.628   7.406  1.00  0.00     0.211 HD
ENDBRANCH   4  11
BRANCH   6  13
ATOM     13  O   UNL     1     -30.282 -16.843   5.940  1.00  0.00    -0.387 OA
ATOM     14  H   UNL     1     -30.504 -17.581   5.319  1.00  0.00     0.211 HD
ENDBRANCH   6  13
BRANCH   7  15
ATOM     15  O   UNL     1     -28.197 -17.865   4.634  1.00  0.00    -0.385 OA
ATOM     16  H   UNL     1     -27.625 -18.265   3.927  1.00  0.00     0.211 HD
ENDBRANCH   7  15
ENDBRANCH   1   2
BRANCH   1  17
ATOM     17  C   UNL     1     -26.789 -14.861   1.354  1.00  0.00     0.224 C 
ATOM     18  C   UNL     1     -26.791 -13.323   1.317  1.00  0.00     0.208 C 
ATOM     19  O   UNL     1     -27.047 -15.282   0.027  1.00  0.00    -0.337 OA
ATOM     20  C   UNL     1     -27.892 -13.044   0.321  1.00  0.00     0.180 C 
ATOM     21  C   UNL     1     -27.809 -14.272  -0.604  1.00  0.00     0.179 C 
BRANCH  17  22
ATOM     22  C   UNL     1     -25.419 -15.409   1.851  1.00  0.00     0.225 C 
BRANCH  22  23
ATOM     23  O   UNL     1     -25.129 -16.629   1.219  1.00  0.00    -0.391 OA
ATOM     24  H   UNL     1     -25.920 -17.216   1.350  1.00  0.00     0.210 HD
ENDBRANCH  22  23
ENDBRANCH  17  22
BRANCH  18  25
ATOM     25  O   UNL     1     -25.577 -12.803   0.825  1.00  0.00    -0.385 OA
ATOM     26  H   UNL     1     -24.843 -13.200   1.371  1.00  0.00     0.211 HD
ENDBRANCH  18  25
BRANCH  20  27
ATOM     27  O   UNL     1     -29.130 -13.009   0.991  1.00  0.00    -0.387 OA
ATOM     28  H   UNL     1     -28.937 -12.983   1.969  1.00  0.00     0.211 HD
ENDBRANCH  20  27
BRANCH  21  29
ATOM     29  C   UNL     1     -27.166 -13.935  -1.962  1.00  0.00     0.191 C 
BRANCH  29  30
ATOM     30  O   UNL     1     -26.817 -12.567  -1.998  1.00  0.00    -0.394 OA
ATOM     31  H   UNL     1     -25.823 -12.526  -1.912  1.00  0.00     0.210 HD
ENDBRANCH  29  30
ENDBRANCH  21  29
ENDBRANCH   1  17
TORSDOF 13
ENDMDL
MODEL 8
REMARK VINA RESULT:    -5.965      1.315      2.524
REMARK INTER + INTRA:         -10.161
REMARK INTER:                  -8.794
REMARK INTRA:                  -1.366
REMARK UNBOUND:                -1.058
REMARK SMILES OC[C@H]1O[C@H](O[C@@]2(CO)O[C@H](CO)[C@@H](O)[C@@H]2O)[C@@H](O)[C@@H](O)[C@H]1O
REMARK SMILES IDX 6 1 5 2 3 3 22 4 4 5 20 6 18 7 2 8 1 9 23 11 21 13 19 15
REMARK SMILES IDX 7 17 16 18 10 19 14 20 11 21 8 22 9 23 17 25 15 27 12 29
REMARK SMILES IDX 13 30
REMARK H PARENT 1 10 23 12 21 14 19 16 9 24 17 26 15 28 13 31
REMARK Flexibility Score: inf
ROOT
ATOM      1  O   UNL     1     -27.957 -13.146   2.326  1.00  0.00    -0.313 OA
ENDROOT
BRANCH   1   2
ATOM      2  C   UNL     1     -27.422 -14.227   3.101  1.00  0.00     0.285 C 
ATOM      3  C   UNL     1     -29.116 -15.391   4.316  1.00  0.00     0.178 C 
ATOM      4  C   UNL     1     -28.666 -16.761   3.800  1.00  0.00     0.177 C 
ATOM      5  O   UNL     1     -28.012 -14.504   4.370  1.00  0.00    -0.341 OA
ATOM      6  C   UNL     1     -28.233 -16.587   2.338  1.00  0.00     0.179 C 
ATOM      7  C   UNL     1     -27.163 -15.475   2.193  1.00  0.00     0.202 C 
BRANCH   3   8
ATOM      8  C   UNL     1     -29.754 -15.474   5.723  1.00  0.00     0.191 C 
BRANCH   8   9
ATOM      9  O   UNL     1     -30.240 -16.771   5.984  1.00  0.00    -0.394 OA
ATOM     10  H   UNL     1     -31.237 -16.741   5.931  1.00  0.00     0.210 HD
ENDBRANCH   8   9
ENDBRANCH   3   8
BRANCH   4  11
ATOM     11  O   UNL     1     -27.585 -17.242   4.560  1.00  0.00    -0.387 OA
ATOM     12  H   UNL     1     -26.749 -16.868   4.186  1.00  0.00     0.211 HD
ENDBRANCH   4  11
BRANCH   6  13
ATOM     13  O   UNL     1     -27.739 -17.808   1.848  1.00  0.00    -0.387 OA
ATOM     14  H   UNL     1     -27.316 -17.615   0.975  1.00  0.00     0.211 HD
ENDBRANCH   6  13
BRANCH   7  15
ATOM     15  O   UNL     1     -25.885 -16.002   2.477  1.00  0.00    -0.385 OA
ATOM     16  H   UNL     1     -25.325 -15.245   2.794  1.00  0.00     0.211 HD
ENDBRANCH   7  15
ENDBRANCH   1   2
BRANCH   1  17
ATOM     17  C   UNL     1     -27.310 -11.872   2.229  1.00  0.00     0.224 C 
ATOM     18  C   UNL     1     -27.796 -11.229   0.918  1.00  0.00     0.208 C 
ATOM     19  O   UNL     1     -25.900 -11.952   2.124  1.00  0.00    -0.337 OA
ATOM     20  C   UNL     1     -26.849 -11.839  -0.089  1.00  0.00     0.180 C 
ATOM     21  C   UNL     1     -25.576 -12.050   0.750  1.00  0.00     0.179 C 
BRANCH  17  22
ATOM     22  C   UNL     1     -27.726 -11.018   3.461  1.00  0.00     0.225 C 
BRANCH  22  23
ATOM     23  O   UNL     1     -29.100 -10.729   3.407  1.00  0.00    -0.391 OA
ATOM     24  H   UNL     1     -29.567 -11.590   3.239  1.00  0.00     0.210 HD
ENDBRANCH  22  23
ENDBRANCH  17  22
BRANCH  18  25
ATOM     25  O   UNL     1     -27.631  -9.829   0.923  1.00  0.00    -0.385 OA
ATOM     26  H   UNL     1     -28.494  -9.429   0.626  1.00  0.00     0.211 HD
ENDBRANCH  18  25
BRANCH  20  27
ATOM     27  O   UNL     1     -27.366 -13.073  -0.529  1.00  0.00    -0.387 OA
ATOM     28  H   UNL     1     -26.728 -13.437  -1.203  1.00  0.00     0.211 HD
ENDBRANCH  20  27
BRANCH  21  29
ATOM     29  C   UNL     1     -24.483 -11.017   0.421  1.00  0.00     0.191 C 
BRANCH  29  30
ATOM     30  O   UNL     1     -24.897 -10.215  -0.665  1.00  0.00    -0.394 OA
ATOM     31  H   UNL     1     -24.169  -9.549  -0.818  1.00  0.00     0.210 HD
ENDBRANCH  29  30
ENDBRANCH  21  29
ENDBRANCH   1  17
TORSDOF 13
ENDMDL
MODEL 9
REMARK VINA RESULT:    -5.836      1.787      3.268
REMARK INTER + INTRA:          -9.964
REMARK INTER:                  -8.331
REMARK INTRA:                  -1.633
REMARK UNBOUND:                -1.058
REMARK SMILES OC[C@H]1O[C@H](O[C@@]2(CO)O[C@H](CO)[C@@H](O)[C@@H]2O)[C@@H](O)[C@@H](O)[C@H]1O
REMARK SMILES IDX 6 1 5 2 3 3 22 4 4 5 20 6 18 7 2 8 1 9 23 11 21 13 19 15
REMARK SMILES IDX 7 17 16 18 10 19 14 20 11 21 8 22 9 23 17 25 15 27 12 29
REMARK SMILES IDX 13 30
REMARK H PARENT 1 10 23 12 21 14 19 16 9 24 17 26 15 28 13 31
REMARK Flexibility Score: inf
ROOT
ATOM      1  O   UNL     1     -26.425 -13.414   2.419  1.00  0.00    -0.313 OA
ENDROOT
BRANCH   1   2
ATOM      2  C   UNL     1     -27.328 -13.448   3.531  1.00  0.00     0.285 C 
ATOM      3  C   UNL     1     -29.556 -13.992   2.866  1.00  0.00     0.178 C 
ATOM      4  C   UNL     1     -29.689 -15.102   3.913  1.00  0.00     0.177 C 
ATOM      5  O   UNL     1     -28.664 -12.991   3.328  1.00  0.00    -0.341 OA
ATOM      6  C   UNL     1     -28.330 -15.807   4.016  1.00  0.00     0.179 C 
ATOM      7  C   UNL     1     -27.189 -14.799   4.307  1.00  0.00     0.202 C 
BRANCH   3   8
ATOM      8  C   UNL     1     -30.915 -13.329   2.536  1.00  0.00     0.191 C 
BRANCH   8   9
ATOM      9  O   UNL     1     -31.352 -12.514   3.599  1.00  0.00    -0.394 OA
ATOM     10  H   UNL     1     -31.209 -11.562   3.334  1.00  0.00     0.210 HD
ENDBRANCH   8   9
ENDBRANCH   3   8
BRANCH   4  11
ATOM     11  O   UNL     1     -30.038 -14.560   5.164  1.00  0.00    -0.387 OA
ATOM     12  H   UNL     1     -29.251 -14.621   5.760  1.00  0.00     0.211 HD
ENDBRANCH   4  11
BRANCH   6  13
ATOM     13  O   UNL     1     -28.387 -16.786   5.024  1.00  0.00    -0.387 OA
ATOM     14  H   UNL     1     -29.333 -16.849   5.307  1.00  0.00     0.211 HD
ENDBRANCH   6  13
BRANCH   7  15
ATOM     15  O   UNL     1     -27.124 -14.537   5.692  1.00  0.00    -0.385 OA
ATOM     16  H   UNL     1     -27.759 -15.161   6.133  1.00  0.00     0.211 HD
ENDBRANCH   7  15
ENDBRANCH   1   2
BRANCH   1  17
ATOM     17  C   UNL     1     -25.353 -12.469   2.323  1.00  0.00     0.224 C 
ATOM     18  C   UNL     1     -25.926 -11.105   2.748  1.00  0.00     0.208 C 
ATOM     19  O   UNL     1     -24.860 -12.291   1.008  1.00  0.00    -0.337 OA
ATOM     20  C   UNL     1     -26.534 -10.616   1.454  1.00  0.00     0.180 C 
ATOM     21  C   UNL     1     -25.616 -11.262   0.401  1.00  0.00     0.179 C 
BRANCH  17  22
ATOM     22  C   UNL     1     -24.215 -12.923   3.284  1.00  0.00     0.225 C 
BRANCH  22  23
ATOM     23  O   UNL     1     -22.987 -12.385   2.866  1.00  0.00    -0.391 OA
ATOM     24  H   UNL     1     -22.465 -12.188   3.689  1.00  0.00     0.210 HD
ENDBRANCH  22  23
ENDBRANCH  17  22
BRANCH  18  25
ATOM     25  O   UNL     1     -24.916 -10.210   3.155  1.00  0.00    -0.385 OA
ATOM     26  H   UNL     1     -24.446  -9.901   2.331  1.00  0.00     0.211 HD
ENDBRANCH  18  25
BRANCH  20  27
ATOM     27  O   UNL     1     -27.848 -11.108   1.340  1.00  0.00    -0.387 OA
ATOM     28  H   UNL     1     -28.277 -11.018   2.236  1.00  0.00     0.211 HD
ENDBRANCH  20  27
BRANCH  21  29
ATOM     29  C   UNL     1     -24.654 -10.244  -0.236  1.00  0.00     0.191 C 
BRANCH  29  30
ATOM     30  O   UNL     1     -23.449 -10.201   0.499  1.00  0.00    -0.394 OA
ATOM     31  H   UNL     1     -22.871  -9.519   0.056  1.00  0.00     0.210 HD
ENDBRANCH  29  30
ENDBRANCH  21  29
ENDBRANCH   1  17
TORSDOF 13
ENDMDL
