MODEL 1
REMARK VINA RESULT:    -4.912      0.000      0.000
REMARK INTER + INTRA:          -6.554
REMARK INTER:                  -6.348
REMARK INTRA:                  -0.206
REMARK UNBOUND:                -0.206
REMARK SMILES CCO[C@H]1O[C@H](CO)[C@H](O)[C@@H](O)[C@@H]1O
REMARK SMILES IDX 4 1 13 2 11 3 9 4 6 5 5 6 3 7 2 8 1 9 14 10 12 12 7 14 8 15
REMARK SMILES IDX 10 17
REMARK H PARENT 14 11 12 13 8 16 10 18
REMARK Flexibility Score: inf
ROOT
ATOM      1  C   UNL     1      20.348  -4.531  32.226  1.00  0.00     0.281 C 
ATOM      2  C   UNL     1      19.663  -3.165  31.971  1.00  0.00     0.202 C 
ATOM      3  C   UNL     1      18.296  -3.089  32.681  1.00  0.00     0.179 C 
ATOM      4  C   UNL     1      17.460  -4.348  32.385  1.00  0.00     0.177 C 
ATOM      5  C   UNL     1      18.304  -5.611  32.659  1.00  0.00     0.178 C 
ATOM      6  O   UNL     1      19.489  -5.606  31.875  1.00  0.00    -0.341 OA
ENDROOT
BRANCH   1   7
ATOM      7  O   UNL     1      20.753  -4.649  33.584  1.00  0.00    -0.350 OA
BRANCH   7   8
ATOM      8  C   UNL     1      22.148  -4.846  33.685  1.00  0.00     0.160 C 
ATOM      9  C   UNL     1      22.620  -5.677  32.502  1.00  0.00     0.035 C 
ENDBRANCH   7   8
ENDBRANCH   1   7
BRANCH   2  10
ATOM     10  O   UNL     1      19.477  -2.977  30.590  1.00  0.00    -0.385 OA
ATOM     11  H   UNL     1      20.123  -2.278  30.304  1.00  0.00     0.211 HD
ENDBRANCH   2  10
BRANCH   3  12
ATOM     12  O   UNL     1      18.475  -2.968  34.071  1.00  0.00    -0.387 OA
ATOM     13  H   UNL     1      19.103  -3.686  34.344  1.00  0.00     0.211 HD
ENDBRANCH   3  12
BRANCH   5  14
ATOM     14  C   UNL     1      17.508  -6.883  32.348  1.00  0.00     0.191 C 
BRANCH  14  15
ATOM     15  O   UNL     1      17.955  -7.435  31.140  1.00  0.00    -0.394 OA
ATOM     16  H   UNL     1      17.155  -7.830  30.705  1.00  0.00     0.210 HD
ENDBRANCH  14  15
ENDBRANCH   5  14
BRANCH   4  17
ATOM     17  O   UNL     1      17.032  -4.339  31.046  1.00  0.00    -0.387 OA
ATOM     18  H   UNL     1      16.711  -5.256  30.841  1.00  0.00     0.211 HD
ENDBRANCH   4  17
TORSDOF 7
ENDMDL
MODEL 2
REMARK VINA RESULT:    -4.882      1.412      1.904
REMARK INTER + INTRA:          -6.515
REMARK INTER:                  -6.108
REMARK INTRA:                  -0.407
REMARK UNBOUND:                -0.206
REMARK SMILES CCO[C@H]1O[C@H](CO)[C@H](O)[C@@H](O)[C@@H]1O
REMARK SMILES IDX 4 1 13 2 11 3 9 4 6 5 5 6 3 7 2 8 1 9 14 10 12 12 7 14 8 15
REMARK SMILES IDX 10 17
REMARK H PARENT 14 11 12 13 8 16 10 18
REMARK Flexibility Score: inf
ROOT
ATOM      1  C   UNL     1      20.119  -5.768  32.031  1.00  0.00     0.281 C 
ATOM      2  C   UNL     1      19.968  -4.625  30.995  1.00  0.00     0.202 C 
ATOM      3  C   UNL     1      19.223  -3.420  31.604  1.00  0.00     0.179 C 
ATOM      4  C   UNL     1      17.938  -3.881  32.318  1.00  0.00     0.177 C 
ATOM      5  C   UNL     1      18.265  -5.042  33.282  1.00  0.00     0.178 C 
ATOM      6  O   UNL     1      18.861  -6.125  32.583  1.00  0.00    -0.341 OA
ENDROOT
BRANCH   1   7
ATOM      7  O   UNL     1      21.023  -5.398  33.065  1.00  0.00    -0.350 OA
BRANCH   7   8
ATOM      8  C   UNL     1      22.361  -5.458  32.618  1.00  0.00     0.160 C 
ATOM      9  C   UNL     1      22.668  -6.872  32.151  1.00  0.00     0.035 C 
ENDBRANCH   7   8
ENDBRANCH   1   7
BRANCH   2  10
ATOM     10  O   UNL     1      19.258  -5.090  29.875  1.00  0.00    -0.385 OA
ATOM     11  H   UNL     1      19.516  -4.513  29.109  1.00  0.00     0.211 HD
ENDBRANCH   2  10
BRANCH   3  12
ATOM     12  O   UNL     1      20.049  -2.750  32.524  1.00  0.00    -0.387 OA
ATOM     13  H   UNL     1      19.775  -1.796  32.516  1.00  0.00     0.211 HD
ENDBRANCH   3  12
BRANCH   5  14
ATOM     14  C   UNL     1      17.001  -5.542  33.990  1.00  0.00     0.191 C 
BRANCH  14  15
ATOM     15  O   UNL     1      16.245  -4.448  34.431  1.00  0.00    -0.394 OA
ATOM     16  H   UNL     1      15.378  -4.820  34.740  1.00  0.00     0.210 HD
ENDBRANCH  14  15
ENDBRANCH   5  14
BRANCH   4  17
ATOM     17  O   UNL     1      16.984  -4.297  31.373  1.00  0.00    -0.387 OA
ATOM     18  H   UNL     1      16.136  -4.444  31.868  1.00  0.00     0.211 HD
ENDBRANCH   4  17
TORSDOF 7
ENDMDL
MODEL 3
REMARK VINA RESULT:    -4.871      1.932      3.279
REMARK INTER + INTRA:          -6.501
REMARK INTER:                  -6.323
REMARK INTRA:                  -0.178
REMARK UNBOUND:                -0.206
REMARK SMILES CCO[C@H]1O[C@H](CO)[C@H](O)[C@@H](O)[C@@H]1O
REMARK SMILES IDX 4 1 13 2 11 3 9 4 6 5 5 6 3 7 2 8 1 9 14 10 12 12 7 14 8 15
REMARK SMILES IDX 10 17
REMARK H PARENT 14 11 12 13 8 16 10 18
REMARK Flexibility Score: inf
ROOT
ATOM      1  C   UNL     1      19.452  -3.617  31.647  1.00  0.00     0.281 C 
ATOM      2  C   UNL     1      18.208  -4.458  32.033  1.00  0.00     0.202 C 
ATOM      3  C   UNL     1      18.611  -5.895  32.419  1.00  0.00     0.179 C 
ATOM      4  C   UNL     1      19.551  -6.499  31.360  1.00  0.00     0.177 C 
ATOM      5  C   UNL     1      20.710  -5.519  31.073  1.00  0.00     0.178 C 
ATOM      6  O   UNL     1      20.211  -4.263  30.636  1.00  0.00    -0.341 OA
ENDROOT
BRANCH   1   7
ATOM      7  O   UNL     1      20.266  -3.364  32.786  1.00  0.00    -0.350 OA
BRANCH   7   8
ATOM      8  C   UNL     1      19.658  -2.425  33.649  1.00  0.00     0.160 C 
ATOM      9  C   UNL     1      20.739  -1.689  34.424  1.00  0.00     0.035 C 
ENDBRANCH   7   8
ENDBRANCH   1   7
BRANCH   2  10
ATOM     10  O   UNL     1      17.312  -4.502  30.952  1.00  0.00    -0.385 OA
ATOM     11  H   UNL     1      17.565  -3.767  30.335  1.00  0.00     0.211 HD
ENDBRANCH   2  10
BRANCH   3  12
ATOM     12  O   UNL     1      19.254  -5.903  33.670  1.00  0.00    -0.387 OA
ATOM     13  H   UNL     1      18.553  -5.754  34.356  1.00  0.00     0.211 HD
ENDBRANCH   3  12
BRANCH   5  14
ATOM     14  C   UNL     1      21.651  -6.080  30.001  1.00  0.00     0.191 C 
BRANCH  14  15
ATOM     15  O   UNL     1      22.956  -6.145  30.509  1.00  0.00    -0.394 OA
ATOM     16  H   UNL     1      23.560  -6.029  29.730  1.00  0.00     0.210 HD
ENDBRANCH  14  15
ENDBRANCH   5  14
BRANCH   4  17
ATOM     17  O   UNL     1      18.841  -6.761  30.176  1.00  0.00    -0.387 OA
ATOM     18  H   UNL     1      19.098  -6.057  29.525  1.00  0.00     0.211 HD
ENDBRANCH   4  17
TORSDOF 7
ENDMDL
MODEL 4
REMARK VINA RESULT:    -4.846     16.039     18.106
REMARK INTER + INTRA:          -6.469
REMARK INTER:                  -6.172
REMARK INTRA:                  -0.297
REMARK UNBOUND:                -0.206
REMARK SMILES CCO[C@H]1O[C@H](CO)[C@H](O)[C@@H](O)[C@@H]1O
REMARK SMILES IDX 4 1 13 2 11 3 9 4 6 5 5 6 3 7 2 8 1 9 14 10 12 12 7 14 8 15
REMARK SMILES IDX 10 17
REMARK H PARENT 14 11 12 13 8 16 10 18
REMARK Flexibility Score: inf
ROOT
ATOM      1  C   UNL     1      27.985   5.237  42.220  1.00  0.00     0.281 C 
ATOM      2  C   UNL     1      29.461   5.684  42.374  1.00  0.00     0.202 C 
ATOM      3  C   UNL     1      29.712   6.294  43.768  1.00  0.00     0.179 C 
ATOM      4  C   UNL     1      28.634   7.340  44.106  1.00  0.00     0.177 C 
ATOM      5  C   UNL     1      27.232   6.740  43.864  1.00  0.00     0.178 C 
ATOM      6  O   UNL     1      27.095   6.302  42.520  1.00  0.00    -0.341 OA
ENDROOT
BRANCH   1   7
ATOM      7  O   UNL     1      27.706   4.115  43.049  1.00  0.00    -0.350 OA
BRANCH   7   8
ATOM      8  C   UNL     1      26.432   3.576  42.765  1.00  0.00     0.160 C 
ATOM      9  C   UNL     1      25.738   3.225  44.072  1.00  0.00     0.035 C 
ENDBRANCH   7   8
ENDBRANCH   1   7
BRANCH   2  10
ATOM     10  O   UNL     1      29.773   6.638  41.389  1.00  0.00    -0.385 OA
ATOM     11  H   UNL     1      29.051   6.597  40.708  1.00  0.00     0.211 HD
ENDBRANCH   2  10
BRANCH   3  12
ATOM     12  O   UNL     1      29.704   5.286  44.749  1.00  0.00    -0.387 OA
ATOM     13  H   UNL     1      30.255   5.616  45.506  1.00  0.00     0.211 HD
ENDBRANCH   3  12
BRANCH   5  14
ATOM     14  C   UNL     1      26.135   7.766  44.167  1.00  0.00     0.191 C 
BRANCH  14  15
ATOM     15  O   UNL     1      26.490   8.517  45.295  1.00  0.00    -0.394 OA
ATOM     16  H   UNL     1      27.478   8.451  45.369  1.00  0.00     0.210 HD
ENDBRANCH  14  15
ENDBRANCH   5  14
BRANCH   4  17
ATOM     17  O   UNL     1      28.808   8.486  43.312  1.00  0.00    -0.387 OA
ATOM     18  H   UNL     1      29.402   8.227  42.560  1.00  0.00     0.211 HD
ENDBRANCH   4  17
TORSDOF 7
ENDMDL
MODEL 5
REMARK VINA RESULT:    -4.815      2.185      4.594
REMARK INTER + INTRA:          -6.428
REMARK INTER:                  -6.047
REMARK INTRA:                  -0.381
REMARK UNBOUND:                -0.206
REMARK SMILES CCO[C@H]1O[C@H](CO)[C@H](O)[C@@H](O)[C@@H]1O
REMARK SMILES IDX 4 1 13 2 11 3 9 4 6 5 5 6 3 7 2 8 1 9 14 10 12 12 7 14 8 15
REMARK SMILES IDX 10 17
REMARK H PARENT 14 11 12 13 8 16 10 18
REMARK Flexibility Score: inf
ROOT
ATOM      1  C   UNL     1      19.995  -6.554  33.516  1.00  0.00     0.281 C 
ATOM      2  C   UNL     1      21.187  -6.418  34.497  1.00  0.00     0.202 C 
ATOM      3  C   UNL     1      22.262  -5.467  33.934  1.00  0.00     0.179 C 
ATOM      4  C   UNL     1      22.604  -5.835  32.479  1.00  0.00     0.177 C 
ATOM      5  C   UNL     1      21.304  -5.962  31.654  1.00  0.00     0.178 C 
ATOM      6  O   UNL     1      20.440  -6.936  32.223  1.00  0.00    -0.341 OA
ENDROOT
BRANCH   1   7
ATOM      7  O   UNL     1      19.257  -5.340  33.444  1.00  0.00    -0.350 OA
BRANCH   7   8
ATOM      8  C   UNL     1      17.896  -5.587  33.157  1.00  0.00     0.160 C 
ATOM      9  C   UNL     1      17.419  -4.591  32.112  1.00  0.00     0.035 C 
ENDBRANCH   7   8
ENDBRANCH   1   7
BRANCH   2  10
ATOM     10  O   UNL     1      21.760  -7.681  34.726  1.00  0.00    -0.385 OA
ATOM     11  H   UNL     1      22.722  -7.610  34.486  1.00  0.00     0.211 HD
ENDBRANCH   2  10
BRANCH   3  12
ATOM     12  O   UNL     1      21.810  -4.137  33.982  1.00  0.00    -0.387 OA
ATOM     13  H   UNL     1      22.524  -3.605  34.420  1.00  0.00     0.211 HD
ENDBRANCH   3  12
BRANCH   5  14
ATOM     14  C   UNL     1      21.608  -6.354  30.204  1.00  0.00     0.191 C 
BRANCH  14  15
ATOM     15  O   UNL     1      22.925  -5.996  29.886  1.00  0.00    -0.394 OA
ATOM     16  H   UNL     1      22.949  -5.004  29.889  1.00  0.00     0.210 HD
ENDBRANCH  14  15
ENDBRANCH   5  14
BRANCH   4  17
ATOM     17  O   UNL     1      23.316  -7.046  32.441  1.00  0.00    -0.387 OA
ATOM     18  H   UNL     1      22.896  -7.604  31.735  1.00  0.00     0.211 HD
ENDBRANCH   4  17
TORSDOF 7
ENDMDL
MODEL 6
REMARK VINA RESULT:    -4.768     16.060     18.242
REMARK INTER + INTRA:          -6.367
REMARK INTER:                  -5.974
REMARK INTRA:                  -0.393
REMARK UNBOUND:                -0.206
REMARK SMILES CCO[C@H]1O[C@H](CO)[C@H](O)[C@@H](O)[C@@H]1O
REMARK SMILES IDX 4 1 13 2 11 3 9 4 6 5 5 6 3 7 2 8 1 9 14 10 12 12 7 14 8 15
REMARK SMILES IDX 10 17
REMARK H PARENT 14 11 12 13 8 16 10 18
REMARK Flexibility Score: inf
ROOT
ATOM      1  C   UNL     1      27.254   4.930  43.907  1.00  0.00     0.281 C 
ATOM      2  C   UNL     1      27.832   4.051  42.769  1.00  0.00     0.202 C 
ATOM      3  C   UNL     1      29.362   4.219  42.663  1.00  0.00     0.179 C 
ATOM      4  C   UNL     1      29.745   5.710  42.648  1.00  0.00     0.177 C 
ATOM      5  C   UNL     1      29.057   6.437  43.824  1.00  0.00     0.178 C 
ATOM      6  O   UNL     1      27.646   6.286  43.755  1.00  0.00    -0.341 OA
ENDROOT
BRANCH   1   7
ATOM      7  O   UNL     1      27.658   4.441  45.180  1.00  0.00    -0.350 OA
BRANCH   7   8
ATOM      8  C   UNL     1      26.700   4.748  46.172  1.00  0.00     0.160 C 
ATOM      9  C   UNL     1      27.377   5.516  47.297  1.00  0.00     0.035 C 
ENDBRANCH   7   8
ENDBRANCH   1   7
BRANCH   2  10
ATOM     10  O   UNL     1      27.242   4.410  41.545  1.00  0.00    -0.385 OA
ATOM     11  H   UNL     1      27.909   4.955  41.051  1.00  0.00     0.211 HD
ENDBRANCH   2  10
BRANCH   3  12
ATOM     12  O   UNL     1      29.997   3.588  43.747  1.00  0.00    -0.387 OA
ATOM     13  H   UNL     1      29.805   4.135  44.553  1.00  0.00     0.211 HD
ENDBRANCH   3  12
BRANCH   5  14
ATOM     14  C   UNL     1      29.397   7.931  43.822  1.00  0.00     0.191 C 
BRANCH  14  15
ATOM     15  O   UNL     1      28.364   8.649  43.204  1.00  0.00    -0.394 OA
ATOM     16  H   UNL     1      27.520   8.319  43.609  1.00  0.00     0.210 HD
ENDBRANCH  14  15
ENDBRANCH   5  14
BRANCH   4  17
ATOM     17  O   UNL     1      29.357   6.296  41.430  1.00  0.00    -0.387 OA
ATOM     18  H   UNL     1      28.366   6.355  41.443  1.00  0.00     0.211 HD
ENDBRANCH   4  17
TORSDOF 7
ENDMDL
MODEL 7
REMARK VINA RESULT:    -4.706     16.215     18.164
REMARK INTER + INTRA:          -6.287
REMARK INTER:                  -5.880
REMARK INTRA:                  -0.407
REMARK UNBOUND:                -0.206
REMARK SMILES CCO[C@H]1O[C@H](CO)[C@H](O)[C@@H](O)[C@@H]1O
REMARK SMILES IDX 4 1 13 2 11 3 9 4 6 5 5 6 3 7 2 8 1 9 14 10 12 12 7 14 8 15
REMARK SMILES IDX 10 17
REMARK H PARENT 14 11 12 13 8 16 10 18
REMARK Flexibility Score: inf
ROOT
ATOM      1  C   UNL     1      28.004   5.536  45.013  1.00  0.00     0.281 C 
ATOM      2  C   UNL     1      29.443   5.885  44.554  1.00  0.00     0.202 C 
ATOM      3  C   UNL     1      29.421   6.851  43.352  1.00  0.00     0.179 C 
ATOM      4  C   UNL     1      28.454   6.346  42.267  1.00  0.00     0.177 C 
ATOM      5  C   UNL     1      27.086   6.013  42.902  1.00  0.00     0.178 C 
ATOM      6  O   UNL     1      27.229   5.044  43.930  1.00  0.00    -0.341 OA
ENDROOT
BRANCH   1   7
ATOM      7  O   UNL     1      27.370   6.666  45.598  1.00  0.00    -0.350 OA
BRANCH   7   8
ATOM      8  C   UNL     1      26.407   6.272  46.554  1.00  0.00     0.160 C 
ATOM      9  C   UNL     1      27.058   5.334  47.558  1.00  0.00     0.035 C 
ENDBRANCH   7   8
ENDBRANCH   1   7
BRANCH   2  10
ATOM     10  O   UNL     1      30.125   4.711  44.192  1.00  0.00    -0.385 OA
ATOM     11  H   UNL     1      30.021   4.608  43.209  1.00  0.00     0.211 HD
ENDBRANCH   2  10
BRANCH   3  12
ATOM     12  O   UNL     1      29.025   8.135  43.766  1.00  0.00    -0.387 OA
ATOM     13  H   UNL     1      28.587   8.567  42.987  1.00  0.00     0.211 HD
ENDBRANCH   3  12
BRANCH   5  14
ATOM     14  C   UNL     1      26.106   5.482  41.850  1.00  0.00     0.191 C 
BRANCH  14  15
ATOM     15  O   UNL     1      26.380   4.132  41.590  1.00  0.00    -0.394 OA
ATOM     16  H   UNL     1      27.272   3.951  41.987  1.00  0.00     0.210 HD
ENDBRANCH  14  15
ENDBRANCH   5  14
BRANCH   4  17
ATOM     17  O   UNL     1      28.983   5.203  41.643  1.00  0.00    -0.387 OA
ATOM     18  H   UNL     1      28.211   4.631  41.390  1.00  0.00     0.211 HD
ENDBRANCH   4  17
TORSDOF 7
ENDMDL
MODEL 8
REMARK VINA RESULT:    -4.704     17.311     18.804
REMARK INTER + INTRA:          -6.284
REMARK INTER:                  -5.871
REMARK INTRA:                  -0.414
REMARK UNBOUND:                -0.206
REMARK SMILES CCO[C@H]1O[C@H](CO)[C@H](O)[C@@H](O)[C@@H]1O
REMARK SMILES IDX 4 1 13 2 11 3 9 4 6 5 5 6 3 7 2 8 1 9 14 10 12 12 7 14 8 15
REMARK SMILES IDX 10 17
REMARK H PARENT 14 11 12 13 8 16 10 18
REMARK Flexibility Score: inf
ROOT
ATOM      1  C   UNL     1      26.936   6.614  45.642  1.00  0.00     0.281 C 
ATOM      2  C   UNL     1      25.897   7.527  44.942  1.00  0.00     0.202 C 
ATOM      3  C   UNL     1      25.940   7.343  43.412  1.00  0.00     0.179 C 
ATOM      4  C   UNL     1      27.388   7.423  42.895  1.00  0.00     0.177 C 
ATOM      5  C   UNL     1      28.289   6.480  43.723  1.00  0.00     0.178 C 
ATOM      6  O   UNL     1      28.234   6.813  45.103  1.00  0.00    -0.341 OA
ENDROOT
BRANCH   1   7
ATOM      7  O   UNL     1      26.563   5.246  45.533  1.00  0.00    -0.350 OA
BRANCH   7   8
ATOM      8  C   UNL     1      25.995   4.775  46.738  1.00  0.00     0.160 C 
ATOM      9  C   UNL     1      26.690   5.446  47.911  1.00  0.00     0.035 C 
ENDBRANCH   7   8
ENDBRANCH   1   7
BRANCH   2  10
ATOM     10  O   UNL     1      26.160   8.872  45.254  1.00  0.00    -0.385 OA
ATOM     11  H   UNL     1      27.013   8.889  45.762  1.00  0.00     0.211 HD
ENDBRANCH   2  10
BRANCH   3  12
ATOM     12  O   UNL     1      25.388   6.099  43.055  1.00  0.00    -0.387 OA
ATOM     13  H   UNL     1      25.155   6.153  42.091  1.00  0.00     0.211 HD
ENDBRANCH   3  12
BRANCH   5  14
ATOM     14  C   UNL     1      29.745   6.556  43.251  1.00  0.00     0.191 C 
BRANCH  14  15
ATOM     15  O   UNL     1      29.781   6.756  41.865  1.00  0.00    -0.394 OA
ATOM     16  H   UNL     1      29.646   5.862  41.454  1.00  0.00     0.210 HD
ENDBRANCH  14  15
ENDBRANCH   5  14
BRANCH   4  17
ATOM     17  O   UNL     1      27.862   8.742  42.989  1.00  0.00    -0.387 OA
ATOM     18  H   UNL     1      28.681   8.794  42.430  1.00  0.00     0.211 HD
ENDBRANCH   4  17
TORSDOF 7
ENDMDL
