MODEL 1
REMARK VINA RESULT:    -6.112      0.000      0.000
REMARK INTER + INTRA:         -10.587
REMARK INTER:                  -8.971
REMARK INTRA:                  -1.616
REMARK UNBOUND:                -1.616
REMARK SMILES O=c1c(O[C@H]2O[C@@H](CO)[C@H](O)[C@H](O)[C@H]2O)c(-c2ccc(O)c(O)c2)oc2cc(O)cc(O)c12
REMARK SMILES IDX 4 1 3 2 16 3 25 4 2 5 26 6 1 7 33 8 27 9 31 10 28 11 30 12
REMARK SMILES IDX 17 13 18 14 19 15 20 16 24 17 22 18 21 19 23 21 32 23 29 25
REMARK SMILES IDX 5 27 14 28 6 29 12 30 7 31 10 32 15 33 13 35 8 37 9 38 11 40
REMARK H PARENT 21 20 23 22 32 24 29 26 15 34 13 36 9 39 11 41
REMARK Flexibility Score: inf
ROOT
ATOM      1  O   UNL     1      15.787  -6.525 -13.171  1.00  0.00    -0.454 OA
ENDROOT
BRANCH   1   2
ATOM      2  C   UNL     1      14.721  -6.419 -12.261  1.00  0.00     0.214 A 
ATOM      3  C   UNL     1      14.531  -5.278 -11.455  1.00  0.00     0.180 A 
ATOM      4  O   UNL     1      13.469  -5.190 -10.661  1.00  0.00    -0.452 OA
ATOM      5  C   UNL     1      13.795  -7.465 -12.168  1.00  0.00     0.239 A 
ATOM      6  C   UNL     1      12.554  -6.148 -10.564  1.00  0.00     0.146 A 
ATOM      7  O   UNL     1      13.971  -8.510 -12.853  1.00  0.00    -0.285 OA
ATOM      8  C   UNL     1      12.674  -7.337 -11.320  1.00  0.00     0.111 A 
ATOM      9  C   UNL     1      11.466  -5.964  -9.707  1.00  0.00     0.094 A 
ATOM     10  C   UNL     1      11.664  -8.323 -11.215  1.00  0.00     0.134 A 
ATOM     11  C   UNL     1      10.483  -6.946  -9.594  1.00  0.00     0.123 A 
ATOM     12  C   UNL     1      10.581  -8.121 -10.347  1.00  0.00     0.093 A 
BRANCH   3  13
ATOM     13  C   UNL     1      15.490  -4.163 -11.449  1.00  0.00     0.025 A 
ATOM     14  C   UNL     1      15.145  -2.932 -12.019  1.00  0.00     0.016 A 
ATOM     15  C   UNL     1      16.043  -1.864 -11.976  1.00  0.00     0.051 A 
ATOM     16  C   UNL     1      17.297  -2.020 -11.375  1.00  0.00     0.157 A 
ATOM     17  C   UNL     1      16.758  -4.333 -10.878  1.00  0.00     0.062 A 
ATOM     18  C   UNL     1      17.659  -3.262 -10.828  1.00  0.00     0.158 A 
BRANCH  16  19
ATOM     19  O   UNL     1      18.169  -0.932 -11.333  1.00  0.00    -0.504 OA
ATOM     20  H   UNL     1      18.465  -0.447 -12.172  1.00  0.00     0.293 HD
ENDBRANCH  16  19
BRANCH  18  21
ATOM     21  O   UNL     1      18.911  -3.427 -10.237  1.00  0.00    -0.504 OA
ATOM     22  H   UNL     1      19.747  -3.016 -10.638  1.00  0.00     0.293 HD
ENDBRANCH  18  21
ENDBRANCH   3  13
BRANCH  10  23
ATOM     23  O   UNL     1      11.716  -9.485 -11.983  1.00  0.00    -0.507 OA
ATOM     24  H   UNL     1      11.682 -10.405 -11.561  1.00  0.00     0.293 HD
ENDBRANCH  10  23
BRANCH  11  25
ATOM     25  O   UNL     1       9.407  -6.737  -8.733  1.00  0.00    -0.508 OA
ATOM     26  H   UNL     1       8.744  -7.478  -8.522  1.00  0.00     0.293 HD
ENDBRANCH  11  25
ENDBRANCH   1   2
BRANCH   1  27
ATOM     27  C   UNL     1      15.871  -5.736 -14.363  1.00  0.00     0.339 C 
ATOM     28  C   UNL     1      15.778  -6.609 -15.630  1.00  0.00     0.214 C 
ATOM     29  O   UNL     1      17.009  -4.884 -14.334  1.00  0.00    -0.332 OA
ATOM     30  C   UNL     1      17.091  -7.358 -15.884  1.00  0.00     0.180 C 
ATOM     31  C   UNL     1      18.252  -5.534 -14.583  1.00  0.00     0.179 C 
ATOM     32  C   UNL     1      18.251  -6.357 -15.886  1.00  0.00     0.177 C 
BRANCH  28  33
ATOM     33  O   UNL     1      14.719  -7.523 -15.495  1.00  0.00    -0.384 OA
ATOM     34  H   UNL     1      14.644  -8.009 -16.356  1.00  0.00     0.211 HD
ENDBRANCH  28  33
BRANCH  30  35
ATOM     35  O   UNL     1      17.042  -8.015 -17.125  1.00  0.00    -0.387 OA
ATOM     36  H   UNL     1      17.984  -8.180 -17.409  1.00  0.00     0.211 HD
ENDBRANCH  30  35
BRANCH  31  37
ATOM     37  C   UNL     1      18.781  -6.326 -13.367  1.00  0.00     0.191 C 
BRANCH  37  38
ATOM     38  O   UNL     1      19.579  -5.511 -12.554  1.00  0.00    -0.394 OA
ATOM     39  H   UNL     1      20.521  -5.775 -12.723  1.00  0.00     0.210 HD
ENDBRANCH  37  38
ENDBRANCH  31  37
BRANCH  32  40
ATOM     40  O   UNL     1      18.127  -5.478 -16.979  1.00  0.00    -0.387 OA
ATOM     41  H   UNL     1      18.107  -6.034 -17.801  1.00  0.00     0.211 HD
ENDBRANCH  32  40
ENDBRANCH   1  27
TORSDOF 12
ENDMDL
MODEL 2
REMARK VINA RESULT:    -5.841      3.360      6.445
REMARK INTER + INTRA:         -10.189
REMARK INTER:                  -8.594
REMARK INTRA:                  -1.595
REMARK UNBOUND:                -1.616
REMARK SMILES O=c1c(O[C@H]2O[C@@H](CO)[C@H](O)[C@H](O)[C@H]2O)c(-c2ccc(O)c(O)c2)oc2cc(O)cc(O)c12
REMARK SMILES IDX 4 1 3 2 16 3 25 4 2 5 26 6 1 7 33 8 27 9 31 10 28 11 30 12
REMARK SMILES IDX 17 13 18 14 19 15 20 16 24 17 22 18 21 19 23 21 32 23 29 25
REMARK SMILES IDX 5 27 14 28 6 29 12 30 7 31 10 32 15 33 13 35 8 37 9 38 11 40
REMARK H PARENT 21 20 23 22 32 24 29 26 15 34 13 36 9 39 11 41
REMARK Flexibility Score: inf
ROOT
ATOM      1  O   UNL     1      19.074  -5.950 -13.596  1.00  0.00    -0.454 OA
ENDROOT
BRANCH   1   2
ATOM      2  C   UNL     1      18.184  -4.993 -13.078  1.00  0.00     0.214 A 
ATOM      3  C   UNL     1      16.801  -5.027 -13.349  1.00  0.00     0.180 A 
ATOM      4  O   UNL     1      15.987  -4.145 -12.781  1.00  0.00    -0.452 OA
ATOM      5  C   UNL     1      18.676  -3.985 -12.240  1.00  0.00     0.239 A 
ATOM      6  C   UNL     1      16.410  -3.192 -11.959  1.00  0.00     0.146 A 
ATOM      7  O   UNL     1      19.917  -3.915 -12.017  1.00  0.00    -0.285 OA
ATOM      8  C   UNL     1      17.783  -3.068 -11.647  1.00  0.00     0.111 A 
ATOM      9  C   UNL     1      15.478  -2.312 -11.402  1.00  0.00     0.094 A 
ATOM     10  C   UNL     1      18.194  -2.059 -10.742  1.00  0.00     0.134 A 
ATOM     11  C   UNL     1      15.890  -1.308 -10.526  1.00  0.00     0.123 A 
ATOM     12  C   UNL     1      17.243  -1.184 -10.196  1.00  0.00     0.093 A 
BRANCH   3  13
ATOM     13  C   UNL     1      16.215  -6.016 -14.267  1.00  0.00     0.025 A 
ATOM     14  C   UNL     1      15.728  -7.232 -13.777  1.00  0.00     0.016 A 
ATOM     15  C   UNL     1      15.135  -8.151 -14.644  1.00  0.00     0.051 A 
ATOM     16  C   UNL     1      15.035  -7.867 -16.011  1.00  0.00     0.157 A 
ATOM     17  C   UNL     1      16.148  -5.744 -15.640  1.00  0.00     0.062 A 
ATOM     18  C   UNL     1      15.550  -6.661 -16.513  1.00  0.00     0.158 A 
BRANCH  16  19
ATOM     19  O   UNL     1      14.425  -8.797 -16.854  1.00  0.00    -0.504 OA
ATOM     20  H   UNL     1      14.730  -8.938 -17.810  1.00  0.00     0.293 HD
ENDBRANCH  16  19
BRANCH  18  21
ATOM     21  O   UNL     1      15.463  -6.377 -17.875  1.00  0.00    -0.504 OA
ATOM     22  H   UNL     1      15.639  -7.086 -18.579  1.00  0.00     0.293 HD
ENDBRANCH  18  21
ENDBRANCH   3  13
BRANCH  10  23
ATOM     23  O   UNL     1      19.530  -1.938 -10.365  1.00  0.00    -0.507 OA
ATOM     24  H   UNL     1      20.260  -1.748 -11.042  1.00  0.00     0.293 HD
ENDBRANCH  10  23
BRANCH  11  25
ATOM     25  O   UNL     1      14.940  -0.446  -9.983  1.00  0.00    -0.508 OA
ATOM     26  H   UNL     1      14.920   0.541 -10.224  1.00  0.00     0.293 HD
ENDBRANCH  11  25
ENDBRANCH   1   2
BRANCH   1  27
ATOM     27  C   UNL     1      19.290  -7.223 -12.977  1.00  0.00     0.339 C 
ATOM     28  C   UNL     1      20.776  -7.439 -12.625  1.00  0.00     0.214 C 
ATOM     29  O   UNL     1      18.724  -8.273 -13.752  1.00  0.00    -0.332 OA
ATOM     30  C   UNL     1      21.599  -7.768 -13.877  1.00  0.00     0.180 C 
ATOM     31  C   UNL     1      19.465  -8.625 -14.917  1.00  0.00     0.179 C 
ATOM     32  C   UNL     1      20.944  -8.938 -14.618  1.00  0.00     0.177 C 
BRANCH  28  33
ATOM     33  O   UNL     1      21.285  -6.287 -12.002  1.00  0.00    -0.384 OA
ATOM     34  H   UNL     1      20.818  -5.509 -12.404  1.00  0.00     0.211 HD
ENDBRANCH  28  33
BRANCH  30  35
ATOM     35  O   UNL     1      22.909  -8.121 -13.516  1.00  0.00    -0.387 OA
ATOM     36  H   UNL     1      23.112  -7.664 -12.653  1.00  0.00     0.211 HD
ENDBRANCH  30  35
BRANCH  31  37
ATOM     37  C   UNL     1      19.281  -7.628 -16.083  1.00  0.00     0.191 C 
BRANCH  37  38
ATOM     38  O   UNL     1      18.584  -8.227 -17.140  1.00  0.00    -0.394 OA
ATOM     39  H   UNL     1      19.266  -8.617 -17.746  1.00  0.00     0.210 HD
ENDBRANCH  37  38
ENDBRANCH  31  37
BRANCH  32  40
ATOM     40  O   UNL     1      21.012 -10.105 -13.832  1.00  0.00    -0.387 OA
ATOM     41  H   UNL     1      20.255 -10.687 -14.106  1.00  0.00     0.211 HD
ENDBRANCH  32  40
ENDBRANCH   1  27
TORSDOF 12
ENDMDL
MODEL 3
REMARK VINA RESULT:    -5.738      4.029      6.476
REMARK INTER + INTRA:         -10.037
REMARK INTER:                  -8.498
REMARK INTRA:                  -1.539
REMARK UNBOUND:                -1.616
REMARK SMILES O=c1c(O[C@H]2O[C@@H](CO)[C@H](O)[C@H](O)[C@H]2O)c(-c2ccc(O)c(O)c2)oc2cc(O)cc(O)c12
REMARK SMILES IDX 4 1 3 2 16 3 25 4 2 5 26 6 1 7 33 8 27 9 31 10 28 11 30 12
REMARK SMILES IDX 17 13 18 14 19 15 20 16 24 17 22 18 21 19 23 21 32 23 29 25
REMARK SMILES IDX 5 27 14 28 6 29 12 30 7 31 10 32 15 33 13 35 8 37 9 38 11 40
REMARK H PARENT 21 20 23 22 32 24 29 26 15 34 13 36 9 39 11 41
REMARK Flexibility Score: inf
ROOT
ATOM      1  O   UNL     1      18.095  -3.559 -11.814  1.00  0.00    -0.454 OA
ENDROOT
BRANCH   1   2
ATOM      2  C   UNL     1      17.530  -4.202 -12.929  1.00  0.00     0.214 A 
ATOM      3  C   UNL     1      16.611  -3.558 -13.783  1.00  0.00     0.180 A 
ATOM      4  O   UNL     1      16.157  -4.179 -14.866  1.00  0.00    -0.452 OA
ATOM      5  C   UNL     1      17.910  -5.516 -13.226  1.00  0.00     0.239 A 
ATOM      6  C   UNL     1      16.513  -5.415 -15.197  1.00  0.00     0.146 A 
ATOM      7  O   UNL     1      18.701  -6.122 -12.451  1.00  0.00    -0.285 OA
ATOM      8  C   UNL     1      17.414  -6.145 -14.388  1.00  0.00     0.111 A 
ATOM      9  C   UNL     1      15.988  -5.985 -16.360  1.00  0.00     0.094 A 
ATOM     10  C   UNL     1      17.796  -7.448 -14.789  1.00  0.00     0.134 A 
ATOM     11  C   UNL     1      16.354  -7.275 -16.740  1.00  0.00     0.123 A 
ATOM     12  C   UNL     1      17.257  -8.003 -15.958  1.00  0.00     0.093 A 
BRANCH   3  13
ATOM     13  C   UNL     1      16.115  -2.201 -13.508  1.00  0.00     0.025 A 
ATOM     14  C   UNL     1      16.574  -1.116 -14.262  1.00  0.00     0.016 A 
ATOM     15  C   UNL     1      16.071   0.165 -14.025  1.00  0.00     0.051 A 
ATOM     16  C   UNL     1      15.116   0.374 -13.024  1.00  0.00     0.157 A 
ATOM     17  C   UNL     1      15.185  -1.990 -12.481  1.00  0.00     0.062 A 
ATOM     18  C   UNL     1      14.675  -0.707 -12.244  1.00  0.00     0.158 A 
BRANCH  16  19
ATOM     19  O   UNL     1      14.620   1.661 -12.818  1.00  0.00    -0.504 OA
ATOM     20  H   UNL     1      13.627   1.848 -12.734  1.00  0.00     0.293 HD
ENDBRANCH  16  19
BRANCH  18  21
ATOM     21  O   UNL     1      13.732  -0.504 -11.238  1.00  0.00    -0.504 OA
ATOM     22  H   UNL     1      13.470   0.427 -10.933  1.00  0.00     0.293 HD
ENDBRANCH  18  21
ENDBRANCH   3  13
BRANCH  10  23
ATOM     23  O   UNL     1      18.724  -8.180 -14.049  1.00  0.00    -0.507 OA
ATOM     24  H   UNL     1      19.611  -8.470 -14.445  1.00  0.00     0.293 HD
ENDBRANCH  10  23
BRANCH  11  25
ATOM     25  O   UNL     1      15.818  -7.819 -17.906  1.00  0.00    -0.508 OA
ATOM     26  H   UNL     1      16.089  -7.477 -18.824  1.00  0.00     0.293 HD
ENDBRANCH  11  25
ENDBRANCH   1   2
BRANCH   1  27
ATOM     27  C   UNL     1      19.138  -2.585 -11.927  1.00  0.00     0.339 C 
ATOM     28  C   UNL     1      20.429  -3.050 -11.223  1.00  0.00     0.214 C 
ATOM     29  O   UNL     1      18.687  -1.301 -11.513  1.00  0.00    -0.332 OA
ATOM     30  C   UNL     1      20.305  -2.923  -9.700  1.00  0.00     0.180 C 
ATOM     31  C   UNL     1      18.573  -1.131 -10.103  1.00  0.00     0.179 C 
ATOM     32  C   UNL     1      19.865  -1.499  -9.346  1.00  0.00     0.177 C 
BRANCH  28  33
ATOM     33  O   UNL     1      20.704  -4.382 -11.576  1.00  0.00    -0.384 OA
ATOM     34  H   UNL     1      21.244  -4.771 -10.842  1.00  0.00     0.211 HD
ENDBRANCH  28  33
BRANCH  30  35
ATOM     35  O   UNL     1      21.540  -3.193  -9.090  1.00  0.00    -0.387 OA
ATOM     36  H   UNL     1      22.020  -2.325  -8.996  1.00  0.00     0.211 HD
ENDBRANCH  30  35
BRANCH  31  37
ATOM     37  C   UNL     1      17.313  -1.797  -9.507  1.00  0.00     0.191 C 
BRANCH  37  38
ATOM     38  O   UNL     1      17.399  -1.858  -8.110  1.00  0.00    -0.394 OA
ATOM     39  H   UNL     1      17.981  -2.633  -7.894  1.00  0.00     0.210 HD
ENDBRANCH  37  38
ENDBRANCH  31  37
BRANCH  32  40
ATOM     40  O   UNL     1      20.874  -0.581  -9.697  1.00  0.00    -0.387 OA
ATOM     41  H   UNL     1      21.478  -1.041 -10.338  1.00  0.00     0.211 HD
ENDBRANCH  32  40
ENDBRANCH   1  27
TORSDOF 12
ENDMDL
MODEL 4
REMARK VINA RESULT:    -5.699      4.346      7.419
REMARK INTER + INTRA:          -9.981
REMARK INTER:                  -8.502
REMARK INTRA:                  -1.478
REMARK UNBOUND:                -1.616
REMARK SMILES O=c1c(O[C@H]2O[C@@H](CO)[C@H](O)[C@H](O)[C@H]2O)c(-c2ccc(O)c(O)c2)oc2cc(O)cc(O)c12
REMARK SMILES IDX 4 1 3 2 16 3 25 4 2 5 26 6 1 7 33 8 27 9 31 10 28 11 30 12
REMARK SMILES IDX 17 13 18 14 19 15 20 16 24 17 22 18 21 19 23 21 32 23 29 25
REMARK SMILES IDX 5 27 14 28 6 29 12 30 7 31 10 32 15 33 13 35 8 37 9 38 11 40
REMARK H PARENT 21 20 23 22 32 24 29 26 15 34 13 36 9 39 11 41
REMARK Flexibility Score: inf
ROOT
ATOM      1  O   UNL     1      17.206  -2.514 -11.713  1.00  0.00    -0.454 OA
ENDROOT
BRANCH   1   2
ATOM      2  C   UNL     1      17.446  -3.302 -12.851  1.00  0.00     0.214 A 
ATOM      3  C   UNL     1      17.366  -2.780 -14.159  1.00  0.00     0.180 A 
ATOM      4  O   UNL     1      17.671  -3.544 -15.202  1.00  0.00    -0.452 OA
ATOM      5  C   UNL     1      17.806  -4.645 -12.688  1.00  0.00     0.239 A 
ATOM      6  C   UNL     1      18.043  -4.813 -15.089  1.00  0.00     0.146 A 
ATOM      7  O   UNL     1      17.844  -5.140 -11.528  1.00  0.00    -0.285 OA
ATOM      8  C   UNL     1      18.130  -5.427 -13.818  1.00  0.00     0.111 A 
ATOM      9  C   UNL     1      18.351  -5.537 -16.244  1.00  0.00     0.094 A 
ATOM     10  C   UNL     1      18.561  -6.773 -13.732  1.00  0.00     0.134 A 
ATOM     11  C   UNL     1      18.757  -6.868 -16.155  1.00  0.00     0.123 A 
ATOM     12  C   UNL     1      18.864  -7.483 -14.904  1.00  0.00     0.093 A 
BRANCH   3  13
ATOM     13  C   UNL     1      16.936  -1.398 -14.417  1.00  0.00     0.025 A 
ATOM     14  C   UNL     1      15.613  -1.013 -14.176  1.00  0.00     0.016 A 
ATOM     15  C   UNL     1      15.218   0.310 -14.384  1.00  0.00     0.051 A 
ATOM     16  C   UNL     1      16.140   1.256 -14.847  1.00  0.00     0.157 A 
ATOM     17  C   UNL     1      17.852  -0.461 -14.914  1.00  0.00     0.062 A 
ATOM     18  C   UNL     1      17.461   0.868 -15.120  1.00  0.00     0.158 A 
BRANCH  16  19
ATOM     19  O   UNL     1      15.722   2.574 -15.032  1.00  0.00    -0.504 OA
ATOM     20  H   UNL     1      16.281   3.249 -15.541  1.00  0.00     0.293 HD
ENDBRANCH  16  19
BRANCH  18  21
ATOM     21  O   UNL     1      18.381   1.803 -15.591  1.00  0.00    -0.504 OA
ATOM     22  H   UNL     1      18.157   2.432 -16.355  1.00  0.00     0.293 HD
ENDBRANCH  18  21
ENDBRANCH   3  13
BRANCH  10  23
ATOM     23  O   UNL     1      18.713  -7.398 -12.496  1.00  0.00    -0.507 OA
ATOM     24  H   UNL     1      19.461  -8.060 -12.322  1.00  0.00     0.293 HD
ENDBRANCH  10  23
BRANCH  11  25
ATOM     25  O   UNL     1      19.062  -7.566 -17.323  1.00  0.00    -0.508 OA
ATOM     26  H   UNL     1      19.796  -8.268 -17.345  1.00  0.00     0.293 HD
ENDBRANCH  11  25
ENDBRANCH   1   2
BRANCH   1  27
ATOM     27  C   UNL     1      18.177  -1.606 -11.179  1.00  0.00     0.339 C 
ATOM     28  C   UNL     1      18.604  -2.007  -9.753  1.00  0.00     0.214 C 
ATOM     29  O   UNL     1      17.735  -0.259 -11.290  1.00  0.00    -0.332 OA
ATOM     30  C   UNL     1      17.521  -1.646  -8.729  1.00  0.00     0.180 C 
ATOM     31  C   UNL     1      16.740   0.127 -10.346  1.00  0.00     0.179 C 
ATOM     32  C   UNL     1      17.146  -0.170  -8.889  1.00  0.00     0.177 C 
BRANCH  28  33
ATOM     33  O   UNL     1      18.869  -3.386  -9.710  1.00  0.00    -0.384 OA
ATOM     34  H   UNL     1      18.137  -3.838 -10.203  1.00  0.00     0.211 HD
ENDBRANCH  28  33
BRANCH  30  35
ATOM     35  O   UNL     1      17.995  -1.867  -7.425  1.00  0.00    -0.387 OA
ATOM     36  H   UNL     1      17.560  -2.698  -7.089  1.00  0.00     0.211 HD
ENDBRANCH  30  35
BRANCH  31  37
ATOM     37  C   UNL     1      15.329  -0.394 -10.699  1.00  0.00     0.191 C 
BRANCH  37  38
ATOM     38  O   UNL     1      14.349   0.328 -10.006  1.00  0.00    -0.394 OA
ATOM     39  H   UNL     1      14.369   0.008  -9.066  1.00  0.00     0.210 HD
ENDBRANCH  37  38
ENDBRANCH  31  37
BRANCH  32  40
ATOM     40  O   UNL     1      18.242   0.646  -8.548  1.00  0.00    -0.387 OA
ATOM     41  H   UNL     1      18.682   0.915  -9.396  1.00  0.00     0.211 HD
ENDBRANCH  32  40
ENDBRANCH   1  27
TORSDOF 12
ENDMDL
MODEL 5
REMARK VINA RESULT:    -5.659      4.708      8.479
REMARK INTER + INTRA:          -9.922
REMARK INTER:                  -8.215
REMARK INTRA:                  -1.707
REMARK UNBOUND:                -1.616
REMARK SMILES O=c1c(O[C@H]2O[C@@H](CO)[C@H](O)[C@H](O)[C@H]2O)c(-c2ccc(O)c(O)c2)oc2cc(O)cc(O)c12
REMARK SMILES IDX 4 1 3 2 16 3 25 4 2 5 26 6 1 7 33 8 27 9 31 10 28 11 30 12
REMARK SMILES IDX 17 13 18 14 19 15 20 16 24 17 22 18 21 19 23 21 32 23 29 25
REMARK SMILES IDX 5 27 14 28 6 29 12 30 7 31 10 32 15 33 13 35 8 37 9 38 11 40
REMARK H PARENT 21 20 23 22 32 24 29 26 15 34 13 36 9 39 11 41
REMARK Flexibility Score: inf
ROOT
ATOM      1  O   UNL     1      18.360  -0.085 -10.588  1.00  0.00    -0.454 OA
ENDROOT
BRANCH   1   2
ATOM      2  C   UNL     1      18.367  -1.270 -11.344  1.00  0.00     0.214 A 
ATOM      3  C   UNL     1      18.719  -2.517 -10.786  1.00  0.00     0.180 A 
ATOM      4  O   UNL     1      18.643  -3.622 -11.519  1.00  0.00    -0.452 OA
ATOM      5  C   UNL     1      17.985  -1.225 -12.690  1.00  0.00     0.239 A 
ATOM      6  C   UNL     1      18.259  -3.625 -12.790  1.00  0.00     0.146 A 
ATOM      7  O   UNL     1      17.705  -0.112 -13.217  1.00  0.00    -0.285 OA
ATOM      8  C   UNL     1      17.908  -2.419 -13.439  1.00  0.00     0.111 A 
ATOM      9  C   UNL     1      18.203  -4.838 -13.480  1.00  0.00     0.094 A 
ATOM     10  C   UNL     1      17.474  -2.463 -14.786  1.00  0.00     0.134 A 
ATOM     11  C   UNL     1      17.792  -4.874 -14.812  1.00  0.00     0.123 A 
ATOM     12  C   UNL     1      17.426  -3.691 -15.461  1.00  0.00     0.093 A 
BRANCH   3  13
ATOM     13  C   UNL     1      19.189  -2.641  -9.398  1.00  0.00     0.025 A 
ATOM     14  C   UNL     1      20.554  -2.549  -9.104  1.00  0.00     0.016 A 
ATOM     15  C   UNL     1      20.993  -2.626  -7.781  1.00  0.00     0.051 A 
ATOM     16  C   UNL     1      20.073  -2.808  -6.742  1.00  0.00     0.157 A 
ATOM     17  C   UNL     1      18.269  -2.858  -8.364  1.00  0.00     0.062 A 
ATOM     18  C   UNL     1      18.705  -2.931  -7.035  1.00  0.00     0.158 A 
BRANCH  16  19
ATOM     19  O   UNL     1      20.537  -2.867  -5.428  1.00  0.00    -0.504 OA
ATOM     20  H   UNL     1      20.134  -2.303  -4.689  1.00  0.00     0.293 HD
ENDBRANCH  16  19
BRANCH  18  21
ATOM     21  O   UNL     1      17.785  -3.123  -6.006  1.00  0.00    -0.504 OA
ATOM     22  H   UNL     1      16.937  -2.570  -5.939  1.00  0.00     0.293 HD
ENDBRANCH  18  21
ENDBRANCH   3  13
BRANCH  10  23
ATOM     23  O   UNL     1      17.067  -1.304 -15.444  1.00  0.00    -0.507 OA
ATOM     24  H   UNL     1      17.313  -1.126 -16.411  1.00  0.00     0.293 HD
ENDBRANCH  10  23
BRANCH  11  25
ATOM     25  O   UNL     1      17.742  -6.099 -15.476  1.00  0.00    -0.508 OA
ATOM     26  H   UNL     1      17.074  -6.270 -16.224  1.00  0.00     0.293 HD
ENDBRANCH  11  25
ENDBRANCH   1   2
BRANCH   1  27
ATOM     27  C   UNL     1      17.196   0.391  -9.904  1.00  0.00     0.339 C 
ATOM     28  C   UNL     1      16.858   1.842 -10.302  1.00  0.00     0.214 C 
ATOM     29  O   UNL     1      17.307   0.191  -8.501  1.00  0.00    -0.332 OA
ATOM     30  C   UNL     1      17.812   2.837  -9.630  1.00  0.00     0.180 C 
ATOM     31  C   UNL     1      18.171   1.104  -7.831  1.00  0.00     0.179 C 
ATOM     32  C   UNL     1      17.829   2.579  -8.120  1.00  0.00     0.177 C 
BRANCH  28  33
ATOM     33  O   UNL     1      16.926   1.976 -11.699  1.00  0.00    -0.384 OA
ATOM     34  H   UNL     1      16.738   2.926 -11.910  1.00  0.00     0.211 HD
ENDBRANCH  28  33
BRANCH  30  35
ATOM     35  O   UNL     1      17.388   4.154  -9.872  1.00  0.00    -0.387 OA
ATOM     36  H   UNL     1      16.901   4.152 -10.742  1.00  0.00     0.211 HD
ENDBRANCH  30  35
BRANCH  31  37
ATOM     37  C   UNL     1      19.669   0.782  -8.023  1.00  0.00     0.191 C 
BRANCH  37  38
ATOM     38  O   UNL     1      20.329   0.741  -6.788  1.00  0.00    -0.394 OA
ATOM     39  H   UNL     1      20.961  -0.024  -6.828  1.00  0.00     0.210 HD
ENDBRANCH  37  38
ENDBRANCH  31  37
BRANCH  32  40
ATOM     40  O   UNL     1      16.567   2.870  -7.567  1.00  0.00    -0.387 OA
ATOM     41  H   UNL     1      16.538   3.849  -7.403  1.00  0.00     0.211 HD
ENDBRANCH  32  40
ENDBRANCH   1  27
TORSDOF 12
ENDMDL
MODEL 6
REMARK VINA RESULT:    -5.659      3.113      8.457
REMARK INTER + INTRA:          -9.921
REMARK INTER:                  -9.030
REMARK INTRA:                  -0.891
REMARK UNBOUND:                -1.616
REMARK SMILES O=c1c(O[C@H]2O[C@@H](CO)[C@H](O)[C@H](O)[C@H]2O)c(-c2ccc(O)c(O)c2)oc2cc(O)cc(O)c12
REMARK SMILES IDX 4 1 3 2 16 3 25 4 2 5 26 6 1 7 33 8 27 9 31 10 28 11 30 12
REMARK SMILES IDX 17 13 18 14 19 15 20 16 24 17 22 18 21 19 23 21 32 23 29 25
REMARK SMILES IDX 5 27 14 28 6 29 12 30 7 31 10 32 15 33 13 35 8 37 9 38 11 40
REMARK H PARENT 21 20 23 22 32 24 29 26 15 34 13 36 9 39 11 41
REMARK Flexibility Score: inf
ROOT
ATOM      1  O   UNL     1      16.733  -3.342 -13.930  1.00  0.00    -0.454 OA
ENDROOT
BRANCH   1   2
ATOM      2  C   UNL     1      17.415  -3.131 -15.141  1.00  0.00     0.214 A 
ATOM      3  C   UNL     1      17.631  -4.165 -16.074  1.00  0.00     0.180 A 
ATOM      4  O   UNL     1      18.217  -3.904 -17.237  1.00  0.00    -0.452 OA
ATOM      5  C   UNL     1      17.875  -1.845 -15.450  1.00  0.00     0.239 A 
ATOM      6  C   UNL     1      18.642  -2.694 -17.581  1.00  0.00     0.146 A 
ATOM      7  O   UNL     1      17.726  -0.915 -14.610  1.00  0.00    -0.285 OA
ATOM      8  C   UNL     1      18.488  -1.600 -16.698  1.00  0.00     0.111 A 
ATOM      9  C   UNL     1      19.242  -2.513 -18.829  1.00  0.00     0.094 A 
ATOM     10  C   UNL     1      18.924  -0.317 -17.109  1.00  0.00     0.134 A 
ATOM     11  C   UNL     1      19.687  -1.251 -19.222  1.00  0.00     0.123 A 
ATOM     12  C   UNL     1      19.526  -0.157 -18.366  1.00  0.00     0.093 A 
BRANCH   3  13
ATOM     13  C   UNL     1      17.233  -5.554 -15.799  1.00  0.00     0.025 A 
ATOM     14  C   UNL     1      18.128  -6.435 -15.181  1.00  0.00     0.016 A 
ATOM     15  C   UNL     1      17.733  -7.740 -14.884  1.00  0.00     0.051 A 
ATOM     16  C   UNL     1      16.447  -8.181 -15.213  1.00  0.00     0.157 A 
ATOM     17  C   UNL     1      15.956  -6.002 -16.161  1.00  0.00     0.062 A 
ATOM     18  C   UNL     1      15.555  -7.310 -15.860  1.00  0.00     0.158 A 
BRANCH  16  19
ATOM     19  O   UNL     1      16.074  -9.486 -14.891  1.00  0.00    -0.504 OA
ATOM     20  H   UNL     1      16.439  -9.964 -14.075  1.00  0.00     0.293 HD
ENDBRANCH  16  19
BRANCH  18  21
ATOM     21  O   UNL     1      14.276  -7.746 -16.201  1.00  0.00    -0.504 OA
ATOM     22  H   UNL     1      14.014  -8.724 -16.146  1.00  0.00     0.293 HD
ENDBRANCH  18  21
ENDBRANCH   3  13
BRANCH  10  23
ATOM     23  O   UNL     1      18.741   0.797 -16.292  1.00  0.00    -0.507 OA
ATOM     24  H   UNL     1      18.925   1.737 -16.624  1.00  0.00     0.293 HD
ENDBRANCH  10  23
BRANCH  11  25
ATOM     25  O   UNL     1      20.280  -1.098 -20.474  1.00  0.00    -0.508 OA
ATOM     26  H   UNL     1      20.219  -0.222 -20.987  1.00  0.00     0.293 HD
ENDBRANCH  11  25
ENDBRANCH   1   2
BRANCH   1  27
ATOM     27  C   UNL     1      17.149  -4.315 -12.966  1.00  0.00     0.339 C 
ATOM     28  C   UNL     1      15.945  -4.925 -12.220  1.00  0.00     0.214 C 
ATOM     29  O   UNL     1      18.152  -3.788 -12.106  1.00  0.00    -0.332 OA
ATOM     30  C   UNL     1      15.386  -3.949 -11.178  1.00  0.00     0.180 C 
ATOM     31  C   UNL     1      17.676  -2.888 -11.109  1.00  0.00     0.179 C 
ATOM     32  C   UNL     1      16.524  -3.475 -10.269  1.00  0.00     0.177 C 
BRANCH  28  33
ATOM     33  O   UNL     1      14.944  -5.271 -13.144  1.00  0.00    -0.384 OA
ATOM     34  H   UNL     1      14.844  -6.257 -13.107  1.00  0.00     0.211 HD
ENDBRANCH  28  33
BRANCH  30  35
ATOM     35  O   UNL     1      14.402  -4.581 -10.401  1.00  0.00    -0.387 OA
ATOM     36  H   UNL     1      13.717  -4.943 -11.028  1.00  0.00     0.211 HD
ENDBRANCH  30  35
BRANCH  31  37
ATOM     37  C   UNL     1      17.366  -1.478 -11.657  1.00  0.00     0.191 C 
BRANCH  37  38
ATOM     38  O   UNL     1      18.550  -0.790 -11.951  1.00  0.00    -0.394 OA
ATOM     39  H   UNL     1      19.299  -1.397 -11.712  1.00  0.00     0.210 HD
ENDBRANCH  37  38
ENDBRANCH  31  37
BRANCH  32  40
ATOM     40  O   UNL     1      17.019  -4.555  -9.512  1.00  0.00    -0.387 OA
ATOM     41  H   UNL     1      16.412  -4.669  -8.734  1.00  0.00     0.211 HD
ENDBRANCH  32  40
ENDBRANCH   1  27
TORSDOF 12
ENDMDL
MODEL 7
REMARK VINA RESULT:    -5.588      5.348     10.132
REMARK INTER + INTRA:          -9.817
REMARK INTER:                  -8.223
REMARK INTRA:                  -1.595
REMARK UNBOUND:                -1.616
REMARK SMILES O=c1c(O[C@H]2O[C@@H](CO)[C@H](O)[C@H](O)[C@H]2O)c(-c2ccc(O)c(O)c2)oc2cc(O)cc(O)c12
REMARK SMILES IDX 4 1 3 2 16 3 25 4 2 5 26 6 1 7 33 8 27 9 31 10 28 11 30 12
REMARK SMILES IDX 17 13 18 14 19 15 20 16 24 17 22 18 21 19 23 21 32 23 29 25
REMARK SMILES IDX 5 27 14 28 6 29 12 30 7 31 10 32 15 33 13 35 8 37 9 38 11 40
REMARK H PARENT 21 20 23 22 32 24 29 26 15 34 13 36 9 39 11 41
REMARK Flexibility Score: inf
ROOT
ATOM      1  O   UNL     1      18.068  -0.045  -8.834  1.00  0.00    -0.454 OA
ENDROOT
BRANCH   1   2
ATOM      2  C   UNL     1      18.740   1.112  -8.405  1.00  0.00     0.214 A 
ATOM      3  C   UNL     1      20.076   1.084  -7.955  1.00  0.00     0.180 A 
ATOM      4  O   UNL     1      20.694   2.213  -7.627  1.00  0.00    -0.452 OA
ATOM      5  C   UNL     1      18.076   2.344  -8.451  1.00  0.00     0.239 A 
ATOM      6  C   UNL     1      20.109   3.404  -7.682  1.00  0.00     0.146 A 
ATOM      7  O   UNL     1      16.867   2.384  -8.813  1.00  0.00    -0.285 OA
ATOM      8  C   UNL     1      18.764   3.526  -8.102  1.00  0.00     0.111 A 
ATOM      9  C   UNL     1      20.841   4.539  -7.324  1.00  0.00     0.094 A 
ATOM     10  C   UNL     1      18.182   4.814  -8.179  1.00  0.00     0.134 A 
ATOM     11  C   UNL     1      20.257   5.803  -7.384  1.00  0.00     0.123 A 
ATOM     12  C   UNL     1      18.933   5.941  -7.812  1.00  0.00     0.093 A 
BRANCH   3  13
ATOM     13  C   UNL     1      20.823  -0.175  -7.820  1.00  0.00     0.025 A 
ATOM     14  C   UNL     1      21.811  -0.513  -8.751  1.00  0.00     0.016 A 
ATOM     15  C   UNL     1      22.545  -1.690  -8.597  1.00  0.00     0.051 A 
ATOM     16  C   UNL     1      22.291  -2.545  -7.519  1.00  0.00     0.157 A 
ATOM     17  C   UNL     1      20.541  -1.046  -6.759  1.00  0.00     0.062 A 
ATOM     18  C   UNL     1      21.280  -2.226  -6.599  1.00  0.00     0.158 A 
BRANCH  16  19
ATOM     19  O   UNL     1      23.050  -3.707  -7.382  1.00  0.00    -0.504 OA
ATOM     20  H   UNL     1      22.938  -4.500  -8.004  1.00  0.00     0.293 HD
ENDBRANCH  16  19
BRANCH  18  21
ATOM     21  O   UNL     1      21.014  -3.078  -5.529  1.00  0.00    -0.504 OA
ATOM     22  H   UNL     1      20.323  -3.819  -5.597  1.00  0.00     0.293 HD
ENDBRANCH  18  21
ENDBRANCH   3  13
BRANCH  10  23
ATOM     23  O   UNL     1      16.877   4.983  -8.640  1.00  0.00    -0.507 OA
ATOM     24  H   UNL     1      16.302   4.194  -8.912  1.00  0.00     0.293 HD
ENDBRANCH  10  23
BRANCH  11  25
ATOM     25  O   UNL     1      21.011   6.919  -7.023  1.00  0.00    -0.508 OA
ATOM     26  H   UNL     1      21.523   6.952  -6.146  1.00  0.00     0.293 HD
ENDBRANCH  11  25
ENDBRANCH   1   2
BRANCH   1  27
ATOM     27  C   UNL     1      18.282  -0.634 -10.122  1.00  0.00     0.339 C 
ATOM     28  C   UNL     1      16.986  -0.661 -10.956  1.00  0.00     0.214 C 
ATOM     29  O   UNL     1      18.920  -1.900 -10.008  1.00  0.00    -0.332 OA
ATOM     30  C   UNL     1      16.039  -1.766 -10.471  1.00  0.00     0.180 C 
ATOM     31  C   UNL     1      18.074  -2.961  -9.577  1.00  0.00     0.179 C 
ATOM     32  C   UNL     1      16.796  -3.097 -10.428  1.00  0.00     0.177 C 
BRANCH  28  33
ATOM     33  O   UNL     1      16.349   0.589 -10.879  1.00  0.00    -0.384 OA
ATOM     34  H   UNL     1      15.372   0.420 -10.914  1.00  0.00     0.211 HD
ENDBRANCH  28  33
BRANCH  30  35
ATOM     35  O   UNL     1      14.944  -1.882 -11.342  1.00  0.00    -0.387 OA
ATOM     36  H   UNL     1      15.215  -1.481 -12.214  1.00  0.00     0.211 HD
ENDBRANCH  30  35
BRANCH  31  37
ATOM     37  C   UNL     1      17.789  -2.937  -8.058  1.00  0.00     0.191 C 
BRANCH  37  38
ATOM     38  O   UNL     1      18.175  -4.145  -7.463  1.00  0.00    -0.394 OA
ATOM     39  H   UNL     1      18.366  -3.945  -6.510  1.00  0.00     0.210 HD
ENDBRANCH  37  38
ENDBRANCH  31  37
BRANCH  32  40
ATOM     40  O   UNL     1      17.158  -3.488 -11.732  1.00  0.00    -0.387 OA
ATOM     41  H   UNL     1      16.321  -3.551 -12.261  1.00  0.00     0.211 HD
ENDBRANCH  32  40
ENDBRANCH   1  27
TORSDOF 12
ENDMDL
MODEL 8
REMARK VINA RESULT:    -5.533      3.679      7.991
REMARK INTER + INTRA:          -9.736
REMARK INTER:                  -8.051
REMARK INTRA:                  -1.685
REMARK UNBOUND:                -1.616
REMARK SMILES O=c1c(O[C@H]2O[C@@H](CO)[C@H](O)[C@H](O)[C@H]2O)c(-c2ccc(O)c(O)c2)oc2cc(O)cc(O)c12
REMARK SMILES IDX 4 1 3 2 16 3 25 4 2 5 26 6 1 7 33 8 27 9 31 10 28 11 30 12
REMARK SMILES IDX 17 13 18 14 19 15 20 16 24 17 22 18 21 19 23 21 32 23 29 25
REMARK SMILES IDX 5 27 14 28 6 29 12 30 7 31 10 32 15 33 13 35 8 37 9 38 11 40
REMARK H PARENT 21 20 23 22 32 24 29 26 15 34 13 36 9 39 11 41
REMARK Flexibility Score: inf
ROOT
ATOM      1  O   UNL     1      16.848  -0.820 -11.233  1.00  0.00    -0.454 OA
ENDROOT
BRANCH   1   2
ATOM      2  C   UNL     1      15.981  -0.162 -12.123  1.00  0.00     0.214 A 
ATOM      3  C   UNL     1      15.543  -0.756 -13.325  1.00  0.00     0.180 A 
ATOM      4  O   UNL     1      14.667  -0.127 -14.100  1.00  0.00    -0.452 OA
ATOM      5  C   UNL     1      15.508   1.115 -11.798  1.00  0.00     0.239 A 
ATOM      6  C   UNL     1      14.173   1.073 -13.813  1.00  0.00     0.146 A 
ATOM      7  O   UNL     1      15.920   1.679 -10.746  1.00  0.00    -0.285 OA
ATOM      8  C   UNL     1      14.573   1.753 -12.640  1.00  0.00     0.111 A 
ATOM      9  C   UNL     1      13.251   1.655 -14.686  1.00  0.00     0.094 A 
ATOM     10  C   UNL     1      14.003   3.017 -12.350  1.00  0.00     0.134 A 
ATOM     11  C   UNL     1      12.706   2.907 -14.406  1.00  0.00     0.123 A 
ATOM     12  C   UNL     1      13.080   3.585 -13.240  1.00  0.00     0.093 A 
BRANCH   3  13
ATOM     13  C   UNL     1      16.039  -2.067 -13.768  1.00  0.00     0.025 A 
ATOM     14  C   UNL     1      17.152  -2.153 -14.610  1.00  0.00     0.016 A 
ATOM     15  C   UNL     1      17.645  -3.401 -14.996  1.00  0.00     0.051 A 
ATOM     16  C   UNL     1      17.022  -4.573 -14.553  1.00  0.00     0.157 A 
ATOM     17  C   UNL     1      15.391  -3.238 -13.352  1.00  0.00     0.062 A 
ATOM     18  C   UNL     1      15.886  -4.492 -13.733  1.00  0.00     0.158 A 
BRANCH  16  19
ATOM     19  O   UNL     1      17.544  -5.807 -14.942  1.00  0.00    -0.504 OA
ATOM     20  H   UNL     1      17.001  -6.661 -14.890  1.00  0.00     0.293 HD
ENDBRANCH  16  19
BRANCH  18  21
ATOM     21  O   UNL     1      15.253  -5.655 -13.297  1.00  0.00    -0.504 OA
ATOM     22  H   UNL     1      14.686  -5.671 -12.456  1.00  0.00     0.293 HD
ENDBRANCH  18  21
ENDBRANCH   3  13
BRANCH  10  23
ATOM     23  O   UNL     1      14.327   3.696 -11.177  1.00  0.00    -0.507 OA
ATOM     24  H   UNL     1      13.829   4.530 -10.889  1.00  0.00     0.293 HD
ENDBRANCH  10  23
BRANCH  11  25
ATOM     25  O   UNL     1      11.786   3.463 -15.292  1.00  0.00    -0.508 OA
ATOM     26  H   UNL     1      11.975   3.518 -16.289  1.00  0.00     0.293 HD
ENDBRANCH  11  25
ENDBRANCH   1   2
BRANCH   1  27
ATOM     27  C   UNL     1      16.379  -1.643 -10.160  1.00  0.00     0.339 C 
ATOM     28  C   UNL     1      16.971  -1.201  -8.806  1.00  0.00     0.214 C 
ATOM     29  O   UNL     1      16.571  -3.022 -10.449  1.00  0.00    -0.332 OA
ATOM     30  C   UNL     1      18.433  -1.642  -8.671  1.00  0.00     0.180 C 
ATOM     31  C   UNL     1      17.913  -3.481 -10.319  1.00  0.00     0.179 C 
ATOM     32  C   UNL     1      18.535  -3.145  -8.949  1.00  0.00     0.177 C 
BRANCH  28  33
ATOM     33  O   UNL     1      16.874   0.195  -8.683  1.00  0.00    -0.384 OA
ATOM     34  H   UNL     1      16.556   0.384  -7.762  1.00  0.00     0.211 HD
ENDBRANCH  28  33
BRANCH  30  35
ATOM     35  O   UNL     1      18.901  -1.376  -7.373  1.00  0.00    -0.387 OA
ATOM     36  H   UNL     1      18.183  -1.651  -6.738  1.00  0.00     0.211 HD
ENDBRANCH  30  35
BRANCH  31  37
ATOM     37  C   UNL     1      18.815  -3.078 -11.508  1.00  0.00     0.191 C 
BRANCH  37  38
ATOM     38  O   UNL     1      19.509  -4.190 -12.001  1.00  0.00    -0.394 OA
ATOM     39  H   UNL     1      20.113  -3.855 -12.714  1.00  0.00     0.210 HD
ENDBRANCH  37  38
ENDBRANCH  31  37
BRANCH  32  40
ATOM     40  O   UNL     1      17.854  -3.868  -7.951  1.00  0.00    -0.387 OA
ATOM     41  H   UNL     1      17.094  -4.331  -8.392  1.00  0.00     0.211 HD
ENDBRANCH  32  40
ENDBRANCH   1  27
TORSDOF 12
ENDMDL
MODEL 9
REMARK VINA RESULT:    -5.461      3.421      8.366
REMARK INTER + INTRA:          -9.631
REMARK INTER:                  -8.104
REMARK INTRA:                  -1.527
REMARK UNBOUND:                -1.616
REMARK SMILES O=c1c(O[C@H]2O[C@@H](CO)[C@H](O)[C@H](O)[C@H]2O)c(-c2ccc(O)c(O)c2)oc2cc(O)cc(O)c12
REMARK SMILES IDX 4 1 3 2 16 3 25 4 2 5 26 6 1 7 33 8 27 9 31 10 28 11 30 12
REMARK SMILES IDX 17 13 18 14 19 15 20 16 24 17 22 18 21 19 23 21 32 23 29 25
REMARK SMILES IDX 5 27 14 28 6 29 12 30 7 31 10 32 15 33 13 35 8 37 9 38 11 40
REMARK H PARENT 21 20 23 22 32 24 29 26 15 34 13 36 9 39 11 41
REMARK Flexibility Score: inf
ROOT
ATOM      1  O   UNL     1      15.330  -0.915 -10.968  1.00  0.00    -0.454 OA
ENDROOT
BRANCH   1   2
ATOM      2  C   UNL     1      16.606  -1.265 -10.495  1.00  0.00     0.214 A 
ATOM      3  C   UNL     1      17.367  -2.300 -11.076  1.00  0.00     0.180 A 
ATOM      4  O   UNL     1      18.598  -2.548 -10.643  1.00  0.00    -0.452 OA
ATOM      5  C   UNL     1      17.160  -0.547  -9.428  1.00  0.00     0.239 A 
ATOM      6  C   UNL     1      19.169  -1.872  -9.653  1.00  0.00     0.146 A 
ATOM      7  O   UNL     1      16.478   0.357  -8.869  1.00  0.00    -0.285 OA
ATOM      8  C   UNL     1      18.473  -0.832  -8.996  1.00  0.00     0.111 A 
ATOM      9  C   UNL     1      20.472  -2.201  -9.268  1.00  0.00     0.094 A 
ATOM     10  C   UNL     1      19.124  -0.112  -7.965  1.00  0.00     0.134 A 
ATOM     11  C   UNL     1      21.102  -1.500  -8.241  1.00  0.00     0.123 A 
ATOM     12  C   UNL     1      20.432  -0.458  -7.593  1.00  0.00     0.093 A 
BRANCH   3  13
ATOM     13  C   UNL     1      16.835  -3.140 -12.159  1.00  0.00     0.025 A 
ATOM     14  C   UNL     1      17.110  -2.828 -13.495  1.00  0.00     0.016 A 
ATOM     15  C   UNL     1      16.636  -3.650 -14.519  1.00  0.00     0.051 A 
ATOM     16  C   UNL     1      15.874  -4.784 -14.217  1.00  0.00     0.157 A 
ATOM     17  C   UNL     1      16.042  -4.255 -11.856  1.00  0.00     0.062 A 
ATOM     18  C   UNL     1      15.570  -5.085 -12.880  1.00  0.00     0.158 A 
BRANCH  16  19
ATOM     19  O   UNL     1      15.427  -5.597 -15.259  1.00  0.00    -0.504 OA
ATOM     20  H   UNL     1      15.259  -6.589 -15.133  1.00  0.00     0.293 HD
ENDBRANCH  16  19
BRANCH  18  21
ATOM     21  O   UNL     1      14.802  -6.207 -12.573  1.00  0.00    -0.504 OA
ATOM     22  H   UNL     1      15.106  -6.889 -11.886  1.00  0.00     0.293 HD
ENDBRANCH  18  21
ENDBRANCH   3  13
BRANCH  10  23
ATOM     23  O   UNL     1      18.493   0.957  -7.331  1.00  0.00    -0.507 OA
ATOM     24  H   UNL     1      17.533   0.896  -7.012  1.00  0.00     0.293 HD
ENDBRANCH  10  23
BRANCH  11  25
ATOM     25  O   UNL     1      22.403  -1.846  -7.879  1.00  0.00    -0.508 OA
ATOM     26  H   UNL     1      22.944  -2.516  -8.420  1.00  0.00     0.293 HD
ENDBRANCH  11  25
ENDBRANCH   1   2
BRANCH   1  27
ATOM     27  C   UNL     1      15.122   0.092 -11.965  1.00  0.00     0.339 C 
ATOM     28  C   UNL     1      14.120   1.163 -11.489  1.00  0.00     0.214 C 
ATOM     29  O   UNL     1      14.789  -0.490 -13.220  1.00  0.00    -0.332 OA
ATOM     30  C   UNL     1      12.681   0.637 -11.541  1.00  0.00     0.180 C 
ATOM     31  C   UNL     1      13.455  -0.977 -13.321  1.00  0.00     0.179 C 
ATOM     32  C   UNL     1      12.398   0.079 -12.939  1.00  0.00     0.177 C 
BRANCH  28  33
ATOM     33  O   UNL     1      14.442   1.561 -10.180  1.00  0.00    -0.384 OA
ATOM     34  H   UNL     1      13.591   1.805  -9.734  1.00  0.00     0.211 HD
ENDBRANCH  28  33
BRANCH  30  35
ATOM     35  O   UNL     1      11.776   1.675 -11.263  1.00  0.00    -0.387 OA
ATOM     36  H   UNL     1      11.057   1.293 -10.687  1.00  0.00     0.211 HD
ENDBRANCH  30  35
BRANCH  31  37
ATOM     37  C   UNL     1      13.242  -2.330 -12.606  1.00  0.00     0.191 C 
BRANCH  37  38
ATOM     38  O   UNL     1      11.907  -2.476 -12.210  1.00  0.00    -0.394 OA
ATOM     39  H   UNL     1      11.416  -2.844 -12.991  1.00  0.00     0.210 HD
ENDBRANCH  37  38
ENDBRANCH  31  37
BRANCH  32  40
ATOM     40  O   UNL     1      12.430   1.118 -13.889  1.00  0.00    -0.387 OA
ATOM     41  H   UNL     1      11.767   1.798 -13.601  1.00  0.00     0.211 HD
ENDBRANCH  32  40
ENDBRANCH   1  27
TORSDOF 12
ENDMDL
