MODEL 1
REMARK VINA RESULT:    -3.813      0.000      0.000
REMARK INTER + INTRA:          -4.264
REMARK INTER:                  -4.259
REMARK INTRA:                  -0.006
REMARK UNBOUND:                -0.006
REMARK SMILES CCCC(=O)[O-]
REMARK SMILES IDX 3 1 4 2 5 3 6 4 2 5 1 6
REMARK H PARENT
REMARK Flexibility Score: inf
ROOT
ATOM      1  C   UNL     1      -5.139   1.501  -1.506  1.00  0.00     0.052 C 
ENDROOT
BRANCH   1   2
ATOM      2  C   UNL     1      -5.314   1.468  -2.992  1.00  0.00     0.041 C 
ATOM      3  O   UNL     1      -4.314   1.325  -3.745  1.00  0.00    -0.550 OA
ATOM      4  O   UNL     1      -6.586   1.546  -3.544  1.00  0.00    -0.550 OA
ENDBRANCH   1   2
BRANCH   1   5
ATOM      5  C   UNL     1      -5.774   2.764  -0.919  1.00  0.00     0.003 C 
ATOM      6  C   UNL     1      -5.506   2.870   0.578  1.00  0.00     0.004 C 
ENDBRANCH   1   5
TORSDOF 2
ENDMDL
MODEL 2
REMARK VINA RESULT:    -3.695      0.129      1.329
REMARK INTER + INTRA:          -4.133
REMARK INTER:                  -4.127
REMARK INTRA:                  -0.007
REMARK UNBOUND:                -0.006
REMARK SMILES CCCC(=O)[O-]
REMARK SMILES IDX 3 1 4 2 5 3 6 4 2 5 1 6
REMARK H PARENT
REMARK Flexibility Score: inf
ROOT
ATOM      1  C   UNL     1      -5.259   1.564  -1.455  1.00  0.00     0.052 C 
ENDROOT
BRANCH   1   2
ATOM      2  C   UNL     1      -5.405   1.500  -2.943  1.00  0.00     0.041 C 
ATOM      3  O   UNL     1      -6.542   1.605  -3.474  1.00  0.00    -0.550 OA
ATOM      4  O   UNL     1      -4.279   1.374  -3.747  1.00  0.00    -0.550 OA
ENDBRANCH   1   2
BRANCH   1   5
ATOM      5  C   UNL     1      -5.722   2.925  -0.929  1.00  0.00     0.003 C 
ATOM      6  C   UNL     1      -5.592   3.002   0.588  1.00  0.00     0.004 C 
ENDBRANCH   1   5
TORSDOF 2
ENDMDL
MODEL 3
REMARK VINA RESULT:    -2.883     12.194     12.692
REMARK INTER + INTRA:          -3.226
REMARK INTER:                  -3.210
REMARK INTRA:                  -0.017
REMARK UNBOUND:                -0.006
REMARK SMILES CCCC(=O)[O-]
REMARK SMILES IDX 3 1 4 2 5 3 6 4 2 5 1 6
REMARK H PARENT
REMARK Flexibility Score: inf
ROOT
ATOM      1  C   UNL     1       5.643   8.442  -3.596  1.00  0.00     0.052 C 
ENDROOT
BRANCH   1   2
ATOM      2  C   UNL     1       5.795   7.032  -3.121  1.00  0.00     0.041 C 
ATOM      3  O   UNL     1       4.824   6.436  -2.583  1.00  0.00    -0.550 OA
ATOM      4  O   UNL     1       6.993   6.357  -3.315  1.00  0.00    -0.550 OA
ENDBRANCH   1   2
BRANCH   1   5
ATOM      5  C   UNL     1       4.289   8.634  -4.283  1.00  0.00     0.003 C 
ATOM      6  C   UNL     1       4.462   9.088  -5.728  1.00  0.00     0.004 C 
ENDBRANCH   1   5
TORSDOF 2
ENDMDL
MODEL 4
REMARK VINA RESULT:    -2.864      2.979      3.732
REMARK INTER + INTRA:          -3.205
REMARK INTER:                  -3.182
REMARK INTRA:                  -0.022
REMARK UNBOUND:                -0.006
REMARK SMILES CCCC(=O)[O-]
REMARK SMILES IDX 3 1 4 2 5 3 6 4 2 5 1 6
REMARK H PARENT
REMARK Flexibility Score: inf
ROOT
ATOM      1  C   UNL     1      -5.374   1.672  -0.587  1.00  0.00     0.052 C 
ENDROOT
BRANCH   1   2
ATOM      2  C   UNL     1      -5.260   2.801   0.388  1.00  0.00     0.041 C 
ATOM      3  O   UNL     1      -5.138   3.985  -0.024  1.00  0.00    -0.550 OA
ATOM      4  O   UNL     1      -5.337   2.551   1.752  1.00  0.00    -0.550 OA
ENDBRANCH   1   2
BRANCH   1   5
ATOM      5  C   UNL     1      -5.661   2.205  -1.993  1.00  0.00     0.003 C 
ATOM      6  C   UNL     1      -4.939   1.380  -3.053  1.00  0.00     0.004 C 
ENDBRANCH   1   5
TORSDOF 2
ENDMDL
MODEL 5
REMARK VINA RESULT:    -2.848      2.932      3.585
REMARK INTER + INTRA:          -3.187
REMARK INTER:                  -3.157
REMARK INTRA:                  -0.030
REMARK UNBOUND:                -0.006
REMARK SMILES CCCC(=O)[O-]
REMARK SMILES IDX 3 1 4 2 5 3 6 4 2 5 1 6
REMARK H PARENT
REMARK Flexibility Score: inf
ROOT
ATOM      1  C   UNL     1      -5.763   2.989  -0.641  1.00  0.00     0.052 C 
ENDROOT
BRANCH   1   2
ATOM      2  C   UNL     1      -5.290   2.097   0.463  1.00  0.00     0.041 C 
ATOM      3  O   UNL     1      -4.743   0.994   0.197  1.00  0.00    -0.550 OA
ATOM      4  O   UNL     1      -5.407   2.506   1.786  1.00  0.00    -0.550 OA
ENDBRANCH   1   2
BRANCH   1   5
ATOM      5  C   UNL     1      -5.585   2.304  -1.998  1.00  0.00     0.003 C 
ATOM      6  C   UNL     1      -6.908   2.221  -2.751  1.00  0.00     0.004 C 
ENDBRANCH   1   5
TORSDOF 2
ENDMDL
MODEL 6
REMARK VINA RESULT:    -2.833     12.453     12.896
REMARK INTER + INTRA:          -3.170
REMARK INTER:                  -3.102
REMARK INTRA:                  -0.068
REMARK UNBOUND:                -0.006
REMARK SMILES CCCC(=O)[O-]
REMARK SMILES IDX 3 1 4 2 5 3 6 4 2 5 1 6
REMARK H PARENT
REMARK Flexibility Score: inf
ROOT
ATOM      1  C   UNL     1       4.877   7.096  -2.956  1.00  0.00     0.052 C 
ENDROOT
BRANCH   1   2
ATOM      2  C   UNL     1       6.361   7.202  -2.807  1.00  0.00     0.041 C 
ATOM      3  O   UNL     1       7.115   6.344  -3.339  1.00  0.00    -0.550 OA
ATOM      4  O   UNL     1       6.917   8.275  -2.122  1.00  0.00    -0.550 OA
ENDBRANCH   1   2
BRANCH   1   5
ATOM      5  C   UNL     1       4.295   8.413  -3.476  1.00  0.00     0.003 C 
ATOM      6  C   UNL     1       4.761   8.698  -4.900  1.00  0.00     0.004 C 
ENDBRANCH   1   5
TORSDOF 2
ENDMDL
MODEL 7
REMARK VINA RESULT:    -2.723     13.235     13.636
REMARK INTER + INTRA:          -3.047
REMARK INTER:                  -3.038
REMARK INTRA:                  -0.008
REMARK UNBOUND:                -0.006
REMARK SMILES CCCC(=O)[O-]
REMARK SMILES IDX 3 1 4 2 5 3 6 4 2 5 1 6
REMARK H PARENT
REMARK Flexibility Score: inf
ROOT
ATOM      1  C   UNL     1       6.480   8.302  -2.169  1.00  0.00     0.052 C 
ENDROOT
BRANCH   1   2
ATOM      2  C   UNL     1       6.328   6.985  -2.863  1.00  0.00     0.041 C 
ATOM      3  O   UNL     1       5.184   6.493  -3.046  1.00  0.00    -0.550 OA
ATOM      4  O   UNL     1       7.448   6.325  -3.353  1.00  0.00    -0.550 OA
ENDBRANCH   1   2
BRANCH   1   5
ATOM      5  C   UNL     1       7.809   8.359  -1.412  1.00  0.00     0.003 C 
ATOM      6  C   UNL     1       7.687   9.204  -0.148  1.00  0.00     0.004 C 
ENDBRANCH   1   5
TORSDOF 2
ENDMDL
MODEL 8
REMARK VINA RESULT:    -2.477     12.116     12.490
REMARK INTER + INTRA:          -2.773
REMARK INTER:                  -2.736
REMARK INTRA:                  -0.036
REMARK UNBOUND:                -0.006
REMARK SMILES CCCC(=O)[O-]
REMARK SMILES IDX 3 1 4 2 5 3 6 4 2 5 1 6
REMARK H PARENT
REMARK Flexibility Score: inf
ROOT
ATOM      1  C   UNL     1       4.117   8.877  -3.935  1.00  0.00     0.052 C 
ENDROOT
BRANCH   1   2
ATOM      2  C   UNL     1       4.480   8.884  -5.386  1.00  0.00     0.041 C 
ATOM      3  O   UNL     1       3.635   9.241  -6.249  1.00  0.00    -0.550 OA
ATOM      4  O   UNL     1       5.767   8.545  -5.782  1.00  0.00    -0.550 OA
ENDBRANCH   1   2
BRANCH   1   5
ATOM      5  C   UNL     1       5.259   8.294  -3.099  1.00  0.00     0.003 C 
ATOM      6  C   UNL     1       5.014   6.823  -2.781  1.00  0.00     0.004 C 
ENDBRANCH   1   5
TORSDOF 2
ENDMDL
MODEL 9
REMARK VINA RESULT:    -2.426     13.534     13.900
REMARK INTER + INTRA:          -2.715
REMARK INTER:                  -2.653
REMARK INTRA:                  -0.063
REMARK UNBOUND:                -0.006
REMARK SMILES CCCC(=O)[O-]
REMARK SMILES IDX 3 1 4 2 5 3 6 4 2 5 1 6
REMARK H PARENT
REMARK Flexibility Score: inf
ROOT
ATOM      1  C   UNL     1       7.044   8.026  -2.041  1.00  0.00     0.052 C 
ENDROOT
BRANCH   1   2
ATOM      2  C   UNL     1       6.316   7.443  -3.210  1.00  0.00     0.041 C 
ATOM      3  O   UNL     1       6.495   7.909  -4.366  1.00  0.00    -0.550 OA
ATOM      4  O   UNL     1       5.476   6.351  -3.032  1.00  0.00    -0.550 OA
ENDBRANCH   1   2
BRANCH   1   5
ATOM      5  C   UNL     1       8.557   7.957  -2.262  1.00  0.00     0.003 C 
ATOM      6  C   UNL     1       9.029   6.513  -2.392  1.00  0.00     0.004 C 
ENDBRANCH   1   5
TORSDOF 2
ENDMDL
