MODEL 1
REMARK VINA RESULT:    -5.184      0.000      0.000
REMARK INTER + INTRA:          -5.994
REMARK INTER:                  -5.790
REMARK INTRA:                  -0.204
REMARK UNBOUND:                -0.204
REMARK SMILES CC(C)c1ccc(C(=O)[O-])cc1
REMARK SMILES IDX 7 1 6 2 11 3 5 4 12 5 4 6 8 7 9 8 10 9 2 10 1 11 3 12
REMARK H PARENT
REMARK Flexibility Score: inf
ROOT
ATOM      1  C   UNL     1      -5.983  15.443  11.126  1.00  0.00    -0.003 A 
ATOM      2  C   UNL     1      -6.739  14.492  10.418  1.00  0.00     0.010 A 
ATOM      3  C   UNL     1      -4.582  15.349  11.108  1.00  0.00     0.010 A 
ATOM      4  C   UNL     1      -6.106  13.470   9.708  1.00  0.00     0.004 A 
ATOM      5  C   UNL     1      -3.949  14.324  10.398  1.00  0.00     0.004 A 
ATOM      6  C   UNL     1      -4.702  13.374   9.690  1.00  0.00    -0.045 A 
ENDROOT
BRANCH   1   7
ATOM      7  C   UNL     1      -6.649  16.529  11.880  1.00  0.00     0.071 C 
ATOM      8  O   UNL     1      -7.665  17.106  11.409  1.00  0.00    -0.545 OA
ATOM      9  O   UNL     1      -6.163  16.928  13.119  1.00  0.00    -0.545 OA
ENDBRANCH   1   7
BRANCH   6  10
ATOM     10  C   UNL     1      -4.002  12.268   8.922  1.00  0.00     0.013 C 
ATOM     11  C   UNL     1      -4.213  10.908   9.598  1.00  0.00     0.012 C 
ATOM     12  C   UNL     1      -4.460  12.234   7.460  1.00  0.00     0.012 C 
ENDBRANCH   6  10
TORSDOF 2
ENDMDL
MODEL 2
REMARK VINA RESULT:    -5.112      0.453      1.044
REMARK INTER + INTRA:          -5.914
REMARK INTER:                  -5.700
REMARK INTRA:                  -0.214
REMARK UNBOUND:                -0.204
REMARK SMILES CC(C)c1ccc(C(=O)[O-])cc1
REMARK SMILES IDX 7 1 6 2 11 3 5 4 12 5 4 6 8 7 9 8 10 9 2 10 1 11 3 12
REMARK H PARENT
REMARK Flexibility Score: inf
ROOT
ATOM      1  C   UNL     1      -5.986  15.399  11.056  1.00  0.00    -0.003 A 
ATOM      2  C   UNL     1      -6.798  14.499  10.345  1.00  0.00     0.010 A 
ATOM      3  C   UNL     1      -4.592  15.230  11.025  1.00  0.00     0.010 A 
ATOM      4  C   UNL     1      -6.227  13.452   9.617  1.00  0.00     0.004 A 
ATOM      5  C   UNL     1      -4.022  14.181  10.299  1.00  0.00     0.004 A 
ATOM      6  C   UNL     1      -4.831  13.281   9.587  1.00  0.00    -0.045 A 
ENDROOT
BRANCH   1   7
ATOM      7  C   UNL     1      -6.587  16.511  11.827  1.00  0.00     0.071 C 
ATOM      8  O   UNL     1      -7.657  17.053  11.443  1.00  0.00    -0.545 OA
ATOM      9  O   UNL     1      -5.977  16.974  12.988  1.00  0.00    -0.545 OA
ENDBRANCH   1   7
BRANCH   6  10
ATOM     10  C   UNL     1      -4.198  12.147   8.801  1.00  0.00     0.013 C 
ATOM     11  C   UNL     1      -4.526  12.260   7.307  1.00  0.00     0.012 C 
ATOM     12  C   UNL     1      -2.684  12.092   9.031  1.00  0.00     0.012 C 
ENDBRANCH   6  10
TORSDOF 2
ENDMDL
MODEL 3
REMARK VINA RESULT:    -4.770     14.061     15.372
REMARK INTER + INTRA:          -5.533
REMARK INTER:                  -5.319
REMARK INTRA:                  -0.214
REMARK UNBOUND:                -0.204
REMARK SMILES CC(C)c1ccc(C(=O)[O-])cc1
REMARK SMILES IDX 7 1 6 2 11 3 5 4 12 5 4 6 8 7 9 8 10 9 2 10 1 11 3 12
REMARK H PARENT
REMARK Flexibility Score: inf
ROOT
ATOM      1  C   UNL     1      -3.872   2.754   1.748  1.00  0.00    -0.003 A 
ATOM      2  C   UNL     1      -4.124   1.407   2.057  1.00  0.00     0.010 A 
ATOM      3  C   UNL     1      -2.567   3.253   1.888  1.00  0.00     0.010 A 
ATOM      4  C   UNL     1      -3.092   0.575   2.497  1.00  0.00     0.004 A 
ATOM      5  C   UNL     1      -1.534   2.421   2.331  1.00  0.00     0.004 A 
ATOM      6  C   UNL     1      -1.784   1.074   2.639  1.00  0.00    -0.045 A 
ENDROOT
BRANCH   1   7
ATOM      7  C   UNL     1      -4.963   3.639   1.279  1.00  0.00     0.071 C 
ATOM      8  O   UNL     1      -5.604   3.365   0.230  1.00  0.00    -0.545 OA
ATOM      9  O   UNL     1      -5.296   4.785   1.992  1.00  0.00    -0.545 OA
ENDBRANCH   1   7
BRANCH   6  10
ATOM     10  C   UNL     1      -0.653   0.181   3.118  1.00  0.00     0.013 C 
ATOM     11  C   UNL     1      -0.708  -1.192   2.437  1.00  0.00     0.012 C 
ATOM     12  C   UNL     1       0.709   0.850   2.903  1.00  0.00     0.012 C 
ENDBRANCH   6  10
TORSDOF 2
ENDMDL
MODEL 4
REMARK VINA RESULT:    -4.682      4.202      5.826
REMARK INTER + INTRA:          -5.433
REMARK INTER:                  -5.218
REMARK INTRA:                  -0.216
REMARK UNBOUND:                -0.204
REMARK SMILES CC(C)c1ccc(C(=O)[O-])cc1
REMARK SMILES IDX 7 1 6 2 11 3 5 4 12 5 4 6 8 7 9 8 10 9 2 10 1 11 3 12
REMARK H PARENT
REMARK Flexibility Score: inf
ROOT
ATOM      1  C   UNL     1      -2.823  12.557   7.523  1.00  0.00    -0.003 A 
ATOM      2  C   UNL     1      -2.402  13.310   8.631  1.00  0.00     0.010 A 
ATOM      3  C   UNL     1      -4.188  12.252   7.386  1.00  0.00     0.010 A 
ATOM      4  C   UNL     1      -3.325  13.749   9.583  1.00  0.00     0.004 A 
ATOM      5  C   UNL     1      -5.111  12.689   8.340  1.00  0.00     0.004 A 
ATOM      6  C   UNL     1      -4.691  13.443   9.448  1.00  0.00    -0.045 A 
ENDROOT
BRANCH   1   7
ATOM      7  C   UNL     1      -1.849  12.091   6.511  1.00  0.00     0.071 C 
ATOM      8  O   UNL     1      -1.818  10.881   6.161  1.00  0.00    -0.545 OA
ATOM      9  O   UNL     1      -0.954  12.982   5.931  1.00  0.00    -0.545 OA
ENDBRANCH   1   7
BRANCH   6  10
ATOM     10  C   UNL     1      -5.705  13.913  10.476  1.00  0.00     0.013 C 
ATOM     11  C   UNL     1      -5.353  15.311  11.000  1.00  0.00     0.012 C 
ATOM     12  C   UNL     1      -7.127  13.879   9.906  1.00  0.00     0.012 C 
ENDBRANCH   6  10
TORSDOF 2
ENDMDL
MODEL 5
REMARK VINA RESULT:    -4.570     13.869     16.067
REMARK INTER + INTRA:          -5.309
REMARK INTER:                  -5.103
REMARK INTRA:                  -0.206
REMARK UNBOUND:                -0.204
REMARK SMILES CC(C)c1ccc(C(=O)[O-])cc1
REMARK SMILES IDX 7 1 6 2 11 3 5 4 12 5 4 6 8 7 9 8 10 9 2 10 1 11 3 12
REMARK H PARENT
REMARK Flexibility Score: inf
ROOT
ATOM      1  C   UNL     1      -1.805   0.831   2.450  1.00  0.00    -0.003 A 
ATOM      2  C   UNL     1      -1.492   2.161   2.122  1.00  0.00     0.010 A 
ATOM      3  C   UNL     1      -3.151   0.427   2.443  1.00  0.00     0.010 A 
ATOM      4  C   UNL     1      -2.503   3.068   1.795  1.00  0.00     0.004 A 
ATOM      5  C   UNL     1      -4.162   1.335   2.118  1.00  0.00     0.004 A 
ATOM      6  C   UNL     1      -3.851   2.664   1.789  1.00  0.00    -0.045 A 
ENDROOT
BRANCH   1   7
ATOM      7  C   UNL     1      -0.737  -0.134   2.795  1.00  0.00     0.071 C 
ATOM      8  O   UNL     1       0.213   0.206   3.549  1.00  0.00    -0.545 OA
ATOM      9  O   UNL     1      -0.768  -1.429   2.293  1.00  0.00    -0.545 OA
ENDBRANCH   1   7
BRANCH   6  10
ATOM     10  C   UNL     1      -4.959   3.640   1.437  1.00  0.00     0.013 C 
ATOM     11  C   UNL     1      -4.612   5.061   1.898  1.00  0.00     0.012 C 
ATOM     12  C   UNL     1      -5.269   3.606  -0.064  1.00  0.00     0.012 C 
ENDBRANCH   6  10
TORSDOF 2
ENDMDL
MODEL 6
REMARK VINA RESULT:    -4.532     11.724     13.981
REMARK INTER + INTRA:          -5.266
REMARK INTER:                  -5.063
REMARK INTRA:                  -0.204
REMARK UNBOUND:                -0.204
REMARK SMILES CC(C)c1ccc(C(=O)[O-])cc1
REMARK SMILES IDX 7 1 6 2 11 3 5 4 12 5 4 6 8 7 9 8 10 9 2 10 1 11 3 12
REMARK H PARENT
REMARK Flexibility Score: inf
ROOT
ATOM      1  C   UNL     1      -3.918   4.608   2.395  1.00  0.00    -0.003 A 
ATOM      2  C   UNL     1      -4.653   3.669   1.652  1.00  0.00     0.010 A 
ATOM      3  C   UNL     1      -2.686   4.224   2.949  1.00  0.00     0.010 A 
ATOM      4  C   UNL     1      -4.166   2.373   1.467  1.00  0.00     0.004 A 
ATOM      5  C   UNL     1      -2.200   2.927   2.765  1.00  0.00     0.004 A 
ATOM      6  C   UNL     1      -2.932   1.987   2.022  1.00  0.00    -0.045 A 
ENDROOT
BRANCH   1   7
ATOM      7  C   UNL     1      -4.430   5.983   2.593  1.00  0.00     0.071 C 
ATOM      8  O   UNL     1      -4.072   6.916   1.826  1.00  0.00    -0.545 OA
ATOM      9  O   UNL     1      -5.313   6.264   3.629  1.00  0.00    -0.545 OA
ENDBRANCH   1   7
BRANCH   6  10
ATOM     10  C   UNL     1      -2.392   0.582   1.829  1.00  0.00     0.013 C 
ATOM     11  C   UNL     1      -1.647   0.455   0.494  1.00  0.00     0.012 C 
ATOM     12  C   UNL     1      -1.497   0.167   3.002  1.00  0.00     0.012 C 
ENDBRANCH   6  10
TORSDOF 2
ENDMDL
MODEL 7
REMARK VINA RESULT:    -4.518     15.791     18.161
REMARK INTER + INTRA:          -5.250
REMARK INTER:                  -5.030
REMARK INTRA:                  -0.220
REMARK UNBOUND:                -0.204
REMARK SMILES CC(C)c1ccc(C(=O)[O-])cc1
REMARK SMILES IDX 7 1 6 2 11 3 5 4 12 5 4 6 8 7 9 8 10 9 2 10 1 11 3 12
REMARK H PARENT
REMARK Flexibility Score: inf
ROOT
ATOM      1  C   UNL     1       1.108  -0.632   1.512  1.00  0.00    -0.003 A 
ATOM      2  C   UNL     1       0.028  -1.394   1.988  1.00  0.00     0.010 A 
ATOM      3  C   UNL     1       1.045   0.768   1.600  1.00  0.00     0.010 A 
ATOM      4  C   UNL     1      -1.092  -0.769   2.540  1.00  0.00     0.004 A 
ATOM      5  C   UNL     1      -0.077   1.394   2.151  1.00  0.00     0.004 A 
ATOM      6  C   UNL     1      -1.157   0.634   2.628  1.00  0.00    -0.045 A 
ENDROOT
BRANCH   1   7
ATOM      7  C   UNL     1       2.298  -1.290   0.927  1.00  0.00     0.071 C 
ATOM      8  O   UNL     1       3.151  -0.620   0.286  1.00  0.00    -0.545 OA
ATOM      9  O   UNL     1       2.491  -2.659   1.075  1.00  0.00    -0.545 OA
ENDBRANCH   1   7
BRANCH   6  10
ATOM     10  C   UNL     1      -2.368   1.326   3.226  1.00  0.00     0.013 C 
ATOM     11  C   UNL     1      -2.301   2.843   3.008  1.00  0.00     0.012 C 
ATOM     12  C   UNL     1      -3.671   0.745   2.665  1.00  0.00     0.012 C 
ENDBRANCH   6  10
TORSDOF 2
ENDMDL
MODEL 8
REMARK VINA RESULT:    -4.485      3.170      5.122
REMARK INTER + INTRA:          -5.214
REMARK INTER:                  -5.006
REMARK INTRA:                  -0.207
REMARK UNBOUND:                -0.204
REMARK SMILES CC(C)c1ccc(C(=O)[O-])cc1
REMARK SMILES IDX 7 1 6 2 11 3 5 4 12 5 4 6 8 7 9 8 10 9 2 10 1 11 3 12
REMARK H PARENT
REMARK Flexibility Score: inf
ROOT
ATOM      1  C   UNL     1      -4.593  13.119   9.399  1.00  0.00    -0.003 A 
ATOM      2  C   UNL     1      -5.935  13.454   9.644  1.00  0.00     0.010 A 
ATOM      3  C   UNL     1      -3.580  13.906   9.971  1.00  0.00     0.010 A 
ATOM      4  C   UNL     1      -6.258  14.552  10.444  1.00  0.00     0.004 A 
ATOM      5  C   UNL     1      -3.903  15.006  10.770  1.00  0.00     0.004 A 
ATOM      6  C   UNL     1      -5.244  15.342  11.017  1.00  0.00    -0.045 A 
ENDROOT
BRANCH   1   7
ATOM      7  C   UNL     1      -4.246  11.955   8.553  1.00  0.00     0.071 C 
ATOM      8  O   UNL     1      -3.650  10.960   9.045  1.00  0.00    -0.545 OA
ATOM      9  O   UNL     1      -4.574  11.943   7.203  1.00  0.00    -0.545 OA
ENDBRANCH   1   7
BRANCH   6  10
ATOM     10  C   UNL     1      -5.581  16.539  11.888  1.00  0.00     0.013 C 
ATOM     11  C   UNL     1      -7.074  16.878  11.807  1.00  0.00     0.012 C 
ATOM     12  C   UNL     1      -5.145  16.307  13.339  1.00  0.00     0.012 C 
ENDBRANCH   6  10
TORSDOF 2
ENDMDL
MODEL 9
REMARK VINA RESULT:    -4.470     12.975     15.349
REMARK INTER + INTRA:          -5.197
REMARK INTER:                  -4.977
REMARK INTRA:                  -0.220
REMARK UNBOUND:                -0.204
REMARK SMILES CC(C)c1ccc(C(=O)[O-])cc1
REMARK SMILES IDX 7 1 6 2 11 3 5 4 12 5 4 6 8 7 9 8 10 9 2 10 1 11 3 12
REMARK H PARENT
REMARK Flexibility Score: inf
ROOT
ATOM      1  C   UNL     1      -2.228   1.302   2.366  1.00  0.00    -0.003 A 
ATOM      2  C   UNL     1      -3.532   1.370   1.846  1.00  0.00     0.010 A 
ATOM      3  C   UNL     1      -1.601   2.486   2.787  1.00  0.00     0.010 A 
ATOM      4  C   UNL     1      -4.195   2.596   1.749  1.00  0.00     0.004 A 
ATOM      5  C   UNL     1      -2.264   3.713   2.689  1.00  0.00     0.004 A 
ATOM      6  C   UNL     1      -3.567   3.783   2.170  1.00  0.00    -0.045 A 
ENDROOT
BRANCH   1   7
ATOM      7  C   UNL     1      -1.523   0.005   2.471  1.00  0.00     0.071 C 
ATOM      8  O   UNL     1      -0.525  -0.121   3.230  1.00  0.00    -0.545 OA
ATOM      9  O   UNL     1      -1.952  -1.093   1.735  1.00  0.00    -0.545 OA
ENDBRANCH   1   7
BRANCH   6  10
ATOM     10  C   UNL     1      -4.275   5.122   2.070  1.00  0.00     0.013 C 
ATOM     11  C   UNL     1      -5.785   4.935   1.876  1.00  0.00     0.012 C 
ATOM     12  C   UNL     1      -3.980   5.997   3.293  1.00  0.00     0.012 C 
ENDBRANCH   6  10
TORSDOF 2
ENDMDL
