MODEL 1
REMARK VINA RESULT:    -5.071      0.000      0.000
REMARK INTER + INTRA:          -6.091
REMARK INTER:                  -5.961
REMARK INTRA:                  -0.131
REMARK UNBOUND:                -0.131
REMARK SMILES O=C([O-])C=Cc1ccc(O)c(O)c1
REMARK SMILES IDX 6 1 13 2 7 3 11 4 8 5 9 6 5 7 4 8 2 9 1 10 3 11 12 12 10 14
REMARK H PARENT 12 13 10 15
REMARK Flexibility Score: inf
ROOT
ATOM      1  C   UNL     1     -10.629   7.255  24.918  1.00  0.00    -0.022 A 
ATOM      2  C   UNL     1      -9.271   6.902  24.974  1.00  0.00     0.058 A 
ATOM      3  C   UNL     1     -11.598   6.231  24.908  1.00  0.00     0.012 A 
ATOM      4  C   UNL     1      -8.882   5.557  25.047  1.00  0.00     0.157 A 
ATOM      5  C   UNL     1     -11.209   4.890  24.979  1.00  0.00     0.051 A 
ATOM      6  C   UNL     1      -9.853   4.549  25.052  1.00  0.00     0.157 A 
ENDROOT
BRANCH   1   7
ATOM      7  C   UNL     1     -10.987   8.692  24.832  1.00  0.00     0.010 C 
ATOM      8  C   UNL     1     -10.201   9.624  24.276  1.00  0.00     0.025 C 
BRANCH   8   9
ATOM      9  C   UNL     1     -10.602  11.038  24.203  1.00  0.00     0.064 C 
ATOM     10  O   UNL     1     -11.396  11.413  23.301  1.00  0.00    -0.545 OA
ATOM     11  O   UNL     1     -10.116  11.969  25.114  1.00  0.00    -0.545 OA
ENDBRANCH   8   9
ENDBRANCH   1   7
BRANCH   4  12
ATOM     12  O   UNL     1      -7.532   5.215  25.113  1.00  0.00    -0.504 OA
ATOM     13  H   UNL     1      -7.006   5.294  25.976  1.00  0.00     0.293 HD
ENDBRANCH   4  12
BRANCH   6  14
ATOM     14  O   UNL     1      -9.464   3.213  25.125  1.00  0.00    -0.504 OA
ATOM     15  H   UNL     1      -9.658   2.648  25.944  1.00  0.00     0.293 HD
ENDBRANCH   6  14
TORSDOF 4
ENDMDL
MODEL 2
REMARK VINA RESULT:    -4.864      0.921      1.925
REMARK INTER + INTRA:          -5.848
REMARK INTER:                  -5.721
REMARK INTRA:                  -0.126
REMARK UNBOUND:                -0.131
REMARK SMILES O=C([O-])C=Cc1ccc(O)c(O)c1
REMARK SMILES IDX 6 1 13 2 7 3 11 4 8 5 9 6 5 7 4 8 2 9 1 10 3 11 12 12 10 14
REMARK H PARENT 12 13 10 15
REMARK Flexibility Score: inf
ROOT
ATOM      1  C   UNL     1     -10.259   7.094  24.967  1.00  0.00    -0.022 A 
ATOM      2  C   UNL     1     -11.331   6.202  24.808  1.00  0.00     0.058 A 
ATOM      3  C   UNL     1      -8.955   6.574  25.098  1.00  0.00     0.012 A 
ATOM      4  C   UNL     1     -11.110   4.818  24.752  1.00  0.00     0.157 A 
ATOM      5  C   UNL     1      -8.736   5.194  25.044  1.00  0.00     0.051 A 
ATOM      6  C   UNL     1      -9.810   4.313  24.868  1.00  0.00     0.157 A 
ENDROOT
BRANCH   1   7
ATOM      7  C   UNL     1     -10.547   8.548  25.030  1.00  0.00     0.010 C 
ATOM      8  C   UNL     1     -10.211   9.417  24.066  1.00  0.00     0.025 C 
BRANCH   8   9
ATOM      9  C   UNL     1     -10.528  10.850  24.165  1.00  0.00     0.064 C 
ATOM     10  O   UNL     1     -11.359  11.360  23.369  1.00  0.00    -0.545 OA
ATOM     11  O   UNL     1      -9.922  11.654  25.125  1.00  0.00    -0.545 OA
ENDBRANCH   8   9
ENDBRANCH   1   7
BRANCH   4  12
ATOM     12  O   UNL     1     -12.179   3.939  24.583  1.00  0.00    -0.504 OA
ATOM     13  H   UNL     1     -12.838   4.045  23.820  1.00  0.00     0.293 HD
ENDBRANCH   4  12
BRANCH   6  14
ATOM     14  O   UNL     1      -9.594   2.938  24.812  1.00  0.00    -0.504 OA
ATOM     15  H   UNL     1      -9.796   2.337  25.602  1.00  0.00     0.293 HD
ENDBRANCH   6  14
TORSDOF 4
ENDMDL
MODEL 3
REMARK VINA RESULT:    -4.775      3.261      4.384
REMARK INTER + INTRA:          -5.743
REMARK INTER:                  -5.614
REMARK INTRA:                  -0.129
REMARK UNBOUND:                -0.131
REMARK SMILES O=C([O-])C=Cc1ccc(O)c(O)c1
REMARK SMILES IDX 6 1 13 2 7 3 11 4 8 5 9 6 5 7 4 8 2 9 1 10 3 11 12 12 10 14
REMARK H PARENT 12 13 10 15
REMARK Flexibility Score: inf
ROOT
ATOM      1  C   UNL     1      -7.775   4.091  24.455  1.00  0.00    -0.022 A 
ATOM      2  C   UNL     1      -6.457   4.574  24.402  1.00  0.00     0.058 A 
ATOM      3  C   UNL     1      -7.985   2.705  24.602  1.00  0.00     0.012 A 
ATOM      4  C   UNL     1      -5.367   3.699  24.520  1.00  0.00     0.157 A 
ATOM      5  C   UNL     1      -6.899   1.834  24.718  1.00  0.00     0.051 A 
ATOM      6  C   UNL     1      -5.589   2.326  24.680  1.00  0.00     0.157 A 
ENDROOT
BRANCH   1   7
ATOM      7  C   UNL     1      -8.892   5.058  24.316  1.00  0.00     0.010 C 
ATOM      8  C   UNL     1      -8.924   6.252  24.923  1.00  0.00     0.025 C 
BRANCH   8   9
ATOM      9  C   UNL     1     -10.048   7.185  24.747  1.00  0.00     0.064 C 
ATOM     10  O   UNL     1     -11.224   6.787  24.957  1.00  0.00    -0.545 OA
ATOM     11  O   UNL     1      -9.834   8.500  24.350  1.00  0.00    -0.545 OA
ENDBRANCH   8   9
ENDBRANCH   1   7
BRANCH   4  12
ATOM     12  O   UNL     1      -4.062   4.187  24.476  1.00  0.00    -0.504 OA
ATOM     13  H   UNL     1      -3.768   4.967  25.052  1.00  0.00     0.293 HD
ENDBRANCH   4  12
BRANCH   6  14
ATOM     14  O   UNL     1      -4.504   1.459  24.797  1.00  0.00    -0.504 OA
ATOM     15  H   UNL     1      -4.551   0.504  24.463  1.00  0.00     0.293 HD
ENDBRANCH   6  14
TORSDOF 4
ENDMDL
MODEL 4
REMARK VINA RESULT:    -4.644      1.169      1.631
REMARK INTER + INTRA:          -5.589
REMARK INTER:                  -5.452
REMARK INTRA:                  -0.138
REMARK UNBOUND:                -0.131
REMARK SMILES O=C([O-])C=Cc1ccc(O)c(O)c1
REMARK SMILES IDX 6 1 13 2 7 3 11 4 8 5 9 6 5 7 4 8 2 9 1 10 3 11 12 12 10 14
REMARK H PARENT 12 13 10 15
REMARK Flexibility Score: inf
ROOT
ATOM      1  C   UNL     1      -9.725   6.204  24.863  1.00  0.00    -0.022 A 
ATOM      2  C   UNL     1      -8.588   5.399  24.687  1.00  0.00     0.058 A 
ATOM      3  C   UNL     1     -10.981   5.582  25.016  1.00  0.00     0.012 A 
ATOM      4  C   UNL     1      -8.692   4.000  24.690  1.00  0.00     0.157 A 
ATOM      5  C   UNL     1     -11.084   4.188  25.017  1.00  0.00     0.051 A 
ATOM      6  C   UNL     1      -9.942   3.394  24.858  1.00  0.00     0.157 A 
ENDROOT
BRANCH   1   7
ATOM      7  C   UNL     1      -9.563   7.679  24.843  1.00  0.00     0.010 C 
ATOM      8  C   UNL     1     -10.336   8.504  24.124  1.00  0.00     0.025 C 
BRANCH   8   9
ATOM      9  C   UNL     1     -10.146   9.963  24.142  1.00  0.00     0.064 C 
ATOM     10  O   UNL     1      -9.103  10.447  24.654  1.00  0.00    -0.545 OA
ATOM     11  O   UNL     1     -11.101  10.817  23.604  1.00  0.00    -0.545 OA
ENDBRANCH   8   9
ENDBRANCH   1   7
BRANCH   4  12
ATOM     12  O   UNL     1      -7.556   3.209  24.525  1.00  0.00    -0.504 OA
ATOM     13  H   UNL     1      -6.871   3.103  25.264  1.00  0.00     0.293 HD
ENDBRANCH   4  12
BRANCH   6  14
ATOM     14  O   UNL     1     -10.042   2.004  24.861  1.00  0.00    -0.504 OA
ATOM     15  H   UNL     1     -10.934   1.537  24.973  1.00  0.00     0.293 HD
ENDBRANCH   6  14
TORSDOF 4
ENDMDL
MODEL 5
REMARK VINA RESULT:    -4.543      3.169      5.615
REMARK INTER + INTRA:          -5.471
REMARK INTER:                  -5.339
REMARK INTRA:                  -0.132
REMARK UNBOUND:                -0.131
REMARK SMILES O=C([O-])C=Cc1ccc(O)c(O)c1
REMARK SMILES IDX 6 1 13 2 7 3 11 4 8 5 9 6 5 7 4 8 2 9 1 10 3 11 12 12 10 14
REMARK H PARENT 12 13 10 15
REMARK Flexibility Score: inf
ROOT
ATOM      1  C   UNL     1      -9.520   5.511  24.553  1.00  0.00    -0.022 A 
ATOM      2  C   UNL     1     -10.352   4.627  23.845  1.00  0.00     0.058 A 
ATOM      3  C   UNL     1     -10.065   6.720  25.032  1.00  0.00     0.012 A 
ATOM      4  C   UNL     1     -11.707   4.926  23.641  1.00  0.00     0.157 A 
ATOM      5  C   UNL     1     -11.415   7.017  24.826  1.00  0.00     0.051 A 
ATOM      6  C   UNL     1     -12.240   6.122  24.134  1.00  0.00     0.157 A 
ENDROOT
BRANCH   1   7
ATOM      7  C   UNL     1      -8.092   5.152  24.733  1.00  0.00     0.010 C 
ATOM      8  C   UNL     1      -7.391   4.422  23.855  1.00  0.00     0.025 C 
BRANCH   8   9
ATOM      9  C   UNL     1      -5.971   4.100  24.070  1.00  0.00     0.064 C 
ATOM     10  O   UNL     1      -5.621   3.508  25.125  1.00  0.00    -0.545 OA
ATOM     11  O   UNL     1      -5.008   4.440  23.127  1.00  0.00    -0.545 OA
ENDBRANCH   8   9
ENDBRANCH   1   7
BRANCH   4  12
ATOM     12  O   UNL     1     -12.528   4.038  22.946  1.00  0.00    -0.504 OA
ATOM     13  H   UNL     1     -12.148   3.239  22.453  1.00  0.00     0.293 HD
ENDBRANCH   4  12
BRANCH   6  14
ATOM     14  O   UNL     1     -13.587   6.416  23.929  1.00  0.00    -0.504 OA
ATOM     15  H   UNL     1     -13.880   7.128  23.271  1.00  0.00     0.293 HD
ENDBRANCH   6  14
TORSDOF 4
ENDMDL
MODEL 6
REMARK VINA RESULT:    -4.540      2.666      5.679
REMARK INTER + INTRA:          -5.467
REMARK INTER:                  -5.338
REMARK INTRA:                  -0.129
REMARK UNBOUND:                -0.131
REMARK SMILES O=C([O-])C=Cc1ccc(O)c(O)c1
REMARK SMILES IDX 6 1 13 2 7 3 11 4 8 5 9 6 5 7 4 8 2 9 1 10 3 11 12 12 10 14
REMARK H PARENT 12 13 10 15
REMARK Flexibility Score: inf
ROOT
ATOM      1  C   UNL     1      -9.057   5.135  24.487  1.00  0.00    -0.022 A 
ATOM      2  C   UNL     1      -9.384   6.441  24.891  1.00  0.00     0.058 A 
ATOM      3  C   UNL     1     -10.069   4.319  23.942  1.00  0.00     0.012 A 
ATOM      4  C   UNL     1     -10.686   6.936  24.731  1.00  0.00     0.157 A 
ATOM      5  C   UNL     1     -11.367   4.813  23.785  1.00  0.00     0.051 A 
ATOM      6  C   UNL     1     -11.679   6.121  24.175  1.00  0.00     0.157 A 
ENDROOT
BRANCH   1   7
ATOM      7  C   UNL     1      -7.667   4.657  24.687  1.00  0.00     0.010 C 
ATOM      8  C   UNL     1      -6.777   4.516  23.695  1.00  0.00     0.025 C 
BRANCH   8   9
ATOM      9  C   UNL     1      -5.404   4.048  23.941  1.00  0.00     0.064 C 
ATOM     10  O   UNL     1      -5.003   3.896  25.125  1.00  0.00    -0.545 OA
ATOM     11  O   UNL     1      -4.540   3.773  22.887  1.00  0.00    -0.545 OA
ENDBRANCH   8   9
ENDBRANCH   1   7
BRANCH   4  12
ATOM     12  O   UNL     1     -11.000   8.236  25.124  1.00  0.00    -0.504 OA
ATOM     13  H   UNL     1     -11.671   8.420  25.860  1.00  0.00     0.293 HD
ENDBRANCH   4  12
BRANCH   6  14
ATOM     14  O   UNL     1     -12.972   6.616  24.017  1.00  0.00    -0.504 OA
ATOM     15  H   UNL     1     -13.688   6.083  23.535  1.00  0.00     0.293 HD
ENDBRANCH   6  14
TORSDOF 4
ENDMDL
MODEL 7
REMARK VINA RESULT:    -4.508      3.480      4.687
REMARK INTER + INTRA:          -5.430
REMARK INTER:                  -5.300
REMARK INTRA:                  -0.130
REMARK UNBOUND:                -0.131
REMARK SMILES O=C([O-])C=Cc1ccc(O)c(O)c1
REMARK SMILES IDX 6 1 13 2 7 3 11 4 8 5 9 6 5 7 4 8 2 9 1 10 3 11 12 12 10 14
REMARK H PARENT 12 13 10 15
REMARK Flexibility Score: inf
ROOT
ATOM      1  C   UNL     1     -10.928   3.928  22.831  1.00  0.00    -0.022 A 
ATOM      2  C   UNL     1     -11.421   2.790  23.491  1.00  0.00     0.058 A 
ATOM      3  C   UNL     1     -10.333   3.773  21.562  1.00  0.00     0.012 A 
ATOM      4  C   UNL     1     -11.350   1.525  22.889  1.00  0.00     0.157 A 
ATOM      5  C   UNL     1     -10.261   2.512  20.964  1.00  0.00     0.051 A 
ATOM      6  C   UNL     1     -10.770   1.386  21.623  1.00  0.00     0.157 A 
ENDROOT
BRANCH   1   7
ATOM      7  C   UNL     1     -11.019   5.241  23.515  1.00  0.00     0.010 C 
ATOM      8  C   UNL     1      -9.957   5.914  23.980  1.00  0.00     0.025 C 
BRANCH   8   9
ATOM      9  C   UNL     1     -10.094   7.221  24.643  1.00  0.00     0.064 C 
ATOM     10  O   UNL     1      -9.076   7.783  25.124  1.00  0.00    -0.545 OA
ATOM     11  O   UNL     1     -11.331   7.846  24.748  1.00  0.00    -0.545 OA
ENDBRANCH   8   9
ENDBRANCH   1   7
BRANCH   4  12
ATOM     12  O   UNL     1     -11.851   0.402  23.546  1.00  0.00    -0.504 OA
ATOM     13  H   UNL     1     -12.411  -0.290  23.062  1.00  0.00     0.293 HD
ENDBRANCH   4  12
BRANCH   6  14
ATOM     14  O   UNL     1     -10.702   0.128  21.027  1.00  0.00    -0.504 OA
ATOM     15  H   UNL     1     -11.266  -0.646  21.358  1.00  0.00     0.293 HD
ENDBRANCH   6  14
TORSDOF 4
ENDMDL
MODEL 8
REMARK VINA RESULT:    -4.449      2.734      3.963
REMARK INTER + INTRA:          -5.360
REMARK INTER:                  -5.222
REMARK INTRA:                  -0.138
REMARK UNBOUND:                -0.131
REMARK SMILES O=C([O-])C=Cc1ccc(O)c(O)c1
REMARK SMILES IDX 6 1 13 2 7 3 11 4 8 5 9 6 5 7 4 8 2 9 1 10 3 11 12 12 10 14
REMARK H PARENT 12 13 10 15
REMARK Flexibility Score: inf
ROOT
ATOM      1  C   UNL     1      -8.377   4.432  24.454  1.00  0.00    -0.022 A 
ATOM      2  C   UNL     1      -8.918   3.172  24.150  1.00  0.00     0.058 A 
ATOM      3  C   UNL     1      -7.059   4.504  24.949  1.00  0.00     0.012 A 
ATOM      4  C   UNL     1      -8.154   2.006  24.311  1.00  0.00     0.157 A 
ATOM      5  C   UNL     1      -6.300   3.342  25.110  1.00  0.00     0.051 A 
ATOM      6  C   UNL     1      -6.842   2.092  24.790  1.00  0.00     0.157 A 
ENDROOT
BRANCH   1   7
ATOM      7  C   UNL     1      -9.229   5.633  24.275  1.00  0.00     0.010 C 
ATOM      8  C   UNL     1      -9.177   6.709  25.072  1.00  0.00     0.025 C 
BRANCH   8   9
ATOM      9  C   UNL     1     -10.035   7.884  24.851  1.00  0.00     0.064 C 
ATOM     10  O   UNL     1     -11.286   7.754  24.879  1.00  0.00    -0.545 OA
ATOM     11  O   UNL     1      -9.485   9.138  24.608  1.00  0.00    -0.545 OA
ENDBRANCH   8   9
ENDBRANCH   1   7
BRANCH   4  12
ATOM     12  O   UNL     1      -8.695   0.760  23.997  1.00  0.00    -0.504 OA
ATOM     13  H   UNL     1      -9.692   0.630  23.875  1.00  0.00     0.293 HD
ENDBRANCH   4  12
BRANCH   6  14
ATOM     14  O   UNL     1      -6.086   0.932  24.948  1.00  0.00    -0.504 OA
ATOM     15  H   UNL     1      -6.523   0.029  25.088  1.00  0.00     0.293 HD
ENDBRANCH   6  14
TORSDOF 4
ENDMDL
MODEL 9
REMARK VINA RESULT:    -4.436      1.977      3.004
REMARK INTER + INTRA:          -5.344
REMARK INTER:                  -5.216
REMARK INTRA:                  -0.128
REMARK UNBOUND:                -0.131
REMARK SMILES O=C([O-])C=Cc1ccc(O)c(O)c1
REMARK SMILES IDX 6 1 13 2 7 3 11 4 8 5 9 6 5 7 4 8 2 9 1 10 3 11 12 12 10 14
REMARK H PARENT 12 13 10 15
REMARK Flexibility Score: inf
ROOT
ATOM      1  C   UNL     1      -9.308   5.428  24.440  1.00  0.00    -0.022 A 
ATOM      2  C   UNL     1     -10.421   4.759  23.905  1.00  0.00     0.058 A 
ATOM      3  C   UNL     1      -8.114   4.706  24.641  1.00  0.00     0.012 A 
ATOM      4  C   UNL     1     -10.342   3.405  23.550  1.00  0.00     0.157 A 
ATOM      5  C   UNL     1      -8.036   3.355  24.288  1.00  0.00     0.051 A 
ATOM      6  C   UNL     1      -9.147   2.702  23.740  1.00  0.00     0.157 A 
ENDROOT
BRANCH   1   7
ATOM      7  C   UNL     1      -9.447   6.858  24.808  1.00  0.00     0.010 C 
ATOM      8  C   UNL     1      -9.881   7.805  23.965  1.00  0.00     0.025 C 
BRANCH   8   9
ATOM      9  C   UNL     1     -10.014   9.212  24.378  1.00  0.00     0.064 C 
ATOM     10  O   UNL     1      -9.123   9.736  25.095  1.00  0.00    -0.545 OA
ATOM     11  O   UNL     1     -11.111   9.972  23.988  1.00  0.00    -0.545 OA
ENDBRANCH   8   9
ENDBRANCH   1   7
BRANCH   4  12
ATOM     12  O   UNL     1     -11.449   2.751  23.009  1.00  0.00    -0.504 OA
ATOM     13  H   UNL     1     -12.350   3.208  22.934  1.00  0.00     0.293 HD
ENDBRANCH   4  12
BRANCH   6  14
ATOM     14  O   UNL     1      -9.071   1.357  23.385  1.00  0.00    -0.504 OA
ATOM     15  H   UNL     1      -8.225   0.817  23.531  1.00  0.00     0.293 HD
ENDBRANCH   6  14
TORSDOF 4
ENDMDL
