MODEL 1
REMARK VINA RESULT:    -3.195      0.000      0.000
REMARK INTER + INTRA:          -4.994
REMARK INTER:                  -4.876
REMARK INTRA:                  -0.118
REMARK UNBOUND:                -0.118
REMARK SMILES CC1=CCC[C@H](C)C(=O)C[C@H](C(C)C)C(=O)C1
REMARK SMILES IDX 8 1 9 2 6 3 7 4 5 5 4 6 3 7 2 8 1 9 10 11 11 12 15 13 16 14
REMARK SMILES IDX 17 15 12 17 13 18 14 19
REMARK H PARENT
REMARK Flexibility Score: 70.00
ROOT
ATOM      1  C   UNL     1      21.805  49.004   0.793  1.00  0.00     0.136 C 
ATOM      2  O   UNL     1      21.285  47.950   1.128  1.00  0.00    -0.299 OA
ENDROOT
BRANCH   1   3
ATOM      3  C   UNL     1      21.559  50.273   1.601  1.00  0.00     0.053 C 
ATOM      4  C   UNL     1      20.133  50.336   2.172  1.00  0.00     0.016 C 
BRANCH   3   5
ATOM      5  C   UNL     1      22.616  50.476   2.712  1.00  0.00     0.015 C 
BRANCH   5   6
ATOM      6  C   UNL     1      24.060  50.502   2.178  1.00  0.00     0.028 C 
BRANCH   6   7
ATOM      7  C   UNL     1      24.469  51.848   1.629  1.00  0.00    -0.028 C 
ATOM      8  C   UNL     1      24.754  52.141   0.332  1.00  0.00    -0.070 CG0
ATOM      9  C   UNL     1      25.264  53.532   0.040  1.00  0.00     0.039 C 
ATOM     10  G   UNL     1      24.521  51.197  -0.846  1.00  0.00     0.000 G0
ENDBRANCH   6   7
ENDBRANCH   5   6
ENDBRANCH   3   5
ENDBRANCH   1   3
BRANCH   1  11
ATOM     11  C   UNL     1      22.657  49.044  -0.455  1.00  0.00     0.087 C 
BRANCH  11  12
ATOM     12  C   UNL     1      22.219  50.104  -1.507  1.00  0.00     0.066 C 
BRANCH  12  13
ATOM     13  C   UNL     1      23.176  51.294  -1.519  1.00  0.00     0.140 C 
ATOM     14  O   UNL     1      22.835  52.360  -2.013  1.00  0.00    -0.299 OA
BRANCH  13  15
ATOM     15  C   UNL     1      24.524  51.189  -0.848  1.00  0.00     0.106 CG0
ATOM     16  G   UNL     1      24.731  52.136   0.333  1.00  0.00     0.000 G0
ENDBRANCH  13  15
ENDBRANCH  12  13
BRANCH  12  17
ATOM     17  C   UNL     1      21.960  49.532  -2.946  1.00  0.00    -0.006 C 
ATOM     18  C   UNL     1      21.057  48.285  -2.883  1.00  0.00     0.008 C 
ATOM     19  C   UNL     1      23.254  49.158  -3.691  1.00  0.00     0.008 C 
ENDBRANCH  12  17
ENDBRANCH  11  12
ENDBRANCH   1  11
TORSDOF 1
ENDMDL
MODEL 2
REMARK VINA RESULT:    -3.082      1.871      4.736
REMARK INTER + INTRA:          -4.822
REMARK INTER:                  -4.911
REMARK INTRA:                   0.089
REMARK UNBOUND:                -0.118
REMARK SMILES CC1=CCC[C@H](C)C(=O)C[C@H](C(C)C)C(=O)C1
REMARK SMILES IDX 8 1 9 2 6 3 7 4 5 5 4 6 3 7 2 8 1 9 10 11 11 12 15 13 16 14
REMARK SMILES IDX 17 15 12 17 13 18 14 19
REMARK H PARENT
REMARK Flexibility Score: 70.00
ROOT
ATOM      1  C   UNL     1      22.908  50.721  -1.703  1.00  0.00     0.136 C 
ATOM      2  O   UNL     1      22.740  51.721  -2.387  1.00  0.00    -0.299 OA
ENDROOT
BRANCH   1   3
ATOM      3  C   UNL     1      21.858  49.616  -1.689  1.00  0.00     0.053 C 
ATOM      4  C   UNL     1      21.958  48.698  -2.919  1.00  0.00     0.016 C 
BRANCH   3   5
ATOM      5  C   UNL     1      21.885  48.797  -0.377  1.00  0.00     0.015 C 
BRANCH   5   6
ATOM      6  C   UNL     1      20.870  49.294   0.669  1.00  0.00     0.028 C 
BRANCH   6   7
ATOM      7  C   UNL     1      21.258  48.952   2.087  1.00  0.00    -0.028 C 
ATOM      8  C   UNL     1      22.161  49.609   2.862  1.00  0.00    -0.070 CG0
ATOM      9  C   UNL     1      22.477  49.006   4.209  1.00  0.00     0.039 C 
ATOM     10  G   UNL     1      22.811  50.943   2.500  1.00  0.00     0.000 G0
ENDBRANCH   6   7
ENDBRANCH   5   6
ENDBRANCH   3   5
ENDBRANCH   1   3
BRANCH   1  11
ATOM     11  C   UNL     1      24.144  50.615  -0.841  1.00  0.00     0.087 C 
BRANCH  11  12
ATOM     12  C   UNL     1      24.183  51.601   0.362  1.00  0.00     0.066 C 
BRANCH  12  13
ATOM     13  C   UNL     1      24.075  50.852   1.689  1.00  0.00     0.140 C 
ATOM     14  O   UNL     1      25.030  50.225   2.127  1.00  0.00    -0.299 OA
BRANCH  13  15
ATOM     15  C   UNL     1      22.813  50.946   2.512  1.00  0.00     0.106 CG0
ATOM     16  G   UNL     1      22.170  49.604   2.859  1.00  0.00     0.000 G0
ENDBRANCH  13  15
ENDBRANCH  12  13
BRANCH  12  17
ATOM     17  C   UNL     1      25.384  52.612   0.344  1.00  0.00    -0.006 C 
ATOM     18  C   UNL     1      25.627  53.195   1.750  1.00  0.00     0.008 C 
ATOM     19  C   UNL     1      25.177  53.780  -0.637  1.00  0.00     0.008 C 
ENDBRANCH  12  17
ENDBRANCH  11  12
ENDBRANCH   1  11
TORSDOF 1
ENDMDL
MODEL 3
REMARK VINA RESULT:    -3.059      1.888      4.926
REMARK INTER + INTRA:          -4.786
REMARK INTER:                  -4.737
REMARK INTRA:                  -0.049
REMARK UNBOUND:                -0.118
REMARK SMILES CC1=CCC[C@H](C)C(=O)C[C@H](C(C)C)C(=O)C1
REMARK SMILES IDX 8 1 9 2 6 3 7 4 5 5 4 6 3 7 2 8 1 9 10 11 11 12 15 13 16 14
REMARK SMILES IDX 17 15 12 17 13 18 14 19
REMARK H PARENT
REMARK Flexibility Score: 70.00
ROOT
ATOM      1  C   UNL     1      23.028  50.638  -2.288  1.00  0.00     0.136 C 
ATOM      2  O   UNL     1      22.579  51.650  -2.807  1.00  0.00    -0.299 OA
ENDROOT
BRANCH   1   3
ATOM      3  C   UNL     1      22.672  49.266  -2.847  1.00  0.00     0.053 C 
ATOM      4  C   UNL     1      23.720  48.198  -2.491  1.00  0.00     0.016 C 
BRANCH   3   5
ATOM      5  C   UNL     1      21.252  48.814  -2.434  1.00  0.00     0.015 C 
BRANCH   5   6
ATOM      6  C   UNL     1      21.245  47.879  -1.210  1.00  0.00     0.028 C 
BRANCH   6   7
ATOM      7  C   UNL     1      20.516  48.458  -0.022  1.00  0.00    -0.028 C 
ATOM      8  C   UNL     1      21.075  49.106   1.035  1.00  0.00    -0.070 CG0
ATOM      9  C   UNL     1      20.155  49.487   2.170  1.00  0.00     0.039 C 
ATOM     10  G   UNL     1      22.537  49.541   1.115  1.00  0.00     0.000 G0
ENDBRANCH   6   7
ENDBRANCH   5   6
ENDBRANCH   3   5
ENDBRANCH   1   3
BRANCH   1  11
ATOM     11  C   UNL     1      23.903  50.762  -1.062  1.00  0.00     0.087 C 
BRANCH  11  12
ATOM     12  C   UNL     1      23.384  51.770   0.005  1.00  0.00     0.066 C 
BRANCH  12  13
ATOM     13  C   UNL     1      22.751  51.039   1.188  1.00  0.00     0.140 C 
ATOM     14  O   UNL     1      22.342  51.663   2.156  1.00  0.00    -0.299 OA
BRANCH  13  15
ATOM     15  C   UNL     1      22.551  49.544   1.135  1.00  0.00     0.106 CG0
ATOM     16  G   UNL     1      21.095  49.092   1.040  1.00  0.00     0.000 G0
ENDBRANCH  13  15
ENDBRANCH  12  13
BRANCH  12  17
ATOM     17  C   UNL     1      24.436  52.842   0.461  1.00  0.00    -0.006 C 
ATOM     18  C   UNL     1      25.052  53.556  -0.759  1.00  0.00     0.008 C 
ATOM     19  C   UNL     1      25.579  52.249   1.305  1.00  0.00     0.008 C 
ENDBRANCH  12  17
ENDBRANCH  11  12
ENDBRANCH   1  11
TORSDOF 1
ENDMDL
MODEL 4
REMARK VINA RESULT:    -2.999      3.222      6.082
REMARK INTER + INTRA:          -4.695
REMARK INTER:                  -4.138
REMARK INTRA:                  -0.557
REMARK UNBOUND:                -0.118
REMARK SMILES CC1=CCC[C@H](C)C(=O)C[C@H](C(C)C)C(=O)C1
REMARK SMILES IDX 8 1 9 2 6 3 7 4 5 5 4 6 3 7 2 8 1 9 10 11 11 12 15 13 16 14
REMARK SMILES IDX 17 15 12 17 13 18 14 19
REMARK H PARENT
REMARK Flexibility Score: 70.00
ROOT
ATOM      1  C   UNL     1      24.096  49.643   1.453  1.00  0.00     0.136 C 
ATOM      2  O   UNL     1      24.034  49.008   0.410  1.00  0.00    -0.299 OA
ENDROOT
BRANCH   1   3
ATOM      3  C   UNL     1      23.670  51.105   1.490  1.00  0.00     0.053 C 
ATOM      4  C   UNL     1      24.738  52.042   0.901  1.00  0.00     0.016 C 
BRANCH   3   5
ATOM      5  C   UNL     1      22.296  51.333   0.818  1.00  0.00     0.015 C 
BRANCH   5   6
ATOM      6  C   UNL     1      21.128  51.367   1.822  1.00  0.00     0.028 C 
BRANCH   6   7
ATOM      7  C   UNL     1      20.646  49.994   2.223  1.00  0.00    -0.028 C 
ATOM      8  C   UNL     1      21.006  49.301   3.336  1.00  0.00    -0.070 CG0
ATOM      9  C   UNL     1      20.488  47.888   3.463  1.00  0.00     0.039 C 
ATOM     10  G   UNL     1      21.825  49.874   4.491  1.00  0.00     0.000 G0
ENDBRANCH   6   7
ENDBRANCH   5   6
ENDBRANCH   3   5
ENDBRANCH   1   3
BRANCH   1  11
ATOM     11  C   UNL     1      24.642  48.973   2.693  1.00  0.00     0.087 C 
BRANCH  11  12
ATOM     12  C   UNL     1      24.401  49.759   4.015  1.00  0.00     0.066 C 
BRANCH  12  13
ATOM     13  C   UNL     1      23.167  49.234   4.748  1.00  0.00     0.140 C 
ATOM     14  O   UNL     1      23.272  48.343   5.579  1.00  0.00    -0.299 OA
BRANCH  13  15
ATOM     15  C   UNL     1      21.818  49.867   4.511  1.00  0.00     0.106 CG0
ATOM     16  G   UNL     1      21.032  49.287   3.337  1.00  0.00     0.000 G0
ENDBRANCH  13  15
ENDBRANCH  12  13
BRANCH  12  17
ATOM     17  C   UNL     1      25.653  49.863   4.955  1.00  0.00    -0.006 C 
ATOM     18  C   UNL     1      26.333  51.239   4.808  1.00  0.00     0.008 C 
ATOM     19  C   UNL     1      26.704  48.771   4.687  1.00  0.00     0.008 C 
ENDBRANCH  12  17
ENDBRANCH  11  12
ENDBRANCH   1  11
TORSDOF 1
ENDMDL
MODEL 5
REMARK VINA RESULT:    -2.989      2.410      4.009
REMARK INTER + INTRA:          -4.679
REMARK INTER:                  -4.577
REMARK INTRA:                  -0.102
REMARK UNBOUND:                -0.118
REMARK SMILES CC1=CCC[C@H](C)C(=O)C[C@H](C(C)C)C(=O)C1
REMARK SMILES IDX 8 1 9 2 6 3 7 4 5 5 4 6 3 7 2 8 1 9 10 11 11 12 15 13 16 14
REMARK SMILES IDX 17 15 12 17 13 18 14 19
REMARK H PARENT
REMARK Flexibility Score: 70.00
ROOT
ATOM      1  C   UNL     1      20.826  50.615   1.636  1.00  0.00     0.136 C 
ATOM      2  O   UNL     1      20.554  51.803   1.745  1.00  0.00    -0.299 OA
ENDROOT
BRANCH   1   3
ATOM      3  C   UNL     1      20.141  49.585   2.527  1.00  0.00     0.053 C 
ATOM      4  C   UNL     1      19.236  48.632   1.729  1.00  0.00     0.016 C 
BRANCH   3   5
ATOM      5  C   UNL     1      21.147  48.801   3.399  1.00  0.00     0.015 C 
BRANCH   5   6
ATOM      6  C   UNL     1      21.841  49.676   4.460  1.00  0.00     0.028 C 
BRANCH   6   7
ATOM      7  C   UNL     1      23.187  49.141   4.888  1.00  0.00    -0.028 C 
ATOM      8  C   UNL     1      24.377  49.347   4.263  1.00  0.00    -0.070 CG0
ATOM      9  C   UNL     1      25.575  48.606   4.806  1.00  0.00     0.039 C 
ATOM     10  G   UNL     1      24.598  50.328   3.113  1.00  0.00     0.000 G0
ENDBRANCH   6   7
ENDBRANCH   5   6
ENDBRANCH   3   5
ENDBRANCH   1   3
BRANCH   1  11
ATOM     11  C   UNL     1      21.879  50.187   0.641  1.00  0.00     0.087 C 
BRANCH  11  12
ATOM     12  C   UNL     1      23.292  50.789   0.892  1.00  0.00     0.066 C 
BRANCH  12  13
ATOM     13  C   UNL     1      24.133  49.866   1.773  1.00  0.00     0.140 C 
ATOM     14  O   UNL     1      24.482  48.767   1.364  1.00  0.00    -0.299 OA
BRANCH  13  15
ATOM     15  C   UNL     1      24.608  50.336   3.126  1.00  0.00     0.106 CG0
ATOM     16  G   UNL     1      24.378  49.348   4.268  1.00  0.00     0.000 G0
ENDBRANCH  13  15
ENDBRANCH  12  13
BRANCH  12  17
ATOM     17  C   UNL     1      24.056  51.234  -0.405  1.00  0.00    -0.006 C 
ATOM     18  C   UNL     1      24.930  52.473  -0.125  1.00  0.00     0.008 C 
ATOM     19  C   UNL     1      23.117  51.558  -1.580  1.00  0.00     0.008 C 
ENDBRANCH  12  17
ENDBRANCH  11  12
ENDBRANCH   1  11
TORSDOF 1
ENDMDL
MODEL 6
REMARK VINA RESULT:    -2.983      2.037      4.139
REMARK INTER + INTRA:          -4.671
REMARK INTER:                  -4.209
REMARK INTRA:                  -0.462
REMARK UNBOUND:                -0.118
REMARK SMILES CC1=CCC[C@H](C)C(=O)C[C@H](C(C)C)C(=O)C1
REMARK SMILES IDX 8 1 9 2 6 3 7 4 5 5 4 6 3 7 2 8 1 9 10 11 11 12 15 13 16 14
REMARK SMILES IDX 17 15 12 17 13 18 14 19
REMARK H PARENT
REMARK Flexibility Score: 70.00
ROOT
ATOM      1  C   UNL     1      23.564  51.429  -0.540  1.00  0.00     0.136 C 
ATOM      2  O   UNL     1      24.103  52.016  -1.468  1.00  0.00    -0.299 OA
ENDROOT
BRANCH   1   3
ATOM      3  C   UNL     1      24.211  51.415   0.840  1.00  0.00     0.053 C 
ATOM      4  C   UNL     1      25.263  52.526   1.004  1.00  0.00     0.016 C 
BRANCH   3   5
ATOM      5  C   UNL     1      23.167  51.462   1.979  1.00  0.00     0.015 C 
BRANCH   5   6
ATOM      6  C   UNL     1      23.045  50.132   2.745  1.00  0.00     0.028 C 
BRANCH   6   7
ATOM      7  C   UNL     1      21.617  49.678   2.930  1.00  0.00    -0.028 C 
ATOM      8  C   UNL     1      20.950  48.773   2.166  1.00  0.00    -0.070 CG0
ATOM      9  C   UNL     1      19.484  48.570   2.467  1.00  0.00     0.039 C 
ATOM     10  G   UNL     1      21.591  47.900   1.089  1.00  0.00     0.000 G0
ENDBRANCH   6   7
ENDBRANCH   5   6
ENDBRANCH   3   5
ENDBRANCH   1   3
BRANCH   1  11
ATOM     11  C   UNL     1      22.274  50.682  -0.788  1.00  0.00     0.087 C 
BRANCH  11  12
ATOM     12  C   UNL     1      22.447  49.159  -1.060  1.00  0.00     0.066 C 
BRANCH  12  13
ATOM     13  C   UNL     1      21.372  48.348  -0.339  1.00  0.00     0.140 C 
ATOM     14  O   UNL     1      20.354  48.009  -0.927  1.00  0.00    -0.299 OA
BRANCH  13  15
ATOM     15  C   UNL     1      21.593  47.889   1.081  1.00  0.00     0.106 CG0
ATOM     16  G   UNL     1      20.956  48.775   2.150  1.00  0.00     0.000 G0
ENDBRANCH  13  15
ENDBRANCH  12  13
BRANCH  12  17
ATOM     17  C   UNL     1      22.571  48.773  -2.575  1.00  0.00    -0.006 C 
ATOM     18  C   UNL     1      24.046  48.545  -2.962  1.00  0.00     0.008 C 
ATOM     19  C   UNL     1      21.979  49.833  -3.521  1.00  0.00     0.008 C 
ENDBRANCH  12  17
ENDBRANCH  11  12
ENDBRANCH   1  11
TORSDOF 1
ENDMDL
MODEL 7
REMARK VINA RESULT:    -2.867      2.467      4.613
REMARK INTER + INTRA:          -4.493
REMARK INTER:                  -4.523
REMARK INTRA:                   0.030
REMARK UNBOUND:                -0.118
REMARK SMILES CC1=CCC[C@H](C)C(=O)C[C@H](C(C)C)C(=O)C1
REMARK SMILES IDX 8 1 9 2 6 3 7 4 5 5 4 6 3 7 2 8 1 9 10 11 11 12 15 13 16 14
REMARK SMILES IDX 17 15 12 17 13 18 14 19
REMARK H PARENT
REMARK Flexibility Score: 70.00
ROOT
ATOM      1  C   UNL     1      24.758  49.258   2.968  1.00  0.00     0.136 C 
ATOM      2  O   UNL     1      25.003  48.316   2.228  1.00  0.00    -0.299 OA
ENDROOT
BRANCH   1   3
ATOM      3  C   UNL     1      24.697  49.053   4.477  1.00  0.00     0.053 C 
ATOM      4  C   UNL     1      25.263  50.253   5.255  1.00  0.00     0.016 C 
BRANCH   3   5
ATOM      5  C   UNL     1      23.274  48.693   4.964  1.00  0.00     0.015 C 
BRANCH   5   6
ATOM      6  C   UNL     1      22.259  49.835   4.768  1.00  0.00     0.028 C 
BRANCH   6   7
ATOM      7  C   UNL     1      20.988  49.395   4.083  1.00  0.00    -0.028 C 
ATOM      8  C   UNL     1      20.521  49.830   2.883  1.00  0.00    -0.070 CG0
ATOM      9  C   UNL     1      19.158  49.338   2.457  1.00  0.00     0.039 C 
ATOM     10  G   UNL     1      21.305  50.710   1.911  1.00  0.00     0.000 G0
ENDBRANCH   6   7
ENDBRANCH   5   6
ENDBRANCH   3   5
ENDBRANCH   1   3
BRANCH   1  11
ATOM     11  C   UNL     1      24.475  50.615   2.368  1.00  0.00     0.087 C 
BRANCH  11  12
ATOM     12  C   UNL     1      23.773  50.577   0.979  1.00  0.00     0.066 C 
BRANCH  12  13
ATOM     13  C   UNL     1      22.370  49.982   1.090  1.00  0.00     0.140 C 
ATOM     14  O   UNL     1      22.117  48.893   0.593  1.00  0.00    -0.299 OA
BRANCH  13  15
ATOM     15  C   UNL     1      21.305  50.697   1.885  1.00  0.00     0.106 CG0
ATOM     16  G   UNL     1      20.546  49.819   2.879  1.00  0.00     0.000 G0
ENDBRANCH  13  15
ENDBRANCH  12  13
BRANCH  12  17
ATOM     17  C   UNL     1      23.783  51.939   0.200  1.00  0.00    -0.006 C 
ATOM     18  C   UNL     1      23.370  51.730  -1.270  1.00  0.00     0.008 C 
ATOM     19  C   UNL     1      25.153  52.641   0.224  1.00  0.00     0.008 C 
ENDBRANCH  12  17
ENDBRANCH  11  12
ENDBRANCH   1  11
TORSDOF 1
ENDMDL
MODEL 8
REMARK VINA RESULT:    -2.766      1.893      4.234
REMARK INTER + INTRA:          -4.340
REMARK INTER:                  -4.357
REMARK INTRA:                   0.017
REMARK UNBOUND:                -0.118
REMARK SMILES CC1=CCC[C@H](C)C(=O)C[C@H](C(C)C)C(=O)C1
REMARK SMILES IDX 8 1 9 2 6 3 7 4 5 5 4 6 3 7 2 8 1 9 10 11 11 12 15 13 16 14
REMARK SMILES IDX 17 15 12 17 13 18 14 19
REMARK H PARENT
REMARK Flexibility Score: 70.00
ROOT
ATOM      1  C   UNL     1      22.339  50.232   1.858  1.00  0.00     0.136 C 
ATOM      2  O   UNL     1      21.689  50.594   2.828  1.00  0.00    -0.299 OA
ENDROOT
BRANCH   1   3
ATOM      3  C   UNL     1      22.845  48.798   1.764  1.00  0.00     0.053 C 
ATOM      4  C   UNL     1      23.211  48.214   3.139  1.00  0.00     0.016 C 
BRANCH   3   5
ATOM      5  C   UNL     1      21.859  47.875   1.011  1.00  0.00     0.015 C 
BRANCH   5   6
ATOM      6  C   UNL     1      20.861  48.647   0.127  1.00  0.00     0.028 C 
BRANCH   6   7
ATOM      7  C   UNL     1      21.002  48.337  -1.344  1.00  0.00    -0.028 C 
ATOM      8  C   UNL     1      21.564  49.134  -2.290  1.00  0.00    -0.070 CG0
ATOM      9  C   UNL     1      21.479  48.665  -3.723  1.00  0.00     0.039 C 
ATOM     10  G   UNL     1      22.337  50.419  -1.999  1.00  0.00     0.000 G0
ENDBRANCH   6   7
ENDBRANCH   5   6
ENDBRANCH   3   5
ENDBRANCH   1   3
BRANCH   1  11
ATOM     11  C   UNL     1      22.672  51.234   0.777  1.00  0.00     0.087 C 
BRANCH  11  12
ATOM     12  C   UNL     1      23.986  50.935  -0.003  1.00  0.00     0.066 C 
BRANCH  12  13
ATOM     13  C   UNL     1      23.689  50.251  -1.336  1.00  0.00     0.140 C 
ATOM     14  O   UNL     1      24.508  49.497  -1.842  1.00  0.00    -0.299 OA
BRANCH  13  15
ATOM     15  C   UNL     1      22.347  50.436  -2.000  1.00  0.00     0.106 CG0
ATOM     16  G   UNL     1      21.585  49.143  -2.284  1.00  0.00     0.000 G0
ENDBRANCH  13  15
ENDBRANCH  12  13
BRANCH  12  17
ATOM     17  C   UNL     1      24.947  52.165  -0.165  1.00  0.00    -0.006 C 
ATOM     18  C   UNL     1      25.467  52.636   1.207  1.00  0.00     0.008 C 
ATOM     19  C   UNL     1      24.286  53.362  -0.872  1.00  0.00     0.008 C 
ENDBRANCH  12  17
ENDBRANCH  11  12
ENDBRANCH   1  11
TORSDOF 1
ENDMDL
MODEL 9
REMARK VINA RESULT:    -2.616      2.576      5.010
REMARK INTER + INTRA:          -4.110
REMARK INTER:                  -3.747
REMARK INTRA:                  -0.363
REMARK UNBOUND:                -0.118
REMARK SMILES CC1=CCC[C@H](C)C(=O)C[C@H](C(C)C)C(=O)C1
REMARK SMILES IDX 8 1 9 2 6 3 7 4 5 5 4 6 3 7 2 8 1 9 10 11 11 12 15 13 16 14
REMARK SMILES IDX 17 15 12 17 13 18 14 19
REMARK H PARENT
REMARK Flexibility Score: 70.00
ROOT
ATOM      1  C   UNL     1      21.695  50.949   1.129  1.00  0.00     0.136 C 
ATOM      2  O   UNL     1      21.692  52.133   0.824  1.00  0.00    -0.299 OA
ENDROOT
BRANCH   1   3
ATOM      3  C   UNL     1      22.652  49.981   0.444  1.00  0.00     0.053 C 
ATOM      4  C   UNL     1      22.272  49.722  -1.024  1.00  0.00     0.016 C 
BRANCH   3   5
ATOM      5  C   UNL     1      24.128  50.426   0.568  1.00  0.00     0.015 C 
BRANCH   5   6
ATOM      6  C   UNL     1      24.512  50.861   1.994  1.00  0.00     0.028 C 
BRANCH   6   7
ATOM      7  C   UNL     1      24.837  49.701   2.905  1.00  0.00    -0.028 C 
ATOM      8  C   UNL     1      24.092  49.260   3.952  1.00  0.00    -0.070 CG0
ATOM      9  C   UNL     1      24.683  48.158   4.799  1.00  0.00     0.039 C 
ATOM     10  G   UNL     1      22.679  49.740   4.280  1.00  0.00     0.000 G0
ENDBRANCH   6   7
ENDBRANCH   5   6
ENDBRANCH   3   5
ENDBRANCH   1   3
BRANCH   1  11
ATOM     11  C   UNL     1      20.710  50.450   2.161  1.00  0.00     0.087 C 
BRANCH  11  12
ATOM     12  C   UNL     1      20.881  48.953   2.551  1.00  0.00     0.066 C 
BRANCH  12  13
ATOM     13  C   UNL     1      21.570  48.814   3.907  1.00  0.00     0.140 C 
ATOM     14  O   UNL     1      21.271  47.902   4.665  1.00  0.00    -0.299 OA
BRANCH  13  15
ATOM     15  C   UNL     1      22.685  49.756   4.291  1.00  0.00     0.106 CG0
ATOM     16  G   UNL     1      24.091  49.252   3.974  1.00  0.00     0.000 G0
ENDBRANCH  13  15
ENDBRANCH  12  13
BRANCH  12  17
ATOM     17  C   UNL     1      19.569  48.097   2.458  1.00  0.00    -0.006 C 
ATOM     18  C   UNL     1      19.157  47.886   0.988  1.00  0.00     0.008 C 
ATOM     19  C   UNL     1      18.381  48.725   3.211  1.00  0.00     0.008 C 
ENDBRANCH  12  17
ENDBRANCH  11  12
ENDBRANCH   1  11
TORSDOF 1
ENDMDL
