MODEL 1
REMARK VINA RESULT:    -4.766      0.000      0.000
REMARK INTER + INTRA:         -17.040
REMARK INTER:                 -12.011
REMARK INTRA:                  -5.029
REMARK UNBOUND:                -5.029
REMARK SMILES CCCCCCCCCCCCCCCCCCCCCCCCCCCC(=O)[O-]
REMARK SMILES IDX 15 1 16 2 17 3 18 4 19 5 20 6 21 7 22 8 23 9 24 10 25 11
REMARK SMILES IDX 26 12 27 13 28 14 29 15 30 16 14 17 13 18 12 19 11 20 10 21
REMARK SMILES IDX 9 22 8 23 7 24 6 25 5 26 4 27 3 28 2 29 1 30
REMARK H PARENT
REMARK Flexibility Score: inf
ROOT
ATOM      1  C   UNL     1     -13.453  15.058 -16.673  1.00  0.00     0.000 C 
ENDROOT
BRANCH   1   2
ATOM      2  C   UNL     1     -13.937  13.861 -15.840  1.00  0.00     0.000 C 
BRANCH   2   3
ATOM      3  C   UNL     1     -14.349  12.652 -16.699  1.00  0.00     0.000 C 
BRANCH   3   4
ATOM      4  C   UNL     1     -14.992  11.486 -15.925  1.00  0.00     0.000 C 
BRANCH   4   5
ATOM      5  C   UNL     1     -16.014  11.956 -14.875  1.00  0.00     0.000 C 
BRANCH   5   6
ATOM      6  C   UNL     1     -17.462  11.612 -15.261  1.00  0.00     0.000 C 
BRANCH   6   7
ATOM      7  C   UNL     1     -17.716  11.703 -16.776  1.00  0.00     0.000 C 
BRANCH   7   8
ATOM      8  C   UNL     1     -19.047  12.398 -17.115  1.00  0.00     0.000 C 
BRANCH   8   9
ATOM      9  C   UNL     1     -18.961  13.924 -17.336  1.00  0.00     0.000 C 
BRANCH   9  10
ATOM     10  C   UNL     1     -17.546  14.447 -17.645  1.00  0.00     0.000 C 
BRANCH  10  11
ATOM     11  C   UNL     1     -17.061  15.513 -16.633  1.00  0.00     0.000 C 
BRANCH  11  12
ATOM     12  C   UNL     1     -17.605  15.301 -15.207  1.00  0.00     0.006 C 
BRANCH  12  13
ATOM     13  C   UNL     1     -17.228  16.437 -14.235  1.00  0.00     0.053 C 
BRANCH  13  14
ATOM     14  C   UNL     1     -18.400  17.302 -13.884  1.00  0.00     0.041 C 
ATOM     15  O   UNL     1     -19.287  17.549 -14.747  1.00  0.00    -0.550 OA
ATOM     16  O   UNL     1     -18.514  17.841 -12.609  1.00  0.00    -0.550 OA
ENDBRANCH  13  14
ENDBRANCH  12  13
ENDBRANCH  11  12
ENDBRANCH  10  11
ENDBRANCH   9  10
ENDBRANCH   8   9
ENDBRANCH   7   8
ENDBRANCH   6   7
ENDBRANCH   5   6
ENDBRANCH   4   5
ENDBRANCH   3   4
ENDBRANCH   2   3
ENDBRANCH   1   2
BRANCH   1  17
ATOM     17  C   UNL     1     -12.754  14.590 -17.956  1.00  0.00     0.000 C 
BRANCH  17  18
ATOM     18  C   UNL     1     -13.097  15.501 -19.141  1.00  0.00     0.000 C 
BRANCH  18  19
ATOM     19  C   UNL     1     -14.487  15.165 -19.705  1.00  0.00     0.000 C 
BRANCH  19  20
ATOM     20  C   UNL     1     -15.306  16.414 -20.066  1.00  0.00     0.000 C 
BRANCH  20  21
ATOM     21  C   UNL     1     -14.925  17.637 -19.212  1.00  0.00     0.000 C 
BRANCH  21  22
ATOM     22  C   UNL     1     -16.156  18.410 -18.710  1.00  0.00    -0.000 C 
BRANCH  22  23
ATOM     23  C   UNL     1     -15.943  19.006 -17.307  1.00  0.00    -0.000 C 
BRANCH  23  24
ATOM     24  C   UNL     1     -16.107  20.536 -17.274  1.00  0.00    -0.000 C 
BRANCH  24  25
ATOM     25  C   UNL     1     -14.795  21.339 -17.326  1.00  0.00    -0.000 C 
BRANCH  25  26
ATOM     26  C   UNL     1     -13.551  20.471 -17.075  1.00  0.00    -0.000 C 
BRANCH  26  27
ATOM     27  C   UNL     1     -12.748  20.926 -15.845  1.00  0.00    -0.000 C 
BRANCH  27  28
ATOM     28  C   UNL     1     -12.116  19.790 -15.016  1.00  0.00    -0.000 C 
BRANCH  28  29
ATOM     29  C   UNL     1     -12.860  18.443 -15.132  1.00  0.00    -0.003 C 
ATOM     30  C   UNL     1     -13.934  18.277 -14.058  1.00  0.00     0.004 C 
ENDBRANCH  28  29
ENDBRANCH  27  28
ENDBRANCH  26  27
ENDBRANCH  25  26
ENDBRANCH  24  25
ENDBRANCH  23  24
ENDBRANCH  22  23
ENDBRANCH  21  22
ENDBRANCH  20  21
ENDBRANCH  19  20
ENDBRANCH  18  19
ENDBRANCH  17  18
ENDBRANCH   1  17
TORSDOF 26
ENDMDL
MODEL 2
REMARK VINA RESULT:    -4.738     12.321     15.213
REMARK INTER + INTRA:         -16.967
REMARK INTER:                 -12.319
REMARK INTRA:                  -4.649
REMARK UNBOUND:                -5.029
REMARK SMILES CCCCCCCCCCCCCCCCCCCCCCCCCCCC(=O)[O-]
REMARK SMILES IDX 15 1 16 2 17 3 18 4 19 5 20 6 21 7 22 8 23 9 24 10 25 11
REMARK SMILES IDX 26 12 27 13 28 14 29 15 30 16 14 17 13 18 12 19 11 20 10 21
REMARK SMILES IDX 9 22 8 23 7 24 6 25 5 26 4 27 3 28 2 29 1 30
REMARK H PARENT
REMARK Flexibility Score: inf
ROOT
ATOM      1  C   UNL     1      -0.297  12.974 -11.993  1.00  0.00     0.000 C 
ENDROOT
BRANCH   1   2
ATOM      2  C   UNL     1      -1.333  14.005 -12.469  1.00  0.00     0.000 C 
BRANCH   2   3
ATOM      3  C   UNL     1      -0.815  15.454 -12.415  1.00  0.00     0.000 C 
BRANCH   3   4
ATOM      4  C   UNL     1      -1.867  16.538 -12.718  1.00  0.00     0.000 C 
BRANCH   4   5
ATOM      5  C   UNL     1      -3.305  16.076 -12.422  1.00  0.00     0.000 C 
BRANCH   5   6
ATOM      6  C   UNL     1      -4.228  16.192 -13.646  1.00  0.00     0.000 C 
BRANCH   6   7
ATOM      7  C   UNL     1      -3.672  15.473 -14.887  1.00  0.00     0.000 C 
BRANCH   7   8
ATOM      8  C   UNL     1      -3.922  13.953 -14.855  1.00  0.00     0.000 C 
BRANCH   8   9
ATOM      9  C   UNL     1      -4.805  13.451 -13.692  1.00  0.00     0.000 C 
BRANCH   9  10
ATOM     10  C   UNL     1      -4.371  12.098 -13.097  1.00  0.00     0.000 C 
BRANCH  10  11
ATOM     11  C   UNL     1      -3.977  11.062 -14.177  1.00  0.00     0.000 C 
BRANCH  11  12
ATOM     12  C   UNL     1      -2.457  10.845 -14.299  1.00  0.00     0.006 C 
BRANCH  12  13
ATOM     13  C   UNL     1      -2.039  10.178 -15.624  1.00  0.00     0.053 C 
BRANCH  13  14
ATOM     14  C   UNL     1      -2.924  10.571 -16.767  1.00  0.00     0.041 C 
ATOM     15  O   UNL     1      -2.779  11.693 -17.325  1.00  0.00    -0.550 OA
ATOM     16  O   UNL     1      -3.914   9.705 -17.214  1.00  0.00    -0.550 OA
ENDBRANCH  13  14
ENDBRANCH  12  13
ENDBRANCH  11  12
ENDBRANCH  10  11
ENDBRANCH   9  10
ENDBRANCH   8   9
ENDBRANCH   7   8
ENDBRANCH   6   7
ENDBRANCH   5   6
ENDBRANCH   4   5
ENDBRANCH   3   4
ENDBRANCH   2   3
ENDBRANCH   1   2
BRANCH   1  17
ATOM     17  C   UNL     1       0.111  13.236 -10.537  1.00  0.00     0.000 C 
BRANCH  17  18
ATOM     18  C   UNL     1       0.063  11.948  -9.705  1.00  0.00     0.000 C 
BRANCH  18  19
ATOM     19  C   UNL     1      -0.453  10.772 -10.548  1.00  0.00     0.000 C 
BRANCH  19  20
ATOM     20  C   UNL     1      -1.348   9.810  -9.751  1.00  0.00     0.000 C 
BRANCH  20  21
ATOM     21  C   UNL     1      -2.756   9.673 -10.359  1.00  0.00     0.000 C 
BRANCH  21  22
ATOM     22  C   UNL     1      -3.795  10.547  -9.638  1.00  0.00    -0.000 C 
BRANCH  22  23
ATOM     23  C   UNL     1      -3.230  11.200  -8.364  1.00  0.00    -0.000 C 
BRANCH  23  24
ATOM     24  C   UNL     1      -3.379  12.732  -8.357  1.00  0.00    -0.000 C 
BRANCH  24  25
ATOM     25  C   UNL     1      -3.647  13.372  -9.732  1.00  0.00    -0.000 C 
BRANCH  25  26
ATOM     26  C   UNL     1      -4.926  14.225  -9.756  1.00  0.00    -0.000 C 
BRANCH  26  27
ATOM     27  C   UNL     1      -5.917  13.842  -8.645  1.00  0.00    -0.000 C 
BRANCH  27  28
ATOM     28  C   UNL     1      -6.641  15.027  -7.974  1.00  0.00    -0.000 C 
BRANCH  28  29
ATOM     29  C   UNL     1      -6.247  15.245  -6.498  1.00  0.00    -0.003 C 
ATOM     30  C   UNL     1      -5.403  14.099  -5.945  1.00  0.00     0.004 C 
ENDBRANCH  28  29
ENDBRANCH  27  28
ENDBRANCH  26  27
ENDBRANCH  25  26
ENDBRANCH  24  25
ENDBRANCH  23  24
ENDBRANCH  22  23
ENDBRANCH  21  22
ENDBRANCH  20  21
ENDBRANCH  19  20
ENDBRANCH  18  19
ENDBRANCH  17  18
ENDBRANCH   1  17
TORSDOF 26
ENDMDL
MODEL 3
REMARK VINA RESULT:    -4.717      2.755      4.740
REMARK INTER + INTRA:         -16.915
REMARK INTER:                 -11.836
REMARK INTRA:                  -5.079
REMARK UNBOUND:                -5.029
REMARK SMILES CCCCCCCCCCCCCCCCCCCCCCCCCCCC(=O)[O-]
REMARK SMILES IDX 15 1 16 2 17 3 18 4 19 5 20 6 21 7 22 8 23 9 24 10 25 11
REMARK SMILES IDX 26 12 27 13 28 14 29 15 30 16 14 17 13 18 12 19 11 20 10 21
REMARK SMILES IDX 9 22 8 23 7 24 6 25 5 26 4 27 3 28 2 29 1 30
REMARK H PARENT
REMARK Flexibility Score: inf
ROOT
ATOM      1  C   UNL     1     -13.658  12.844 -17.003  1.00  0.00     0.000 C 
ENDROOT
BRANCH   1   2
ATOM      2  C   UNL     1     -13.970  11.518 -16.290  1.00  0.00     0.000 C 
BRANCH   2   3
ATOM      3  C   UNL     1     -15.312  11.538 -15.534  1.00  0.00     0.000 C 
BRANCH   3   4
ATOM      4  C   UNL     1     -16.507  10.947 -16.305  1.00  0.00     0.000 C 
BRANCH   4   5
ATOM      5  C   UNL     1     -17.859  11.509 -15.836  1.00  0.00     0.000 C 
BRANCH   5   6
ATOM      6  C   UNL     1     -18.865  11.673 -16.989  1.00  0.00     0.000 C 
BRANCH   6   7
ATOM      7  C   UNL     1     -18.991  13.128 -17.472  1.00  0.00     0.000 C 
BRANCH   7   8
ATOM      8  C   UNL     1     -18.039  14.085 -16.730  1.00  0.00     0.000 C 
BRANCH   8   9
ATOM      9  C   UNL     1     -17.027  14.837 -17.622  1.00  0.00     0.000 C 
BRANCH   9  10
ATOM     10  C   UNL     1     -17.666  15.737 -18.697  1.00  0.00     0.000 C 
BRANCH  10  11
ATOM     11  C   UNL     1     -16.620  16.454 -19.582  1.00  0.00     0.000 C 
BRANCH  11  12
ATOM     12  C   UNL     1     -15.200  15.870 -19.457  1.00  0.00     0.006 C 
BRANCH  12  13
ATOM     13  C   UNL     1     -14.302  16.180 -20.671  1.00  0.00     0.053 C 
BRANCH  13  14
ATOM     14  C   UNL     1     -12.977  16.754 -20.270  1.00  0.00     0.041 C 
ATOM     15  O   UNL     1     -12.912  17.913 -19.775  1.00  0.00    -0.550 OA
ATOM     16  O   UNL     1     -11.813  16.016 -20.446  1.00  0.00    -0.550 OA
ENDBRANCH  13  14
ENDBRANCH  12  13
ENDBRANCH  11  12
ENDBRANCH  10  11
ENDBRANCH   9  10
ENDBRANCH   8   9
ENDBRANCH   7   8
ENDBRANCH   6   7
ENDBRANCH   5   6
ENDBRANCH   4   5
ENDBRANCH   3   4
ENDBRANCH   2   3
ENDBRANCH   1   2
BRANCH   1  17
ATOM     17  C   UNL     1     -14.296  14.029 -16.266  1.00  0.00     0.000 C 
BRANCH  17  18
ATOM     18  C   UNL     1     -13.360  15.244 -16.250  1.00  0.00     0.000 C 
BRANCH  18  19
ATOM     19  C   UNL     1     -14.089  16.489 -15.723  1.00  0.00     0.000 C 
BRANCH  19  20
ATOM     20  C   UNL     1     -13.724  17.769 -16.492  1.00  0.00     0.000 C 
BRANCH  20  21
ATOM     21  C   UNL     1     -14.958  18.619 -16.843  1.00  0.00     0.000 C 
BRANCH  21  22
ATOM     22  C   UNL     1     -16.236  18.112 -16.153  1.00  0.00    -0.000 C 
BRANCH  22  23
ATOM     23  C   UNL     1     -17.508  18.773 -16.714  1.00  0.00    -0.000 C 
BRANCH  23  24
ATOM     24  C   UNL     1     -18.802  18.161 -16.147  1.00  0.00    -0.000 C 
BRANCH  24  25
ATOM     25  C   UNL     1     -18.601  17.045 -15.107  1.00  0.00    -0.000 C 
BRANCH  25  26
ATOM     26  C   UNL     1     -18.959  17.485 -13.678  1.00  0.00    -0.000 C 
BRANCH  26  27
ATOM     27  C   UNL     1     -17.721  17.828 -12.834  1.00  0.00    -0.000 C 
BRANCH  27  28
ATOM     28  C   UNL     1     -16.589  16.782 -12.873  1.00  0.00    -0.000 C 
BRANCH  28  29
ATOM     29  C   UNL     1     -17.020  15.376 -12.411  1.00  0.00    -0.003 C 
ATOM     30  C   UNL     1     -16.690  14.297 -13.440  1.00  0.00     0.004 C 
ENDBRANCH  28  29
ENDBRANCH  27  28
ENDBRANCH  26  27
ENDBRANCH  25  26
ENDBRANCH  24  25
ENDBRANCH  23  24
ENDBRANCH  22  23
ENDBRANCH  21  22
ENDBRANCH  20  21
ENDBRANCH  19  20
ENDBRANCH  18  19
ENDBRANCH  17  18
ENDBRANCH   1  17
TORSDOF 26
ENDMDL
MODEL 4
REMARK VINA RESULT:    -4.709      2.461      4.728
REMARK INTER + INTRA:         -16.896
REMARK INTER:                 -11.640
REMARK INTRA:                  -5.256
REMARK UNBOUND:                -5.029
REMARK SMILES CCCCCCCCCCCCCCCCCCCCCCCCCCCC(=O)[O-]
REMARK SMILES IDX 15 1 16 2 17 3 18 4 19 5 20 6 21 7 22 8 23 9 24 10 25 11
REMARK SMILES IDX 26 12 27 13 28 14 29 15 30 16 14 17 13 18 12 19 11 20 10 21
REMARK SMILES IDX 9 22 8 23 7 24 6 25 5 26 4 27 3 28 2 29 1 30
REMARK H PARENT
REMARK Flexibility Score: inf
ROOT
ATOM      1  C   UNL     1     -14.265  14.436 -18.763  1.00  0.00     0.000 C 
ENDROOT
BRANCH   1   2
ATOM      2  C   UNL     1     -13.198  14.302 -17.664  1.00  0.00     0.000 C 
BRANCH   2   3
ATOM      3  C   UNL     1     -13.702  14.732 -16.275  1.00  0.00     0.000 C 
BRANCH   3   4
ATOM      4  C   UNL     1     -12.630  15.331 -15.345  1.00  0.00     0.000 C 
BRANCH   4   5
ATOM      5  C   UNL     1     -13.089  16.628 -14.658  1.00  0.00     0.000 C 
BRANCH   5   6
ATOM      6  C   UNL     1     -14.600  16.874 -14.804  1.00  0.00     0.000 C 
BRANCH   6   7
ATOM      7  C   UNL     1     -15.189  17.692 -13.642  1.00  0.00     0.000 C 
BRANCH   7   8
ATOM      8  C   UNL     1     -16.627  17.270 -13.287  1.00  0.00     0.000 C 
BRANCH   8   9
ATOM      9  C   UNL     1     -17.147  16.010 -14.014  1.00  0.00     0.000 C 
BRANCH   9  10
ATOM     10  C   UNL     1     -16.819  14.682 -13.307  1.00  0.00     0.000 C 
BRANCH  10  11
ATOM     11  C   UNL     1     -16.556  13.521 -14.296  1.00  0.00     0.000 C 
BRANCH  11  12
ATOM     12  C   UNL     1     -17.105  13.780 -15.712  1.00  0.00     0.006 C 
BRANCH  12  13
ATOM     13  C   UNL     1     -17.130  12.519 -16.598  1.00  0.00     0.053 C 
BRANCH  13  14
ATOM     14  C   UNL     1     -18.524  12.068 -16.912  1.00  0.00     0.041 C 
ATOM     15  O   UNL     1     -19.261  12.762 -17.665  1.00  0.00    -0.550 OA
ATOM     16  O   UNL     1     -19.015  10.887 -16.370  1.00  0.00    -0.550 OA
ENDBRANCH  13  14
ENDBRANCH  12  13
ENDBRANCH  11  12
ENDBRANCH  10  11
ENDBRANCH   9  10
ENDBRANCH   8   9
ENDBRANCH   7   8
ENDBRANCH   6   7
ENDBRANCH   5   6
ENDBRANCH   4   5
ENDBRANCH   3   4
ENDBRANCH   2   3
ENDBRANCH   1   2
BRANCH   1  17
ATOM     17  C   UNL     1     -15.286  15.525 -18.409  1.00  0.00     0.000 C 
BRANCH  17  18
ATOM     18  C   UNL     1     -14.678  16.926 -18.551  1.00  0.00     0.000 C 
BRANCH  18  19
ATOM     19  C   UNL     1     -15.221  17.634 -19.802  1.00  0.00     0.000 C 
BRANCH  19  20
ATOM     20  C   UNL     1     -16.298  16.817 -20.533  1.00  0.00     0.000 C 
BRANCH  20  21
ATOM     21  C   UNL     1     -17.286  17.705 -21.311  1.00  0.00     0.000 C 
BRANCH  21  22
ATOM     22  C   UNL     1     -18.748  17.452 -20.906  1.00  0.00    -0.000 C 
BRANCH  22  23
ATOM     23  C   UNL     1     -19.389  18.675 -20.226  1.00  0.00    -0.000 C 
BRANCH  23  24
ATOM     24  C   UNL     1     -20.024  18.341 -18.865  1.00  0.00    -0.000 C 
BRANCH  24  25
ATOM     25  C   UNL     1     -19.644  16.969 -18.281  1.00  0.00    -0.000 C 
BRANCH  25  26
ATOM     26  C   UNL     1     -18.471  17.044 -17.290  1.00  0.00    -0.000 C 
BRANCH  26  27
ATOM     27  C   UNL     1     -18.283  18.450 -16.697  1.00  0.00    -0.000 C 
BRANCH  27  28
ATOM     28  C   UNL     1     -16.830  18.964 -16.671  1.00  0.00    -0.000 C 
BRANCH  28  29
ATOM     29  C   UNL     1     -16.622  20.291 -17.429  1.00  0.00    -0.003 C 
ATOM     30  C   UNL     1     -15.164  20.746 -17.418  1.00  0.00     0.004 C 
ENDBRANCH  28  29
ENDBRANCH  27  28
ENDBRANCH  26  27
ENDBRANCH  25  26
ENDBRANCH  24  25
ENDBRANCH  23  24
ENDBRANCH  22  23
ENDBRANCH  21  22
ENDBRANCH  20  21
ENDBRANCH  19  20
ENDBRANCH  18  19
ENDBRANCH  17  18
ENDBRANCH   1  17
TORSDOF 26
ENDMDL
MODEL 5
REMARK VINA RESULT:    -4.677      2.582      6.259
REMARK INTER + INTRA:         -16.814
REMARK INTER:                 -11.747
REMARK INTRA:                  -5.067
REMARK UNBOUND:                -5.029
REMARK SMILES CCCCCCCCCCCCCCCCCCCCCCCCCCCC(=O)[O-]
REMARK SMILES IDX 15 1 16 2 17 3 18 4 19 5 20 6 21 7 22 8 23 9 24 10 25 11
REMARK SMILES IDX 26 12 27 13 28 14 29 15 30 16 14 17 13 18 12 19 11 20 10 21
REMARK SMILES IDX 9 22 8 23 7 24 6 25 5 26 4 27 3 28 2 29 1 30
REMARK H PARENT
REMARK Flexibility Score: inf
ROOT
ATOM      1  C   UNL     1     -13.656  16.754 -20.111  1.00  0.00     0.000 C 
ENDROOT
BRANCH   1   2
ATOM      2  C   UNL     1     -15.140  16.358 -20.160  1.00  0.00     0.000 C 
BRANCH   2   3
ATOM      3  C   UNL     1     -15.758  16.497 -21.564  1.00  0.00     0.000 C 
BRANCH   3   4
ATOM      4  C   UNL     1     -17.096  17.257 -21.618  1.00  0.00     0.000 C 
BRANCH   4   5
ATOM      5  C   UNL     1     -17.137  18.467 -20.670  1.00  0.00     0.000 C 
BRANCH   5   6
ATOM      6  C   UNL     1     -18.525  18.684 -20.045  1.00  0.00     0.000 C 
BRANCH   6   7
ATOM      7  C   UNL     1     -18.888  17.611 -19.004  1.00  0.00     0.000 C 
BRANCH   7   8
ATOM      8  C   UNL     1     -17.862  17.524 -17.858  1.00  0.00     0.000 C 
BRANCH   8   9
ATOM      9  C   UNL     1     -17.767  18.774 -16.956  1.00  0.00     0.000 C 
BRANCH   9  10
ATOM     10  C   UNL     1     -16.330  19.214 -16.621  1.00  0.00     0.000 C 
BRANCH  10  11
ATOM     11  C   UNL     1     -15.661  20.012 -17.765  1.00  0.00     0.000 C 
BRANCH  11  12
ATOM     12  C   UNL     1     -15.731  21.539 -17.575  1.00  0.00     0.006 C 
BRANCH  12  13
ATOM     13  C   UNL     1     -14.346  22.208 -17.479  1.00  0.00     0.053 C 
BRANCH  13  14
ATOM     14  C   UNL     1     -13.250  21.219 -17.219  1.00  0.00     0.041 C 
ATOM     15  O   UNL     1     -12.539  20.796 -18.171  1.00  0.00    -0.550 OA
ATOM     16  O   UNL     1     -13.016  20.759 -15.929  1.00  0.00    -0.550 OA
ENDBRANCH  13  14
ENDBRANCH  12  13
ENDBRANCH  11  12
ENDBRANCH  10  11
ENDBRANCH   9  10
ENDBRANCH   8   9
ENDBRANCH   7   8
ENDBRANCH   6   7
ENDBRANCH   5   6
ENDBRANCH   4   5
ENDBRANCH   3   4
ENDBRANCH   2   3
ENDBRANCH   1   2
BRANCH   1  17
ATOM     17  C   UNL     1     -13.293  17.366 -18.752  1.00  0.00     0.000 C 
BRANCH  17  18
ATOM     18  C   UNL     1     -13.670  16.426 -17.600  1.00  0.00     0.000 C 
BRANCH  18  19
ATOM     19  C   UNL     1     -13.746  17.194 -16.271  1.00  0.00     0.000 C 
BRANCH  19  20
ATOM     20  C   UNL     1     -12.902  16.552 -15.158  1.00  0.00     0.000 C 
BRANCH  20  21
ATOM     21  C   UNL     1     -13.569  16.659 -13.775  1.00  0.00     0.000 C 
BRANCH  21  22
ATOM     22  C   UNL     1     -14.582  17.814 -13.699  1.00  0.00    -0.000 C 
BRANCH  22  23
ATOM     23  C   UNL     1     -16.015  17.321 -13.425  1.00  0.00    -0.000 C 
BRANCH  23  24
ATOM     24  C   UNL     1     -16.055  15.968 -12.693  1.00  0.00    -0.000 C 
BRANCH  24  25
ATOM     25  C   UNL     1     -16.703  14.814 -13.479  1.00  0.00    -0.000 C 
BRANCH  25  26
ATOM     26  C   UNL     1     -17.152  15.228 -14.890  1.00  0.00    -0.000 C 
BRANCH  26  27
ATOM     27  C   UNL     1     -16.343  14.533 -15.998  1.00  0.00    -0.000 C 
BRANCH  27  28
ATOM     28  C   UNL     1     -15.297  13.512 -15.507  1.00  0.00    -0.000 C 
BRANCH  28  29
ATOM     29  C   UNL     1     -14.446  12.896 -16.636  1.00  0.00    -0.003 C 
ATOM     30  C   UNL     1     -12.949  12.967 -16.342  1.00  0.00     0.004 C 
ENDBRANCH  28  29
ENDBRANCH  27  28
ENDBRANCH  26  27
ENDBRANCH  25  26
ENDBRANCH  24  25
ENDBRANCH  23  24
ENDBRANCH  22  23
ENDBRANCH  21  22
ENDBRANCH  20  21
ENDBRANCH  19  20
ENDBRANCH  18  19
ENDBRANCH  17  18
ENDBRANCH   1  17
TORSDOF 26
ENDMDL
MODEL 6
REMARK VINA RESULT:    -4.660      2.523      6.042
REMARK INTER + INTRA:         -16.773
REMARK INTER:                 -11.337
REMARK INTRA:                  -5.436
REMARK UNBOUND:                -5.029
REMARK SMILES CCCCCCCCCCCCCCCCCCCCCCCCCCCC(=O)[O-]
REMARK SMILES IDX 15 1 16 2 17 3 18 4 19 5 20 6 21 7 22 8 23 9 24 10 25 11
REMARK SMILES IDX 26 12 27 13 28 14 29 15 30 16 14 17 13 18 12 19 11 20 10 21
REMARK SMILES IDX 9 22 8 23 7 24 6 25 5 26 4 27 3 28 2 29 1 30
REMARK H PARENT
REMARK Flexibility Score: inf
ROOT
ATOM      1  C   UNL     1     -17.220  14.115 -17.159  1.00  0.00     0.000 C 
ENDROOT
BRANCH   1   2
ATOM      2  C   UNL     1     -18.532  14.558 -17.826  1.00  0.00     0.000 C 
BRANCH   2   3
ATOM      3  C   UNL     1     -19.084  15.879 -17.258  1.00  0.00     0.000 C 
BRANCH   3   4
ATOM      4  C   UNL     1     -18.018  16.899 -16.817  1.00  0.00     0.000 C 
BRANCH   4   5
ATOM      5  C   UNL     1     -18.410  17.661 -15.540  1.00  0.00     0.000 C 
BRANCH   5   6
ATOM      6  C   UNL     1     -17.403  17.459 -14.396  1.00  0.00     0.000 C 
BRANCH   6   7
ATOM      7  C   UNL     1     -17.534  16.085 -13.717  1.00  0.00     0.000 C 
BRANCH   7   8
ATOM      8  C   UNL     1     -16.176  15.384 -13.527  1.00  0.00     0.000 C 
BRANCH   8   9
ATOM      9  C   UNL     1     -15.058  15.829 -14.495  1.00  0.00     0.000 C 
BRANCH   9  10
ATOM     10  C   UNL     1     -13.871  16.539 -13.818  1.00  0.00     0.000 C 
BRANCH  10  11
ATOM     11  C   UNL     1     -13.696  18.003 -14.288  1.00  0.00     0.000 C 
BRANCH  11  12
ATOM     12  C   UNL     1     -13.256  18.131 -15.758  1.00  0.00     0.006 C 
BRANCH  12  13
ATOM     13  C   UNL     1     -13.820  19.383 -16.460  1.00  0.00     0.053 C 
BRANCH  13  14
ATOM     14  C   UNL     1     -12.786  20.452 -16.641  1.00  0.00     0.041 C 
ATOM     15  O   UNL     1     -11.866  20.307 -17.493  1.00  0.00    -0.550 OA
ATOM     16  O   UNL     1     -12.830  21.605 -15.868  1.00  0.00    -0.550 OA
ENDBRANCH  13  14
ENDBRANCH  12  13
ENDBRANCH  11  12
ENDBRANCH  10  11
ENDBRANCH   9  10
ENDBRANCH   8   9
ENDBRANCH   7   8
ENDBRANCH   6   7
ENDBRANCH   5   6
ENDBRANCH   4   5
ENDBRANCH   3   4
ENDBRANCH   2   3
ENDBRANCH   1   2
BRANCH   1  17
ATOM     17  C   UNL     1     -17.485  13.093 -16.046  1.00  0.00     0.000 C 
BRANCH  17  18
ATOM     18  C   UNL     1     -16.648  11.823 -16.245  1.00  0.00     0.000 C 
BRANCH  18  19
ATOM     19  C   UNL     1     -15.305  11.932 -15.506  1.00  0.00     0.000 C 
BRANCH  19  20
ATOM     20  C   UNL     1     -14.094  11.853 -16.449  1.00  0.00     0.000 C 
BRANCH  20  21
ATOM     21  C   UNL     1     -13.054  12.952 -16.168  1.00  0.00     0.000 C 
BRANCH  21  22
ATOM     22  C   UNL     1     -13.229  14.174 -17.085  1.00  0.00    -0.000 C 
BRANCH  22  23
ATOM     23  C   UNL     1     -13.962  13.827 -18.393  1.00  0.00    -0.000 C 
BRANCH  23  24
ATOM     24  C   UNL     1     -14.243  15.061 -19.269  1.00  0.00    -0.000 C 
BRANCH  24  25
ATOM     25  C   UNL     1     -14.728  16.309 -18.510  1.00  0.00    -0.000 C 
BRANCH  25  26
ATOM     26  C   UNL     1     -15.377  17.356 -19.431  1.00  0.00    -0.000 C 
BRANCH  26  27
ATOM     27  C   UNL     1     -16.221  16.722 -20.549  1.00  0.00    -0.000 C 
BRANCH  27  28
ATOM     28  C   UNL     1     -17.381  17.593 -21.071  1.00  0.00    -0.000 C 
BRANCH  28  29
ATOM     29  C   UNL     1     -17.816  18.705 -20.095  1.00  0.00    -0.003 C 
ATOM     30  C   UNL     1     -19.323  18.704 -19.844  1.00  0.00     0.004 C 
ENDBRANCH  28  29
ENDBRANCH  27  28
ENDBRANCH  26  27
ENDBRANCH  25  26
ENDBRANCH  24  25
ENDBRANCH  23  24
ENDBRANCH  22  23
ENDBRANCH  21  22
ENDBRANCH  20  21
ENDBRANCH  19  20
ENDBRANCH  18  19
ENDBRANCH  17  18
ENDBRANCH   1  17
TORSDOF 26
ENDMDL
MODEL 7
REMARK VINA RESULT:    -4.657      1.235      2.024
REMARK INTER + INTRA:         -16.764
REMARK INTER:                 -11.699
REMARK INTRA:                  -5.065
REMARK UNBOUND:                -5.029
REMARK SMILES CCCCCCCCCCCCCCCCCCCCCCCCCCCC(=O)[O-]
REMARK SMILES IDX 15 1 16 2 17 3 18 4 19 5 20 6 21 7 22 8 23 9 24 10 25 11
REMARK SMILES IDX 26 12 27 13 28 14 29 15 30 16 14 17 13 18 12 19 11 20 10 21
REMARK SMILES IDX 9 22 8 23 7 24 6 25 5 26 4 27 3 28 2 29 1 30
REMARK H PARENT
REMARK Flexibility Score: inf
ROOT
ATOM      1  C   UNL     1     -13.852  12.942 -17.375  1.00  0.00     0.000 C 
ENDROOT
BRANCH   1   2
ATOM      2  C   UNL     1     -13.882  11.771 -16.380  1.00  0.00     0.000 C 
BRANCH   2   3
ATOM      3  C   UNL     1     -15.296  11.208 -16.149  1.00  0.00     0.000 C 
BRANCH   3   4
ATOM      4  C   UNL     1     -15.995  11.696 -14.866  1.00  0.00     0.000 C 
BRANCH   4   5
ATOM      5  C   UNL     1     -17.529  11.635 -14.960  1.00  0.00     0.000 C 
BRANCH   5   6
ATOM      6  C   UNL     1     -18.022  11.222 -16.357  1.00  0.00     0.000 C 
BRANCH   6   7
ATOM      7  C   UNL     1     -18.817  12.333 -17.064  1.00  0.00     0.000 C 
BRANCH   7   8
ATOM      8  C   UNL     1     -17.968  13.587 -17.343  1.00  0.00     0.000 C 
BRANCH   8   9
ATOM      9  C   UNL     1     -18.739  14.925 -17.335  1.00  0.00     0.000 C 
BRANCH   9  10
ATOM     10  C   UNL     1     -18.264  15.933 -16.271  1.00  0.00     0.000 C 
BRANCH  10  11
ATOM     11  C   UNL     1     -17.330  15.297 -15.214  1.00  0.00     0.000 C 
BRANCH  11  12
ATOM     12  C   UNL     1     -16.108  16.168 -14.866  1.00  0.00     0.006 C 
BRANCH  12  13
ATOM     13  C   UNL     1     -16.453  17.378 -13.974  1.00  0.00     0.053 C 
BRANCH  13  14
ATOM     14  C   UNL     1     -17.253  16.989 -12.768  1.00  0.00     0.041 C 
ATOM     15  O   UNL     1     -18.330  17.589 -12.500  1.00  0.00    -0.550 OA
ATOM     16  O   UNL     1     -16.810  15.969 -11.935  1.00  0.00    -0.550 OA
ENDBRANCH  13  14
ENDBRANCH  12  13
ENDBRANCH  11  12
ENDBRANCH  10  11
ENDBRANCH   9  10
ENDBRANCH   8   9
ENDBRANCH   7   8
ENDBRANCH   6   7
ENDBRANCH   5   6
ENDBRANCH   4   5
ENDBRANCH   3   4
ENDBRANCH   2   3
ENDBRANCH   1   2
BRANCH   1  17
ATOM     17  C   UNL     1     -13.538  14.264 -16.663  1.00  0.00     0.000 C 
BRANCH  17  18
ATOM     18  C   UNL     1     -13.633  15.453 -17.627  1.00  0.00     0.000 C 
BRANCH  18  19
ATOM     19  C   UNL     1     -14.347  15.048 -18.925  1.00  0.00     0.000 C 
BRANCH  19  20
ATOM     20  C   UNL     1     -15.626  15.861 -19.185  1.00  0.00     0.000 C 
BRANCH  20  21
ATOM     21  C   UNL     1     -15.625  16.537 -20.568  1.00  0.00     0.000 C 
BRANCH  21  22
ATOM     22  C   UNL     1     -16.765  17.557 -20.724  1.00  0.00    -0.000 C 
BRANCH  22  23
ATOM     23  C   UNL     1     -17.624  17.677 -19.452  1.00  0.00    -0.000 C 
BRANCH  23  24
ATOM     24  C   UNL     1     -17.927  19.136 -19.067  1.00  0.00    -0.000 C 
BRANCH  24  25
ATOM     25  C   UNL     1     -16.766  19.895 -18.399  1.00  0.00    -0.000 C 
BRANCH  25  26
ATOM     26  C   UNL     1     -16.075  19.080 -17.294  1.00  0.00    -0.000 C 
BRANCH  26  27
ATOM     27  C   UNL     1     -14.545  19.053 -17.444  1.00  0.00    -0.000 C 
BRANCH  27  28
ATOM     28  C   UNL     1     -13.760  18.847 -16.133  1.00  0.00    -0.000 C 
BRANCH  28  29
ATOM     29  C   UNL     1     -12.834  20.024 -15.767  1.00  0.00    -0.003 C 
ATOM     30  C   UNL     1     -12.207  19.864 -14.383  1.00  0.00     0.004 C 
ENDBRANCH  28  29
ENDBRANCH  27  28
ENDBRANCH  26  27
ENDBRANCH  25  26
ENDBRANCH  24  25
ENDBRANCH  23  24
ENDBRANCH  22  23
ENDBRANCH  21  22
ENDBRANCH  20  21
ENDBRANCH  19  20
ENDBRANCH  18  19
ENDBRANCH  17  18
ENDBRANCH   1  17
TORSDOF 26
ENDMDL
MODEL 8
REMARK VINA RESULT:    -4.651      2.289      6.688
REMARK INTER + INTRA:         -16.749
REMARK INTER:                 -11.612
REMARK INTRA:                  -5.137
REMARK UNBOUND:                -5.029
REMARK SMILES CCCCCCCCCCCCCCCCCCCCCCCCCCCC(=O)[O-]
REMARK SMILES IDX 15 1 16 2 17 3 18 4 19 5 20 6 21 7 22 8 23 9 24 10 25 11
REMARK SMILES IDX 26 12 27 13 28 14 29 15 30 16 14 17 13 18 12 19 11 20 10 21
REMARK SMILES IDX 9 22 8 23 7 24 6 25 5 26 4 27 3 28 2 29 1 30
REMARK H PARENT
REMARK Flexibility Score: inf
ROOT
ATOM      1  C   UNL     1     -13.833  14.819 -16.427  1.00  0.00     0.000 C 
ENDROOT
BRANCH   1   2
ATOM      2  C   UNL     1     -13.656  16.285 -16.001  1.00  0.00     0.000 C 
BRANCH   2   3
ATOM      3  C   UNL     1     -13.698  16.482 -14.474  1.00  0.00     0.000 C 
BRANCH   3   4
ATOM      4  C   UNL     1     -13.387  17.910 -13.989  1.00  0.00     0.000 C 
BRANCH   4   5
ATOM      5  C   UNL     1     -12.171  18.531 -14.697  1.00  0.00     0.000 C 
BRANCH   5   6
ATOM      6  C   UNL     1     -12.301  20.054 -14.871  1.00  0.00     0.000 C 
BRANCH   6   7
ATOM      7  C   UNL     1     -12.389  20.483 -16.346  1.00  0.00     0.000 C 
BRANCH   7   8
ATOM      8  C   UNL     1     -13.841  20.656 -16.829  1.00  0.00     0.000 C 
BRANCH   8   9
ATOM      9  C   UNL     1     -14.558  19.357 -17.255  1.00  0.00     0.000 C 
BRANCH   9  10
ATOM     10  C   UNL     1     -15.965  19.176 -16.655  1.00  0.00     0.000 C 
BRANCH  10  11
ATOM     11  C   UNL     1     -16.986  18.611 -17.670  1.00  0.00     0.000 C 
BRANCH  11  12
ATOM     12  C   UNL     1     -16.347  18.131 -18.987  1.00  0.00     0.006 C 
BRANCH  12  13
ATOM     13  C   UNL     1     -16.100  16.610 -19.028  1.00  0.00     0.053 C 
BRANCH  13  14
ATOM     14  C   UNL     1     -14.790  16.260 -19.664  1.00  0.00     0.041 C 
ATOM     15  O   UNL     1     -13.960  17.167 -19.947  1.00  0.00    -0.550 OA
ATOM     16  O   UNL     1     -14.484  14.935 -19.952  1.00  0.00    -0.550 OA
ENDBRANCH  13  14
ENDBRANCH  12  13
ENDBRANCH  11  12
ENDBRANCH  10  11
ENDBRANCH   9  10
ENDBRANCH   8   9
ENDBRANCH   7   8
ENDBRANCH   6   7
ENDBRANCH   5   6
ENDBRANCH   4   5
ENDBRANCH   3   4
ENDBRANCH   2   3
ENDBRANCH   1   2
BRANCH   1  17
ATOM     17  C   UNL     1     -12.540  14.023 -16.211  1.00  0.00     0.000 C 
BRANCH  17  18
ATOM     18  C   UNL     1     -12.800  12.512 -16.263  1.00  0.00     0.000 C 
BRANCH  18  19
ATOM     19  C   UNL     1     -14.114  12.209 -17.001  1.00  0.00     0.000 C 
BRANCH  19  20
ATOM     20  C   UNL     1     -15.041  11.270 -16.214  1.00  0.00     0.000 C 
BRANCH  20  21
ATOM     21  C   UNL     1     -15.878  12.015 -15.158  1.00  0.00     0.000 C 
BRANCH  21  22
ATOM     22  C   UNL     1     -17.367  11.634 -15.214  1.00  0.00    -0.000 C 
BRANCH  22  23
ATOM     23  C   UNL     1     -17.869  11.436 -16.655  1.00  0.00    -0.000 C 
BRANCH  23  24
ATOM     24  C   UNL     1     -18.784  12.577 -17.135  1.00  0.00    -0.000 C 
BRANCH  24  25
ATOM     25  C   UNL     1     -18.074  13.910 -17.429  1.00  0.00    -0.000 C 
BRANCH  25  26
ATOM     26  C   UNL     1     -18.991  15.131 -17.246  1.00  0.00    -0.000 C 
BRANCH  26  27
ATOM     27  C   UNL     1     -18.733  15.874 -15.925  1.00  0.00    -0.000 C 
BRANCH  27  28
ATOM     28  C   UNL     1     -17.315  15.708 -15.343  1.00  0.00    -0.000 C 
BRANCH  28  29
ATOM     29  C   UNL     1     -17.214  16.037 -13.839  1.00  0.00    -0.003 C 
ATOM     30  C   UNL     1     -16.775  14.833 -13.007  1.00  0.00     0.004 C 
ENDBRANCH  28  29
ENDBRANCH  27  28
ENDBRANCH  26  27
ENDBRANCH  25  26
ENDBRANCH  24  25
ENDBRANCH  23  24
ENDBRANCH  22  23
ENDBRANCH  21  22
ENDBRANCH  20  21
ENDBRANCH  19  20
ENDBRANCH  18  19
ENDBRANCH  17  18
ENDBRANCH   1  17
TORSDOF 26
ENDMDL
MODEL 9
REMARK VINA RESULT:    -4.629     12.015     14.646
REMARK INTER + INTRA:         -16.693
REMARK INTER:                 -11.466
REMARK INTRA:                  -5.227
REMARK UNBOUND:                -5.029
REMARK SMILES CCCCCCCCCCCCCCCCCCCCCCCCCCCC(=O)[O-]
REMARK SMILES IDX 15 1 16 2 17 3 18 4 19 5 20 6 21 7 22 8 23 9 24 10 25 11
REMARK SMILES IDX 26 12 27 13 28 14 29 15 30 16 14 17 13 18 12 19 11 20 10 21
REMARK SMILES IDX 9 22 8 23 7 24 6 25 5 26 4 27 3 28 2 29 1 30
REMARK H PARENT
REMARK Flexibility Score: inf
ROOT
ATOM      1  C   UNL     1      -7.191  10.124 -10.743  1.00  0.00     0.000 C 
ENDROOT
BRANCH   1   2
ATOM      2  C   UNL     1      -6.055   9.098 -10.607  1.00  0.00     0.000 C 
BRANCH   2   3
ATOM      3  C   UNL     1      -4.656   9.740 -10.611  1.00  0.00     0.000 C 
BRANCH   3   4
ATOM      4  C   UNL     1      -3.823   9.506  -9.337  1.00  0.00     0.000 C 
BRANCH   4   5
ATOM      5  C   UNL     1      -2.323   9.322  -9.626  1.00  0.00     0.000 C 
BRANCH   5   6
ATOM      6  C   UNL     1      -1.431   9.863  -8.497  1.00  0.00     0.000 C 
BRANCH   6   7
ATOM      7  C   UNL     1      -0.400  10.893  -8.989  1.00  0.00     0.000 C 
BRANCH   7   8
ATOM      8  C   UNL     1      -0.084  10.748 -10.490  1.00  0.00     0.000 C 
BRANCH   8   9
ATOM      9  C   UNL     1      -0.031  12.069 -11.287  1.00  0.00     0.000 C 
BRANCH   9  10
ATOM     10  C   UNL     1      -0.634  11.988 -12.702  1.00  0.00     0.000 C 
BRANCH  10  11
ATOM     11  C   UNL     1      -1.907  11.112 -12.766  1.00  0.00     0.000 C 
BRANCH  11  12
ATOM     12  C   UNL     1      -2.112  10.419 -14.127  1.00  0.00     0.006 C 
BRANCH  12  13
ATOM     13  C   UNL     1      -3.387  10.879 -14.862  1.00  0.00     0.053 C 
BRANCH  13  14
ATOM     14  C   UNL     1      -3.273  10.732 -16.349  1.00  0.00     0.041 C 
ATOM     15  O   UNL     1      -2.841   9.658 -16.849  1.00  0.00    -0.550 OA
ATOM     16  O   UNL     1      -3.638  11.781 -17.185  1.00  0.00    -0.550 OA
ENDBRANCH  13  14
ENDBRANCH  12  13
ENDBRANCH  11  12
ENDBRANCH  10  11
ENDBRANCH   9  10
ENDBRANCH   8   9
ENDBRANCH   7   8
ENDBRANCH   6   7
ENDBRANCH   5   6
ENDBRANCH   4   5
ENDBRANCH   3   4
ENDBRANCH   2   3
ENDBRANCH   1   2
BRANCH   1  17
ATOM     17  C   UNL     1      -7.224  10.727 -12.153  1.00  0.00     0.000 C 
BRANCH  17  18
ATOM     18  C   UNL     1      -7.041  12.249 -12.113  1.00  0.00     0.000 C 
BRANCH  18  19
ATOM     19  C   UNL     1      -6.044  12.708 -13.188  1.00  0.00     0.000 C 
BRANCH  19  20
ATOM     20  C   UNL     1      -4.900  13.563 -12.619  1.00  0.00     0.000 C 
BRANCH  20  21
ATOM     21  C   UNL     1      -4.535  13.175 -11.175  1.00  0.00     0.000 C 
BRANCH  21  22
ATOM     22  C   UNL     1      -3.263  13.884 -10.680  1.00  0.00    -0.000 C 
BRANCH  22  23
ATOM     23  C   UNL     1      -2.879  13.471  -9.248  1.00  0.00    -0.000 C 
BRANCH  23  24
ATOM     24  C   UNL     1      -4.088  13.015  -8.410  1.00  0.00    -0.000 C 
BRANCH  24  25
ATOM     25  C   UNL     1      -4.387  13.872  -7.168  1.00  0.00    -0.000 C 
BRANCH  25  26
ATOM     26  C   UNL     1      -5.676  14.698  -7.306  1.00  0.00    -0.000 C 
BRANCH  26  27
ATOM     27  C   UNL     1      -6.787  13.945  -8.058  1.00  0.00    -0.000 C 
BRANCH  27  28
ATOM     28  C   UNL     1      -7.730  14.831  -8.896  1.00  0.00    -0.000 C 
BRANCH  28  29
ATOM     29  C   UNL     1      -7.061  15.458 -10.136  1.00  0.00    -0.003 C 
ATOM     30  C   UNL     1      -8.081  15.983 -11.145  1.00  0.00     0.004 C 
ENDBRANCH  28  29
ENDBRANCH  27  28
ENDBRANCH  26  27
ENDBRANCH  25  26
ENDBRANCH  24  25
ENDBRANCH  23  24
ENDBRANCH  22  23
ENDBRANCH  21  22
ENDBRANCH  20  21
ENDBRANCH  19  20
ENDBRANCH  18  19
ENDBRANCH  17  18
ENDBRANCH   1  17
TORSDOF 26
ENDMDL
