MODEL 1
REMARK VINA RESULT:    -4.628      0.000      0.000
REMARK INTER + INTRA:          -8.636
REMARK INTER:                  -8.010
REMARK INTRA:                  -0.626
REMARK UNBOUND:                -0.626
REMARK SMILES CCCCCCCCCCCCCCO
REMARK SMILES IDX 8 1 7 2 6 3 5 4 4 5 3 6 2 7 1 8 9 9 10 10 11 11 12 12 13 13
REMARK SMILES IDX 14 14 15 15
REMARK H PARENT 15 16
REMARK Flexibility Score: inf
ROOT
ATOM      1  C   UNL     1     -17.062  -4.275   1.873  1.00  0.00     0.000 C 
ENDROOT
BRANCH   1   2
ATOM      2  C   UNL     1     -18.197  -5.247   1.503  1.00  0.00    -0.000 C 
BRANCH   2   3
ATOM      3  C   UNL     1     -19.576  -4.568   1.471  1.00  0.00    -0.000 C 
BRANCH   3   4
ATOM      4  C   UNL     1     -20.116  -4.391   0.041  1.00  0.00    -0.000 C 
BRANCH   4   5
ATOM      5  C   UNL     1     -20.638  -5.707  -0.558  1.00  0.00    -0.000 C 
BRANCH   5   6
ATOM      6  C   UNL     1     -21.781  -6.321   0.270  1.00  0.00    -0.000 C 
BRANCH   6   7
ATOM      7  C   UNL     1     -21.677  -7.850   0.372  1.00  0.00    -0.003 C 
ATOM      8  C   UNL     1     -20.242  -8.337   0.574  1.00  0.00     0.004 C 
ENDBRANCH   6   7
ENDBRANCH   5   6
ENDBRANCH   4   5
ENDBRANCH   3   4
ENDBRANCH   2   3
ENDBRANCH   1   2
BRANCH   1   9
ATOM      9  C   UNL     1     -15.687  -4.975   1.919  1.00  0.00     0.000 C 
BRANCH   9  10
ATOM     10  C   UNL     1     -14.893  -4.685   3.204  1.00  0.00     0.000 C 
BRANCH  10  11
ATOM     11  C   UNL     1     -13.461  -5.242   3.160  1.00  0.00     0.000 C 
BRANCH  11  12
ATOM     12  C   UNL     1     -12.580  -4.530   2.122  1.00  0.00     0.002 C 
BRANCH  12  13
ATOM     13  C   UNL     1     -11.191  -4.169   2.674  1.00  0.00     0.028 C 
BRANCH  13  14
ATOM     14  C   UNL     1     -10.752  -2.774   2.229  1.00  0.00     0.156 C 
BRANCH  14  15
ATOM     15  O   UNL     1      -9.406  -2.793   1.841  1.00  0.00    -0.396 OA
ATOM     16  H   UNL     1      -8.932  -3.347   2.514  1.00  0.00     0.210 HD
ENDBRANCH  14  15
ENDBRANCH  13  14
ENDBRANCH  12  13
ENDBRANCH  11  12
ENDBRANCH  10  11
ENDBRANCH   9  10
ENDBRANCH   1   9
TORSDOF 13
ENDMDL
MODEL 2
REMARK VINA RESULT:    -4.530      3.028      8.426
REMARK INTER + INTRA:          -8.466
REMARK INTER:                  -8.265
REMARK INTRA:                  -0.201
REMARK UNBOUND:                -0.626
REMARK SMILES CCCCCCCCCCCCCCO
REMARK SMILES IDX 8 1 7 2 6 3 5 4 4 5 3 6 2 7 1 8 9 9 10 10 11 11 12 12 13 13
REMARK SMILES IDX 14 14 15 15
REMARK H PARENT 15 16
REMARK Flexibility Score: inf
ROOT
ATOM      1  C   UNL     1     -18.183  -5.219   1.567  1.00  0.00     0.000 C 
ENDROOT
BRANCH   1   2
ATOM      2  C   UNL     1     -16.877  -4.405   1.528  1.00  0.00    -0.000 C 
BRANCH   2   3
ATOM      3  C   UNL     1     -15.868  -4.847   2.599  1.00  0.00    -0.000 C 
BRANCH   3   4
ATOM      4  C   UNL     1     -14.414  -4.797   2.098  1.00  0.00    -0.000 C 
BRANCH   4   5
ATOM      5  C   UNL     1     -13.403  -5.207   3.182  1.00  0.00    -0.000 C 
BRANCH   5   6
ATOM      6  C   UNL     1     -11.955  -4.846   2.806  1.00  0.00    -0.000 C 
BRANCH   6   7
ATOM      7  C   UNL     1     -11.838  -3.440   2.198  1.00  0.00    -0.003 C 
ATOM      8  C   UNL     1     -10.405  -2.907   2.206  1.00  0.00     0.004 C 
ENDBRANCH   6   7
ENDBRANCH   5   6
ENDBRANCH   4   5
ENDBRANCH   3   4
ENDBRANCH   2   3
ENDBRANCH   1   2
BRANCH   1   9
ATOM      9  C   UNL     1     -19.432  -4.316   1.654  1.00  0.00     0.000 C 
BRANCH   9  10
ATOM     10  C   UNL     1     -20.175  -4.165   0.316  1.00  0.00     0.000 C 
BRANCH  10  11
ATOM     11  C   UNL     1     -20.507  -5.516  -0.339  1.00  0.00     0.000 C 
BRANCH  11  12
ATOM     12  C   UNL     1     -21.529  -6.330   0.470  1.00  0.00     0.002 C 
BRANCH  12  13
ATOM     13  C   UNL     1     -21.592  -7.802   0.029  1.00  0.00     0.028 C 
BRANCH  13  14
ATOM     14  C   UNL     1     -20.311  -8.554   0.389  1.00  0.00     0.156 C 
BRANCH  14  15
ATOM     15  O   UNL     1     -19.688  -7.950   1.489  1.00  0.00    -0.396 OA
ATOM     16  H   UNL     1     -20.400  -7.455   1.972  1.00  0.00     0.210 HD
ENDBRANCH  14  15
ENDBRANCH  13  14
ENDBRANCH  12  13
ENDBRANCH  11  12
ENDBRANCH  10  11
ENDBRANCH   9  10
ENDBRANCH   1   9
TORSDOF 13
ENDMDL
MODEL 3
REMARK VINA RESULT:    -4.480      3.069      8.670
REMARK INTER + INTRA:          -8.380
REMARK INTER:                  -7.888
REMARK INTRA:                  -0.492
REMARK UNBOUND:                -0.626
REMARK SMILES CCCCCCCCCCCCCCO
REMARK SMILES IDX 8 1 7 2 6 3 5 4 4 5 3 6 2 7 1 8 9 9 10 10 11 11 12 12 13 13
REMARK SMILES IDX 14 14 15 15
REMARK H PARENT 15 16
REMARK Flexibility Score: inf
ROOT
ATOM      1  C   UNL     1     -17.058  -4.229   1.843  1.00  0.00     0.000 C 
ENDROOT
BRANCH   1   2
ATOM      2  C   UNL     1     -15.681  -4.915   1.903  1.00  0.00    -0.000 C 
BRANCH   2   3
ATOM      3  C   UNL     1     -15.079  -4.917   3.318  1.00  0.00    -0.000 C 
BRANCH   3   4
ATOM      4  C   UNL     1     -13.567  -5.202   3.316  1.00  0.00    -0.000 C 
BRANCH   4   5
ATOM      5  C   UNL     1     -12.810  -4.361   2.277  1.00  0.00    -0.000 C 
BRANCH   5   6
ATOM      6  C   UNL     1     -11.349  -4.097   2.680  1.00  0.00    -0.000 C 
BRANCH   6   7
ATOM      7  C   UNL     1     -10.779  -2.827   2.032  1.00  0.00    -0.003 C 
ATOM      8  C   UNL     1      -9.789  -2.091   2.936  1.00  0.00     0.004 C 
ENDBRANCH   6   7
ENDBRANCH   5   6
ENDBRANCH   4   5
ENDBRANCH   3   4
ENDBRANCH   2   3
ENDBRANCH   1   2
BRANCH   1   9
ATOM      9  C   UNL     1     -18.189  -5.220   1.490  1.00  0.00     0.000 C 
BRANCH   9  10
ATOM     10  C   UNL     1     -19.595  -4.604   1.581  1.00  0.00     0.000 C 
BRANCH  10  11
ATOM     11  C   UNL     1     -20.216  -4.327   0.202  1.00  0.00     0.000 C 
BRANCH  11  12
ATOM     12  C   UNL     1     -20.638  -5.612  -0.525  1.00  0.00     0.002 C 
BRANCH  12  13
ATOM     13  C   UNL     1     -21.502  -6.531   0.354  1.00  0.00     0.028 C 
BRANCH  13  14
ATOM     14  C   UNL     1     -21.020  -7.981   0.301  1.00  0.00     0.156 C 
BRANCH  14  15
ATOM     15  O   UNL     1     -19.862  -8.133   1.074  1.00  0.00    -0.396 OA
ATOM     16  H   UNL     1     -19.117  -7.767   0.530  1.00  0.00     0.210 HD
ENDBRANCH  14  15
ENDBRANCH  13  14
ENDBRANCH  12  13
ENDBRANCH  11  12
ENDBRANCH  10  11
ENDBRANCH   9  10
ENDBRANCH   1   9
TORSDOF 13
ENDMDL
MODEL 4
REMARK VINA RESULT:    -3.711     14.497     17.422
REMARK INTER + INTRA:          -7.049
REMARK INTER:                  -6.308
REMARK INTRA:                  -0.741
REMARK UNBOUND:                -0.626
REMARK SMILES CCCCCCCCCCCCCCO
REMARK SMILES IDX 8 1 7 2 6 3 5 4 4 5 3 6 2 7 1 8 9 9 10 10 11 11 12 12 13 13
REMARK SMILES IDX 14 14 15 15
REMARK H PARENT 15 16
REMARK Flexibility Score: inf
ROOT
ATOM      1  C   UNL     1     -13.384  -4.743  18.562  1.00  0.00     0.000 C 
ENDROOT
BRANCH   1   2
ATOM      2  C   UNL     1     -12.620  -6.019  18.165  1.00  0.00    -0.000 C 
BRANCH   2   3
ATOM      3  C   UNL     1     -11.116  -5.933  18.472  1.00  0.00    -0.000 C 
BRANCH   3   4
ATOM      4  C   UNL     1     -10.282  -5.538  17.241  1.00  0.00    -0.000 C 
BRANCH   4   5
ATOM      5  C   UNL     1     -10.767  -6.227  15.955  1.00  0.00    -0.000 C 
BRANCH   5   6
ATOM      6  C   UNL     1     -10.127  -7.611  15.748  1.00  0.00    -0.000 C 
BRANCH   6   7
ATOM      7  C   UNL     1      -9.437  -7.742  14.382  1.00  0.00    -0.003 C 
ATOM      8  C   UNL     1      -9.198  -6.392  13.705  1.00  0.00     0.004 C 
ENDBRANCH   6   7
ENDBRANCH   5   6
ENDBRANCH   4   5
ENDBRANCH   3   4
ENDBRANCH   2   3
ENDBRANCH   1   2
BRANCH   1   9
ATOM      9  C   UNL     1     -14.860  -4.783  18.111  1.00  0.00     0.000 C 
BRANCH   9  10
ATOM     10  C   UNL     1     -15.298  -6.151  17.562  1.00  0.00     0.000 C 
BRANCH  10  11
ATOM     11  C   UNL     1     -16.768  -6.477  17.875  1.00  0.00     0.000 C 
BRANCH  11  12
ATOM     12  C   UNL     1     -17.541  -5.263  18.413  1.00  0.00     0.002 C 
BRANCH  12  13
ATOM     13  C   UNL     1     -18.444  -4.619  17.347  1.00  0.00     0.028 C 
BRANCH  13  14
ATOM     14  C   UNL     1     -18.938  -5.648  16.330  1.00  0.00     0.156 C 
BRANCH  14  15
ATOM     15  O   UNL     1     -18.915  -5.102  15.040  1.00  0.00    -0.396 OA
ATOM     16  H   UNL     1     -18.000  -4.741  14.910  1.00  0.00     0.210 HD
ENDBRANCH  14  15
ENDBRANCH  13  14
ENDBRANCH  12  13
ENDBRANCH  11  12
ENDBRANCH  10  11
ENDBRANCH   9  10
ENDBRANCH   1   9
TORSDOF 13
ENDMDL
MODEL 5
REMARK VINA RESULT:    -3.542     17.091     19.247
REMARK INTER + INTRA:          -6.756
REMARK INTER:                  -6.238
REMARK INTRA:                  -0.518
REMARK UNBOUND:                -0.626
REMARK SMILES CCCCCCCCCCCCCCO
REMARK SMILES IDX 8 1 7 2 6 3 5 4 4 5 3 6 2 7 1 8 9 9 10 10 11 11 12 12 13 13
REMARK SMILES IDX 14 14 15 15
REMARK H PARENT 15 16
REMARK Flexibility Score: inf
ROOT
ATOM      1  C   UNL     1     -24.207  -7.242  17.115  1.00  0.00     0.000 C 
ENDROOT
BRANCH   1   2
ATOM      2  C   UNL     1     -22.701  -6.928  17.077  1.00  0.00    -0.000 C 
BRANCH   2   3
ATOM      3  C   UNL     1     -22.310  -5.770  18.010  1.00  0.00    -0.000 C 
BRANCH   3   4
ATOM      4  C   UNL     1     -20.811  -5.434  17.941  1.00  0.00    -0.000 C 
BRANCH   4   5
ATOM      5  C   UNL     1     -20.080  -6.223  16.842  1.00  0.00    -0.000 C 
BRANCH   5   6
ATOM      6  C   UNL     1     -18.792  -6.892  17.351  1.00  0.00    -0.000 C 
BRANCH   6   7
ATOM      7  C   UNL     1     -17.535  -6.071  17.029  1.00  0.00    -0.003 C 
ATOM      8  C   UNL     1     -17.129  -5.134  18.167  1.00  0.00     0.004 C 
ENDBRANCH   6   7
ENDBRANCH   5   6
ENDBRANCH   4   5
ENDBRANCH   3   4
ENDBRANCH   2   3
ENDBRANCH   1   2
BRANCH   1   9
ATOM      9  C   UNL     1     -25.013  -6.148  17.847  1.00  0.00     0.000 C 
BRANCH   9  10
ATOM     10  C   UNL     1     -26.513  -6.159  17.505  1.00  0.00     0.000 C 
BRANCH  10  11
ATOM     11  C   UNL     1     -27.088  -4.748  17.295  1.00  0.00     0.000 C 
BRANCH  11  12
ATOM     12  C   UNL     1     -28.603  -4.760  17.034  1.00  0.00     0.002 C 
BRANCH  12  13
ATOM     13  C   UNL     1     -29.122  -3.409  16.517  1.00  0.00     0.028 C 
BRANCH  13  14
ATOM     14  C   UNL     1     -28.122  -2.282  16.777  1.00  0.00     0.156 C 
BRANCH  14  15
ATOM     15  O   UNL     1     -28.679  -1.048  16.417  1.00  0.00    -0.396 OA
ATOM     16  H   UNL     1     -29.180  -0.729  17.212  1.00  0.00     0.210 HD
ENDBRANCH  14  15
ENDBRANCH  13  14
ENDBRANCH  12  13
ENDBRANCH  11  12
ENDBRANCH  10  11
ENDBRANCH   9  10
ENDBRANCH   1   9
TORSDOF 13
ENDMDL
MODEL 6
REMARK VINA RESULT:    -3.527     16.737     17.602
REMARK INTER + INTRA:          -6.731
REMARK INTER:                  -6.182
REMARK INTRA:                  -0.549
REMARK UNBOUND:                -0.626
REMARK SMILES CCCCCCCCCCCCCCO
REMARK SMILES IDX 8 1 7 2 6 3 5 4 4 5 3 6 2 7 1 8 9 9 10 10 11 11 12 12 13 13
REMARK SMILES IDX 14 14 15 15
REMARK H PARENT 15 16
REMARK Flexibility Score: inf
ROOT
ATOM      1  C   UNL     1     -23.584  -7.951  17.892  1.00  0.00     0.000 C 
ENDROOT
BRANCH   1   2
ATOM      2  C   UNL     1     -24.557  -7.007  17.164  1.00  0.00    -0.000 C 
BRANCH   2   3
ATOM      3  C   UNL     1     -25.784  -6.643  18.015  1.00  0.00    -0.000 C 
BRANCH   3   4
ATOM      4  C   UNL     1     -26.477  -5.356  17.535  1.00  0.00    -0.000 C 
BRANCH   4   5
ATOM      5  C   UNL     1     -27.910  -5.608  17.040  1.00  0.00    -0.000 C 
BRANCH   5   6
ATOM      6  C   UNL     1     -28.782  -4.341  17.083  1.00  0.00    -0.000 C 
BRANCH   6   7
ATOM      7  C   UNL     1     -27.982  -3.089  17.472  1.00  0.00    -0.003 C 
ATOM      8  C   UNL     1     -27.922  -2.050  16.352  1.00  0.00     0.004 C 
ENDBRANCH   6   7
ENDBRANCH   5   6
ENDBRANCH   4   5
ENDBRANCH   3   4
ENDBRANCH   2   3
ENDBRANCH   1   2
BRANCH   1   9
ATOM      9  C   UNL     1     -22.148  -7.854  17.333  1.00  0.00     0.000 C 
BRANCH   9  10
ATOM     10  C   UNL     1     -21.181  -7.089  18.252  1.00  0.00     0.000 C 
BRANCH  10  11
ATOM     11  C   UNL     1     -21.038  -5.607  17.867  1.00  0.00     0.000 C 
BRANCH  11  12
ATOM     12  C   UNL     1     -19.789  -4.955  18.481  1.00  0.00     0.002 C 
BRANCH  12  13
ATOM     13  C   UNL     1     -18.505  -5.295  17.707  1.00  0.00     0.028 C 
BRANCH  13  14
ATOM     14  C   UNL     1     -18.661  -5.025  16.210  1.00  0.00     0.156 C 
BRANCH  14  15
ATOM     15  O   UNL     1     -18.607  -3.648  15.959  1.00  0.00    -0.396 OA
ATOM     16  H   UNL     1     -19.398  -3.254  16.410  1.00  0.00     0.210 HD
ENDBRANCH  14  15
ENDBRANCH  13  14
ENDBRANCH  12  13
ENDBRANCH  11  12
ENDBRANCH  10  11
ENDBRANCH   9  10
ENDBRANCH   1   9
TORSDOF 13
ENDMDL
MODEL 7
REMARK VINA RESULT:    -3.486     15.960     17.842
REMARK INTER + INTRA:          -6.659
REMARK INTER:                  -4.983
REMARK INTRA:                  -1.676
REMARK UNBOUND:                -0.626
REMARK SMILES CCCCCCCCCCCCCCO
REMARK SMILES IDX 8 1 7 2 6 3 5 4 4 5 3 6 2 7 1 8 9 9 10 10 11 11 12 12 13 13
REMARK SMILES IDX 14 14 15 15
REMARK H PARENT 15 16
REMARK Flexibility Score: inf
ROOT
ATOM      1  C   UNL     1     -18.313  -4.812  17.102  1.00  0.00     0.000 C 
ENDROOT
BRANCH   1   2
ATOM      2  C   UNL     1     -18.197  -4.972  18.628  1.00  0.00    -0.000 C 
BRANCH   2   3
ATOM      3  C   UNL     1     -16.744  -4.909  19.125  1.00  0.00    -0.000 C 
BRANCH   3   4
ATOM      4  C   UNL     1     -15.726  -4.863  17.972  1.00  0.00    -0.000 C 
BRANCH   4   5
ATOM      5  C   UNL     1     -14.743  -6.044  18.006  1.00  0.00    -0.000 C 
BRANCH   5   6
ATOM      6  C   UNL     1     -15.451  -7.397  18.198  1.00  0.00    -0.000 C 
BRANCH   6   7
ATOM      7  C   UNL     1     -15.787  -8.080  16.864  1.00  0.00    -0.003 C 
ATOM      8  C   UNL     1     -16.523  -9.408  17.046  1.00  0.00     0.004 C 
ENDBRANCH   6   7
ENDBRANCH   5   6
ENDBRANCH   4   5
ENDBRANCH   3   4
ENDBRANCH   2   3
ENDBRANCH   1   2
BRANCH   1   9
ATOM      9  C   UNL     1     -19.115  -5.961  16.453  1.00  0.00     0.000 C 
BRANCH   9  10
ATOM     10  C   UNL     1     -19.395  -7.131  17.412  1.00  0.00     0.000 C 
BRANCH  10  11
ATOM     11  C   UNL     1     -20.792  -7.744  17.213  1.00  0.00     0.000 C 
BRANCH  11  12
ATOM     12  C   UNL     1     -21.899  -6.681  17.140  1.00  0.00     0.002 C 
BRANCH  12  13
ATOM     13  C   UNL     1     -22.506  -6.366  18.518  1.00  0.00     0.028 C 
BRANCH  13  14
ATOM     14  C   UNL     1     -22.751  -4.868  18.698  1.00  0.00     0.156 C 
BRANCH  14  15
ATOM     15  O   UNL     1     -21.621  -4.142  18.303  1.00  0.00    -0.396 OA
ATOM     16  H   UNL     1     -21.022  -4.112  19.094  1.00  0.00     0.210 HD
ENDBRANCH  14  15
ENDBRANCH  13  14
ENDBRANCH  12  13
ENDBRANCH  11  12
ENDBRANCH  10  11
ENDBRANCH   9  10
ENDBRANCH   1   9
TORSDOF 13
ENDMDL
MODEL 8
REMARK VINA RESULT:    -3.420     15.366     17.149
REMARK INTER + INTRA:          -6.545
REMARK INTER:                  -5.108
REMARK INTRA:                  -1.438
REMARK UNBOUND:                -0.626
REMARK SMILES CCCCCCCCCCCCCCO
REMARK SMILES IDX 8 1 7 2 6 3 5 4 4 5 3 6 2 7 1 8 9 9 10 10 11 11 12 12 13 13
REMARK SMILES IDX 14 14 15 15
REMARK H PARENT 15 16
REMARK Flexibility Score: inf
ROOT
ATOM      1  C   UNL     1      -9.818  -5.802  17.477  1.00  0.00     0.000 C 
ENDROOT
BRANCH   1   2
ATOM      2  C   UNL     1      -9.017  -6.009  16.179  1.00  0.00    -0.000 C 
BRANCH   2   3
ATOM      3  C   UNL     1      -9.912  -6.337  14.973  1.00  0.00    -0.000 C 
BRANCH   3   4
ATOM      4  C   UNL     1      -9.500  -7.641  14.268  1.00  0.00    -0.000 C 
BRANCH   4   5
ATOM      5  C   UNL     1      -9.226  -8.785  15.257  1.00  0.00    -0.000 C 
BRANCH   5   6
ATOM      6  C   UNL     1     -10.419  -9.748  15.392  1.00  0.00    -0.000 C 
BRANCH   6   7
ATOM      7  C   UNL     1     -11.377  -9.343  16.523  1.00  0.00    -0.003 C 
ATOM      8  C   UNL     1     -12.724  -8.836  16.008  1.00  0.00     0.004 C 
ENDBRANCH   6   7
ENDBRANCH   5   6
ENDBRANCH   4   5
ENDBRANCH   3   4
ENDBRANCH   2   3
ENDBRANCH   1   2
BRANCH   1   9
ATOM      9  C   UNL     1     -11.330  -5.644  17.210  1.00  0.00     0.000 C 
BRANCH   9  10
ATOM     10  C   UNL     1     -12.205  -5.945  18.439  1.00  0.00     0.000 C 
BRANCH  10  11
ATOM     11  C   UNL     1     -13.073  -4.748  18.862  1.00  0.00     0.000 C 
BRANCH  11  12
ATOM     12  C   UNL     1     -14.463  -4.766  18.208  1.00  0.00     0.002 C 
BRANCH  12  13
ATOM     13  C   UNL     1     -15.114  -6.159  18.243  1.00  0.00     0.028 C 
BRANCH  13  14
ATOM     14  C   UNL     1     -16.162  -6.320  17.141  1.00  0.00     0.156 C 
BRANCH  14  15
ATOM     15  O   UNL     1     -15.579  -6.881  15.998  1.00  0.00    -0.396 OA
ATOM     16  H   UNL     1     -14.608  -6.953  16.190  1.00  0.00     0.210 HD
ENDBRANCH  14  15
ENDBRANCH  13  14
ENDBRANCH  12  13
ENDBRANCH  11  12
ENDBRANCH  10  11
ENDBRANCH   9  10
ENDBRANCH   1   9
TORSDOF 13
ENDMDL
MODEL 9
REMARK VINA RESULT:    -3.408     15.403     17.231
REMARK INTER + INTRA:          -6.524
REMARK INTER:                  -5.077
REMARK INTRA:                  -1.447
REMARK UNBOUND:                -0.626
REMARK SMILES CCCCCCCCCCCCCCO
REMARK SMILES IDX 8 1 7 2 6 3 5 4 4 5 3 6 2 7 1 8 9 9 10 10 11 11 12 12 13 13
REMARK SMILES IDX 14 14 15 15
REMARK H PARENT 15 16
REMARK Flexibility Score: inf
ROOT
ATOM      1  C   UNL     1     -12.626  -9.046  16.581  1.00  0.00     0.000 C 
ENDROOT
BRANCH   1   2
ATOM      2  C   UNL     1     -11.512  -9.512  15.627  1.00  0.00    -0.000 C 
BRANCH   2   3
ATOM      3  C   UNL     1     -10.179  -8.785  15.867  1.00  0.00    -0.000 C 
BRANCH   3   4
ATOM      4  C   UNL     1      -9.851  -7.769  14.759  1.00  0.00    -0.000 C 
BRANCH   4   5
ATOM      5  C   UNL     1     -10.399  -6.366  15.065  1.00  0.00    -0.000 C 
BRANCH   5   6
ATOM      6  C   UNL     1     -10.032  -5.883  16.479  1.00  0.00    -0.000 C 
BRANCH   6   7
ATOM      7  C   UNL     1     -11.270  -5.619  17.350  1.00  0.00    -0.003 C 
ATOM      8  C   UNL     1     -11.101  -6.114  18.787  1.00  0.00     0.004 C 
ENDBRANCH   6   7
ENDBRANCH   5   6
ENDBRANCH   4   5
ENDBRANCH   3   4
ENDBRANCH   2   3
ENDBRANCH   1   2
BRANCH   1   9
ATOM      9  C   UNL     1     -13.630  -8.101  15.887  1.00  0.00     0.000 C 
BRANCH   9  10
ATOM     10  C   UNL     1     -14.899  -7.838  16.716  1.00  0.00     0.000 C 
BRANCH  10  11
ATOM     11  C   UNL     1     -14.634  -6.963  17.952  1.00  0.00     0.000 C 
BRANCH  11  12
ATOM     12  C   UNL     1     -15.522  -5.710  17.992  1.00  0.00     0.002 C 
BRANCH  12  13
ATOM     13  C   UNL     1     -16.748  -5.827  17.072  1.00  0.00     0.028 C 
BRANCH  13  14
ATOM     14  C   UNL     1     -17.896  -4.934  17.545  1.00  0.00     0.156 C 
BRANCH  14  15
ATOM     15  O   UNL     1     -18.258  -4.037  16.532  1.00  0.00    -0.396 OA
ATOM     16  H   UNL     1     -18.482  -4.590  15.740  1.00  0.00     0.210 HD
ENDBRANCH  14  15
ENDBRANCH  13  14
ENDBRANCH  12  13
ENDBRANCH  11  12
ENDBRANCH  10  11
ENDBRANCH   9  10
ENDBRANCH   1   9
TORSDOF 13
ENDMDL
