MODEL 1
REMARK VINA RESULT:    -3.856      0.000      0.000
REMARK INTER + INTRA:          -4.257
REMARK INTER:                  -4.194
REMARK INTRA:                  -0.063
REMARK UNBOUND:                -0.063
REMARK SMILES COc1cc2ccc(=O)oc2cc1O
REMARK SMILES IDX 3 1 13 2 12 3 11 4 5 5 4 6 6 7 7 8 8 9 9 10 10 11 2 12 1 13
REMARK SMILES IDX 14 14
REMARK H PARENT 14 15
REMARK Flexibility Score: inf
ROOT
ATOM      1  C   UNL     1      51.044  47.679  13.323  1.00  0.00     0.161 A 
ATOM      2  C   UNL     1      50.077  48.617  13.718  1.00  0.00     0.161 A 
ATOM      3  C   UNL     1      48.969  48.214  14.477  1.00  0.00     0.098 A 
ATOM      4  C   UNL     1      48.817  46.876  14.847  1.00  0.00     0.142 A 
ATOM      5  C   UNL     1      49.784  45.927  14.453  1.00  0.00     0.022 A 
ATOM      6  C   UNL     1      50.892  46.327  13.695  1.00  0.00     0.062 A 
ATOM      7  C   UNL     1      49.604  44.594  14.838  1.00  0.00     0.019 A 
ATOM      8  C   UNL     1      48.484  44.244  15.593  1.00  0.00     0.094 A 
ATOM      9  C   UNL     1      47.567  45.240  15.947  1.00  0.00     0.336 A 
ATOM     10  O   UNL     1      46.551  44.945  16.628  1.00  0.00    -0.246 OA
ATOM     11  O   UNL     1      47.762  46.501  15.567  1.00  0.00    -0.423 OA
ENDROOT
BRANCH   1  12
ATOM     12  O   UNL     1      52.137  48.127  12.564  1.00  0.00    -0.493 OA
ATOM     13  C   UNL     1      53.486  48.138  13.021  1.00  0.00     0.278 C 
ENDBRANCH   1  12
BRANCH   2  14
ATOM     14  O   UNL     1      50.227  49.953  13.351  1.00  0.00    -0.504 OA
ATOM     15  H   UNL     1      49.456  50.488  12.969  1.00  0.00     0.293 HD
ENDBRANCH   2  14
TORSDOF 2
ENDMDL
MODEL 2
REMARK VINA RESULT:    -3.831      1.250      5.418
REMARK INTER + INTRA:          -4.230
REMARK INTER:                  -4.167
REMARK INTRA:                  -0.063
REMARK UNBOUND:                -0.063
REMARK SMILES COc1cc2ccc(=O)oc2cc1O
REMARK SMILES IDX 3 1 13 2 12 3 11 4 5 5 4 6 6 7 7 8 8 9 9 10 10 11 2 12 1 13
REMARK SMILES IDX 14 14
REMARK H PARENT 14 15
REMARK Flexibility Score: inf
ROOT
ATOM      1  C   UNL     1      48.068  45.459  15.660  1.00  0.00     0.161 A 
ATOM      2  C   UNL     1      49.086  44.585  15.246  1.00  0.00     0.161 A 
ATOM      3  C   UNL     1      50.136  45.053  14.444  1.00  0.00     0.098 A 
ATOM      4  C   UNL     1      50.179  46.391  14.048  1.00  0.00     0.142 A 
ATOM      5  C   UNL     1      49.159  47.276  14.459  1.00  0.00     0.022 A 
ATOM      6  C   UNL     1      48.108  46.811  15.261  1.00  0.00     0.062 A 
ATOM      7  C   UNL     1      49.229  48.611  14.046  1.00  0.00     0.019 A 
ATOM      8  C   UNL     1      50.294  49.026  13.248  1.00  0.00     0.094 A 
ATOM      9  C   UNL     1      51.269  48.093  12.879  1.00  0.00     0.336 A 
ATOM     10  O   UNL     1      52.239  48.448  12.160  1.00  0.00    -0.246 OA
ATOM     11  O   UNL     1      51.179  46.829  13.286  1.00  0.00    -0.423 OA
ENDROOT
BRANCH   1  12
ATOM     12  O   UNL     1      47.036  44.948  16.463  1.00  0.00    -0.493 OA
ATOM     13  C   UNL     1      45.681  44.815  16.046  1.00  0.00     0.278 C 
ENDBRANCH   1  12
BRANCH   2  14
ATOM     14  O   UNL     1      49.046  43.249  15.641  1.00  0.00    -0.504 OA
ATOM     15  H   UNL     1      48.249  42.866  16.136  1.00  0.00     0.293 HD
ENDBRANCH   2  14
TORSDOF 2
ENDMDL
MODEL 3
REMARK VINA RESULT:    -3.808      1.321      1.697
REMARK INTER + INTRA:          -4.205
REMARK INTER:                  -4.158
REMARK INTRA:                  -0.046
REMARK UNBOUND:                -0.063
REMARK SMILES COc1cc2ccc(=O)oc2cc1O
REMARK SMILES IDX 3 1 13 2 12 3 11 4 5 5 4 6 6 7 7 8 8 9 9 10 10 11 2 12 1 13
REMARK SMILES IDX 14 14
REMARK H PARENT 14 15
REMARK Flexibility Score: inf
ROOT
ATOM      1  C   UNL     1      50.414  46.650  14.421  1.00  0.00     0.161 A 
ATOM      2  C   UNL     1      49.474  47.535  14.973  1.00  0.00     0.161 A 
ATOM      3  C   UNL     1      48.243  47.056  15.444  1.00  0.00     0.098 A 
ATOM      4  C   UNL     1      47.941  45.694  15.368  1.00  0.00     0.142 A 
ATOM      5  C   UNL     1      48.880  44.798  14.815  1.00  0.00     0.022 A 
ATOM      6  C   UNL     1      50.110  45.275  14.342  1.00  0.00     0.062 A 
ATOM      7  C   UNL     1      48.548  43.441  14.752  1.00  0.00     0.019 A 
ATOM      8  C   UNL     1      47.312  43.015  15.234  1.00  0.00     0.094 A 
ATOM      9  C   UNL     1      46.431  43.960  15.771  1.00  0.00     0.336 A 
ATOM     10  O   UNL     1      45.310  43.596  16.212  1.00  0.00    -0.246 OA
ATOM     11  O   UNL     1      46.771  45.246  15.818  1.00  0.00    -0.423 OA
ENDROOT
BRANCH   1  12
ATOM     12  O   UNL     1      51.633  47.173  13.961  1.00  0.00    -0.493 OA
ATOM     13  C   UNL     1      51.875  47.595  12.623  1.00  0.00     0.278 C 
ENDBRANCH   1  12
BRANCH   2  14
ATOM     14  O   UNL     1      49.773  48.894  15.050  1.00  0.00    -0.504 OA
ATOM     15  H   UNL     1      49.100  49.566  15.400  1.00  0.00     0.293 HD
ENDBRANCH   2  14
TORSDOF 2
ENDMDL
MODEL 4
REMARK VINA RESULT:    -3.784      1.481      4.796
REMARK INTER + INTRA:          -4.178
REMARK INTER:                  -4.114
REMARK INTRA:                  -0.064
REMARK UNBOUND:                -0.063
REMARK SMILES COc1cc2ccc(=O)oc2cc1O
REMARK SMILES IDX 3 1 13 2 12 3 11 4 5 5 4 6 6 7 7 8 8 9 9 10 10 11 2 12 1 13
REMARK SMILES IDX 14 14
REMARK H PARENT 14 15
REMARK Flexibility Score: inf
ROOT
ATOM      1  C   UNL     1      49.161  44.075  15.612  1.00  0.00     0.161 A 
ATOM      2  C   UNL     1      48.016  44.778  16.018  1.00  0.00     0.161 A 
ATOM      3  C   UNL     1      47.841  46.119  15.649  1.00  0.00     0.098 A 
ATOM      4  C   UNL     1      48.805  46.769  14.875  1.00  0.00     0.142 A 
ATOM      5  C   UNL     1      49.959  46.069  14.462  1.00  0.00     0.022 A 
ATOM      6  C   UNL     1      50.136  44.729  14.831  1.00  0.00     0.062 A 
ATOM      7  C   UNL     1      50.907  46.747  13.688  1.00  0.00     0.019 A 
ATOM      8  C   UNL     1      50.686  48.081  13.348  1.00  0.00     0.094 A 
ATOM      9  C   UNL     1      49.518  48.710  13.792  1.00  0.00     0.336 A 
ATOM     10  O   UNL     1      49.300  49.913  13.495  1.00  0.00    -0.246 OA
ATOM     11  O   UNL     1      48.633  48.042  14.528  1.00  0.00    -0.423 OA
ENDROOT
BRANCH   1  12
ATOM     12  O   UNL     1      49.295  42.734  16.005  1.00  0.00    -0.493 OA
ATOM     13  C   UNL     1      50.229  42.267  16.973  1.00  0.00     0.278 C 
ENDBRANCH   1  12
BRANCH   2  14
ATOM     14  O   UNL     1      47.052  44.132  16.791  1.00  0.00    -0.504 OA
ATOM     15  H   UNL     1      47.141  43.154  17.039  1.00  0.00     0.293 HD
ENDBRANCH   2  14
TORSDOF 2
ENDMDL
MODEL 5
REMARK VINA RESULT:    -3.776      3.126      4.486
REMARK INTER + INTRA:          -4.170
REMARK INTER:                  -4.122
REMARK INTRA:                  -0.048
REMARK UNBOUND:                -0.063
REMARK SMILES COc1cc2ccc(=O)oc2cc1O
REMARK SMILES IDX 3 1 13 2 12 3 11 4 5 5 4 6 6 7 7 8 8 9 9 10 10 11 2 12 1 13
REMARK SMILES IDX 14 14
REMARK H PARENT 14 15
REMARK Flexibility Score: inf
ROOT
ATOM      1  C   UNL     1      50.884  49.271  12.067  1.00  0.00     0.161 A 
ATOM      2  C   UNL     1      50.056  48.887  13.133  1.00  0.00     0.161 A 
ATOM      3  C   UNL     1      50.583  48.165  14.213  1.00  0.00     0.098 A 
ATOM      4  C   UNL     1      51.936  47.820  14.237  1.00  0.00     0.142 A 
ATOM      5  C   UNL     1      52.775  48.202  13.169  1.00  0.00     0.022 A 
ATOM      6  C   UNL     1      52.251  48.924  12.089  1.00  0.00     0.062 A 
ATOM      7  C   UNL     1      54.126  47.842  13.222  1.00  0.00     0.019 A 
ATOM      8  C   UNL     1      54.601  47.123  14.317  1.00  0.00     0.094 A 
ATOM      9  C   UNL     1      53.711  46.779  15.341  1.00  0.00     0.336 A 
ATOM     10  O   UNL     1      54.120  46.130  16.338  1.00  0.00    -0.246 OA
ATOM     11  O   UNL     1      52.430  47.134  15.266  1.00  0.00    -0.423 OA
ENDROOT
BRANCH   1  12
ATOM     12  O   UNL     1      50.314  49.993  11.006  1.00  0.00    -0.493 OA
ATOM     13  C   UNL     1      50.772  49.943   9.659  1.00  0.00     0.278 C 
ENDBRANCH   1  12
BRANCH   2  14
ATOM     14  O   UNL     1      48.705  49.230  13.112  1.00  0.00    -0.504 OA
ATOM     15  H   UNL     1      48.014  48.633  12.673  1.00  0.00     0.293 HD
ENDBRANCH   2  14
TORSDOF 2
ENDMDL
MODEL 6
REMARK VINA RESULT:    -3.775      2.397      4.083
REMARK INTER + INTRA:          -4.169
REMARK INTER:                  -4.109
REMARK INTRA:                  -0.060
REMARK UNBOUND:                -0.063
REMARK SMILES COc1cc2ccc(=O)oc2cc1O
REMARK SMILES IDX 3 1 13 2 12 3 11 4 5 5 4 6 6 7 7 8 8 9 9 10 10 11 2 12 1 13
REMARK SMILES IDX 14 14
REMARK H PARENT 14 15
REMARK Flexibility Score: inf
ROOT
ATOM      1  C   UNL     1      48.648  46.130  15.239  1.00  0.00     0.161 A 
ATOM      2  C   UNL     1      49.448  45.035  14.873  1.00  0.00     0.161 A 
ATOM      3  C   UNL     1      48.893  43.751  14.788  1.00  0.00     0.098 A 
ATOM      4  C   UNL     1      47.541  43.547  15.068  1.00  0.00     0.142 A 
ATOM      5  C   UNL     1      46.729  44.642  15.437  1.00  0.00     0.022 A 
ATOM      6  C   UNL     1      47.282  45.926  15.522  1.00  0.00     0.062 A 
ATOM      7  C   UNL     1      45.378  44.406  15.712  1.00  0.00     0.019 A 
ATOM      8  C   UNL     1      44.875  43.110  15.614  1.00  0.00     0.094 A 
ATOM      9  C   UNL     1      45.738  42.073  15.242  1.00  0.00     0.336 A 
ATOM     10  O   UNL     1      45.303  40.896  15.148  1.00  0.00    -0.246 OA
ATOM     11  O   UNL     1      47.020  42.325  14.986  1.00  0.00    -0.423 OA
ENDROOT
BRANCH   1  12
ATOM     12  O   UNL     1      49.246  47.398  15.311  1.00  0.00    -0.493 OA
ATOM     13  C   UNL     1      49.210  48.366  14.267  1.00  0.00     0.278 C 
ENDBRANCH   1  12
BRANCH   2  14
ATOM     14  O   UNL     1      50.799  45.236  14.592  1.00  0.00    -0.504 OA
ATOM     15  H   UNL     1      51.501  45.208  15.322  1.00  0.00     0.293 HD
ENDBRANCH   2  14
TORSDOF 2
ENDMDL
MODEL 7
REMARK VINA RESULT:    -3.682      2.836      6.490
REMARK INTER + INTRA:          -4.068
REMARK INTER:                  -4.003
REMARK INTRA:                  -0.065
REMARK UNBOUND:                -0.063
REMARK SMILES COc1cc2ccc(=O)oc2cc1O
REMARK SMILES IDX 3 1 13 2 12 3 11 4 5 5 4 6 6 7 7 8 8 9 9 10 10 11 2 12 1 13
REMARK SMILES IDX 14 14
REMARK H PARENT 14 15
REMARK Flexibility Score: inf
ROOT
ATOM      1  C   UNL     1      46.886  41.599  16.066  1.00  0.00     0.161 A 
ATOM      2  C   UNL     1      46.200  42.441  15.178  1.00  0.00     0.161 A 
ATOM      3  C   UNL     1      46.841  43.558  14.623  1.00  0.00     0.098 A 
ATOM      4  C   UNL     1      48.169  43.843  14.951  1.00  0.00     0.142 A 
ATOM      5  C   UNL     1      48.866  43.001  15.843  1.00  0.00     0.022 A 
ATOM      6  C   UNL     1      48.226  41.885  16.399  1.00  0.00     0.062 A 
ATOM      7  C   UNL     1      50.194  43.313  16.152  1.00  0.00     0.019 A 
ATOM      8  C   UNL     1      50.787  44.435  15.575  1.00  0.00     0.094 A 
ATOM      9  C   UNL     1      50.034  45.223  14.698  1.00  0.00     0.336 A 
ATOM     10  O   UNL     1      50.551  46.240  14.166  1.00  0.00    -0.246 OA
ATOM     11  O   UNL     1      48.772  44.905  14.421  1.00  0.00    -0.423 OA
ENDROOT
BRANCH   1  12
ATOM     12  O   UNL     1      46.205  40.492  16.597  1.00  0.00    -0.493 OA
ATOM     13  C   UNL     1      45.653  40.438  17.909  1.00  0.00     0.278 C 
ENDBRANCH   1  12
BRANCH   2  14
ATOM     14  O   UNL     1      44.875  42.159  14.849  1.00  0.00    -0.504 OA
ATOM     15  H   UNL     1      44.627  41.746  13.957  1.00  0.00     0.293 HD
ENDBRANCH   2  14
TORSDOF 2
ENDMDL
MODEL 8
REMARK VINA RESULT:    -3.676     11.622     12.989
REMARK INTER + INTRA:          -4.062
REMARK INTER:                  -3.998
REMARK INTRA:                  -0.064
REMARK UNBOUND:                -0.063
REMARK SMILES COc1cc2ccc(=O)oc2cc1O
REMARK SMILES IDX 3 1 13 2 12 3 11 4 5 5 4 6 6 7 7 8 8 9 9 10 10 11 2 12 1 13
REMARK SMILES IDX 14 14
REMARK H PARENT 14 15
REMARK Flexibility Score: inf
ROOT
ATOM      1  C   UNL     1      46.925  35.157   8.983  1.00  0.00     0.161 A 
ATOM      2  C   UNL     1      48.245  35.125   8.505  1.00  0.00     0.161 A 
ATOM      3  C   UNL     1      49.322  35.210   9.398  1.00  0.00     0.098 A 
ATOM      4  C   UNL     1      49.092  35.329  10.770  1.00  0.00     0.142 A 
ATOM      5  C   UNL     1      47.769  35.363  11.259  1.00  0.00     0.022 A 
ATOM      6  C   UNL     1      46.690  35.278  10.368  1.00  0.00     0.062 A 
ATOM      7  C   UNL     1      47.571  35.483  12.638  1.00  0.00     0.019 A 
ATOM      8  C   UNL     1      48.676  35.565  13.484  1.00  0.00     0.094 A 
ATOM      9  C   UNL     1      49.959  35.524  12.929  1.00  0.00     0.336 A 
ATOM     10  O   UNL     1      50.970  35.597  13.676  1.00  0.00    -0.246 OA
ATOM     11  O   UNL     1      50.120  35.410  11.613  1.00  0.00    -0.423 OA
ENDROOT
BRANCH   1  12
ATOM     12  O   UNL     1      45.876  35.069   8.052  1.00  0.00    -0.493 OA
ATOM     13  C   UNL     1      45.003  33.952   7.926  1.00  0.00     0.278 C 
ENDBRANCH   1  12
BRANCH   2  14
ATOM     14  O   UNL     1      48.477  35.006   7.136  1.00  0.00    -0.504 OA
ATOM     15  H   UNL     1      48.891  34.170   6.740  1.00  0.00     0.293 HD
ENDBRANCH   2  14
TORSDOF 2
ENDMDL
MODEL 9
REMARK VINA RESULT:    -3.627      1.471      5.133
REMARK INTER + INTRA:          -4.008
REMARK INTER:                  -3.944
REMARK INTRA:                  -0.064
REMARK UNBOUND:                -0.063
REMARK SMILES COc1cc2ccc(=O)oc2cc1O
REMARK SMILES IDX 3 1 13 2 12 3 11 4 5 5 4 6 6 7 7 8 8 9 9 10 10 11 2 12 1 13
REMARK SMILES IDX 14 14
REMARK H PARENT 14 15
REMARK Flexibility Score: inf
ROOT
ATOM      1  C   UNL     1      47.684  43.937  15.481  1.00  0.00     0.161 A 
ATOM      2  C   UNL     1      46.910  44.947  16.074  1.00  0.00     0.161 A 
ATOM      3  C   UNL     1      47.321  46.285  16.005  1.00  0.00     0.098 A 
ATOM      4  C   UNL     1      48.504  46.626  15.346  1.00  0.00     0.142 A 
ATOM      5  C   UNL     1      49.288  45.617  14.747  1.00  0.00     0.022 A 
ATOM      6  C   UNL     1      48.879  44.278  14.816  1.00  0.00     0.062 A 
ATOM      7  C   UNL     1      50.468  45.990  14.095  1.00  0.00     0.019 A 
ATOM      8  C   UNL     1      50.833  47.335  14.055  1.00  0.00     0.094 A 
ATOM      9  C   UNL     1      50.006  48.281  14.670  1.00  0.00     0.336 A 
ATOM     10  O   UNL     1      50.317  49.500  14.644  1.00  0.00    -0.246 OA
ATOM     11  O   UNL     1      48.888  47.899  15.284  1.00  0.00    -0.423 OA
ENDROOT
BRANCH   1  12
ATOM     12  O   UNL     1      47.234  42.610  15.575  1.00  0.00    -0.493 OA
ATOM     13  C   UNL     1      46.737  41.847  14.479  1.00  0.00     0.278 C 
ENDBRANCH   1  12
BRANCH   2  14
ATOM     14  O   UNL     1      45.728  44.609  16.732  1.00  0.00    -0.504 OA
ATOM     15  H   UNL     1      44.837  44.599  16.249  1.00  0.00     0.293 HD
ENDBRANCH   2  14
TORSDOF 2
ENDMDL
