MODEL 1
REMARK VINA RESULT:    -3.304      0.000      0.000
REMARK INTER + INTRA:          -4.566
REMARK INTER:                  -4.657
REMARK INTRA:                   0.090
REMARK UNBOUND:                 0.090
REMARK SMILES CC1=CCC(=C(C)C)C(=O)CC(C)=CCC1
REMARK SMILES IDX 12 1 14 2 13 3 15 4 16 5 2 6 1 7 3 8 11 10 9 11 10 12 5 13
REMARK SMILES IDX 6 14 7 15 8 16 4 17
REMARK H PARENT
REMARK Flexibility Score: 60.00
ROOT
ATOM      1  C   UNL     1      81.392  41.952  27.023  1.00  0.00    -0.070 C 
ATOM      2  C   UNL     1      81.287  41.567  25.729  1.00  0.00    -0.027 C 
ATOM      3  C   UNL     1      81.502  40.876  28.074  1.00  0.00     0.039 C 
ENDROOT
BRANCH   2   4
ATOM      4  C   UNL     1      81.240  42.484  24.528  1.00  0.00     0.032 C 
BRANCH   4   5
ATOM      5  C   UNL     1      79.830  43.035  24.251  1.00  0.00     0.034 C 
BRANCH   5   6
ATOM      6  C   UNL     1      79.819  44.541  24.059  1.00  0.00    -0.077 C 
ATOM      7  C   UNL     1      80.505  45.113  22.845  1.00  0.00     0.039 C 
ATOM      8  C   UNL     1      79.246  45.406  24.928  1.00  0.00    -0.023 CG0
ATOM      9  G   UNL     1      78.564  45.040  26.224  1.00  0.00     0.000 G0
ENDBRANCH   5   6
ENDBRANCH   4   5
ENDBRANCH   2   4
BRANCH   1  10
ATOM     10  C   UNL     1      81.427  43.401  27.473  1.00  0.00     0.111 C 
BRANCH  10  11
ATOM     11  C   UNL     1      80.082  43.883  27.957  1.00  0.00     0.163 C 
ATOM     12  O   UNL     1      79.511  43.233  28.874  1.00  0.00    -0.294 OA
BRANCH  11  13
ATOM     13  C   UNL     1      79.450  45.140  27.448  1.00  0.00    -0.002 C 
ATOM     14  C   UNL     1      79.581  46.309  28.140  1.00  0.00    -0.069 C 
ATOM     15  C   UNL     1      78.864  47.566  27.703  1.00  0.00     0.039 C 
ATOM     16  C   UNL     1      80.411  46.386  29.404  1.00  0.00     0.039 C 
BRANCH  13  17
ATOM     17  C   UNL     1      78.537  45.048  26.232  1.00  0.00     0.066 CG0
ATOM     18  G   UNL     1      79.262  45.414  24.959  1.00  0.00     0.000 G0
ENDBRANCH  13  17
ENDBRANCH  11  13
ENDBRANCH  10  11
ENDBRANCH   1  10
TORSDOF 0
ENDMDL
MODEL 2
REMARK VINA RESULT:    -3.252      6.981      9.522
REMARK INTER + INTRA:          -4.493
REMARK INTER:                  -5.115
REMARK INTRA:                   0.621
REMARK UNBOUND:                 0.090
REMARK SMILES CC1=CCC(=C(C)C)C(=O)CC(C)=CCC1
REMARK SMILES IDX 12 1 14 2 13 3 15 4 16 5 2 6 1 7 3 8 11 10 9 11 10 12 5 13
REMARK SMILES IDX 6 14 7 15 8 16 4 17
REMARK H PARENT
REMARK Flexibility Score: 60.00
ROOT
ATOM      1  C   UNL     1      86.099  37.492  29.050  1.00  0.00    -0.070 C 
ATOM      2  C   UNL     1      85.430  38.505  29.650  1.00  0.00    -0.027 C 
ATOM      3  C   UNL     1      87.275  37.843  28.174  1.00  0.00     0.039 C 
ENDROOT
BRANCH   2   4
ATOM      4  C   UNL     1      84.277  38.362  30.617  1.00  0.00     0.032 C 
BRANCH   4   5
ATOM      5  C   UNL     1      83.142  37.480  30.070  1.00  0.00     0.034 C 
BRANCH   5   6
ATOM      6  C   UNL     1      82.545  38.026  28.785  1.00  0.00    -0.077 C 
ATOM      7  C   UNL     1      81.932  39.403  28.809  1.00  0.00     0.039 C 
ATOM      8  C   UNL     1      82.510  37.339  27.620  1.00  0.00    -0.023 CG0
ATOM      9  G   UNL     1      83.014  35.932  27.405  1.00  0.00     0.000 G0
ENDBRANCH   5   6
ENDBRANCH   4   5
ENDBRANCH   2   4
BRANCH   1  10
ATOM     10  C   UNL     1      85.746  36.027  29.227  1.00  0.00     0.111 C 
BRANCH  10  11
ATOM     11  C   UNL     1      85.475  35.340  27.911  1.00  0.00     0.163 C 
ATOM     12  O   UNL     1      86.088  34.267  27.662  1.00  0.00    -0.294 OA
BRANCH  11  13
ATOM     13  C   UNL     1      84.453  35.841  26.941  1.00  0.00    -0.002 C 
ATOM     14  C   UNL     1      84.836  36.351  25.735  1.00  0.00    -0.069 C 
ATOM     15  C   UNL     1      83.832  36.961  24.783  1.00  0.00     0.039 C 
ATOM     16  C   UNL     1      86.291  36.375  25.318  1.00  0.00     0.039 C 
BRANCH  13  17
ATOM     17  C   UNL     1      82.999  35.907  27.392  1.00  0.00     0.066 CG0
ATOM     18  G   UNL     1      82.546  37.330  27.614  1.00  0.00     0.000 G0
ENDBRANCH  13  17
ENDBRANCH  11  13
ENDBRANCH  10  11
ENDBRANCH   1  10
TORSDOF 0
ENDMDL
MODEL 3
REMARK VINA RESULT:    -3.127      9.877     12.186
REMARK INTER + INTRA:          -4.316
REMARK INTER:                  -4.424
REMARK INTRA:                   0.107
REMARK UNBOUND:                 0.090
REMARK SMILES CC1=CCC(=C(C)C)C(=O)CC(C)=CCC1
REMARK SMILES IDX 12 1 14 2 13 3 15 4 16 5 2 6 1 7 3 8 11 10 9 11 10 12 5 13
REMARK SMILES IDX 6 14 7 15 8 16 4 17
REMARK H PARENT
REMARK Flexibility Score: 60.00
ROOT
ATOM      1  C   UNL     1      85.579  35.982  29.154  1.00  0.00    -0.070 C 
ATOM      2  C   UNL     1      85.499  34.802  29.813  1.00  0.00    -0.027 C 
ATOM      3  C   UNL     1      84.935  37.190  29.786  1.00  0.00     0.039 C 
ENDROOT
BRANCH   2   4
ATOM      4  C   UNL     1      86.136  33.499  29.388  1.00  0.00     0.032 C 
BRANCH   4   5
ATOM      5  C   UNL     1      85.273  32.709  28.389  1.00  0.00     0.034 C 
BRANCH   5   6
ATOM      6  C   UNL     1      86.089  32.112  27.256  1.00  0.00    -0.077 C 
ATOM      7  C   UNL     1      87.081  31.026  27.584  1.00  0.00     0.039 C 
ATOM      8  C   UNL     1      85.994  32.512  25.967  1.00  0.00    -0.023 CG0
ATOM      9  G   UNL     1      85.108  33.619  25.446  1.00  0.00     0.000 G0
ENDBRANCH   5   6
ENDBRANCH   4   5
ENDBRANCH   2   4
BRANCH   1  10
ATOM     10  C   UNL     1      86.297  36.161  27.829  1.00  0.00     0.111 C 
BRANCH  10  11
ATOM     11  C   UNL     1      85.394  35.905  26.648  1.00  0.00     0.163 C 
ATOM     12  O   UNL     1      84.304  36.536  26.584  1.00  0.00    -0.294 OA
BRANCH  11  13
ATOM     13  C   UNL     1      85.783  35.000  25.522  1.00  0.00    -0.002 C 
ATOM     14  C   UNL     1      86.612  35.443  24.533  1.00  0.00    -0.069 C 
ATOM     15  C   UNL     1      86.932  34.584  23.332  1.00  0.00     0.039 C 
ATOM     16  C   UNL     1      87.206  36.835  24.570  1.00  0.00     0.039 C 
BRANCH  13  17
ATOM     17  C   UNL     1      85.114  33.634  25.430  1.00  0.00     0.066 CG0
ATOM     18  G   UNL     1      86.006  32.536  25.960  1.00  0.00     0.000 G0
ENDBRANCH  13  17
ENDBRANCH  11  13
ENDBRANCH  10  11
ENDBRANCH   1  10
TORSDOF 0
ENDMDL
MODEL 4
REMARK VINA RESULT:    -3.093      5.077      7.809
REMARK INTER + INTRA:          -4.269
REMARK INTER:                  -4.358
REMARK INTRA:                   0.090
REMARK UNBOUND:                 0.090
REMARK SMILES CC1=CCC(=C(C)C)C(=O)CC(C)=CCC1
REMARK SMILES IDX 12 1 14 2 13 3 15 4 16 5 2 6 1 7 3 8 11 10 9 11 10 12 5 13
REMARK SMILES IDX 6 14 7 15 8 16 4 17
REMARK H PARENT
REMARK Flexibility Score: 60.00
ROOT
ATOM      1  C   UNL     1      83.125  37.028  24.692  1.00  0.00    -0.070 C 
ATOM      2  C   UNL     1      82.201  37.966  24.380  1.00  0.00    -0.027 C 
ATOM      3  C   UNL     1      83.229  35.814  23.803  1.00  0.00     0.039 C 
ENDROOT
BRANCH   2   4
ATOM      4  C   UNL     1      81.989  39.280  25.096  1.00  0.00     0.032 C 
BRANCH   4   5
ATOM      5  C   UNL     1      81.039  39.159  26.301  1.00  0.00     0.034 C 
BRANCH   5   6
ATOM      6  C   UNL     1      81.540  39.914  27.519  1.00  0.00    -0.077 C 
ATOM      7  C   UNL     1      81.562  41.420  27.468  1.00  0.00     0.039 C 
ATOM      8  C   UNL     1      81.989  39.313  28.645  1.00  0.00    -0.023 CG0
ATOM      9  G   UNL     1      82.102  37.824  28.870  1.00  0.00     0.000 G0
ENDBRANCH   5   6
ENDBRANCH   4   5
ENDBRANCH   2   4
BRANCH   1  10
ATOM     10  C   UNL     1      84.075  37.136  25.871  1.00  0.00     0.111 C 
BRANCH  10  11
ATOM     11  C   UNL     1      83.506  36.522  27.125  1.00  0.00     0.163 C 
ATOM     12  O   UNL     1      83.127  35.320  27.080  1.00  0.00    -0.294 OA
BRANCH  11  13
ATOM     13  C   UNL     1      83.453  37.257  28.427  1.00  0.00    -0.002 C 
ATOM     14  C   UNL     1      84.549  37.304  29.239  1.00  0.00    -0.069 C 
ATOM     15  C   UNL     1      84.488  37.949  30.605  1.00  0.00     0.039 C 
ATOM     16  C   UNL     1      85.860  36.668  28.829  1.00  0.00     0.039 C 
BRANCH  13  17
ATOM     17  C   UNL     1      82.113  37.817  28.887  1.00  0.00     0.066 CG0
ATOM     18  G   UNL     1      82.011  39.303  28.639  1.00  0.00     0.000 G0
ENDBRANCH  13  17
ENDBRANCH  11  13
ENDBRANCH  10  11
ENDBRANCH   1  10
TORSDOF 0
ENDMDL
MODEL 5
REMARK VINA RESULT:    -3.062      6.807      8.978
REMARK INTER + INTRA:          -4.224
REMARK INTER:                  -4.395
REMARK INTRA:                   0.170
REMARK UNBOUND:                 0.090
REMARK SMILES CC1=CCC(=C(C)C)C(=O)CC(C)=CCC1
REMARK SMILES IDX 12 1 14 2 13 3 15 4 16 5 2 6 1 7 3 8 11 10 9 11 10 12 5 13
REMARK SMILES IDX 6 14 7 15 8 16 4 17
REMARK H PARENT
REMARK Flexibility Score: 60.00
ROOT
ATOM      1  C   UNL     1      85.563  35.805  24.764  1.00  0.00    -0.070 C 
ATOM      2  C   UNL     1      84.374  35.803  24.119  1.00  0.00    -0.027 C 
ATOM      3  C   UNL     1      86.610  34.814  24.321  1.00  0.00     0.039 C 
ENDROOT
BRANCH   2   4
ATOM      4  C   UNL     1      83.227  36.758  24.361  1.00  0.00     0.032 C 
BRANCH   4   5
ATOM      5  C   UNL     1      82.442  36.438  25.645  1.00  0.00     0.034 C 
BRANCH   5   6
ATOM      6  C   UNL     1      82.189  37.669  26.497  1.00  0.00    -0.077 C 
ATOM      7  C   UNL     1      81.446  38.826  25.879  1.00  0.00     0.039 C 
ATOM      8  C   UNL     1      82.611  37.799  27.776  1.00  0.00    -0.023 CG0
ATOM      9  G   UNL     1      83.416  36.784  28.551  1.00  0.00     0.000 G0
ENDBRANCH   5   6
ENDBRANCH   4   5
ENDBRANCH   2   4
BRANCH   1  10
ATOM     10  C   UNL     1      85.911  36.760  25.892  1.00  0.00     0.111 C 
BRANCH  10  11
ATOM     11  C   UNL     1      85.592  36.185  27.249  1.00  0.00     0.163 C 
ATOM     12  O   UNL     1      85.964  35.006  27.499  1.00  0.00    -0.294 OA
BRANCH  11  13
ATOM     13  C   UNL     1      84.930  36.987  28.324  1.00  0.00    -0.002 C 
ATOM     14  C   UNL     1      85.672  37.773  29.157  1.00  0.00    -0.069 C 
ATOM     15  C   UNL     1      85.039  38.508  30.317  1.00  0.00     0.039 C 
ATOM     16  C   UNL     1      87.171  37.903  28.987  1.00  0.00     0.039 C 
BRANCH  13  17
ATOM     17  C   UNL     1      83.438  36.787  28.560  1.00  0.00     0.066 CG0
ATOM     18  G   UNL     1      82.609  37.773  27.772  1.00  0.00     0.000 G0
ENDBRANCH  13  17
ENDBRANCH  11  13
ENDBRANCH  10  11
ENDBRANCH   1  10
TORSDOF 0
ENDMDL
MODEL 6
REMARK VINA RESULT:    -2.984      8.691      9.725
REMARK INTER + INTRA:          -4.115
REMARK INTER:                  -4.597
REMARK INTRA:                   0.482
REMARK UNBOUND:                 0.090
REMARK SMILES CC1=CCC(=C(C)C)C(=O)CC(C)=CCC1
REMARK SMILES IDX 12 1 14 2 13 3 15 4 16 5 2 6 1 7 3 8 11 10 9 11 10 12 5 13
REMARK SMILES IDX 6 14 7 15 8 16 4 17
REMARK H PARENT
REMARK Flexibility Score: 60.00
ROOT
ATOM      1  C   UNL     1      87.088  37.172  27.085  1.00  0.00    -0.070 C 
ATOM      2  C   UNL     1      86.862  37.118  25.751  1.00  0.00    -0.027 C 
ATOM      3  C   UNL     1      88.021  38.238  27.602  1.00  0.00     0.039 C 
ENDROOT
BRANCH   2   4
ATOM      4  C   UNL     1      85.912  36.178  25.046  1.00  0.00     0.032 C 
BRANCH   4   5
ATOM      5  C   UNL     1      84.438  36.595  25.193  1.00  0.00     0.034 C 
BRANCH   5   6
ATOM      6  C   UNL     1      83.569  35.482  25.749  1.00  0.00    -0.077 C 
ATOM      7  C   UNL     1      83.335  34.262  24.896  1.00  0.00     0.039 C 
ATOM      8  C   UNL     1      82.971  35.530  26.962  1.00  0.00    -0.023 CG0
ATOM      9  G   UNL     1      83.032  36.682  27.937  1.00  0.00     0.000 G0
ENDBRANCH   5   6
ENDBRANCH   4   5
ENDBRANCH   2   4
BRANCH   1  10
ATOM     10  C   UNL     1      86.439  36.237  28.089  1.00  0.00     0.111 C 
BRANCH  10  11
ATOM     11  C   UNL     1      85.406  36.935  28.939  1.00  0.00     0.163 C 
ATOM     12  O   UNL     1      85.723  38.025  29.486  1.00  0.00    -0.294 OA
BRANCH  11  13
ATOM     13  C   UNL     1      84.008  36.423  29.083  1.00  0.00    -0.002 C 
ATOM     14  C   UNL     1      83.667  35.633  30.142  1.00  0.00    -0.069 C 
ATOM     15  C   UNL     1      82.291  35.017  30.253  1.00  0.00     0.039 C 
ATOM     16  C   UNL     1      84.667  35.298  31.228  1.00  0.00     0.039 C 
BRANCH  13  17
ATOM     17  C   UNL     1      83.025  36.677  27.947  1.00  0.00     0.066 CG0
ATOM     18  G   UNL     1      82.971  35.516  26.982  1.00  0.00     0.000 G0
ENDBRANCH  13  17
ENDBRANCH  11  13
ENDBRANCH  10  11
ENDBRANCH   1  10
TORSDOF 0
ENDMDL
MODEL 7
REMARK VINA RESULT:    -2.957      1.955      3.788
REMARK INTER + INTRA:          -4.076
REMARK INTER:                  -4.530
REMARK INTRA:                   0.454
REMARK UNBOUND:                 0.090
REMARK SMILES CC1=CCC(=C(C)C)C(=O)CC(C)=CCC1
REMARK SMILES IDX 12 1 14 2 13 3 15 4 16 5 2 6 1 7 3 8 11 10 9 11 10 12 5 13
REMARK SMILES IDX 6 14 7 15 8 16 4 17
REMARK H PARENT
REMARK Flexibility Score: 60.00
ROOT
ATOM      1  C   UNL     1      81.161  42.477  24.042  1.00  0.00    -0.070 C 
ATOM      2  C   UNL     1      81.586  41.583  24.965  1.00  0.00    -0.027 C 
ATOM      3  C   UNL     1      82.032  42.714  22.834  1.00  0.00     0.039 C 
ENDROOT
BRANCH   2   4
ATOM      4  C   UNL     1      80.831  41.152  26.202  1.00  0.00     0.032 C 
BRANCH   4   5
ATOM      5  C   UNL     1      81.147  42.024  27.430  1.00  0.00     0.034 C 
BRANCH   5   6
ATOM      6  C   UNL     1      79.914  42.702  27.999  1.00  0.00    -0.077 C 
ATOM      7  C   UNL     1      78.961  41.877  28.826  1.00  0.00     0.039 C 
ATOM      8  C   UNL     1      79.606  44.003  27.789  1.00  0.00    -0.023 CG0
ATOM      9  G   UNL     1      80.395  44.976  26.946  1.00  0.00     0.000 G0
ENDBRANCH   5   6
ENDBRANCH   4   5
ENDBRANCH   2   4
BRANCH   1  10
ATOM     10  C   UNL     1      79.852  43.237  24.143  1.00  0.00     0.111 C 
BRANCH  10  11
ATOM     11  C   UNL     1      80.061  44.711  24.386  1.00  0.00     0.163 C 
ATOM     12  O   UNL     1      80.521  45.411  23.443  1.00  0.00    -0.294 OA
BRANCH  11  13
ATOM     13  C   UNL     1      79.668  45.377  25.667  1.00  0.00    -0.002 C 
ATOM     14  C   UNL     1      78.773  46.407  25.664  1.00  0.00    -0.069 C 
ATOM     15  C   UNL     1      78.442  47.164  26.930  1.00  0.00     0.039 C 
ATOM     16  C   UNL     1      78.110  46.869  24.385  1.00  0.00     0.039 C 
BRANCH  13  17
ATOM     17  C   UNL     1      80.402  44.980  26.942  1.00  0.00     0.066 CG0
ATOM     18  G   UNL     1      79.596  44.011  27.773  1.00  0.00     0.000 G0
ENDBRANCH  13  17
ENDBRANCH  11  13
ENDBRANCH  10  11
ENDBRANCH   1  10
TORSDOF 0
ENDMDL
MODEL 8
REMARK VINA RESULT:    -2.898      9.636     11.128
REMARK INTER + INTRA:          -3.994
REMARK INTER:                  -4.577
REMARK INTRA:                   0.583
REMARK UNBOUND:                 0.090
REMARK SMILES CC1=CCC(=C(C)C)C(=O)CC(C)=CCC1
REMARK SMILES IDX 12 1 14 2 13 3 15 4 16 5 2 6 1 7 3 8 11 10 9 11 10 12 5 13
REMARK SMILES IDX 6 14 7 15 8 16 4 17
REMARK H PARENT
REMARK Flexibility Score: 60.00
ROOT
ATOM      1  C   UNL     1      86.510  36.229  24.654  1.00  0.00    -0.070 C 
ATOM      2  C   UNL     1      86.360  35.113  23.904  1.00  0.00    -0.027 C 
ATOM      3  C   UNL     1      87.667  37.143  24.337  1.00  0.00     0.039 C 
ENDROOT
BRANCH   2   4
ATOM      4  C   UNL     1      85.232  34.112  24.012  1.00  0.00     0.032 C 
BRANCH   4   5
ATOM      5  C   UNL     1      85.403  33.142  25.194  1.00  0.00     0.034 C 
BRANCH   5   6
ATOM      6  C   UNL     1      84.270  33.239  26.199  1.00  0.00    -0.077 C 
ATOM      7  C   UNL     1      82.886  32.835  25.758  1.00  0.00     0.039 C 
ATOM      8  C   UNL     1      84.424  33.689  27.466  1.00  0.00    -0.023 CG0
ATOM      9  G   UNL     1      85.709  34.194  28.078  1.00  0.00     0.000 G0
ENDBRANCH   5   6
ENDBRANCH   4   5
ENDBRANCH   2   4
BRANCH   1  10
ATOM     10  C   UNL     1      85.571  36.624  25.779  1.00  0.00     0.111 C 
BRANCH  10  11
ATOM     11  C   UNL     1      86.236  36.554  27.132  1.00  0.00     0.163 C 
ATOM     12  O   UNL     1      87.242  37.285  27.339  1.00  0.00    -0.294 OA
BRANCH  11  13
ATOM     13  C   UNL     1      85.695  35.718  28.248  1.00  0.00    -0.002 C 
ATOM     14  C   UNL     1      85.328  36.295  29.429  1.00  0.00    -0.069 C 
ATOM     15  C   UNL     1      84.881  35.460  30.607  1.00  0.00     0.039 C 
ATOM     16  C   UNL     1      85.400  37.794  29.627  1.00  0.00     0.039 C 
BRANCH  13  17
ATOM     17  C   UNL     1      85.710  34.203  28.089  1.00  0.00     0.066 CG0
ATOM     18  G   UNL     1      84.434  33.693  27.463  1.00  0.00     0.000 G0
ENDBRANCH  13  17
ENDBRANCH  11  13
ENDBRANCH  10  11
ENDBRANCH   1  10
TORSDOF 0
ENDMDL
MODEL 9
REMARK VINA RESULT:    -2.877      9.612     12.812
REMARK INTER + INTRA:          -3.964
REMARK INTER:                  -4.709
REMARK INTRA:                   0.745
REMARK UNBOUND:                 0.090
REMARK SMILES CC1=CCC(=C(C)C)C(=O)CC(C)=CCC1
REMARK SMILES IDX 12 1 14 2 13 3 15 4 16 5 2 6 1 7 3 8 11 10 9 11 10 12 5 13
REMARK SMILES IDX 6 14 7 15 8 16 4 17
REMARK H PARENT
REMARK Flexibility Score: 60.00
ROOT
ATOM      1  C   UNL     1      84.710  34.156  33.242  1.00  0.00    -0.070 C 
ATOM      2  C   UNL     1      85.837  33.417  33.366  1.00  0.00    -0.027 C 
ATOM      3  C   UNL     1      83.513  33.767  34.073  1.00  0.00     0.039 C 
ENDROOT
BRANCH   2   4
ATOM      4  C   UNL     1      87.157  33.683  32.681  1.00  0.00     0.032 C 
BRANCH   4   5
ATOM      5  C   UNL     1      87.519  32.610  31.640  1.00  0.00     0.034 C 
BRANCH   5   6
ATOM      6  C   UNL     1      86.305  32.083  30.897  1.00  0.00    -0.077 C 
ATOM      7  C   UNL     1      85.755  30.735  31.289  1.00  0.00     0.039 C 
ATOM      8  C   UNL     1      85.696  32.744  29.886  1.00  0.00    -0.023 CG0
ATOM      9  G   UNL     1      86.125  34.072  29.309  1.00  0.00     0.000 G0
ENDBRANCH   5   6
ENDBRANCH   4   5
ENDBRANCH   2   4
BRANCH   1  10
ATOM     10  C   UNL     1      84.589  35.364  32.331  1.00  0.00     0.111 C 
BRANCH  10  11
ATOM     11  C   UNL     1      84.302  34.979  30.901  1.00  0.00     0.163 C 
ATOM     12  O   UNL     1      83.173  34.487  30.632  1.00  0.00    -0.294 OA
BRANCH  11  13
ATOM     13  C   UNL     1      85.272  35.235  29.792  1.00  0.00    -0.002 C 
ATOM     14  C   UNL     1      85.300  36.446  29.163  1.00  0.00    -0.069 C 
ATOM     15  C   UNL     1      86.196  36.693  27.971  1.00  0.00     0.039 C 
ATOM     16  C   UNL     1      84.398  37.580  29.601  1.00  0.00     0.039 C 
BRANCH  13  17
ATOM     17  C   UNL     1      86.115  34.071  29.285  1.00  0.00     0.066 CG0
ATOM     18  G   UNL     1      85.677  32.758  29.890  1.00  0.00     0.000 G0
ENDBRANCH  13  17
ENDBRANCH  11  13
ENDBRANCH  10  11
ENDBRANCH   1  10
TORSDOF 0
ENDMDL
