MODEL 1
REMARK VINA RESULT:    -1.437      0.000      0.000
REMARK INTER + INTRA:          -2.123
REMARK INTER:                  -1.773
REMARK INTRA:                  -0.350
REMARK UNBOUND:                -0.350
REMARK SMILES O=c1c(O)c(-c2cc(O)c(O)c(O)c2)oc2cc(O)cc(O)c12
REMARK SMILES IDX 5 1 3 2 2 3 1 4 23 5 21 6 20 7 18 8 17 9 16 10 15 11 6 12
REMARK SMILES IDX 7 13 8 14 14 15 10 16 12 17 9 18 11 20 13 22 4 24 22 26
REMARK SMILES IDX 19 28
REMARK H PARENT 9 19 11 21 13 23 4 25 22 27 19 29
REMARK Flexibility Score: inf
ROOT
ATOM      1  C   UNL     1      -5.373  11.913 -33.557  1.00  0.00     0.180 A 
ATOM      2  C   UNL     1      -5.093  13.285 -33.429  1.00  0.00     0.208 A 
ATOM      3  C   UNL     1      -4.431  13.740 -32.277  1.00  0.00     0.238 A 
ATOM      4  O   UNL     1      -4.250  14.977 -32.135  1.00  0.00    -0.285 OA
ATOM      5  C   UNL     1      -4.007  12.812 -31.294  1.00  0.00     0.111 A 
ATOM      6  C   UNL     1      -3.289  13.156 -30.108  1.00  0.00     0.134 A 
ATOM      7  C   UNL     1      -3.015  12.167 -29.155  1.00  0.00     0.093 A 
ATOM      8  C   UNL     1      -3.376  10.838 -29.373  1.00  0.00     0.123 A 
ATOM      9  C   UNL     1      -4.030  10.481 -30.552  1.00  0.00     0.094 A 
ATOM     10  C   UNL     1      -4.351  11.451 -31.504  1.00  0.00     0.146 A 
ATOM     11  O   UNL     1      -4.992  11.072 -32.604  1.00  0.00    -0.452 OA
ENDROOT
BRANCH   1  12
ATOM     12  C   UNL     1      -6.080  11.360 -34.734  1.00  0.00     0.029 A 
ATOM     13  C   UNL     1      -7.482  11.379 -34.769  1.00  0.00     0.062 A 
ATOM     14  C   UNL     1      -8.177  10.884 -35.877  1.00  0.00     0.162 A 
ATOM     15  C   UNL     1      -5.375  10.867 -35.846  1.00  0.00     0.062 A 
ATOM     16  C   UNL     1      -7.468  10.371 -36.977  1.00  0.00     0.200 A 
ATOM     17  C   UNL     1      -6.063  10.369 -36.961  1.00  0.00     0.162 A 
BRANCH  14  18
ATOM     18  O   UNL     1      -9.571  10.908 -35.865  1.00  0.00    -0.504 OA
ATOM     19  H   UNL     1     -10.097  11.328 -35.108  1.00  0.00     0.293 HD
ENDBRANCH  14  18
BRANCH  16  20
ATOM     20  O   UNL     1      -8.169   9.875 -38.077  1.00  0.00    -0.502 OA
ATOM     21  H   UNL     1      -7.998  10.205 -39.020  1.00  0.00     0.293 HD
ENDBRANCH  16  20
BRANCH  17  22
ATOM     22  O   UNL     1      -5.354   9.875 -38.056  1.00  0.00    -0.504 OA
ATOM     23  H   UNL     1      -4.572   9.242 -37.940  1.00  0.00     0.293 HD
ENDBRANCH  17  22
ENDBRANCH   1  12
BRANCH   2  24
ATOM     24  O   UNL     1      -5.451  14.174 -34.445  1.00  0.00    -0.502 OA
ATOM     25  H   UNL     1      -5.397  13.929 -35.426  1.00  0.00     0.293 HD
ENDBRANCH   2  24
BRANCH   6  26
ATOM     26  O   UNL     1      -2.803  14.437 -29.831  1.00  0.00    -0.507 OA
ATOM     27  H   UNL     1      -2.054  14.892 -30.331  1.00  0.00     0.293 HD
ENDBRANCH   6  26
BRANCH   8  28
ATOM     28  O   UNL     1      -3.072   9.878 -28.410  1.00  0.00    -0.508 OA
ATOM     29  H   UNL     1      -2.136   9.502 -28.312  1.00  0.00     0.293 HD
ENDBRANCH   8  28
TORSDOF 7
ENDMDL
MODEL 2
REMARK VINA RESULT:    -1.209      0.353      1.789
REMARK INTER + INTRA:          -1.842
REMARK INTER:                  -1.501
REMARK INTRA:                  -0.341
REMARK UNBOUND:                -0.350
REMARK SMILES O=c1c(O)c(-c2cc(O)c(O)c(O)c2)oc2cc(O)cc(O)c12
REMARK SMILES IDX 5 1 3 2 2 3 1 4 23 5 21 6 20 7 18 8 17 9 16 10 15 11 6 12
REMARK SMILES IDX 7 13 8 14 14 15 10 16 12 17 9 18 11 20 13 22 4 24 22 26
REMARK SMILES IDX 19 28
REMARK H PARENT 9 19 11 21 13 23 4 25 22 27 19 29
REMARK Flexibility Score: inf
ROOT
ATOM      1  C   UNL     1      -5.373  12.039 -33.678  1.00  0.00     0.180 A 
ATOM      2  C   UNL     1      -5.225  13.419 -33.455  1.00  0.00     0.208 A 
ATOM      3  C   UNL     1      -4.498  13.853 -32.335  1.00  0.00     0.238 A 
ATOM      4  O   UNL     1      -4.432  15.088 -32.101  1.00  0.00    -0.285 OA
ATOM      5  C   UNL     1      -3.880  12.904 -31.484  1.00  0.00     0.111 A 
ATOM      6  C   UNL     1      -3.082  13.232 -30.346  1.00  0.00     0.134 A 
ATOM      7  C   UNL     1      -2.609  12.208 -29.516  1.00  0.00     0.093 A 
ATOM      8  C   UNL     1      -2.852  10.868 -29.816  1.00  0.00     0.123 A 
ATOM      9  C   UNL     1      -3.584  10.535 -30.955  1.00  0.00     0.094 A 
ATOM     10  C   UNL     1      -4.101  11.534 -31.782  1.00  0.00     0.146 A 
ATOM     11  O   UNL     1      -4.811  11.173 -32.845  1.00  0.00    -0.452 OA
ENDROOT
BRANCH   1  12
ATOM     12  C   UNL     1      -6.138  11.505 -34.828  1.00  0.00     0.029 A 
ATOM     13  C   UNL     1      -5.448  11.001 -35.941  1.00  0.00     0.062 A 
ATOM     14  C   UNL     1      -6.142  10.470 -37.033  1.00  0.00     0.162 A 
ATOM     15  C   UNL     1      -7.542  11.438 -34.806  1.00  0.00     0.062 A 
ATOM     16  C   UNL     1      -7.547  10.425 -37.015  1.00  0.00     0.200 A 
ATOM     17  C   UNL     1      -8.246  10.907 -35.895  1.00  0.00     0.162 A 
BRANCH  14  18
ATOM     18  O   UNL     1      -5.419   9.992 -38.125  1.00  0.00    -0.504 OA
ATOM     19  H   UNL     1      -4.973   9.083 -38.120  1.00  0.00     0.293 HD
ENDBRANCH  14  18
BRANCH  16  20
ATOM     20  O   UNL     1      -8.233   9.897 -38.110  1.00  0.00    -0.502 OA
ATOM     21  H   UNL     1      -7.996   8.999 -38.513  1.00  0.00     0.293 HD
ENDBRANCH  16  20
BRANCH  17  22
ATOM     22  O   UNL     1      -9.639  10.852 -35.866  1.00  0.00    -0.504 OA
ATOM     23  H   UNL     1     -10.133  10.202 -35.265  1.00  0.00     0.293 HD
ENDBRANCH  17  22
ENDBRANCH   1  12
BRANCH   2  24
ATOM     24  O   UNL     1      -5.777  14.340 -34.349  1.00  0.00    -0.502 OA
ATOM     25  H   UNL     1      -5.246  14.746 -35.110  1.00  0.00     0.293 HD
ENDBRANCH   2  24
BRANCH   6  26
ATOM     26  O   UNL     1      -2.704  14.534 -30.002  1.00  0.00    -0.507 OA
ATOM     27  H   UNL     1      -2.982  15.367 -30.499  1.00  0.00     0.293 HD
ENDBRANCH   6  26
BRANCH   8  28
ATOM     28  O   UNL     1      -2.352   9.875 -28.976  1.00  0.00    -0.508 OA
ATOM     29  H   UNL     1      -1.513   9.355 -29.210  1.00  0.00     0.293 HD
ENDBRANCH   8  28
TORSDOF 7
ENDMDL
MODEL 3
REMARK VINA RESULT:    -1.042      2.149      4.316
REMARK INTER + INTRA:          -1.636
REMARK INTER:                  -1.934
REMARK INTRA:                   0.298
REMARK UNBOUND:                -0.350
REMARK SMILES O=c1c(O)c(-c2cc(O)c(O)c(O)c2)oc2cc(O)cc(O)c12
REMARK SMILES IDX 5 1 3 2 2 3 1 4 23 5 21 6 20 7 18 8 17 9 16 10 15 11 6 12
REMARK SMILES IDX 7 13 8 14 14 15 10 16 12 17 9 18 11 20 13 22 4 24 22 26
REMARK SMILES IDX 19 28
REMARK H PARENT 9 19 11 21 13 23 4 25 22 27 19 29
REMARK Flexibility Score: inf
ROOT
ATOM      1  C   UNL     1      -4.150  11.902 -30.760  1.00  0.00     0.180 A 
ATOM      2  C   UNL     1      -3.276  10.859 -30.409  1.00  0.00     0.208 A 
ATOM      3  C   UNL     1      -2.801  10.784 -29.090  1.00  0.00     0.238 A 
ATOM      4  O   UNL     1      -1.961   9.892 -28.801  1.00  0.00    -0.285 OA
ATOM      5  C   UNL     1      -3.250  11.717 -28.124  1.00  0.00     0.111 A 
ATOM      6  C   UNL     1      -2.870  11.709 -26.747  1.00  0.00     0.134 A 
ATOM      7  C   UNL     1      -3.294  12.746 -25.908  1.00  0.00     0.093 A 
ATOM      8  C   UNL     1      -4.133  13.755 -26.377  1.00  0.00     0.123 A 
ATOM      9  C   UNL     1      -4.555  13.744 -27.706  1.00  0.00     0.094 A 
ATOM     10  C   UNL     1      -4.119  12.744 -28.578  1.00  0.00     0.146 A 
ATOM     11  O   UNL     1      -4.528  12.782 -29.841  1.00  0.00    -0.452 OA
ENDROOT
BRANCH   1  12
ATOM     12  C   UNL     1      -4.681  12.057 -32.134  1.00  0.00     0.029 A 
ATOM     13  C   UNL     1      -4.878  10.917 -32.929  1.00  0.00     0.062 A 
ATOM     14  C   UNL     1      -5.398  11.030 -34.222  1.00  0.00     0.162 A 
ATOM     15  C   UNL     1      -5.047  13.315 -32.640  1.00  0.00     0.062 A 
ATOM     16  C   UNL     1      -5.742  12.294 -34.732  1.00  0.00     0.200 A 
ATOM     17  C   UNL     1      -5.570  13.437 -33.934  1.00  0.00     0.162 A 
BRANCH  14  18
ATOM     18  O   UNL     1      -5.565   9.875 -34.986  1.00  0.00    -0.504 OA
ATOM     19  H   UNL     1      -5.411   9.864 -35.987  1.00  0.00     0.293 HD
ENDBRANCH  14  18
BRANCH  16  20
ATOM     20  O   UNL     1      -6.257  12.398 -36.025  1.00  0.00    -0.502 OA
ATOM     21  H   UNL     1      -7.197  12.100 -36.257  1.00  0.00     0.293 HD
ENDBRANCH  16  20
BRANCH  17  22
ATOM     22  O   UNL     1      -5.923  14.693 -34.429  1.00  0.00    -0.504 OA
ATOM     23  H   UNL     1      -5.302  15.489 -34.349  1.00  0.00     0.293 HD
ENDBRANCH  17  22
ENDBRANCH   1  12
BRANCH   2  24
ATOM     24  O   UNL     1      -2.905   9.902 -31.358  1.00  0.00    -0.502 OA
ATOM     25  H   UNL     1      -1.938   9.708 -31.585  1.00  0.00     0.293 HD
ENDBRANCH   2  24
BRANCH   6  26
ATOM     26  O   UNL     1      -2.106  10.701 -26.152  1.00  0.00    -0.507 OA
ATOM     27  H   UNL     1      -2.464   9.809 -25.845  1.00  0.00     0.293 HD
ENDBRANCH   6  26
BRANCH   8  28
ATOM     28  O   UNL     1      -4.549  14.762 -25.508  1.00  0.00    -0.508 OA
ATOM     29  H   UNL     1      -5.529  14.997 -25.398  1.00  0.00     0.293 HD
ENDBRANCH   8  28
TORSDOF 7
ENDMDL
MODEL 4
REMARK VINA RESULT:    -0.876      2.198      3.337
REMARK INTER + INTRA:          -1.431
REMARK INTER:                  -1.425
REMARK INTRA:                  -0.006
REMARK UNBOUND:                -0.350
REMARK SMILES O=c1c(O)c(-c2cc(O)c(O)c(O)c2)oc2cc(O)cc(O)c12
REMARK SMILES IDX 5 1 3 2 2 3 1 4 23 5 21 6 20 7 18 8 17 9 16 10 15 11 6 12
REMARK SMILES IDX 7 13 8 14 14 15 10 16 12 17 9 18 11 20 13 22 4 24 22 26
REMARK SMILES IDX 19 28
REMARK H PARENT 9 19 11 21 13 23 4 25 22 27 19 29
REMARK Flexibility Score: inf
ROOT
ATOM      1  C   UNL     1      -4.227  13.122 -31.993  1.00  0.00     0.180 A 
ATOM      2  C   UNL     1      -4.764  13.739 -30.850  1.00  0.00     0.208 A 
ATOM      3  C   UNL     1      -3.923  13.994 -29.755  1.00  0.00     0.238 A 
ATOM      4  O   UNL     1      -4.426  14.478 -28.709  1.00  0.00    -0.285 OA
ATOM      5  C   UNL     1      -2.544  13.681 -29.838  1.00  0.00     0.111 A 
ATOM      6  C   UNL     1      -1.590  13.937 -28.806  1.00  0.00     0.134 A 
ATOM      7  C   UNL     1      -0.272  13.488 -28.958  1.00  0.00     0.093 A 
ATOM      8  C   UNL     1       0.142  12.850 -30.126  1.00  0.00     0.123 A 
ATOM      9  C   UNL     1      -0.768  12.643 -31.162  1.00  0.00     0.094 A 
ATOM     10  C   UNL     1      -2.099  13.045 -31.026  1.00  0.00     0.146 A 
ATOM     11  O   UNL     1      -2.937  12.810 -32.029  1.00  0.00    -0.452 OA
ENDROOT
BRANCH   1  12
ATOM     12  C   UNL     1      -5.053  12.807 -33.181  1.00  0.00     0.029 A 
ATOM     13  C   UNL     1      -5.035  11.507 -33.709  1.00  0.00     0.062 A 
ATOM     14  C   UNL     1      -5.821  11.174 -34.817  1.00  0.00     0.162 A 
ATOM     15  C   UNL     1      -5.903  13.767 -33.757  1.00  0.00     0.062 A 
ATOM     16  C   UNL     1      -6.653  12.145 -35.403  1.00  0.00     0.200 A 
ATOM     17  C   UNL     1      -6.695  13.443 -34.866  1.00  0.00     0.162 A 
BRANCH  14  18
ATOM     18  O   UNL     1      -5.763   9.876 -35.320  1.00  0.00    -0.504 OA
ATOM     19  H   UNL     1      -4.935   9.510 -35.775  1.00  0.00     0.293 HD
ENDBRANCH  14  18
BRANCH  16  20
ATOM     20  O   UNL     1      -7.432  11.806 -36.511  1.00  0.00    -0.502 OA
ATOM     21  H   UNL     1      -8.408  12.064 -36.582  1.00  0.00     0.293 HD
ENDBRANCH  16  20
BRANCH  17  22
ATOM     22  O   UNL     1      -7.528  14.406 -35.435  1.00  0.00    -0.504 OA
ATOM     23  H   UNL     1      -7.520  14.594 -36.431  1.00  0.00     0.293 HD
ENDBRANCH  17  22
ENDBRANCH   1  12
BRANCH   2  24
ATOM     24  O   UNL     1      -6.111  14.109 -30.818  1.00  0.00    -0.502 OA
ATOM     25  H   UNL     1      -6.862  13.430 -30.829  1.00  0.00     0.293 HD
ENDBRANCH   2  24
BRANCH   6  26
ATOM     26  O   UNL     1      -1.874  14.645 -27.634  1.00  0.00    -0.507 OA
ATOM     27  H   UNL     1      -1.944  14.236 -26.715  1.00  0.00     0.293 HD
ENDBRANCH   6  26
BRANCH   8  28
ATOM     28  O   UNL     1       1.466  12.432 -30.248  1.00  0.00    -0.508 OA
ATOM     29  H   UNL     1       1.845  11.694 -29.665  1.00  0.00     0.293 HD
ENDBRANCH   8  28
TORSDOF 7
ENDMDL
MODEL 5
REMARK VINA RESULT:     0.211      1.545      7.088
REMARK INTER + INTRA:          -0.090
REMARK INTER:                   0.163
REMARK INTRA:                  -0.253
REMARK UNBOUND:                -0.350
REMARK SMILES O=c1c(O)c(-c2cc(O)c(O)c(O)c2)oc2cc(O)cc(O)c12
REMARK SMILES IDX 5 1 3 2 2 3 1 4 23 5 21 6 20 7 18 8 17 9 16 10 15 11 6 12
REMARK SMILES IDX 7 13 8 14 14 15 10 16 12 17 9 18 11 20 13 22 4 24 22 26
REMARK SMILES IDX 19 28
REMARK H PARENT 9 19 11 21 13 23 4 25 22 27 19 29
REMARK Flexibility Score: inf
ROOT
ATOM      1  C   UNL     1      -4.416  12.830 -32.126  1.00  0.00     0.180 A 
ATOM      2  C   UNL     1      -4.997  14.090 -32.347  1.00  0.00     0.208 A 
ATOM      3  C   UNL     1      -5.793  14.282 -33.488  1.00  0.00     0.238 A 
ATOM      4  O   UNL     1      -6.249  15.432 -33.718  1.00  0.00    -0.285 OA
ATOM      5  C   UNL     1      -6.044  13.198 -34.363  1.00  0.00     0.111 A 
ATOM      6  C   UNL     1      -6.872  13.266 -35.525  1.00  0.00     0.134 A 
ATOM      7  C   UNL     1      -6.962  12.157 -36.375  1.00  0.00     0.093 A 
ATOM      8  C   UNL     1      -6.307  10.964 -36.074  1.00  0.00     0.123 A 
ATOM      9  C   UNL     1      -5.540  10.868 -34.913  1.00  0.00     0.094 A 
ATOM     10  C   UNL     1      -5.399  11.969 -34.065  1.00  0.00     0.146 A 
ATOM     11  O   UNL     1      -4.642  11.841 -32.981  1.00  0.00    -0.452 OA
ENDROOT
BRANCH   1  12
ATOM     12  C   UNL     1      -3.553  12.555 -30.954  1.00  0.00     0.029 A 
ATOM     13  C   UNL     1      -2.278  13.137 -30.885  1.00  0.00     0.062 A 
ATOM     14  C   UNL     1      -1.449  12.913 -29.781  1.00  0.00     0.162 A 
ATOM     15  C   UNL     1      -4.004  11.769 -29.880  1.00  0.00     0.062 A 
ATOM     16  C   UNL     1      -1.897  12.108 -28.720  1.00  0.00     0.200 A 
ATOM     17  C   UNL     1      -3.181  11.540 -28.770  1.00  0.00     0.162 A 
BRANCH  14  18
ATOM     18  O   UNL     1      -0.183  13.498 -29.758  1.00  0.00    -0.504 OA
ATOM     19  H   UNL     1      -0.045  14.473 -29.518  1.00  0.00     0.293 HD
ENDBRANCH  14  18
BRANCH  16  20
ATOM     20  O   UNL     1      -1.062  11.886 -27.623  1.00  0.00    -0.502 OA
ATOM     21  H   UNL     1      -1.393  11.961 -26.669  1.00  0.00     0.293 HD
ENDBRANCH  16  20
BRANCH  17  22
ATOM     22  O   UNL     1      -3.637  10.752 -27.713  1.00  0.00    -0.504 OA
ATOM     23  H   UNL     1      -4.497  10.221 -27.779  1.00  0.00     0.293 HD
ENDBRANCH  17  22
ENDBRANCH   1  12
BRANCH   2  24
ATOM     24  O   UNL     1      -4.800  15.127 -31.431  1.00  0.00    -0.502 OA
ATOM     25  H   UNL     1      -5.568  15.609 -30.980  1.00  0.00     0.293 HD
ENDBRANCH   2  24
BRANCH   6  26
ATOM     26  O   UNL     1      -7.641  14.380 -35.874  1.00  0.00    -0.507 OA
ATOM     27  H   UNL     1      -7.847  15.156 -35.262  1.00  0.00     0.293 HD
ENDBRANCH   6  26
BRANCH   8  28
ATOM     28  O   UNL     1      -6.434   9.875 -36.934  1.00  0.00    -0.508 OA
ATOM     29  H   UNL     1      -5.654   9.254 -37.122  1.00  0.00     0.293 HD
ENDBRANCH   8  28
TORSDOF 7
ENDMDL
MODEL 6
REMARK VINA RESULT:     0.284      2.310      3.837
REMARK INTER + INTRA:           0.000
REMARK INTER:                   0.257
REMARK INTRA:                  -0.256
REMARK UNBOUND:                -0.350
REMARK SMILES O=c1c(O)c(-c2cc(O)c(O)c(O)c2)oc2cc(O)cc(O)c12
REMARK SMILES IDX 5 1 3 2 2 3 1 4 23 5 21 6 20 7 18 8 17 9 16 10 15 11 6 12
REMARK SMILES IDX 7 13 8 14 14 15 10 16 12 17 9 18 11 20 13 22 4 24 22 26
REMARK SMILES IDX 19 28
REMARK H PARENT 9 19 11 21 13 23 4 25 22 27 19 29
REMARK Flexibility Score: inf
ROOT
ATOM      1  C   UNL     1      -3.876  13.179 -31.365  1.00  0.00     0.180 A 
ATOM      2  C   UNL     1      -2.471  13.230 -31.337  1.00  0.00     0.208 A 
ATOM      3  C   UNL     1      -1.826  13.560 -30.134  1.00  0.00     0.238 A 
ATOM      4  O   UNL     1      -0.573  13.676 -30.134  1.00  0.00    -0.285 OA
ATOM      5  C   UNL     1      -2.589  13.780 -28.961  1.00  0.00     0.111 A 
ATOM      6  C   UNL     1      -2.038  14.076 -27.677  1.00  0.00     0.134 A 
ATOM      7  C   UNL     1      -2.896  14.379 -26.612  1.00  0.00     0.093 A 
ATOM      8  C   UNL     1      -4.280  14.334 -26.766  1.00  0.00     0.123 A 
ATOM      9  C   UNL     1      -4.829  13.993 -28.002  1.00  0.00     0.094 A 
ATOM     10  C   UNL     1      -4.001  13.723 -29.094  1.00  0.00     0.146 A 
ATOM     11  O   UNL     1      -4.566  13.422 -30.258  1.00  0.00    -0.452 OA
ENDROOT
BRANCH   1  12
ATOM     12  C   UNL     1      -4.628  12.854 -32.598  1.00  0.00     0.029 A 
ATOM     13  C   UNL     1      -4.626  11.535 -33.079  1.00  0.00     0.062 A 
ATOM     14  C   UNL     1      -5.344  11.193 -34.229  1.00  0.00     0.162 A 
ATOM     15  C   UNL     1      -5.392  13.824 -33.268  1.00  0.00     0.062 A 
ATOM     16  C   UNL     1      -6.090  12.173 -34.908  1.00  0.00     0.200 A 
ATOM     17  C   UNL     1      -6.116  13.490 -34.420  1.00  0.00     0.162 A 
BRANCH  14  18
ATOM     18  O   UNL     1      -5.305   9.875 -34.682  1.00  0.00    -0.504 OA
ATOM     19  H   UNL     1      -4.702   9.584 -35.443  1.00  0.00     0.293 HD
ENDBRANCH  14  18
BRANCH  16  20
ATOM     20  O   UNL     1      -6.801  11.824 -36.057  1.00  0.00    -0.502 OA
ATOM     21  H   UNL     1      -7.667  11.300 -36.017  1.00  0.00     0.293 HD
ENDBRANCH  16  20
BRANCH  17  22
ATOM     22  O   UNL     1      -6.865  14.464 -35.081  1.00  0.00    -0.504 OA
ATOM     23  H   UNL     1      -7.260  15.256 -34.588  1.00  0.00     0.293 HD
ENDBRANCH  17  22
ENDBRANCH   1  12
BRANCH   2  24
ATOM     24  O   UNL     1      -1.733  12.935 -32.486  1.00  0.00    -0.502 OA
ATOM     25  H   UNL     1      -1.886  12.095 -33.030  1.00  0.00     0.293 HD
ENDBRANCH   2  24
BRANCH   6  26
ATOM     26  O   UNL     1      -0.670  14.061 -27.389  1.00  0.00    -0.507 OA
ATOM     27  H   UNL     1      -0.268  14.262 -26.486  1.00  0.00     0.293 HD
ENDBRANCH   6  26
BRANCH   8  28
ATOM     28  O   UNL     1      -5.102  14.625 -25.679  1.00  0.00    -0.508 OA
ATOM     29  H   UNL     1      -5.984  14.146 -25.537  1.00  0.00     0.293 HD
ENDBRANCH   8  28
TORSDOF 7
ENDMDL
MODEL 7
REMARK VINA RESULT:     0.942      2.145      3.479
REMARK INTER + INTRA:           0.812
REMARK INTER:                   0.380
REMARK INTRA:                   0.432
REMARK UNBOUND:                -0.350
REMARK SMILES O=c1c(O)c(-c2cc(O)c(O)c(O)c2)oc2cc(O)cc(O)c12
REMARK SMILES IDX 5 1 3 2 2 3 1 4 23 5 21 6 20 7 18 8 17 9 16 10 15 11 6 12
REMARK SMILES IDX 7 13 8 14 14 15 10 16 12 17 9 18 11 20 13 22 4 24 22 26
REMARK SMILES IDX 19 28
REMARK H PARENT 9 19 11 21 13 23 4 25 22 27 19 29
REMARK Flexibility Score: inf
ROOT
ATOM      1  C   UNL     1      -4.725  12.875 -30.845  1.00  0.00     0.180 A 
ATOM      2  C   UNL     1      -5.068  14.060 -30.171  1.00  0.00     0.208 A 
ATOM      3  C   UNL     1      -4.722  14.196 -28.817  1.00  0.00     0.238 A 
ATOM      4  O   UNL     1      -5.097  15.227 -28.200  1.00  0.00    -0.285 OA
ATOM      5  C   UNL     1      -3.989  13.172 -28.169  1.00  0.00     0.111 A 
ATOM      6  C   UNL     1      -3.547  13.223 -26.812  1.00  0.00     0.134 A 
ATOM      7  C   UNL     1      -2.921  12.104 -26.248  1.00  0.00     0.093 A 
ATOM      8  C   UNL     1      -2.666  10.963 -27.005  1.00  0.00     0.123 A 
ATOM      9  C   UNL     1      -3.045  10.922 -28.347  1.00  0.00     0.094 A 
ATOM     10  C   UNL     1      -3.705  12.007 -28.929  1.00  0.00     0.146 A 
ATOM     11  O   UNL     1      -4.067  11.919 -30.203  1.00  0.00    -0.452 OA
ENDROOT
BRANCH   1  12
ATOM     12  C   UNL     1      -5.069  12.652 -32.268  1.00  0.00     0.029 A 
ATOM     13  C   UNL     1      -4.855  11.388 -32.839  1.00  0.00     0.062 A 
ATOM     14  C   UNL     1      -5.189  11.140 -34.174  1.00  0.00     0.162 A 
ATOM     15  C   UNL     1      -5.659  13.662 -33.047  1.00  0.00     0.062 A 
ATOM     16  C   UNL     1      -5.759  12.161 -34.955  1.00  0.00     0.200 A 
ATOM     17  C   UNL     1      -5.998  13.423 -34.385  1.00  0.00     0.162 A 
BRANCH  14  18
ATOM     18  O   UNL     1      -4.947   9.875 -34.708  1.00  0.00    -0.504 OA
ATOM     19  H   UNL     1      -4.010   9.511 -34.827  1.00  0.00     0.293 HD
ENDBRANCH  14  18
BRANCH  16  20
ATOM     20  O   UNL     1      -6.086  11.908 -36.288  1.00  0.00    -0.502 OA
ATOM     21  H   UNL     1      -5.436  12.079 -37.045  1.00  0.00     0.293 HD
ENDBRANCH  16  20
BRANCH  17  22
ATOM     22  O   UNL     1      -6.576  14.436 -35.151  1.00  0.00    -0.504 OA
ATOM     23  H   UNL     1      -6.177  15.366 -35.189  1.00  0.00     0.293 HD
ENDBRANCH  17  22
ENDBRANCH   1  12
BRANCH   2  24
ATOM     24  O   UNL     1      -5.724  15.091 -30.848  1.00  0.00    -0.502 OA
ATOM     25  H   UNL     1      -5.997  15.016 -31.820  1.00  0.00     0.293 HD
ENDBRANCH   2  24
BRANCH   6  26
ATOM     26  O   UNL     1      -3.671  14.347 -25.989  1.00  0.00    -0.507 OA
ATOM     27  H   UNL     1      -3.496  15.297 -26.278  1.00  0.00     0.293 HD
ENDBRANCH   6  26
BRANCH   8  28
ATOM     28  O   UNL     1      -2.026   9.875 -26.414  1.00  0.00    -0.508 OA
ATOM     29  H   UNL     1      -2.455   9.354 -25.658  1.00  0.00     0.293 HD
ENDBRANCH   8  28
TORSDOF 7
ENDMDL
