MODEL 1
REMARK VINA RESULT:    -3.708      0.000      0.000
REMARK INTER + INTRA:          -4.263
REMARK INTER:                  -4.033
REMARK INTRA:                  -0.230
REMARK UNBOUND:                -0.230
REMARK SMILES O=C([O-])c1ccccc1O
REMARK SMILES IDX 4 1 9 2 5 3 8 4 6 5 7 6 2 7 1 8 3 9 10 10
REMARK H PARENT 10 11
REMARK Flexibility Score: inf
ROOT
ATOM      1  C   UNL     1     -15.042  -2.789  16.422  1.00  0.00     0.039 A 
ATOM      2  C   UNL     1     -14.688  -2.225  17.675  1.00  0.00     0.124 A 
ATOM      3  C   UNL     1     -16.099  -2.213  15.692  1.00  0.00     0.014 A 
ATOM      4  C   UNL     1     -15.431  -1.153  18.187  1.00  0.00     0.047 A 
ATOM      5  C   UNL     1     -16.815  -1.131  16.207  1.00  0.00     0.001 A 
ATOM      6  C   UNL     1     -16.488  -0.607  17.457  1.00  0.00     0.004 A 
ENDROOT
BRANCH   1   7
ATOM      7  C   UNL     1     -14.369  -3.985  15.871  1.00  0.00     0.075 C 
ATOM      8  O   UNL     1     -13.129  -3.965  15.649  1.00  0.00    -0.545 OA
ATOM      9  O   UNL     1     -15.098  -5.117  15.528  1.00  0.00    -0.545 OA
ENDBRANCH   1   7
BRANCH   2  10
ATOM     10  O   UNL     1     -13.594  -2.671  18.417  1.00  0.00    -0.507 OA
ATOM     11  H   UNL     1     -13.666  -3.006  19.368  1.00  0.00     0.293 HD
ENDBRANCH   2  10
TORSDOF 2
ENDMDL
MODEL 2
REMARK VINA RESULT:    -2.669      1.531      3.247
REMARK INTER + INTRA:          -3.133
REMARK INTER:                  -2.885
REMARK INTRA:                  -0.249
REMARK UNBOUND:                -0.230
REMARK SMILES O=C([O-])c1ccccc1O
REMARK SMILES IDX 4 1 9 2 5 3 8 4 6 5 7 6 2 7 1 8 3 9 10 10
REMARK H PARENT 10 11
REMARK Flexibility Score: inf
ROOT
ATOM      1  C   UNL     1     -14.841  -2.017  18.476  1.00  0.00     0.039 A 
ATOM      2  C   UNL     1     -14.122  -2.541  17.372  1.00  0.00     0.124 A 
ATOM      3  C   UNL     1     -16.066  -1.364  18.241  1.00  0.00     0.014 A 
ATOM      4  C   UNL     1     -14.607  -2.346  16.073  1.00  0.00     0.047 A 
ATOM      5  C   UNL     1     -16.547  -1.198  16.941  1.00  0.00     0.001 A 
ATOM      6  C   UNL     1     -15.814  -1.679  15.857  1.00  0.00     0.004 A 
ENDROOT
BRANCH   1   7
ATOM      7  C   UNL     1     -14.335  -2.096  19.864  1.00  0.00     0.075 C 
ATOM      8  O   UNL     1     -13.102  -1.979  20.094  1.00  0.00    -0.545 OA
ATOM      9  O   UNL     1     -15.196  -2.366  20.921  1.00  0.00    -0.545 OA
ENDBRANCH   1   7
BRANCH   2  10
ATOM     10  O   UNL     1     -12.950  -3.286  17.523  1.00  0.00    -0.507 OA
ATOM     11  H   UNL     1     -12.903  -4.284  17.373  1.00  0.00     0.293 HD
ENDBRANCH   2  10
TORSDOF 2
ENDMDL
MODEL 3
REMARK VINA RESULT:    -2.573      1.328      2.291
REMARK INTER + INTRA:          -3.028
REMARK INTER:                  -2.780
REMARK INTRA:                  -0.249
REMARK UNBOUND:                -0.230
REMARK SMILES O=C([O-])c1ccccc1O
REMARK SMILES IDX 4 1 9 2 5 3 8 4 6 5 7 6 2 7 1 8 3 9 10 10
REMARK H PARENT 10 11
REMARK Flexibility Score: inf
ROOT
ATOM      1  C   UNL     1     -15.356  -3.011  16.414  1.00  0.00     0.039 A 
ATOM      2  C   UNL     1     -16.343  -2.072  16.019  1.00  0.00     0.124 A 
ATOM      3  C   UNL     1     -14.623  -2.771  17.592  1.00  0.00     0.014 A 
ATOM      4  C   UNL     1     -16.525  -0.902  16.765  1.00  0.00     0.047 A 
ATOM      5  C   UNL     1     -14.832  -1.609  18.337  1.00  0.00     0.001 A 
ATOM      6  C   UNL     1     -15.775  -0.670  17.919  1.00  0.00     0.004 A 
ENDROOT
BRANCH   1   7
ATOM      7  C   UNL     1     -15.040  -4.216  15.616  1.00  0.00     0.075 C 
ATOM      8  O   UNL     1     -13.846  -4.595  15.490  1.00  0.00    -0.545 OA
ATOM      9  O   UNL     1     -16.042  -4.904  14.940  1.00  0.00    -0.545 OA
ENDBRANCH   1   7
BRANCH   2  10
ATOM     10  O   UNL     1     -17.181  -2.280  14.921  1.00  0.00    -0.507 OA
ATOM     11  H   UNL     1     -17.992  -2.883  14.947  1.00  0.00     0.293 HD
ENDBRANCH   2  10
TORSDOF 2
ENDMDL
MODEL 4
REMARK VINA RESULT:    -2.497      2.626      4.328
REMARK INTER + INTRA:          -2.945
REMARK INTER:                  -2.728
REMARK INTRA:                  -0.217
REMARK UNBOUND:                -0.230
REMARK SMILES O=C([O-])c1ccccc1O
REMARK SMILES IDX 4 1 9 2 5 3 8 4 6 5 7 6 2 7 1 8 3 9 10 10
REMARK H PARENT 10 11
REMARK Flexibility Score: inf
ROOT
ATOM      1  C   UNL     1     -15.762  -1.116  17.095  1.00  0.00     0.039 A 
ATOM      2  C   UNL     1     -15.999  -1.939  15.965  1.00  0.00     0.124 A 
ATOM      3  C   UNL     1     -14.758  -1.488  18.009  1.00  0.00     0.014 A 
ATOM      4  C   UNL     1     -15.280  -3.131  15.812  1.00  0.00     0.047 A 
ATOM      5  C   UNL     1     -14.034  -2.669  17.830  1.00  0.00     0.001 A 
ATOM      6  C   UNL     1     -14.302  -3.495  16.739  1.00  0.00     0.004 A 
ENDROOT
BRANCH   1   7
ATOM      7  C   UNL     1     -16.556   0.101  17.371  1.00  0.00     0.075 C 
ATOM      8  O   UNL     1     -17.806   0.024  17.502  1.00  0.00    -0.545 OA
ATOM      9  O   UNL     1     -15.948   1.351  17.424  1.00  0.00    -0.545 OA
ENDBRANCH   1   7
BRANCH   2  10
ATOM     10  O   UNL     1     -16.906  -1.594  14.961  1.00  0.00    -0.507 OA
ATOM     11  H   UNL     1     -17.681  -2.182  14.686  1.00  0.00     0.293 HD
ENDBRANCH   2  10
TORSDOF 2
ENDMDL
MODEL 5
REMARK VINA RESULT:    -2.390      1.077      2.932
REMARK INTER + INTRA:          -2.829
REMARK INTER:                  -2.580
REMARK INTRA:                  -0.249
REMARK UNBOUND:                -0.230
REMARK SMILES O=C([O-])c1ccccc1O
REMARK SMILES IDX 4 1 9 2 5 3 8 4 6 5 7 6 2 7 1 8 3 9 10 10
REMARK H PARENT 10 11
REMARK Flexibility Score: inf
ROOT
ATOM      1  C   UNL     1     -15.181  -1.985  17.842  1.00  0.00     0.039 A 
ATOM      2  C   UNL     1     -15.158  -2.774  16.664  1.00  0.00     0.124 A 
ATOM      3  C   UNL     1     -16.067  -0.894  17.914  1.00  0.00     0.014 A 
ATOM      4  C   UNL     1     -15.966  -2.418  15.577  1.00  0.00     0.047 A 
ATOM      5  C   UNL     1     -16.883  -0.567  16.829  1.00  0.00     0.001 A 
ATOM      6  C   UNL     1     -16.825  -1.321  15.658  1.00  0.00     0.004 A 
ENDROOT
BRANCH   1   7
ATOM      7  C   UNL     1     -14.279  -2.242  18.987  1.00  0.00     0.075 C 
ATOM      8  O   UNL     1     -13.092  -2.612  18.786  1.00  0.00    -0.545 OA
ATOM      9  O   UNL     1     -14.743  -2.144  20.294  1.00  0.00    -0.545 OA
ENDBRANCH   1   7
BRANCH   2  10
ATOM     10  O   UNL     1     -14.381  -3.928  16.547  1.00  0.00    -0.507 OA
ATOM     11  H   UNL     1     -14.431  -4.553  15.754  1.00  0.00     0.293 HD
ENDBRANCH   2  10
TORSDOF 2
ENDMDL
MODEL 6
REMARK VINA RESULT:    -2.369      2.576      3.968
REMARK INTER + INTRA:          -2.807
REMARK INTER:                  -2.557
REMARK INTRA:                  -0.250
REMARK UNBOUND:                -0.230
REMARK SMILES O=C([O-])c1ccccc1O
REMARK SMILES IDX 4 1 9 2 5 3 8 4 6 5 7 6 2 7 1 8 3 9 10 10
REMARK H PARENT 10 11
REMARK Flexibility Score: inf
ROOT
ATOM      1  C   UNL     1     -14.337  -2.247  18.433  1.00  0.00     0.039 A 
ATOM      2  C   UNL     1     -15.397  -1.822  17.593  1.00  0.00     0.124 A 
ATOM      3  C   UNL     1     -13.206  -2.848  17.850  1.00  0.00     0.014 A 
ATOM      4  C   UNL     1     -15.329  -2.063  16.215  1.00  0.00     0.047 A 
ATOM      5  C   UNL     1     -13.144  -3.062  16.471  1.00  0.00     0.001 A 
ATOM      6  C   UNL     1     -14.208  -2.679  15.656  1.00  0.00     0.004 A 
ENDROOT
BRANCH   1   7
ATOM      7  C   UNL     1     -14.390  -2.117  19.906  1.00  0.00     0.075 C 
ATOM      8  O   UNL     1     -15.443  -2.414  20.529  1.00  0.00    -0.545 OA
ATOM      9  O   UNL     1     -13.308  -1.605  20.615  1.00  0.00    -0.545 OA
ENDBRANCH   1   7
BRANCH   2  10
ATOM     10  O   UNL     1     -16.509  -1.130  18.078  1.00  0.00    -0.507 OA
ATOM     11  H   UNL     1     -17.196  -1.543  18.694  1.00  0.00     0.293 HD
ENDBRANCH   2  10
TORSDOF 2
ENDMDL
MODEL 7
REMARK VINA RESULT:    -1.854      2.408      3.835
REMARK INTER + INTRA:          -2.246
REMARK INTER:                  -2.104
REMARK INTRA:                  -0.143
REMARK UNBOUND:                -0.230
REMARK SMILES O=C([O-])c1ccccc1O
REMARK SMILES IDX 4 1 9 2 5 3 8 4 6 5 7 6 2 7 1 8 3 9 10 10
REMARK H PARENT 10 11
REMARK Flexibility Score: inf
ROOT
ATOM      1  C   UNL     1     -16.047  -1.087  17.099  1.00  0.00     0.039 A 
ATOM      2  C   UNL     1     -15.095  -1.750  17.915  1.00  0.00     0.124 A 
ATOM      3  C   UNL     1     -16.455  -1.696  15.897  1.00  0.00     0.014 A 
ATOM      4  C   UNL     1     -14.536  -2.959  17.483  1.00  0.00     0.047 A 
ATOM      5  C   UNL     1     -15.904  -2.913  15.492  1.00  0.00     0.001 A 
ATOM      6  C   UNL     1     -14.937  -3.540  16.279  1.00  0.00     0.004 A 
ENDROOT
BRANCH   1   7
ATOM      7  C   UNL     1     -16.599   0.241  17.443  1.00  0.00     0.075 C 
ATOM      8  O   UNL     1     -17.835   0.378  17.648  1.00  0.00    -0.545 OA
ATOM      9  O   UNL     1     -15.781   1.365  17.479  1.00  0.00    -0.545 OA
ENDBRANCH   1   7
BRANCH   2  10
ATOM     10  O   UNL     1     -14.709  -1.265  19.165  1.00  0.00    -0.507 OA
ATOM     11  H   UNL     1     -15.222  -1.450  20.016  1.00  0.00     0.293 HD
ENDBRANCH   2  10
TORSDOF 2
ENDMDL
MODEL 8
REMARK VINA RESULT:    -1.721      2.290      3.408
REMARK INTER + INTRA:          -2.102
REMARK INTER:                  -1.849
REMARK INTRA:                  -0.253
REMARK UNBOUND:                -0.230
REMARK SMILES O=C([O-])c1ccccc1O
REMARK SMILES IDX 4 1 9 2 5 3 8 4 6 5 7 6 2 7 1 8 3 9 10 10
REMARK H PARENT 10 11
REMARK Flexibility Score: inf
ROOT
ATOM      1  C   UNL     1     -15.250  -1.973  16.742  1.00  0.00     0.039 A 
ATOM      2  C   UNL     1     -14.864  -2.175  18.092  1.00  0.00     0.124 A 
ATOM      3  C   UNL     1     -14.381  -2.392  15.717  1.00  0.00     0.014 A 
ATOM      4  C   UNL     1     -13.609  -2.726  18.379  1.00  0.00     0.047 A 
ATOM      5  C   UNL     1     -13.142  -2.960  16.020  1.00  0.00     0.001 A 
ATOM      6  C   UNL     1     -12.752  -3.118  17.350  1.00  0.00     0.004 A 
ENDROOT
BRANCH   1   7
ATOM      7  C   UNL     1     -16.514  -1.303  16.369  1.00  0.00     0.075 C 
ATOM      8  O   UNL     1     -17.133  -1.654  15.330  1.00  0.00    -0.545 OA
ATOM      9  O   UNL     1     -17.002  -0.236  17.117  1.00  0.00    -0.545 OA
ENDBRANCH   1   7
BRANCH   2  10
ATOM     10  O   UNL     1     -15.706  -1.879  19.166  1.00  0.00    -0.507 OA
ATOM     11  H   UNL     1     -15.730  -0.977  19.622  1.00  0.00     0.293 HD
ENDBRANCH   2  10
TORSDOF 2
ENDMDL
MODEL 9
REMARK VINA RESULT:    -1.652      2.318      3.604
REMARK INTER + INTRA:          -2.027
REMARK INTER:                  -1.776
REMARK INTRA:                  -0.250
REMARK UNBOUND:                -0.230
REMARK SMILES O=C([O-])c1ccccc1O
REMARK SMILES IDX 4 1 9 2 5 3 8 4 6 5 7 6 2 7 1 8 3 9 10 10
REMARK H PARENT 10 11
REMARK Flexibility Score: inf
ROOT
ATOM      1  C   UNL     1     -15.416  -1.568  17.519  1.00  0.00     0.039 A 
ATOM      2  C   UNL     1     -14.223  -2.164  17.036  1.00  0.00     0.124 A 
ATOM      3  C   UNL     1     -15.636  -1.514  18.908  1.00  0.00     0.014 A 
ATOM      4  C   UNL     1     -13.322  -2.740  17.940  1.00  0.00     0.047 A 
ATOM      5  C   UNL     1     -14.716  -2.073  19.797  1.00  0.00     0.001 A 
ATOM      6  C   UNL     1     -13.565  -2.695  19.314  1.00  0.00     0.004 A 
ENDROOT
BRANCH   1   7
ATOM      7  C   UNL     1     -16.459  -1.034  16.615  1.00  0.00     0.075 C 
ATOM      8  O   UNL     1     -16.754  -1.650  15.557  1.00  0.00    -0.545 OA
ATOM      9  O   UNL     1     -17.078   0.182  16.882  1.00  0.00    -0.545 OA
ENDBRANCH   1   7
BRANCH   2  10
ATOM     10  O   UNL     1     -13.881  -2.172  15.683  1.00  0.00    -0.507 OA
ATOM     11  H   UNL     1     -14.411  -2.668  14.979  1.00  0.00     0.293 HD
ENDBRANCH   2  10
TORSDOF 2
ENDMDL
