MODEL 1
REMARK VINA RESULT:    -5.403      0.000      0.000
REMARK INTER + INTRA:          -6.330
REMARK INTER:                  -6.193
REMARK INTRA:                  -0.137
REMARK UNBOUND:                -0.137
REMARK SMILES O=C([O-])C=Cc1ccc(O)cc1
REMARK SMILES IDX 6 1 7 2 12 3 8 4 11 5 9 6 5 7 4 8 2 9 1 10 3 11 10 12
REMARK H PARENT 10 13
REMARK Flexibility Score: inf
ROOT
ATOM      1  C   UNL     1     -31.535  -4.882 -17.027  1.00  0.00    -0.025 A 
ATOM      2  C   UNL     1     -32.836  -5.408 -17.171  1.00  0.00     0.012 A 
ATOM      3  C   UNL     1     -31.252  -3.617 -17.572  1.00  0.00     0.012 A 
ATOM      4  C   UNL     1     -33.828  -4.670 -17.825  1.00  0.00     0.047 A 
ATOM      5  C   UNL     1     -32.246  -2.884 -18.224  1.00  0.00     0.047 A 
ATOM      6  C   UNL     1     -33.536  -3.406 -18.351  1.00  0.00     0.115 A 
ENDROOT
BRANCH   1   7
ATOM      7  C   UNL     1     -30.442  -5.626 -16.353  1.00  0.00     0.010 C 
ATOM      8  C   UNL     1     -30.080  -6.875 -16.679  1.00  0.00     0.025 C 
BRANCH   8   9
ATOM      9  C   UNL     1     -28.997  -7.587 -15.979  1.00  0.00     0.064 C 
ATOM     10  O   UNL     1     -28.137  -8.253 -16.616  1.00  0.00    -0.545 OA
ATOM     11  O   UNL     1     -28.924  -7.526 -14.594  1.00  0.00    -0.545 OA
ENDBRANCH   8   9
ENDBRANCH   1   7
BRANCH   6  12
ATOM     12  O   UNL     1     -34.519  -2.663 -19.004  1.00  0.00    -0.508 OA
ATOM     13  H   UNL     1     -35.349  -2.343 -18.519  1.00  0.00     0.293 HD
ENDBRANCH   6  12
TORSDOF 3
ENDMDL
MODEL 2
REMARK VINA RESULT:    -5.384      6.494      7.818
REMARK INTER + INTRA:          -6.308
REMARK INTER:                  -6.172
REMARK INTRA:                  -0.135
REMARK UNBOUND:                -0.137
REMARK SMILES O=C([O-])C=Cc1ccc(O)cc1
REMARK SMILES IDX 6 1 7 2 12 3 8 4 11 5 9 6 5 7 4 8 2 9 1 10 3 11 10 12
REMARK H PARENT 10 13
REMARK Flexibility Score: inf
ROOT
ATOM      1  C   UNL     1     -37.245  -7.161 -13.731  1.00  0.00    -0.025 A 
ATOM      2  C   UNL     1     -38.531  -6.617 -13.535  1.00  0.00     0.012 A 
ATOM      3  C   UNL     1     -37.085  -8.557 -13.685  1.00  0.00     0.012 A 
ATOM      4  C   UNL     1     -39.630  -7.458 -13.324  1.00  0.00     0.047 A 
ATOM      5  C   UNL     1     -38.185  -9.393 -13.474  1.00  0.00     0.047 A 
ATOM      6  C   UNL     1     -39.459  -8.847 -13.295  1.00  0.00     0.115 A 
ENDROOT
BRANCH   1   7
ATOM      7  C   UNL     1     -36.044  -6.316 -13.948  1.00  0.00     0.010 C 
ATOM      8  C   UNL     1     -35.573  -5.988 -15.160  1.00  0.00     0.025 C 
BRANCH   8   9
ATOM      9  C   UNL     1     -34.370  -5.156 -15.336  1.00  0.00     0.064 C 
ATOM     10  O   UNL     1     -34.095  -4.229 -14.527  1.00  0.00    -0.545 OA
ATOM     11  O   UNL     1     -33.527  -5.394 -16.412  1.00  0.00    -0.545 OA
ENDBRANCH   8   9
ENDBRANCH   1   7
BRANCH   6  12
ATOM     12  O   UNL     1     -40.547  -9.693 -13.085  1.00  0.00    -0.508 OA
ATOM     13  H   UNL     1     -41.015 -10.154 -13.856  1.00  0.00     0.293 HD
ENDBRANCH   6  12
TORSDOF 3
ENDMDL
MODEL 3
REMARK VINA RESULT:    -5.247      5.648      7.337
REMARK INTER + INTRA:          -6.151
REMARK INTER:                  -6.000
REMARK INTRA:                  -0.151
REMARK UNBOUND:                -0.137
REMARK SMILES O=C([O-])C=Cc1ccc(O)cc1
REMARK SMILES IDX 6 1 7 2 12 3 8 4 11 5 9 6 5 7 4 8 2 9 1 10 3 11 10 12
REMARK H PARENT 10 13
REMARK Flexibility Score: inf
ROOT
ATOM      1  C   UNL     1     -36.588  -7.343 -14.861  1.00  0.00    -0.025 A 
ATOM      2  C   UNL     1     -36.462  -7.859 -13.554  1.00  0.00     0.012 A 
ATOM      3  C   UNL     1     -37.695  -7.729 -15.637  1.00  0.00     0.012 A 
ATOM      4  C   UNL     1     -37.437  -8.718 -13.036  1.00  0.00     0.047 A 
ATOM      5  C   UNL     1     -38.666  -8.587 -15.115  1.00  0.00     0.047 A 
ATOM      6  C   UNL     1     -38.542  -9.082 -13.815  1.00  0.00     0.115 A 
ENDROOT
BRANCH   1   7
ATOM      7  C   UNL     1     -35.578  -6.438 -15.464  1.00  0.00     0.010 C 
ATOM      8  C   UNL     1     -35.572  -6.084 -16.757  1.00  0.00     0.025 C 
BRANCH   8   9
ATOM      9  C   UNL     1     -34.546  -5.192 -17.323  1.00  0.00     0.064 C 
ATOM     10  O   UNL     1     -34.824  -4.009 -17.659  1.00  0.00    -0.545 OA
ATOM     11  O   UNL     1     -33.251  -5.662 -17.491  1.00  0.00    -0.545 OA
ENDBRANCH   8   9
ENDBRANCH   1   7
BRANCH   6  12
ATOM     12  O   UNL     1     -39.519  -9.938 -13.307  1.00  0.00    -0.508 OA
ATOM     13  H   UNL     1     -39.482 -10.937 -13.468  1.00  0.00     0.293 HD
ENDBRANCH   6  12
TORSDOF 3
ENDMDL
MODEL 4
REMARK VINA RESULT:    -5.151      3.910      4.417
REMARK INTER + INTRA:          -6.040
REMARK INTER:                  -5.899
REMARK INTRA:                  -0.141
REMARK UNBOUND:                -0.137
REMARK SMILES O=C([O-])C=Cc1ccc(O)cc1
REMARK SMILES IDX 6 1 7 2 12 3 8 4 11 5 9 6 5 7 4 8 2 9 1 10 3 11 10 12
REMARK H PARENT 10 13
REMARK Flexibility Score: inf
ROOT
ATOM      1  C   UNL     1     -32.811  -3.567 -18.000  1.00  0.00    -0.025 A 
ATOM      2  C   UNL     1     -33.473  -3.445 -19.240  1.00  0.00     0.012 A 
ATOM      3  C   UNL     1     -31.461  -3.183 -17.913  1.00  0.00     0.012 A 
ATOM      4  C   UNL     1     -32.801  -2.929 -20.353  1.00  0.00     0.047 A 
ATOM      5  C   UNL     1     -30.794  -2.667 -19.027  1.00  0.00     0.047 A 
ATOM      6  C   UNL     1     -31.461  -2.536 -20.248  1.00  0.00     0.115 A 
ENDROOT
BRANCH   1   7
ATOM      7  C   UNL     1     -33.473  -4.119 -16.792  1.00  0.00     0.010 C 
ATOM      8  C   UNL     1     -34.314  -5.163 -16.815  1.00  0.00     0.025 C 
BRANCH   8   9
ATOM      9  C   UNL     1     -34.961  -5.676 -15.596  1.00  0.00     0.064 C 
ATOM     10  O   UNL     1     -34.781  -5.121 -14.478  1.00  0.00    -0.545 OA
ATOM     11  O   UNL     1     -35.782  -6.792 -15.677  1.00  0.00    -0.545 OA
ENDBRANCH   8   9
ENDBRANCH   1   7
BRANCH   6  12
ATOM     12  O   UNL     1     -30.783  -2.019 -21.351  1.00  0.00    -0.508 OA
ATOM     13  H   UNL     1     -29.980  -1.411 -21.241  1.00  0.00     0.293 HD
ENDBRANCH   6  12
TORSDOF 3
ENDMDL
MODEL 5
REMARK VINA RESULT:    -5.069      5.794      7.078
REMARK INTER + INTRA:          -5.947
REMARK INTER:                  -5.814
REMARK INTRA:                  -0.133
REMARK UNBOUND:                -0.137
REMARK SMILES O=C([O-])C=Cc1ccc(O)cc1
REMARK SMILES IDX 6 1 7 2 12 3 8 4 11 5 9 6 5 7 4 8 2 9 1 10 3 11 10 12
REMARK H PARENT 10 13
REMARK Flexibility Score: inf
ROOT
ATOM      1  C   UNL     1     -35.987  -6.354 -14.521  1.00  0.00    -0.025 A 
ATOM      2  C   UNL     1     -35.729  -6.495 -15.901  1.00  0.00     0.012 A 
ATOM      3  C   UNL     1     -35.335  -5.330 -13.812  1.00  0.00     0.012 A 
ATOM      4  C   UNL     1     -34.858  -5.614 -16.551  1.00  0.00     0.047 A 
ATOM      5  C   UNL     1     -34.466  -4.452 -14.465  1.00  0.00     0.047 A 
ATOM      6  C   UNL     1     -34.227  -4.589 -15.835  1.00  0.00     0.115 A 
ENDROOT
BRANCH   1   7
ATOM      7  C   UNL     1     -36.892  -7.267 -13.780  1.00  0.00     0.010 C 
ATOM      8  C   UNL     1     -38.112  -7.618 -14.212  1.00  0.00     0.025 C 
BRANCH   8   9
ATOM      9  C   UNL     1     -38.988  -8.518 -13.443  1.00  0.00     0.064 C 
ATOM     10  O   UNL     1     -40.108  -8.129 -13.014  1.00  0.00    -0.545 OA
ATOM     11  O   UNL     1     -38.573  -9.817 -13.183  1.00  0.00    -0.545 OA
ENDBRANCH   8   9
ENDBRANCH   1   7
BRANCH   6  12
ATOM     12  O   UNL     1     -33.358  -3.707 -16.475  1.00  0.00    -0.508 OA
ATOM     13  H   UNL     1     -33.692  -3.034 -17.154  1.00  0.00     0.293 HD
ENDBRANCH   6  12
TORSDOF 3
ENDMDL
MODEL 6
REMARK VINA RESULT:    -5.025      7.606      9.253
REMARK INTER + INTRA:          -5.896
REMARK INTER:                  -5.758
REMARK INTRA:                  -0.138
REMARK UNBOUND:                -0.137
REMARK SMILES O=C([O-])C=Cc1ccc(O)cc1
REMARK SMILES IDX 6 1 7 2 12 3 8 4 11 5 9 6 5 7 4 8 2 9 1 10 3 11 10 12
REMARK H PARENT 10 13
REMARK Flexibility Score: inf
ROOT
ATOM      1  C   UNL     1     -38.113  -6.385 -13.248  1.00  0.00    -0.025 A 
ATOM      2  C   UNL     1     -39.490  -6.424 -12.942  1.00  0.00     0.012 A 
ATOM      3  C   UNL     1     -37.452  -7.590 -13.544  1.00  0.00     0.012 A 
ATOM      4  C   UNL     1     -40.184  -7.638 -12.957  1.00  0.00     0.047 A 
ATOM      5  C   UNL     1     -38.149  -8.801 -13.558  1.00  0.00     0.047 A 
ATOM      6  C   UNL     1     -39.516  -8.829 -13.269  1.00  0.00     0.115 A 
ENDROOT
BRANCH   1   7
ATOM      7  C   UNL     1     -37.327  -5.127 -13.235  1.00  0.00     0.010 C 
ATOM      8  C   UNL     1     -37.867  -3.912 -13.061  1.00  0.00     0.025 C 
BRANCH   8   9
ATOM      9  C   UNL     1     -37.055  -2.683 -13.065  1.00  0.00     0.064 C 
ATOM     10  O   UNL     1     -36.713  -2.124 -11.989  1.00  0.00    -0.545 OA
ATOM     11  O   UNL     1     -36.663  -2.130 -14.276  1.00  0.00    -0.545 OA
ENDBRANCH   8   9
ENDBRANCH   1   7
BRANCH   6  12
ATOM     12  O   UNL     1     -40.199 -10.043 -13.287  1.00  0.00    -0.508 OA
ATOM     13  H   UNL     1     -40.288 -10.587 -14.137  1.00  0.00     0.293 HD
ENDBRANCH   6  12
TORSDOF 3
ENDMDL
MODEL 7
REMARK VINA RESULT:    -5.023      4.362      5.549
REMARK INTER + INTRA:          -5.895
REMARK INTER:                  -5.759
REMARK INTRA:                  -0.135
REMARK UNBOUND:                -0.137
REMARK SMILES O=C([O-])C=Cc1ccc(O)cc1
REMARK SMILES IDX 6 1 7 2 12 3 8 4 11 5 9 6 5 7 4 8 2 9 1 10 3 11 10 12
REMARK H PARENT 10 13
REMARK Flexibility Score: inf
ROOT
ATOM      1  C   UNL     1     -35.352  -5.909 -16.627  1.00  0.00    -0.025 A 
ATOM      2  C   UNL     1     -36.138  -5.628 -17.764  1.00  0.00     0.012 A 
ATOM      3  C   UNL     1     -33.973  -5.644 -16.674  1.00  0.00     0.012 A 
ATOM      4  C   UNL     1     -35.553  -5.073 -18.907  1.00  0.00     0.047 A 
ATOM      5  C   UNL     1     -33.393  -5.089 -17.817  1.00  0.00     0.047 A 
ATOM      6  C   UNL     1     -34.180  -4.800 -18.935  1.00  0.00     0.115 A 
ENDROOT
BRANCH   1   7
ATOM      7  C   UNL     1     -35.919  -6.509 -15.393  1.00  0.00     0.010 C 
ATOM      8  C   UNL     1     -36.430  -7.747 -15.333  1.00  0.00     0.025 C 
BRANCH   8   9
ATOM      9  C   UNL     1     -36.996  -8.305 -14.093  1.00  0.00     0.064 C 
ATOM     10  O   UNL     1     -36.327  -8.328 -13.025  1.00  0.00    -0.545 OA
ATOM     11  O   UNL     1     -38.286  -8.815 -14.100  1.00  0.00    -0.545 OA
ENDBRANCH   8   9
ENDBRANCH   1   7
BRANCH   6  12
ATOM     12  O   UNL     1     -33.588  -4.246 -20.069  1.00  0.00    -0.508 OA
ATOM     13  H   UNL     1     -32.601  -4.018 -20.093  1.00  0.00     0.293 HD
ENDBRANCH   6  12
TORSDOF 3
ENDMDL
MODEL 8
REMARK VINA RESULT:    -5.023      6.961      8.988
REMARK INTER + INTRA:          -5.894
REMARK INTER:                  -5.756
REMARK INTRA:                  -0.138
REMARK UNBOUND:                -0.137
REMARK SMILES O=C([O-])C=Cc1ccc(O)cc1
REMARK SMILES IDX 6 1 7 2 12 3 8 4 11 5 9 6 5 7 4 8 2 9 1 10 3 11 10 12
REMARK H PARENT 10 13
REMARK Flexibility Score: inf
ROOT
ATOM      1  C   UNL     1     -37.959  -6.506 -13.377  1.00  0.00    -0.025 A 
ATOM      2  C   UNL     1     -37.333  -7.712 -13.754  1.00  0.00     0.012 A 
ATOM      3  C   UNL     1     -39.315  -6.534 -13.006  1.00  0.00     0.012 A 
ATOM      4  C   UNL     1     -38.047  -8.915 -13.736  1.00  0.00     0.047 A 
ATOM      5  C   UNL     1     -40.024  -7.738 -12.989  1.00  0.00     0.047 A 
ATOM      6  C   UNL     1     -39.393  -8.931 -13.351  1.00  0.00     0.115 A 
ENDROOT
BRANCH   1   7
ATOM      7  C   UNL     1     -37.253  -5.201 -13.389  1.00  0.00     0.010 C 
ATOM      8  C   UNL     1     -37.509  -4.223 -14.270  1.00  0.00     0.025 C 
BRANCH   8   9
ATOM      9  C   UNL     1     -36.779  -2.944 -14.259  1.00  0.00     0.064 C 
ATOM     10  O   UNL     1     -36.848  -2.162 -13.273  1.00  0.00    -0.545 OA
ATOM     11  O   UNL     1     -36.003  -2.593 -15.355  1.00  0.00    -0.545 OA
ENDBRANCH   8   9
ENDBRANCH   1   7
BRANCH   6  12
ATOM     12  O   UNL     1     -40.112 -10.125 -13.329  1.00  0.00    -0.508 OA
ATOM     13  H   UNL     1     -40.771 -10.332 -12.589  1.00  0.00     0.293 HD
ENDBRANCH   6  12
TORSDOF 3
ENDMDL
MODEL 9
REMARK VINA RESULT:    -4.968      3.975      4.633
REMARK INTER + INTRA:          -5.831
REMARK INTER:                  -5.693
REMARK INTRA:                  -0.138
REMARK UNBOUND:                -0.137
REMARK SMILES O=C([O-])C=Cc1ccc(O)cc1
REMARK SMILES IDX 6 1 7 2 12 3 8 4 11 5 9 6 5 7 4 8 2 9 1 10 3 11 10 12
REMARK H PARENT 10 13
REMARK Flexibility Score: inf
ROOT
ATOM      1  C   UNL     1     -34.357  -4.257 -16.611  1.00  0.00    -0.025 A 
ATOM      2  C   UNL     1     -35.337  -3.672 -17.440  1.00  0.00     0.012 A 
ATOM      3  C   UNL     1     -33.006  -4.165 -16.991  1.00  0.00     0.012 A 
ATOM      4  C   UNL     1     -34.964  -2.994 -18.605  1.00  0.00     0.047 A 
ATOM      5  C   UNL     1     -32.638  -3.486 -18.155  1.00  0.00     0.047 A 
ATOM      6  C   UNL     1     -33.614  -2.896 -18.964  1.00  0.00     0.115 A 
ENDROOT
BRANCH   1   7
ATOM      7  C   UNL     1     -34.697  -4.998 -15.371  1.00  0.00     0.010 C 
ATOM      8  C   UNL     1     -35.538  -6.043 -15.335  1.00  0.00     0.025 C 
BRANCH   8   9
ATOM      9  C   UNL     1     -35.862  -6.747 -14.082  1.00  0.00     0.064 C 
ATOM     10  O   UNL     1     -36.390  -7.891 -14.096  1.00  0.00    -0.545 OA
ATOM     11  O   UNL     1     -35.583  -6.139 -12.866  1.00  0.00    -0.545 OA
ENDBRANCH   8   9
ENDBRANCH   1   7
BRANCH   6  12
ATOM     12  O   UNL     1     -33.233  -2.222 -20.122  1.00  0.00    -0.508 OA
ATOM     13  H   UNL     1     -32.679  -2.674 -20.840  1.00  0.00     0.293 HD
ENDBRANCH   6  12
TORSDOF 3
ENDMDL
