MODEL 1
REMARK VINA RESULT:    -5.876      0.000      0.000
REMARK INTER + INTRA:          -5.876
REMARK INTER:                  -5.876
REMARK INTRA:                   0.000
REMARK UNBOUND:                 0.000
REMARK SMILES C=C1CCC[C@@]2(C)CC(=O)C(=C(C)C)C[C@H]12
REMARK SMILES IDX 13 1 12 2 11 3 15 4 16 5 2 6 1 7 3 8 4 9 5 10 6 11 8 12 9 13
REMARK SMILES IDX 10 14 7 15 14 16
REMARK H PARENT
REMARK Flexibility Score: inf
ROOT
ATOM      1  C   UNL     1      18.827 -20.881 -19.573  1.00  0.00     0.039 C 
ATOM      2  C   UNL     1      19.072 -22.137 -20.375  1.00  0.00    -0.070 C 
ATOM      3  C   UNL     1      18.848 -22.187 -21.722  1.00  0.00    -0.006 C 
ATOM      4  C   UNL     1      19.043 -23.478 -22.505  1.00  0.00     0.047 C 
ATOM      5  C   UNL     1      18.098 -23.585 -23.729  1.00  0.00     0.025 C 
ATOM      6  C   UNL     1      18.276 -24.843 -24.578  1.00  0.00    -0.073 C 
ATOM      7  C   UNL     1      19.183 -25.805 -24.321  1.00  0.00     0.008 C 
ATOM      8  C   UNL     1      17.328 -25.002 -25.743  1.00  0.00     0.031 C 
ATOM      9  C   UNL     1      17.355 -23.751 -26.627  1.00  0.00     0.005 C 
ATOM     10  C   UNL     1      17.134 -22.471 -25.803  1.00  0.00     0.008 C 
ATOM     11  C   UNL     1      18.151 -22.313 -24.632  1.00  0.00    -0.018 C 
ATOM     12  C   UNL     1      17.726 -21.087 -23.788  1.00  0.00     0.088 C 
ATOM     13  C   UNL     1      18.523 -20.969 -22.521  1.00  0.00     0.159 C 
ATOM     14  O   UNL     1      18.920 -19.827 -22.162  1.00  0.00    -0.295 OA
ATOM     15  C   UNL     1      19.574 -22.072 -25.209  1.00  0.00     0.012 C 
ATOM     16  C   UNL     1      19.545 -23.354 -19.612  1.00  0.00     0.039 C 
ENDROOT
TORSDOF 0
ENDMDL
MODEL 2
REMARK VINA RESULT:    -5.790      7.027      9.186
REMARK INTER + INTRA:          -5.790
REMARK INTER:                  -5.790
REMARK INTRA:                   0.000
REMARK UNBOUND:                 0.000
REMARK SMILES C=C1CCC[C@@]2(C)CC(=O)C(=C(C)C)C[C@H]12
REMARK SMILES IDX 13 1 12 2 11 3 15 4 16 5 2 6 1 7 3 8 4 9 5 10 6 11 8 12 9 13
REMARK SMILES IDX 10 14 7 15 14 16
REMARK H PARENT
REMARK Flexibility Score: inf
ROOT
ATOM      1  C   UNL     1      19.535 -24.659 -11.095  1.00  0.00     0.039 C 
ATOM      2  C   UNL     1      20.607 -25.299 -11.947  1.00  0.00    -0.070 C 
ATOM      3  C   UNL     1      20.602 -25.194 -13.308  1.00  0.00    -0.006 C 
ATOM      4  C   UNL     1      21.656 -25.896 -14.155  1.00  0.00     0.047 C 
ATOM      5  C   UNL     1      21.128 -26.302 -15.554  1.00  0.00     0.025 C 
ATOM      6  C   UNL     1      22.154 -26.974 -16.466  1.00  0.00    -0.073 C 
ATOM      7  C   UNL     1      23.435 -27.204 -16.119  1.00  0.00     0.008 C 
ATOM      8  C   UNL     1      21.650 -27.434 -17.813  1.00  0.00     0.031 C 
ATOM      9  C   UNL     1      20.958 -26.281 -18.546  1.00  0.00     0.005 C 
ATOM     10  C   UNL     1      19.888 -25.612 -17.667  1.00  0.00     0.008 C 
ATOM     11  C   UNL     1      20.445 -25.112 -16.299  1.00  0.00    -0.018 C 
ATOM     12  C   UNL     1      19.251 -24.614 -15.447  1.00  0.00     0.088 C 
ATOM     13  C   UNL     1      19.656 -24.299 -14.036  1.00  0.00     0.159 C 
ATOM     14  O   UNL     1      19.191 -23.260 -13.493  1.00  0.00    -0.295 OA
ATOM     15  C   UNL     1      21.431 -23.935 -16.538  1.00  0.00     0.012 C 
ATOM     16  C   UNL     1      21.669 -26.096 -11.223  1.00  0.00     0.039 C 
ENDROOT
TORSDOF 0
ENDMDL
MODEL 3
REMARK VINA RESULT:    -5.703      1.974      4.542
REMARK INTER + INTRA:          -5.703
REMARK INTER:                  -5.703
REMARK INTRA:                   0.000
REMARK UNBOUND:                 0.000
REMARK SMILES C=C1CCC[C@@]2(C)CC(=O)C(=C(C)C)C[C@H]12
REMARK SMILES IDX 13 1 12 2 11 3 15 4 16 5 2 6 1 7 3 8 4 9 5 10 6 11 8 12 9 13
REMARK SMILES IDX 10 14 7 15 14 16
REMARK H PARENT
REMARK Flexibility Score: inf
ROOT
ATOM      1  C   UNL     1      15.901 -21.134 -27.399  1.00  0.00     0.039 C 
ATOM      2  C   UNL     1      15.709 -22.097 -26.251  1.00  0.00    -0.070 C 
ATOM      3  C   UNL     1      16.739 -22.449 -25.426  1.00  0.00    -0.006 C 
ATOM      4  C   UNL     1      16.542 -23.468 -24.311  1.00  0.00     0.047 C 
ATOM      5  C   UNL     1      17.829 -24.274 -24.001  1.00  0.00     0.025 C 
ATOM      6  C   UNL     1      17.704 -25.284 -22.861  1.00  0.00    -0.073 C 
ATOM      7  C   UNL     1      16.578 -25.481 -22.148  1.00  0.00     0.008 C 
ATOM      8  C   UNL     1      18.925 -26.126 -22.578  1.00  0.00     0.031 C 
ATOM      9  C   UNL     1      20.151 -25.231 -22.368  1.00  0.00     0.005 C 
ATOM     10  C   UNL     1      20.328 -24.232 -23.523  1.00  0.00     0.008 C 
ATOM     11  C   UNL     1      19.066 -23.350 -23.768  1.00  0.00    -0.018 C 
ATOM     12  C   UNL     1      19.306 -22.512 -25.048  1.00  0.00     0.088 C 
ATOM     13  C   UNL     1      18.071 -21.778 -25.483  1.00  0.00     0.159 C 
ATOM     14  O   UNL     1      18.185 -20.587 -25.880  1.00  0.00    -0.295 OA
ATOM     15  C   UNL     1      18.856 -22.396 -22.560  1.00  0.00     0.012 C 
ATOM     16  C   UNL     1      14.327 -22.687 -26.077  1.00  0.00     0.039 C 
ENDROOT
TORSDOF 0
ENDMDL
MODEL 4
REMARK VINA RESULT:    -5.666      2.154      3.721
REMARK INTER + INTRA:          -5.666
REMARK INTER:                  -5.666
REMARK INTRA:                   0.000
REMARK UNBOUND:                 0.000
REMARK SMILES C=C1CCC[C@@]2(C)CC(=O)C(=C(C)C)C[C@H]12
REMARK SMILES IDX 13 1 12 2 11 3 15 4 16 5 2 6 1 7 3 8 4 9 5 10 6 11 8 12 9 13
REMARK SMILES IDX 10 14 7 15 14 16
REMARK H PARENT
REMARK Flexibility Score: inf
ROOT
ATOM      1  C   UNL     1      20.742 -24.996 -21.947  1.00  0.00     0.039 C 
ATOM      2  C   UNL     1      19.565 -24.056 -22.062  1.00  0.00    -0.070 C 
ATOM      3  C   UNL     1      18.860 -23.923 -23.224  1.00  0.00    -0.006 C 
ATOM      4  C   UNL     1      17.714 -22.927 -23.340  1.00  0.00     0.047 C 
ATOM      5  C   UNL     1      17.543 -22.375 -24.778  1.00  0.00     0.025 C 
ATOM      6  C   UNL     1      16.381 -21.400 -24.966  1.00  0.00    -0.073 C 
ATOM      7  C   UNL     1      15.539 -21.032 -23.981  1.00  0.00     0.008 C 
ATOM      8  C   UNL     1      16.228 -20.801 -26.343  1.00  0.00     0.031 C 
ATOM      9  C   UNL     1      16.175 -21.906 -27.403  1.00  0.00     0.005 C 
ATOM     10  C   UNL     1      17.359 -22.878 -27.266  1.00  0.00     0.008 C 
ATOM     11  C   UNL     1      17.469 -23.512 -25.845  1.00  0.00    -0.018 C 
ATOM     12  C   UNL     1      18.781 -24.333 -25.786  1.00  0.00     0.088 C 
ATOM     13  C   UNL     1      19.082 -24.819 -24.397  1.00  0.00     0.159 C 
ATOM     14  O   UNL     1      19.507 -25.996 -24.249  1.00  0.00    -0.295 OA
ATOM     15  C   UNL     1      16.260 -24.457 -25.603  1.00  0.00     0.012 C 
ATOM     16  C   UNL     1      19.223 -23.237 -20.837  1.00  0.00     0.039 C 
ENDROOT
TORSDOF 0
ENDMDL
MODEL 5
REMARK VINA RESULT:    -5.665      1.643      5.076
REMARK INTER + INTRA:          -5.665
REMARK INTER:                  -5.665
REMARK INTRA:                   0.000
REMARK UNBOUND:                 0.000
REMARK SMILES C=C1CCC[C@@]2(C)CC(=O)C(=C(C)C)C[C@H]12
REMARK SMILES IDX 13 1 12 2 11 3 15 4 16 5 2 6 1 7 3 8 4 9 5 10 6 11 8 12 9 13
REMARK SMILES IDX 10 14 7 15 14 16
REMARK H PARENT
REMARK Flexibility Score: inf
ROOT
ATOM      1  C   UNL     1      19.643 -22.833 -25.487  1.00  0.00     0.039 C 
ATOM      2  C   UNL     1      19.292 -23.428 -24.144  1.00  0.00    -0.070 C 
ATOM      3  C   UNL     1      18.823 -22.660 -23.116  1.00  0.00    -0.006 C 
ATOM      4  C   UNL     1      18.530 -23.267 -21.750  1.00  0.00     0.047 C 
ATOM      5  C   UNL     1      18.741 -22.261 -20.590  1.00  0.00     0.025 C 
ATOM      6  C   UNL     1      18.423 -22.801 -19.196  1.00  0.00    -0.073 C 
ATOM      7  C   UNL     1      17.980 -24.050 -18.954  1.00  0.00     0.008 C 
ATOM      8  C   UNL     1      18.677 -21.861 -18.042  1.00  0.00     0.031 C 
ATOM      9  C   UNL     1      17.962 -20.527 -18.274  1.00  0.00     0.005 C 
ATOM     10  C   UNL     1      18.299 -19.936 -19.654  1.00  0.00     0.008 C 
ATOM     11  C   UNL     1      17.990 -20.914 -20.829  1.00  0.00    -0.018 C 
ATOM     12  C   UNL     1      18.521 -20.276 -22.137  1.00  0.00     0.088 C 
ATOM     13  C   UNL     1      18.453 -21.226 -23.297  1.00  0.00     0.159 C 
ATOM     14  O   UNL     1      18.065 -20.787 -24.414  1.00  0.00    -0.295 OA
ATOM     15  C   UNL     1      16.454 -21.119 -20.944  1.00  0.00     0.012 C 
ATOM     16  C   UNL     1      19.519 -24.914 -23.974  1.00  0.00     0.039 C 
ENDROOT
TORSDOF 0
ENDMDL
MODEL 6
REMARK VINA RESULT:    -5.597      6.919      9.342
REMARK INTER + INTRA:          -5.597
REMARK INTER:                  -5.597
REMARK INTRA:                   0.000
REMARK UNBOUND:                 0.000
REMARK SMILES C=C1CCC[C@@]2(C)CC(=O)C(=C(C)C)C[C@H]12
REMARK SMILES IDX 13 1 12 2 11 3 15 4 16 5 2 6 1 7 3 8 4 9 5 10 6 11 8 12 9 13
REMARK SMILES IDX 10 14 7 15 14 16
REMARK H PARENT
REMARK Flexibility Score: inf
ROOT
ATOM      1  C   UNL     1      19.646 -24.980 -10.879  1.00  0.00     0.039 C 
ATOM      2  C   UNL     1      19.102 -24.533 -12.216  1.00  0.00    -0.070 C 
ATOM      3  C   UNL     1      19.797 -24.724 -13.376  1.00  0.00    -0.006 C 
ATOM      4  C   UNL     1      19.262 -24.214 -14.707  1.00  0.00     0.047 C 
ATOM      5  C   UNL     1      20.390 -23.837 -15.702  1.00  0.00     0.025 C 
ATOM      6  C   UNL     1      19.913 -23.356 -17.072  1.00  0.00    -0.073 C 
ATOM      7  C   UNL     1      18.618 -23.264 -17.430  1.00  0.00     0.008 C 
ATOM      8  C   UNL     1      20.989 -22.925 -18.040  1.00  0.00     0.031 C 
ATOM      9  C   UNL     1      22.039 -24.030 -18.196  1.00  0.00     0.005 C 
ATOM     10  C   UNL     1      22.570 -24.503 -16.832  1.00  0.00     0.008 C 
ATOM     11  C   UNL     1      21.441 -24.979 -15.868  1.00  0.00    -0.018 C 
ATOM     12  C   UNL     1      22.079 -25.269 -14.487  1.00  0.00     0.088 C 
ATOM     13  C   UNL     1      21.045 -25.540 -13.432  1.00  0.00     0.159 C 
ATOM     14  O   UNL     1      21.251 -26.477 -12.613  1.00  0.00    -0.295 OA
ATOM     15  C   UNL     1      20.799 -26.281 -16.421  1.00  0.00     0.012 C 
ATOM     16  C   UNL     1      17.764 -23.828 -12.208  1.00  0.00     0.039 C 
ENDROOT
TORSDOF 0
ENDMDL
MODEL 7
REMARK VINA RESULT:    -5.428      2.198      3.605
REMARK INTER + INTRA:          -5.428
REMARK INTER:                  -5.428
REMARK INTRA:                   0.000
REMARK UNBOUND:                 0.000
REMARK SMILES C=C1CCC[C@@]2(C)CC(=O)C(=C(C)C)C[C@H]12
REMARK SMILES IDX 13 1 12 2 11 3 15 4 16 5 2 6 1 7 3 8 4 9 5 10 6 11 8 12 9 13
REMARK SMILES IDX 10 14 7 15 14 16
REMARK H PARENT
REMARK Flexibility Score: inf
ROOT
ATOM      1  C   UNL     1      20.656 -25.282 -18.995  1.00  0.00     0.039 C 
ATOM      2  C   UNL     1      19.630 -24.323 -19.552  1.00  0.00    -0.070 C 
ATOM      3  C   UNL     1      19.448 -24.164 -20.896  1.00  0.00    -0.006 C 
ATOM      4  C   UNL     1      18.452 -23.150 -21.442  1.00  0.00     0.047 C 
ATOM      5  C   UNL     1      18.873 -22.575 -22.818  1.00  0.00     0.025 C 
ATOM      6  C   UNL     1      17.889 -21.581 -23.435  1.00  0.00    -0.073 C 
ATOM      7  C   UNL     1      16.728 -21.215 -22.861  1.00  0.00     0.008 C 
ATOM      8  C   UNL     1      18.303 -20.960 -24.748  1.00  0.00     0.031 C 
ATOM      9  C   UNL     1      18.669 -22.050 -25.761  1.00  0.00     0.005 C 
ATOM     10  C   UNL     1      19.693 -23.041 -25.181  1.00  0.00     0.008 C 
ATOM     11  C   UNL     1      19.222 -23.696 -23.847  1.00  0.00    -0.018 C 
ATOM     12  C   UNL     1      20.395 -24.537 -23.284  1.00  0.00     0.088 C 
ATOM     13  C   UNL     1      20.113 -25.046 -21.900  1.00  0.00     0.159 C 
ATOM     14  O   UNL     1      20.435 -26.232 -21.617  1.00  0.00    -0.295 OA
ATOM     15  C   UNL     1      18.009 -24.627 -24.124  1.00  0.00     0.012 C 
ATOM     16  C   UNL     1      18.834 -23.516 -18.551  1.00  0.00     0.039 C 
ENDROOT
TORSDOF 0
ENDMDL
MODEL 8
REMARK VINA RESULT:    -5.362      1.705      1.982
REMARK INTER + INTRA:          -5.362
REMARK INTER:                  -5.362
REMARK INTRA:                   0.000
REMARK UNBOUND:                 0.000
REMARK SMILES C=C1CCC[C@@]2(C)CC(=O)C(=C(C)C)C[C@H]12
REMARK SMILES IDX 13 1 12 2 11 3 15 4 16 5 2 6 1 7 3 8 4 9 5 10 6 11 8 12 9 13
REMARK SMILES IDX 10 14 7 15 14 16
REMARK H PARENT
REMARK Flexibility Score: inf
ROOT
ATOM      1  C   UNL     1      17.125 -19.485 -20.239  1.00  0.00     0.039 C 
ATOM      2  C   UNL     1      16.730 -20.861 -20.721  1.00  0.00    -0.070 C 
ATOM      3  C   UNL     1      17.303 -21.430 -21.823  1.00  0.00    -0.006 C 
ATOM      4  C   UNL     1      16.851 -22.793 -22.330  1.00  0.00     0.047 C 
ATOM      5  C   UNL     1      17.006 -22.943 -23.865  1.00  0.00     0.025 C 
ATOM      6  C   UNL     1      16.606 -24.306 -24.428  1.00  0.00    -0.073 C 
ATOM      7  C   UNL     1      16.157 -25.330 -23.677  1.00  0.00     0.008 C 
ATOM      8  C   UNL     1      16.691 -24.461 -25.928  1.00  0.00     0.031 C 
ATOM      9  C   UNL     1      18.084 -24.064 -26.426  1.00  0.00     0.005 C 
ATOM     10  C   UNL     1      18.496 -22.675 -25.911  1.00  0.00     0.008 C 
ATOM     11  C   UNL     1      18.436 -22.556 -24.357  1.00  0.00    -0.018 C 
ATOM     12  C   UNL     1      18.709 -21.080 -23.976  1.00  0.00     0.088 C 
ATOM     13  C   UNL     1      18.475 -20.820 -22.516  1.00  0.00     0.159 C 
ATOM     14  O   UNL     1      19.296 -20.093 -21.894  1.00  0.00    -0.295 OA
ATOM     15  C   UNL     1      19.531 -23.461 -23.725  1.00  0.00     0.012 C 
ATOM     16  C   UNL     1      15.641 -21.570 -19.948  1.00  0.00     0.039 C 
ENDROOT
TORSDOF 0
ENDMDL
MODEL 9
REMARK VINA RESULT:    -5.317      2.666      3.592
REMARK INTER + INTRA:          -5.317
REMARK INTER:                  -5.317
REMARK INTRA:                   0.000
REMARK UNBOUND:                 0.000
REMARK SMILES C=C1CCC[C@@]2(C)CC(=O)C(=C(C)C)C[C@H]12
REMARK SMILES IDX 13 1 12 2 11 3 15 4 16 5 2 6 1 7 3 8 4 9 5 10 6 11 8 12 9 13
REMARK SMILES IDX 10 14 7 15 14 16
REMARK H PARENT
REMARK Flexibility Score: inf
ROOT
ATOM      1  C   UNL     1      20.157 -26.813 -20.377  1.00  0.00     0.039 C 
ATOM      2  C   UNL     1      20.400 -25.770 -21.442  1.00  0.00    -0.070 C 
ATOM      3  C   UNL     1      19.379 -25.239 -22.178  1.00  0.00    -0.006 C 
ATOM      4  C   UNL     1      19.649 -24.234 -23.290  1.00  0.00     0.047 C 
ATOM      5  C   UNL     1      18.606 -24.311 -24.434  1.00  0.00     0.025 C 
ATOM      6  C   UNL     1      18.802 -23.297 -25.560  1.00  0.00    -0.073 C 
ATOM      7  C   UNL     1      19.789 -22.381 -25.587  1.00  0.00     0.008 C 
ATOM      8  C   UNL     1      17.836 -23.389 -26.717  1.00  0.00     0.031 C 
ATOM      9  C   UNL     1      16.391 -23.352 -26.209  1.00  0.00     0.005 C 
ATOM     10  C   UNL     1      16.153 -24.395 -25.103  1.00  0.00     0.008 C 
ATOM     11  C   UNL     1      17.139 -24.251 -23.904  1.00  0.00    -0.018 C 
ATOM     12  C   UNL     1      16.909 -25.446 -22.947  1.00  0.00     0.088 C 
ATOM     13  C   UNL     1      17.946 -25.510 -21.863  1.00  0.00     0.159 C 
ATOM     14  O   UNL     1      17.575 -25.782 -20.689  1.00  0.00    -0.295 OA
ATOM     15  C   UNL     1      16.850 -22.924 -23.149  1.00  0.00     0.012 C 
ATOM     16  C   UNL     1      21.837 -25.365 -21.687  1.00  0.00     0.039 C 
ENDROOT
TORSDOF 0
ENDMDL
