MODEL 1
REMARK VINA RESULT:    -3.081      0.000      0.000
REMARK INTER + INTRA:         -12.363
REMARK INTER:                  -7.765
REMARK INTRA:                  -4.598
REMARK UNBOUND:                -4.598
REMARK SMILES CCCCCCCCCCCCCCCCCCCCCCCCCCCC(=O)[O-]
REMARK SMILES IDX 15 1 16 2 17 3 18 4 19 5 20 6 21 7 22 8 23 9 24 10 25 11
REMARK SMILES IDX 26 12 27 13 28 14 29 15 30 16 14 17 13 18 12 19 11 20 10 21
REMARK SMILES IDX 9 22 8 23 7 24 6 25 5 26 4 27 3 28 2 29 1 30
REMARK H PARENT
REMARK Flexibility Score: inf
ROOT
ATOM      1  C   UNL     1      11.885 -18.905  20.076  1.00  0.00     0.000 C 
ENDROOT
BRANCH   1   2
ATOM      2  C   UNL     1      11.960 -19.258  21.571  1.00  0.00     0.000 C 
BRANCH   2   3
ATOM      3  C   UNL     1      13.408 -19.190  22.079  1.00  0.00     0.000 C 
BRANCH   3   4
ATOM      4  C   UNL     1      14.083 -17.844  21.766  1.00  0.00     0.000 C 
BRANCH   4   5
ATOM      5  C   UNL     1      13.573 -16.702  22.662  1.00  0.00     0.000 C 
BRANCH   5   6
ATOM      6  C   UNL     1      13.176 -15.451  21.862  1.00  0.00     0.000 C 
BRANCH   6   7
ATOM      7  C   UNL     1      13.632 -15.519  20.392  1.00  0.00     0.000 C 
BRANCH   7   8
ATOM      8  C   UNL     1      12.592 -14.928  19.416  1.00  0.00     0.000 C 
BRANCH   8   9
ATOM      9  C   UNL     1      12.422 -13.400  19.524  1.00  0.00     0.000 C 
BRANCH   9  10
ATOM     10  C   UNL     1      11.106 -12.931  20.169  1.00  0.00     0.000 C 
BRANCH  10  11
ATOM     11  C   UNL     1      11.061 -11.410  20.397  1.00  0.00     0.000 C 
BRANCH  11  12
ATOM     12  C   UNL     1      12.429 -10.744  20.176  1.00  0.00     0.006 C 
BRANCH  12  13
ATOM     13  C   UNL     1      12.324  -9.455  19.349  1.00  0.00     0.053 C 
BRANCH  13  14
ATOM     14  C   UNL     1      12.283  -8.252  20.242  1.00  0.00     0.041 C 
ATOM     15  O   UNL     1      13.153  -8.098  21.140  1.00  0.00    -0.550 OA
ATOM     16  O   UNL     1      11.278  -7.302  20.087  1.00  0.00    -0.550 OA
ENDBRANCH  13  14
ENDBRANCH  12  13
ENDBRANCH  11  12
ENDBRANCH  10  11
ENDBRANCH   9  10
ENDBRANCH   8   9
ENDBRANCH   7   8
ENDBRANCH   6   7
ENDBRANCH   5   6
ENDBRANCH   4   5
ENDBRANCH   3   4
ENDBRANCH   2   3
ENDBRANCH   1   2
BRANCH   1  17
ATOM     17  C   UNL     1      10.770 -17.897  19.758  1.00  0.00     0.000 C 
BRANCH  17  18
ATOM     18  C   UNL     1      10.149 -17.277  21.023  1.00  0.00     0.000 C 
BRANCH  18  19
ATOM     19  C   UNL     1       9.165 -16.134  20.706  1.00  0.00     0.000 C 
BRANCH  19  20
ATOM     20  C   UNL     1       8.956 -15.841  19.209  1.00  0.00     0.000 C 
BRANCH  20  21
ATOM     21  C   UNL     1       7.547 -15.312  18.893  1.00  0.00     0.000 C 
BRANCH  21  22
ATOM     22  C   UNL     1       6.552 -16.430  18.531  1.00  0.00    -0.000 C 
BRANCH  22  23
ATOM     23  C   UNL     1       5.175 -16.331  19.214  1.00  0.00    -0.000 C 
BRANCH  23  24
ATOM     24  C   UNL     1       4.173 -17.378  18.706  1.00  0.00    -0.000 C 
BRANCH  24  25
ATOM     25  C   UNL     1       4.477 -18.765  19.290  1.00  0.00    -0.000 C 
BRANCH  25  26
ATOM     26  C   UNL     1       4.513 -18.776  20.827  1.00  0.00    -0.000 C 
BRANCH  26  27
ATOM     27  C   UNL     1       5.691 -19.579  21.418  1.00  0.00    -0.000 C 
BRANCH  27  28
ATOM     28  C   UNL     1       7.050 -19.076  20.909  1.00  0.00    -0.000 C 
BRANCH  28  29
ATOM     29  C   UNL     1       7.801 -20.180  20.158  1.00  0.00    -0.003 C 
ATOM     30  C   UNL     1       7.997 -19.812  18.690  1.00  0.00     0.004 C 
ENDBRANCH  28  29
ENDBRANCH  27  28
ENDBRANCH  26  27
ENDBRANCH  25  26
ENDBRANCH  24  25
ENDBRANCH  23  24
ENDBRANCH  22  23
ENDBRANCH  21  22
ENDBRANCH  20  21
ENDBRANCH  19  20
ENDBRANCH  18  19
ENDBRANCH  17  18
ENDBRANCH   1  17
TORSDOF 26
ENDMDL
MODEL 2
REMARK VINA RESULT:    -2.994      2.235      5.935
REMARK INTER + INTRA:         -12.143
REMARK INTER:                  -6.221
REMARK INTRA:                  -5.922
REMARK UNBOUND:                -4.598
REMARK SMILES CCCCCCCCCCCCCCCCCCCCCCCCCCCC(=O)[O-]
REMARK SMILES IDX 15 1 16 2 17 3 18 4 19 5 20 6 21 7 22 8 23 9 24 10 25 11
REMARK SMILES IDX 26 12 27 13 28 14 29 15 30 16 14 17 13 18 12 19 11 20 10 21
REMARK SMILES IDX 9 22 8 23 7 24 6 25 5 26 4 27 3 28 2 29 1 30
REMARK H PARENT
REMARK Flexibility Score: inf
ROOT
ATOM      1  C   UNL     1      10.309 -20.336  23.107  1.00  0.00     0.000 C 
ENDROOT
BRANCH   1   2
ATOM      2  C   UNL     1       9.336 -19.553  22.212  1.00  0.00     0.000 C 
BRANCH   2   3
ATOM      3  C   UNL     1       8.120 -20.413  21.838  1.00  0.00     0.000 C 
BRANCH   3   4
ATOM      4  C   UNL     1       7.366 -19.873  20.611  1.00  0.00     0.000 C 
BRANCH   4   5
ATOM      5  C   UNL     1       8.026 -20.283  19.282  1.00  0.00     0.000 C 
BRANCH   5   6
ATOM      6  C   UNL     1       8.050 -19.142  18.254  1.00  0.00     0.000 C 
BRANCH   6   7
ATOM      7  C   UNL     1       9.466 -18.576  18.032  1.00  0.00     0.000 C 
BRANCH   7   8
ATOM      8  C   UNL     1      10.574 -19.518  18.550  1.00  0.00     0.000 C 
BRANCH   8   9
ATOM      9  C   UNL     1      11.757 -18.792  19.222  1.00  0.00     0.000 C 
BRANCH   9  10
ATOM     10  C   UNL     1      11.374 -17.581  20.091  1.00  0.00     0.000 C 
BRANCH  10  11
ATOM     11  C   UNL     1      12.436 -16.468  20.070  1.00  0.00     0.000 C 
BRANCH  11  12
ATOM     12  C   UNL     1      11.892 -15.151  19.492  1.00  0.00     0.006 C 
BRANCH  12  13
ATOM     13  C   UNL     1      12.643 -13.924  20.027  1.00  0.00     0.053 C 
BRANCH  13  14
ATOM     14  C   UNL     1      11.709 -13.007  20.757  1.00  0.00     0.041 C 
ATOM     15  O   UNL     1      12.031 -12.537  21.882  1.00  0.00    -0.550 OA
ATOM     16  O   UNL     1      10.480 -12.673  20.199  1.00  0.00    -0.550 OA
ENDBRANCH  13  14
ENDBRANCH  12  13
ENDBRANCH  11  12
ENDBRANCH  10  11
ENDBRANCH   9  10
ENDBRANCH   8   9
ENDBRANCH   7   8
ENDBRANCH   6   7
ENDBRANCH   5   6
ENDBRANCH   4   5
ENDBRANCH   3   4
ENDBRANCH   2   3
ENDBRANCH   1   2
BRANCH   1  17
ATOM     17  C   UNL     1      11.728 -20.414  22.520  1.00  0.00     0.000 C 
BRANCH  17  18
ATOM     18  C   UNL     1      12.787 -20.791  23.571  1.00  0.00     0.000 C 
BRANCH  18  19
ATOM     19  C   UNL     1      14.074 -19.952  23.449  1.00  0.00     0.000 C 
BRANCH  19  20
ATOM     20  C   UNL     1      14.021 -18.814  22.413  1.00  0.00     0.000 C 
BRANCH  20  21
ATOM     21  C   UNL     1      14.397 -17.446  23.007  1.00  0.00     0.000 C 
BRANCH  21  22
ATOM     22  C   UNL     1      13.609 -17.107  24.285  1.00  0.00    -0.000 C 
BRANCH  22  23
ATOM     23  C   UNL     1      12.078 -17.229  24.164  1.00  0.00    -0.000 C 
BRANCH  23  24
ATOM     24  C   UNL     1      11.430 -16.019  23.473  1.00  0.00    -0.000 C 
BRANCH  24  25
ATOM     25  C   UNL     1       9.915 -16.214  23.322  1.00  0.00    -0.000 C 
BRANCH  25  26
ATOM     26  C   UNL     1       9.292 -15.292  22.260  1.00  0.00    -0.000 C 
BRANCH  26  27
ATOM     27  C   UNL     1       8.261 -15.994  21.351  1.00  0.00    -0.000 C 
BRANCH  27  28
ATOM     28  C   UNL     1       8.361 -15.528  19.891  1.00  0.00    -0.000 C 
BRANCH  28  29
ATOM     29  C   UNL     1       7.045 -15.771  19.144  1.00  0.00    -0.003 C 
ATOM     30  C   UNL     1       6.024 -16.467  20.041  1.00  0.00     0.004 C 
ENDBRANCH  28  29
ENDBRANCH  27  28
ENDBRANCH  26  27
ENDBRANCH  25  26
ENDBRANCH  24  25
ENDBRANCH  23  24
ENDBRANCH  22  23
ENDBRANCH  21  22
ENDBRANCH  20  21
ENDBRANCH  19  20
ENDBRANCH  18  19
ENDBRANCH  17  18
ENDBRANCH   1  17
TORSDOF 26
ENDMDL
MODEL 3
REMARK VINA RESULT:    -2.992      2.533      4.722
REMARK INTER + INTRA:         -12.138
REMARK INTER:                  -6.525
REMARK INTRA:                  -5.613
REMARK UNBOUND:                -4.598
REMARK SMILES CCCCCCCCCCCCCCCCCCCCCCCCCCCC(=O)[O-]
REMARK SMILES IDX 15 1 16 2 17 3 18 4 19 5 20 6 21 7 22 8 23 9 24 10 25 11
REMARK SMILES IDX 26 12 27 13 28 14 29 15 30 16 14 17 13 18 12 19 11 20 10 21
REMARK SMILES IDX 9 22 8 23 7 24 6 25 5 26 4 27 3 28 2 29 1 30
REMARK H PARENT
REMARK Flexibility Score: inf
ROOT
ATOM      1  C   UNL     1       9.620 -16.705  21.392  1.00  0.00     0.000 C 
ENDROOT
BRANCH   1   2
ATOM      2  C   UNL     1      10.595 -16.278  22.500  1.00  0.00     0.000 C 
BRANCH   2   3
ATOM      3  C   UNL     1      10.808 -17.413  23.513  1.00  0.00     0.000 C 
BRANCH   3   4
ATOM      4  C   UNL     1       9.659 -18.435  23.507  1.00  0.00     0.000 C 
BRANCH   4   5
ATOM      5  C   UNL     1      10.159 -19.890  23.467  1.00  0.00     0.000 C 
BRANCH   5   6
ATOM      6  C   UNL     1      11.406 -20.066  22.587  1.00  0.00     0.000 C 
BRANCH   6   7
ATOM      7  C   UNL     1      12.590 -20.685  23.354  1.00  0.00     0.000 C 
BRANCH   7   8
ATOM      8  C   UNL     1      13.932 -19.984  23.050  1.00  0.00     0.000 C 
BRANCH   8   9
ATOM      9  C   UNL     1      13.839 -18.881  21.977  1.00  0.00     0.000 C 
BRANCH   9  10
ATOM     10  C   UNL     1      14.735 -17.654  22.219  1.00  0.00     0.000 C 
BRANCH  10  11
ATOM     11  C   UNL     1      14.487 -16.993  23.587  1.00  0.00     0.000 C 
BRANCH  11  12
ATOM     12  C   UNL     1      14.141 -15.500  23.460  1.00  0.00     0.006 C 
BRANCH  12  13
ATOM     13  C   UNL     1      13.991 -15.057  21.997  1.00  0.00     0.053 C 
BRANCH  13  14
ATOM     14  C   UNL     1      13.549 -13.628  21.917  1.00  0.00     0.041 C 
ATOM     15  O   UNL     1      12.854 -13.125  22.840  1.00  0.00    -0.550 OA
ATOM     16  O   UNL     1      13.899 -12.850  20.818  1.00  0.00    -0.550 OA
ENDBRANCH  13  14
ENDBRANCH  12  13
ENDBRANCH  11  12
ENDBRANCH  10  11
ENDBRANCH   9  10
ENDBRANCH   8   9
ENDBRANCH   7   8
ENDBRANCH   6   7
ENDBRANCH   5   6
ENDBRANCH   4   5
ENDBRANCH   3   4
ENDBRANCH   2   3
ENDBRANCH   1   2
BRANCH   1  17
ATOM     17  C   UNL     1      10.245 -16.634  19.989  1.00  0.00     0.000 C 
BRANCH  17  18
ATOM     18  C   UNL     1      11.390 -17.644  19.795  1.00  0.00     0.000 C 
BRANCH  18  19
ATOM     19  C   UNL     1      10.920 -18.963  19.152  1.00  0.00     0.000 C 
BRANCH  19  20
ATOM     20  C   UNL     1       9.674 -18.850  18.255  1.00  0.00     0.000 C 
BRANCH  20  21
ATOM     21  C   UNL     1       8.501 -19.714  18.750  1.00  0.00     0.000 C 
BRANCH  21  22
ATOM     22  C   UNL     1       8.554 -19.991  20.263  1.00  0.00    -0.000 C 
BRANCH  22  23
ATOM     23  C   UNL     1       7.186 -20.174  20.946  1.00  0.00    -0.000 C 
BRANCH  23  24
ATOM     24  C   UNL     1       6.434 -18.850  21.156  1.00  0.00    -0.000 C 
BRANCH  24  25
ATOM     25  C   UNL     1       4.937 -19.010  20.858  1.00  0.00    -0.000 C 
BRANCH  25  26
ATOM     26  C   UNL     1       4.565 -18.622  19.417  1.00  0.00    -0.000 C 
BRANCH  26  27
ATOM     27  C   UNL     1       4.951 -17.176  19.041  1.00  0.00    -0.000 C 
BRANCH  27  28
ATOM     28  C   UNL     1       5.950 -17.126  17.876  1.00  0.00    -0.000 C 
BRANCH  28  29
ATOM     29  C   UNL     1       7.112 -16.177  18.187  1.00  0.00    -0.003 C 
ATOM     30  C   UNL     1       6.782 -15.273  19.373  1.00  0.00     0.004 C 
ENDBRANCH  28  29
ENDBRANCH  27  28
ENDBRANCH  26  27
ENDBRANCH  25  26
ENDBRANCH  24  25
ENDBRANCH  23  24
ENDBRANCH  22  23
ENDBRANCH  21  22
ENDBRANCH  20  21
ENDBRANCH  19  20
ENDBRANCH  18  19
ENDBRANCH  17  18
ENDBRANCH   1  17
TORSDOF 26
ENDMDL
MODEL 4
REMARK VINA RESULT:    -2.954      1.748      4.021
REMARK INTER + INTRA:         -12.043
REMARK INTER:                  -7.385
REMARK INTRA:                  -4.658
REMARK UNBOUND:                -4.598
REMARK SMILES CCCCCCCCCCCCCCCCCCCCCCCCCCCC(=O)[O-]
REMARK SMILES IDX 15 1 16 2 17 3 18 4 19 5 20 6 21 7 22 8 23 9 24 10 25 11
REMARK SMILES IDX 26 12 27 13 28 14 29 15 30 16 14 17 13 18 12 19 11 20 10 21
REMARK SMILES IDX 9 22 8 23 7 24 6 25 5 26 4 27 3 28 2 29 1 30
REMARK H PARENT
REMARK Flexibility Score: inf
ROOT
ATOM      1  C   UNL     1       7.983 -17.859  22.062  1.00  0.00     0.000 C 
ENDROOT
BRANCH   1   2
ATOM      2  C   UNL     1       9.399 -17.795  22.655  1.00  0.00     0.000 C 
BRANCH   2   3
ATOM      3  C   UNL     1      10.447 -18.240  21.624  1.00  0.00     0.000 C 
BRANCH   3   4
ATOM      4  C   UNL     1      11.174 -19.531  22.036  1.00  0.00     0.000 C 
BRANCH   4   5
ATOM      5  C   UNL     1      12.352 -19.269  22.991  1.00  0.00     0.000 C 
BRANCH   5   6
ATOM      6  C   UNL     1      13.686 -19.079  22.252  1.00  0.00     0.000 C 
BRANCH   6   7
ATOM      7  C   UNL     1      14.361 -17.735  22.586  1.00  0.00     0.000 C 
BRANCH   7   8
ATOM      8  C   UNL     1      14.953 -17.039  21.342  1.00  0.00     0.000 C 
BRANCH   8   9
ATOM      9  C   UNL     1      14.247 -15.722  20.960  1.00  0.00     0.000 C 
BRANCH   9  10
ATOM     10  C   UNL     1      12.766 -15.863  20.565  1.00  0.00     0.000 C 
BRANCH  10  11
ATOM     11  C   UNL     1      12.350 -14.891  19.447  1.00  0.00     0.000 C 
BRANCH  11  12
ATOM     12  C   UNL     1      11.704 -13.609  19.998  1.00  0.00     0.006 C 
BRANCH  12  13
ATOM     13  C   UNL     1      12.537 -12.357  19.691  1.00  0.00     0.053 C 
BRANCH  13  14
ATOM     14  C   UNL     1      13.309 -11.922  20.899  1.00  0.00     0.041 C 
ATOM     15  O   UNL     1      13.131 -12.497  22.007  1.00  0.00    -0.550 OA
ATOM     16  O   UNL     1      14.222 -10.876  20.805  1.00  0.00    -0.550 OA
ENDBRANCH  13  14
ENDBRANCH  12  13
ENDBRANCH  11  12
ENDBRANCH  10  11
ENDBRANCH   9  10
ENDBRANCH   8   9
ENDBRANCH   7   8
ENDBRANCH   6   7
ENDBRANCH   5   6
ENDBRANCH   4   5
ENDBRANCH   3   4
ENDBRANCH   2   3
ENDBRANCH   1   2
BRANCH   1  17
ATOM     17  C   UNL     1       7.243 -19.157  22.422  1.00  0.00     0.000 C 
BRANCH  17  18
ATOM     18  C   UNL     1       6.832 -19.972  21.183  1.00  0.00     0.000 C 
BRANCH  18  19
ATOM     19  C   UNL     1       7.990 -20.809  20.607  1.00  0.00     0.000 C 
BRANCH  19  20
ATOM     20  C   UNL     1       8.176 -20.714  19.081  1.00  0.00     0.000 C 
BRANCH  20  21
ATOM     21  C   UNL     1       7.758 -19.348  18.512  1.00  0.00     0.000 C 
BRANCH  21  22
ATOM     22  C   UNL     1       8.932 -18.359  18.398  1.00  0.00    -0.000 C 
BRANCH  22  23
ATOM     23  C   UNL     1       8.545 -16.922  18.002  1.00  0.00    -0.000 C 
BRANCH  23  24
ATOM     24  C   UNL     1       8.912 -15.882  19.071  1.00  0.00    -0.000 C 
BRANCH  24  25
ATOM     25  C   UNL     1       7.655 -15.242  19.677  1.00  0.00    -0.000 C 
BRANCH  25  26
ATOM     26  C   UNL     1       6.693 -14.684  18.615  1.00  0.00    -0.000 C 
BRANCH  26  27
ATOM     27  C   UNL     1       5.229 -15.135  18.801  1.00  0.00    -0.000 C 
BRANCH  27  28
ATOM     28  C   UNL     1       5.127 -16.517  19.462  1.00  0.00    -0.000 C 
BRANCH  28  29
ATOM     29  C   UNL     1       4.586 -17.560  18.479  1.00  0.00    -0.003 C 
ATOM     30  C   UNL     1       3.987 -18.755  19.218  1.00  0.00     0.004 C 
ENDBRANCH  28  29
ENDBRANCH  27  28
ENDBRANCH  26  27
ENDBRANCH  25  26
ENDBRANCH  24  25
ENDBRANCH  23  24
ENDBRANCH  22  23
ENDBRANCH  21  22
ENDBRANCH  20  21
ENDBRANCH  19  20
ENDBRANCH  18  19
ENDBRANCH  17  18
ENDBRANCH   1  17
TORSDOF 26
ENDMDL
MODEL 5
REMARK VINA RESULT:    -2.927      4.067      8.225
REMARK INTER + INTRA:         -11.975
REMARK INTER:                  -6.707
REMARK INTRA:                  -5.268
REMARK UNBOUND:                -4.598
REMARK SMILES CCCCCCCCCCCCCCCCCCCCCCCCCCCC(=O)[O-]
REMARK SMILES IDX 15 1 16 2 17 3 18 4 19 5 20 6 21 7 22 8 23 9 24 10 25 11
REMARK SMILES IDX 26 12 27 13 28 14 29 15 30 16 14 17 13 18 12 19 11 20 10 21
REMARK SMILES IDX 9 22 8 23 7 24 6 25 5 26 4 27 3 28 2 29 1 30
REMARK H PARENT
REMARK Flexibility Score: inf
ROOT
ATOM      1  C   UNL     1       6.996 -19.393  20.741  1.00  0.00     0.000 C 
ENDROOT
BRANCH   1   2
ATOM      2  C   UNL     1       7.048 -19.168  19.222  1.00  0.00     0.000 C 
BRANCH   2   3
ATOM      3  C   UNL     1       8.249 -19.895  18.599  1.00  0.00     0.000 C 
BRANCH   3   4
ATOM      4  C   UNL     1       9.394 -18.939  18.228  1.00  0.00     0.000 C 
BRANCH   4   5
ATOM      5  C   UNL     1      10.491 -18.881  19.306  1.00  0.00     0.000 C 
BRANCH   5   6
ATOM      6  C   UNL     1      10.900 -17.443  19.662  1.00  0.00     0.000 C 
BRANCH   6   7
ATOM      7  C   UNL     1       9.799 -16.416  19.333  1.00  0.00     0.000 C 
BRANCH   7   8
ATOM      8  C   UNL     1       8.883 -16.115  20.538  1.00  0.00     0.000 C 
BRANCH   8   9
ATOM      9  C   UNL     1       7.967 -14.890  20.345  1.00  0.00     0.000 C 
BRANCH   9  10
ATOM     10  C   UNL     1       6.634 -15.175  19.631  1.00  0.00     0.000 C 
BRANCH  10  11
ATOM     11  C   UNL     1       5.658 -15.998  20.491  1.00  0.00     0.000 C 
BRANCH  11  12
ATOM     12  C   UNL     1       4.458 -16.515  19.680  1.00  0.00     0.006 C 
BRANCH  12  13
ATOM     13  C   UNL     1       3.476 -17.321  20.541  1.00  0.00     0.053 C 
BRANCH  13  14
ATOM     14  C   UNL     1       3.331 -18.717  20.016  1.00  0.00     0.041 C 
ATOM     15  O   UNL     1       3.496 -18.954  18.789  1.00  0.00    -0.550 OA
ATOM     16  O   UNL     1       3.006 -19.757  20.880  1.00  0.00    -0.550 OA
ENDBRANCH  13  14
ENDBRANCH  12  13
ENDBRANCH  11  12
ENDBRANCH  10  11
ENDBRANCH   9  10
ENDBRANCH   8   9
ENDBRANCH   7   8
ENDBRANCH   6   7
ENDBRANCH   5   6
ENDBRANCH   4   5
ENDBRANCH   3   4
ENDBRANCH   2   3
ENDBRANCH   1   2
BRANCH   1  17
ATOM     17  C   UNL     1       7.600 -20.742  21.164  1.00  0.00     0.000 C 
BRANCH  17  18
ATOM     18  C   UNL     1       8.778 -20.586  22.143  1.00  0.00     0.000 C 
BRANCH  18  19
ATOM     19  C   UNL     1       8.892 -19.161  22.717  1.00  0.00     0.000 C 
BRANCH  19  20
ATOM     20  C   UNL     1      10.321 -18.705  23.066  1.00  0.00     0.000 C 
BRANCH  20  21
ATOM     21  C   UNL     1      11.329 -19.865  23.095  1.00  0.00     0.000 C 
BRANCH  21  22
ATOM     22  C   UNL     1      12.552 -19.624  22.191  1.00  0.00    -0.000 C 
BRANCH  22  23
ATOM     23  C   UNL     1      13.897 -19.483  22.929  1.00  0.00    -0.000 C 
BRANCH  23  24
ATOM     24  C   UNL     1      14.665 -18.208  22.545  1.00  0.00    -0.000 C 
BRANCH  24  25
ATOM     25  C   UNL     1      13.723 -16.999  22.459  1.00  0.00    -0.000 C 
BRANCH  25  26
ATOM     26  C   UNL     1      13.934 -16.162  21.186  1.00  0.00    -0.000 C 
BRANCH  26  27
ATOM     27  C   UNL     1      13.583 -14.669  21.356  1.00  0.00    -0.000 C 
BRANCH  27  28
ATOM     28  C   UNL     1      12.083 -14.449  21.602  1.00  0.00    -0.000 C 
BRANCH  28  29
ATOM     29  C   UNL     1      11.522 -13.374  20.665  1.00  0.00    -0.003 C 
ATOM     30  C   UNL     1      12.330 -13.297  19.372  1.00  0.00     0.004 C 
ENDBRANCH  28  29
ENDBRANCH  27  28
ENDBRANCH  26  27
ENDBRANCH  25  26
ENDBRANCH  24  25
ENDBRANCH  23  24
ENDBRANCH  22  23
ENDBRANCH  21  22
ENDBRANCH  20  21
ENDBRANCH  19  20
ENDBRANCH  18  19
ENDBRANCH  17  18
ENDBRANCH   1  17
TORSDOF 26
ENDMDL
MODEL 6
REMARK VINA RESULT:    -2.900      2.485      6.821
REMARK INTER + INTRA:         -11.907
REMARK INTER:                  -6.301
REMARK INTRA:                  -5.606
REMARK UNBOUND:                -4.598
REMARK SMILES CCCCCCCCCCCCCCCCCCCCCCCCCCCC(=O)[O-]
REMARK SMILES IDX 15 1 16 2 17 3 18 4 19 5 20 6 21 7 22 8 23 9 24 10 25 11
REMARK SMILES IDX 26 12 27 13 28 14 29 15 30 16 14 17 13 18 12 19 11 20 10 21
REMARK SMILES IDX 9 22 8 23 7 24 6 25 5 26 4 27 3 28 2 29 1 30
REMARK H PARENT
REMARK Flexibility Score: inf
ROOT
ATOM      1  C   UNL     1      10.201 -18.988  21.996  1.00  0.00     0.000 C 
ENDROOT
BRANCH   1   2
ATOM      2  C   UNL     1      10.285 -17.533  21.509  1.00  0.00     0.000 C 
BRANCH   2   3
ATOM      3  C   UNL     1      10.602 -17.472  20.008  1.00  0.00     0.000 C 
BRANCH   3   4
ATOM      4  C   UNL     1      11.223 -18.777  19.480  1.00  0.00     0.000 C 
BRANCH   4   5
ATOM      5  C   UNL     1      10.417 -19.391  18.321  1.00  0.00     0.000 C 
BRANCH   5   6
ATOM      6  C   UNL     1       9.181 -18.557  17.950  1.00  0.00     0.000 C 
BRANCH   6   7
ATOM      7  C   UNL     1       7.861 -19.312  18.201  1.00  0.00     0.000 C 
BRANCH   7   8
ATOM      8  C   UNL     1       7.164 -18.879  19.508  1.00  0.00     0.000 C 
BRANCH   8   9
ATOM      9  C   UNL     1       6.411 -17.538  19.408  1.00  0.00     0.000 C 
BRANCH   9  10
ATOM     10  C   UNL     1       7.080 -16.355  20.129  1.00  0.00     0.000 C 
BRANCH  10  11
ATOM     11  C   UNL     1       7.740 -15.358  19.159  1.00  0.00     0.000 C 
BRANCH  11  12
ATOM     12  C   UNL     1       6.824 -14.165  18.836  1.00  0.00     0.006 C 
BRANCH  12  13
ATOM     13  C   UNL     1       6.214 -13.538  20.097  1.00  0.00     0.053 C 
BRANCH  13  14
ATOM     14  C   UNL     1       6.611 -12.099  20.221  1.00  0.00     0.041 C 
ATOM     15  O   UNL     1       5.854 -11.279  20.807  1.00  0.00    -0.550 OA
ATOM     16  O   UNL     1       7.816 -11.659  19.683  1.00  0.00    -0.550 OA
ENDBRANCH  13  14
ENDBRANCH  12  13
ENDBRANCH  11  12
ENDBRANCH  10  11
ENDBRANCH   9  10
ENDBRANCH   8   9
ENDBRANCH   7   8
ENDBRANCH   6   7
ENDBRANCH   5   6
ENDBRANCH   4   5
ENDBRANCH   3   4
ENDBRANCH   2   3
ENDBRANCH   1   2
BRANCH   1  17
ATOM     17  C   UNL     1      11.205 -19.301  23.117  1.00  0.00     0.000 C 
BRANCH  17  18
ATOM     18  C   UNL     1      12.253 -20.350  22.702  1.00  0.00     0.000 C 
BRANCH  18  19
ATOM     19  C   UNL     1      13.693 -19.802  22.737  1.00  0.00     0.000 C 
BRANCH  19  20
ATOM     20  C   UNL     1      13.903 -18.458  22.015  1.00  0.00     0.000 C 
BRANCH  20  21
ATOM     21  C   UNL     1      14.297 -17.320  22.971  1.00  0.00     0.000 C 
BRANCH  21  22
ATOM     22  C   UNL     1      13.263 -16.179  23.009  1.00  0.00    -0.000 C 
BRANCH  22  23
ATOM     23  C   UNL     1      13.823 -14.775  22.718  1.00  0.00    -0.000 C 
BRANCH  23  24
ATOM     24  C   UNL     1      14.159 -14.555  21.234  1.00  0.00    -0.000 C 
BRANCH  24  25
ATOM     25  C   UNL     1      12.971 -14.929  20.337  1.00  0.00    -0.000 C 
BRANCH  25  26
ATOM     26  C   UNL     1      12.301 -13.708  19.684  1.00  0.00    -0.000 C 
BRANCH  26  27
ATOM     27  C   UNL     1      10.819 -13.527  20.074  1.00  0.00    -0.000 C 
BRANCH  27  28
ATOM     28  C   UNL     1      10.644 -13.229  21.571  1.00  0.00    -0.000 C 
BRANCH  28  29
ATOM     29  C   UNL     1       9.451 -13.996  22.150  1.00  0.00    -0.003 C 
ATOM     30  C   UNL     1       9.787 -14.585  23.518  1.00  0.00     0.004 C 
ENDBRANCH  28  29
ENDBRANCH  27  28
ENDBRANCH  26  27
ENDBRANCH  25  26
ENDBRANCH  24  25
ENDBRANCH  23  24
ENDBRANCH  22  23
ENDBRANCH  21  22
ENDBRANCH  20  21
ENDBRANCH  19  20
ENDBRANCH  18  19
ENDBRANCH  17  18
ENDBRANCH   1  17
TORSDOF 26
ENDMDL
MODEL 7
REMARK VINA RESULT:    -2.884      4.719      8.792
REMARK INTER + INTRA:         -11.865
REMARK INTER:                  -7.003
REMARK INTRA:                  -4.861
REMARK UNBOUND:                -4.598
REMARK SMILES CCCCCCCCCCCCCCCCCCCCCCCCCCCC(=O)[O-]
REMARK SMILES IDX 15 1 16 2 17 3 18 4 19 5 20 6 21 7 22 8 23 9 24 10 25 11
REMARK SMILES IDX 26 12 27 13 28 14 29 15 30 16 14 17 13 18 12 19 11 20 10 21
REMARK SMILES IDX 9 22 8 23 7 24 6 25 5 26 4 27 3 28 2 29 1 30
REMARK H PARENT
REMARK Flexibility Score: inf
ROOT
ATOM      1  C   UNL     1       7.260 -19.111  22.281  1.00  0.00     0.000 C 
ENDROOT
BRANCH   1   2
ATOM      2  C   UNL     1       6.865 -19.820  20.975  1.00  0.00     0.000 C 
BRANCH   2   3
ATOM      3  C   UNL     1       8.021 -20.682  20.447  1.00  0.00     0.000 C 
BRANCH   3   4
ATOM      4  C   UNL     1       8.375 -20.367  18.984  1.00  0.00     0.000 C 
BRANCH   4   5
ATOM      5  C   UNL     1       7.626 -19.134  18.445  1.00  0.00     0.000 C 
BRANCH   5   6
ATOM      6  C   UNL     1       8.572 -18.066  17.875  1.00  0.00     0.000 C 
BRANCH   6   7
ATOM      7  C   UNL     1       8.293 -16.663  18.448  1.00  0.00     0.000 C 
BRANCH   7   8
ATOM      8  C   UNL     1       7.088 -16.640  19.413  1.00  0.00     0.000 C 
BRANCH   8   9
ATOM      9  C   UNL     1       5.723 -16.475  18.715  1.00  0.00     0.000 C 
BRANCH   9  10
ATOM     10  C   UNL     1       4.567 -17.275  19.339  1.00  0.00     0.000 C 
BRANCH  10  11
ATOM     11  C   UNL     1       3.629 -17.892  18.286  1.00  0.00     0.000 C 
BRANCH  11  12
ATOM     12  C   UNL     1       2.215 -18.141  18.838  1.00  0.00     0.006 C 
BRANCH  12  13
ATOM     13  C   UNL     1       1.993 -19.608  19.234  1.00  0.00     0.053 C 
BRANCH  13  14
ATOM     14  C   UNL     1       1.693 -19.723  20.698  1.00  0.00     0.041 C 
ATOM     15  O   UNL     1       0.613 -19.268  21.162  1.00  0.00    -0.550 OA
ATOM     16  O   UNL     1       2.608 -20.328  21.552  1.00  0.00    -0.550 OA
ENDBRANCH  13  14
ENDBRANCH  12  13
ENDBRANCH  11  12
ENDBRANCH  10  11
ENDBRANCH   9  10
ENDBRANCH   8   9
ENDBRANCH   7   8
ENDBRANCH   6   7
ENDBRANCH   5   6
ENDBRANCH   4   5
ENDBRANCH   3   4
ENDBRANCH   2   3
ENDBRANCH   1   2
BRANCH   1  17
ATOM     17  C   UNL     1       8.745 -19.299  22.635  1.00  0.00     0.000 C 
BRANCH  17  18
ATOM     18  C   UNL     1       9.446 -17.974  22.982  1.00  0.00     0.000 C 
BRANCH  18  19
ATOM     19  C   UNL     1      10.089 -17.300  21.755  1.00  0.00     0.000 C 
BRANCH  19  20
ATOM     20  C   UNL     1      10.793 -18.255  20.773  1.00  0.00     0.000 C 
BRANCH  20  21
ATOM     21  C   UNL     1      11.752 -17.528  19.815  1.00  0.00     0.000 C 
BRANCH  21  22
ATOM     22  C   UNL     1      11.548 -16.002  19.802  1.00  0.00    -0.000 C 
BRANCH  22  23
ATOM     23  C   UNL     1      12.797 -15.169  20.144  1.00  0.00    -0.000 C 
BRANCH  23  24
ATOM     24  C   UNL     1      13.871 -15.971  20.895  1.00  0.00    -0.000 C 
BRANCH  24  25
ATOM     25  C   UNL     1      13.755 -15.768  22.412  1.00  0.00    -0.000 C 
BRANCH  25  26
ATOM     26  C   UNL     1      13.821 -17.085  23.203  1.00  0.00    -0.000 C 
BRANCH  26  27
ATOM     27  C   UNL     1      14.243 -18.302  22.354  1.00  0.00    -0.000 C 
BRANCH  27  28
ATOM     28  C   UNL     1      14.135 -19.621  23.134  1.00  0.00    -0.000 C 
BRANCH  28  29
ATOM     29  C   UNL     1      12.870 -20.391  22.742  1.00  0.00    -0.003 C 
ATOM     30  C   UNL     1      11.979 -20.640  23.957  1.00  0.00     0.004 C 
ENDBRANCH  28  29
ENDBRANCH  27  28
ENDBRANCH  26  27
ENDBRANCH  25  26
ENDBRANCH  24  25
ENDBRANCH  23  24
ENDBRANCH  22  23
ENDBRANCH  21  22
ENDBRANCH  20  21
ENDBRANCH  19  20
ENDBRANCH  18  19
ENDBRANCH  17  18
ENDBRANCH   1  17
TORSDOF 26
ENDMDL
MODEL 8
REMARK VINA RESULT:    -2.865      1.567      3.290
REMARK INTER + INTRA:         -11.819
REMARK INTER:                  -6.490
REMARK INTRA:                  -5.329
REMARK UNBOUND:                -4.598
REMARK SMILES CCCCCCCCCCCCCCCCCCCCCCCCCCCC(=O)[O-]
REMARK SMILES IDX 15 1 16 2 17 3 18 4 19 5 20 6 21 7 22 8 23 9 24 10 25 11
REMARK SMILES IDX 26 12 27 13 28 14 29 15 30 16 14 17 13 18 12 19 11 20 10 21
REMARK SMILES IDX 9 22 8 23 7 24 6 25 5 26 4 27 3 28 2 29 1 30
REMARK H PARENT
REMARK Flexibility Score: inf
ROOT
ATOM      1  C   UNL     1       9.261 -19.072  19.175  1.00  0.00     0.000 C 
ENDROOT
BRANCH   1   2
ATOM      2  C   UNL     1      10.629 -19.321  18.520  1.00  0.00     0.000 C 
BRANCH   2   3
ATOM      3  C   UNL     1      11.765 -18.764  19.391  1.00  0.00     0.000 C 
BRANCH   3   4
ATOM      4  C   UNL     1      11.651 -19.198  20.862  1.00  0.00     0.000 C 
BRANCH   4   5
ATOM      5  C   UNL     1      12.826 -18.697  21.720  1.00  0.00     0.000 C 
BRANCH   5   6
ATOM      6  C   UNL     1      12.366 -17.897  22.949  1.00  0.00     0.000 C 
BRANCH   6   7
ATOM      7  C   UNL     1      13.017 -16.502  23.025  1.00  0.00     0.000 C 
BRANCH   7   8
ATOM      8  C   UNL     1      14.248 -16.366  22.103  1.00  0.00     0.000 C 
BRANCH   8   9
ATOM      9  C   UNL     1      14.161 -15.196  21.103  1.00  0.00     0.000 C 
BRANCH   9  10
ATOM     10  C   UNL     1      13.161 -15.392  19.950  1.00  0.00     0.000 C 
BRANCH  10  11
ATOM     11  C   UNL     1      12.599 -14.064  19.413  1.00  0.00     0.000 C 
BRANCH  11  12
ATOM     12  C   UNL     1      12.303 -13.058  20.538  1.00  0.00     0.006 C 
BRANCH  12  13
ATOM     13  C   UNL     1      11.141 -12.117  20.189  1.00  0.00     0.053 C 
BRANCH  13  14
ATOM     14  C   UNL     1      11.574 -10.685  20.270  1.00  0.00     0.041 C 
ATOM     15  O   UNL     1      10.852  -9.836  20.858  1.00  0.00    -0.550 OA
ATOM     16  O   UNL     1      12.773 -10.285  19.689  1.00  0.00    -0.550 OA
ENDBRANCH  13  14
ENDBRANCH  12  13
ENDBRANCH  11  12
ENDBRANCH  10  11
ENDBRANCH   9  10
ENDBRANCH   8   9
ENDBRANCH   7   8
ENDBRANCH   6   7
ENDBRANCH   5   6
ENDBRANCH   4   5
ENDBRANCH   3   4
ENDBRANCH   2   3
ENDBRANCH   1   2
BRANCH   1  17
ATOM     17  C   UNL     1       8.085 -19.484  18.274  1.00  0.00     0.000 C 
BRANCH  17  18
ATOM     18  C   UNL     1       7.064 -18.350  18.074  1.00  0.00     0.000 C 
BRANCH  18  19
ATOM     19  C   UNL     1       7.710 -16.952  18.104  1.00  0.00     0.000 C 
BRANCH  19  20
ATOM     20  C   UNL     1       6.937 -15.886  18.904  1.00  0.00     0.000 C 
BRANCH  20  21
ATOM     21  C   UNL     1       7.856 -14.987  19.747  1.00  0.00     0.000 C 
BRANCH  21  22
ATOM     22  C   UNL     1       9.325 -15.448  19.735  1.00  0.00    -0.000 C 
BRANCH  22  23
ATOM     23  C   UNL     1       9.867 -15.950  21.086  1.00  0.00    -0.000 C 
BRANCH  23  24
ATOM     24  C   UNL     1       8.811 -15.935  22.202  1.00  0.00    -0.000 C 
BRANCH  24  25
ATOM     25  C   UNL     1       8.440 -17.361  22.633  1.00  0.00    -0.000 C 
BRANCH  25  26
ATOM     26  C   UNL     1       7.009 -17.470  23.184  1.00  0.00    -0.000 C 
BRANCH  26  27
ATOM     27  C   UNL     1       6.373 -18.863  22.997  1.00  0.00    -0.000 C 
BRANCH  27  28
ATOM     28  C   UNL     1       6.780 -19.513  21.666  1.00  0.00    -0.000 C 
BRANCH  28  29
ATOM     29  C   UNL     1       7.301 -20.938  21.885  1.00  0.00    -0.003 C 
ATOM     30  C   UNL     1       8.740 -20.925  22.396  1.00  0.00     0.004 C 
ENDBRANCH  28  29
ENDBRANCH  27  28
ENDBRANCH  26  27
ENDBRANCH  25  26
ENDBRANCH  24  25
ENDBRANCH  23  24
ENDBRANCH  22  23
ENDBRANCH  21  22
ENDBRANCH  20  21
ENDBRANCH  19  20
ENDBRANCH  18  19
ENDBRANCH  17  18
ENDBRANCH   1  17
TORSDOF 26
ENDMDL
MODEL 9
REMARK VINA RESULT:    -2.861      2.552      7.152
REMARK INTER + INTRA:         -11.807
REMARK INTER:                  -6.086
REMARK INTRA:                  -5.721
REMARK UNBOUND:                -4.598
REMARK SMILES CCCCCCCCCCCCCCCCCCCCCCCCCCCC(=O)[O-]
REMARK SMILES IDX 15 1 16 2 17 3 18 4 19 5 20 6 21 7 22 8 23 9 24 10 25 11
REMARK SMILES IDX 26 12 27 13 28 14 29 15 30 16 14 17 13 18 12 19 11 20 10 21
REMARK SMILES IDX 9 22 8 23 7 24 6 25 5 26 4 27 3 28 2 29 1 30
REMARK H PARENT
REMARK Flexibility Score: inf
ROOT
ATOM      1  C   UNL     1       8.792 -18.364  22.268  1.00  0.00     0.000 C 
ENDROOT
BRANCH   1   2
ATOM      2  C   UNL     1       7.385 -18.981  22.325  1.00  0.00     0.000 C 
BRANCH   2   3
ATOM      3  C   UNL     1       7.042 -19.690  21.006  1.00  0.00     0.000 C 
BRANCH   3   4
ATOM      4  C   UNL     1       8.293 -20.103  20.213  1.00  0.00     0.000 C 
BRANCH   4   5
ATOM      5  C   UNL     1       8.019 -20.244  18.705  1.00  0.00     0.000 C 
BRANCH   5   6
ATOM      6  C   UNL     1       8.223 -18.928  17.938  1.00  0.00     0.000 C 
BRANCH   6   7
ATOM      7  C   UNL     1       9.296 -18.029  18.581  1.00  0.00     0.000 C 
BRANCH   7   8
ATOM      8  C   UNL     1       8.805 -16.584  18.812  1.00  0.00     0.000 C 
BRANCH   8   9
ATOM      9  C   UNL     1       7.659 -16.150  17.876  1.00  0.00     0.000 C 
BRANCH   9  10
ATOM     10  C   UNL     1       6.387 -15.652  18.584  1.00  0.00     0.000 C 
BRANCH  10  11
ATOM     11  C   UNL     1       5.998 -16.518  19.795  1.00  0.00     0.000 C 
BRANCH  11  12
ATOM     12  C   UNL     1       5.847 -15.690  21.082  1.00  0.00     0.006 C 
BRANCH  12  13
ATOM     13  C   UNL     1       6.568 -14.338  20.994  1.00  0.00     0.053 C 
BRANCH  13  14
ATOM     14  C   UNL     1       7.879 -14.386  21.718  1.00  0.00     0.041 C 
ATOM     15  O   UNL     1       7.984 -15.023  22.801  1.00  0.00    -0.550 OA
ATOM     16  O   UNL     1       8.987 -13.723  21.200  1.00  0.00    -0.550 OA
ENDBRANCH  13  14
ENDBRANCH  12  13
ENDBRANCH  11  12
ENDBRANCH  10  11
ENDBRANCH   9  10
ENDBRANCH   8   9
ENDBRANCH   7   8
ENDBRANCH   6   7
ENDBRANCH   5   6
ENDBRANCH   4   5
ENDBRANCH   3   4
ENDBRANCH   2   3
ENDBRANCH   1   2
BRANCH   1  17
ATOM     17  C   UNL     1       9.727 -18.912  23.358  1.00  0.00     0.000 C 
BRANCH  17  18
ATOM     18  C   UNL     1      10.954 -19.640  22.778  1.00  0.00     0.000 C 
BRANCH  18  19
ATOM     19  C   UNL     1      11.428 -19.038  21.441  1.00  0.00     0.000 C 
BRANCH  19  20
ATOM     20  C   UNL     1      12.955 -18.935  21.271  1.00  0.00     0.000 C 
BRANCH  20  21
ATOM     21  C   UNL     1      13.728 -19.380  22.524  1.00  0.00     0.000 C 
BRANCH  21  22
ATOM     22  C   UNL     1      14.706 -18.308  23.041  1.00  0.00    -0.000 C 
BRANCH  22  23
ATOM     23  C   UNL     1      14.270 -17.589  24.331  1.00  0.00    -0.000 C 
BRANCH  23  24
ATOM     24  C   UNL     1      13.668 -16.199  24.072  1.00  0.00    -0.000 C 
BRANCH  24  25
ATOM     25  C   UNL     1      12.134 -16.249  24.080  1.00  0.00    -0.000 C 
BRANCH  25  26
ATOM     26  C   UNL     1      11.504 -15.596  22.838  1.00  0.00    -0.000 C 
BRANCH  26  27
ATOM     27  C   UNL     1      12.516 -15.290  21.714  1.00  0.00    -0.000 C 
BRANCH  27  28
ATOM     28  C   UNL     1      11.921 -15.527  20.317  1.00  0.00    -0.000 C 
BRANCH  28  29
ATOM     29  C   UNL     1      12.473 -14.518  19.305  1.00  0.00    -0.003 C 
ATOM     30  C   UNL     1      12.200 -13.084  19.754  1.00  0.00     0.004 C 
ENDBRANCH  28  29
ENDBRANCH  27  28
ENDBRANCH  26  27
ENDBRANCH  25  26
ENDBRANCH  24  25
ENDBRANCH  23  24
ENDBRANCH  22  23
ENDBRANCH  21  22
ENDBRANCH  20  21
ENDBRANCH  19  20
ENDBRANCH  18  19
ENDBRANCH  17  18
ENDBRANCH   1  17
TORSDOF 26
ENDMDL
