MODEL 1
REMARK VINA RESULT:    -5.940      0.000      0.000
REMARK INTER + INTRA:          -6.322
REMARK INTER:                  -6.287
REMARK INTRA:                  -0.035
REMARK UNBOUND:                -0.035
REMARK SMILES COc1ccc2ccc(=O)oc2c1
REMARK SMILES IDX 3 1 13 2 12 3 6 4 5 5 4 6 7 7 8 8 9 9 10 10 11 11 2 12 1 13
REMARK H PARENT
REMARK Flexibility Score: inf
ROOT
ATOM      1  C   UNL     1     -25.550  16.028  18.705  1.00  0.00     0.122 A 
ATOM      2  C   UNL     1     -24.601  16.892  18.141  1.00  0.00     0.094 A 
ATOM      3  C   UNL     1     -23.945  17.841  18.932  1.00  0.00     0.142 A 
ATOM      4  C   UNL     1     -24.242  17.933  20.310  1.00  0.00     0.018 A 
ATOM      5  C   UNL     1     -25.190  17.073  20.877  1.00  0.00     0.016 A 
ATOM      6  C   UNL     1     -25.842  16.125  20.080  1.00  0.00     0.047 A 
ATOM      7  C   UNL     1     -23.572  18.892  21.073  1.00  0.00     0.019 A 
ATOM      8  C   UNL     1     -22.636  19.725  20.460  1.00  0.00     0.094 A 
ATOM      9  C   UNL     1     -22.393  19.577  19.090  1.00  0.00     0.336 A 
ATOM     10  O   UNL     1     -21.552  20.319  18.518  1.00  0.00    -0.246 OA
ATOM     11  O   UNL     1     -23.046  18.656  18.385  1.00  0.00    -0.423 OA
ENDROOT
BRANCH   1  12
ATOM     12  O   UNL     1     -26.178  15.095  17.867  1.00  0.00    -0.497 OA
ATOM     13  C   UNL     1     -27.361  14.378  18.207  1.00  0.00     0.278 C 
ENDBRANCH   1  12
TORSDOF 1
ENDMDL
MODEL 2
REMARK VINA RESULT:    -5.901      1.725      2.362
REMARK INTER + INTRA:          -6.281
REMARK INTER:                  -6.241
REMARK INTRA:                  -0.040
REMARK UNBOUND:                -0.035
REMARK SMILES COc1ccc2ccc(=O)oc2c1
REMARK SMILES IDX 3 1 13 2 12 3 6 4 5 5 4 6 7 7 8 8 9 9 10 10 11 11 2 12 1 13
REMARK H PARENT
REMARK Flexibility Score: inf
ROOT
ATOM      1  C   UNL     1     -25.999  15.695  18.962  1.00  0.00     0.122 A 
ATOM      2  C   UNL     1     -25.665  16.385  20.135  1.00  0.00     0.094 A 
ATOM      3  C   UNL     1     -24.640  17.336  20.135  1.00  0.00     0.142 A 
ATOM      4  C   UNL     1     -23.932  17.604  18.942  1.00  0.00     0.018 A 
ATOM      5  C   UNL     1     -24.261  16.918  17.767  1.00  0.00     0.016 A 
ATOM      6  C   UNL     1     -25.289  15.968  17.775  1.00  0.00     0.047 A 
ATOM      7  C   UNL     1     -22.913  18.559  18.973  1.00  0.00     0.019 A 
ATOM      8  C   UNL     1     -22.624  19.215  20.169  1.00  0.00     0.094 A 
ATOM      9  C   UNL     1     -23.367  18.898  21.312  1.00  0.00     0.336 A 
ATOM     10  O   UNL     1     -23.122  19.480  22.401  1.00  0.00    -0.246 OA
ATOM     11  O   UNL     1     -24.332  17.985  21.256  1.00  0.00    -0.423 OA
ENDROOT
BRANCH   1  12
ATOM     12  O   UNL     1     -27.035  14.752  19.018  1.00  0.00    -0.497 OA
ATOM     13  C   UNL     1     -27.265  13.875  20.116  1.00  0.00     0.278 C 
ENDBRANCH   1  12
TORSDOF 1
ENDMDL
MODEL 3
REMARK VINA RESULT:    -5.624      1.715      5.182
REMARK INTER + INTRA:          -5.988
REMARK INTER:                  -5.949
REMARK INTRA:                  -0.038
REMARK UNBOUND:                -0.035
REMARK SMILES COc1ccc2ccc(=O)oc2c1
REMARK SMILES IDX 3 1 13 2 12 3 6 4 5 5 4 6 7 7 8 8 9 9 10 10 11 11 2 12 1 13
REMARK H PARENT
REMARK Flexibility Score: inf
ROOT
ATOM      1  C   UNL     1     -22.859  17.849  19.764  1.00  0.00     0.122 A 
ATOM      2  C   UNL     1     -24.225  17.557  19.643  1.00  0.00     0.094 A 
ATOM      3  C   UNL     1     -24.650  16.413  18.960  1.00  0.00     0.142 A 
ATOM      4  C   UNL     1     -23.696  15.543  18.387  1.00  0.00     0.018 A 
ATOM      5  C   UNL     1     -22.331  15.830  18.505  1.00  0.00     0.016 A 
ATOM      6  C   UNL     1     -21.913  16.977  19.189  1.00  0.00     0.047 A 
ATOM      7  C   UNL     1     -24.151  14.408  17.710  1.00  0.00     0.019 A 
ATOM      8  C   UNL     1     -25.522  14.168  17.621  1.00  0.00     0.094 A 
ATOM      9  C   UNL     1     -26.409  15.073  18.214  1.00  0.00     0.336 A 
ATOM     10  O   UNL     1     -27.650  14.874  18.145  1.00  0.00    -0.246 OA
ATOM     11  O   UNL     1     -25.949  16.147  18.852  1.00  0.00    -0.423 OA
ENDROOT
BRANCH   1  12
ATOM     12  O   UNL     1     -22.487  19.010  20.459  1.00  0.00    -0.497 OA
ATOM     13  C   UNL     1     -23.036  19.406  21.711  1.00  0.00     0.278 C 
ENDBRANCH   1  12
TORSDOF 1
ENDMDL
MODEL 4
REMARK VINA RESULT:    -5.268      1.268      4.785
REMARK INTER + INTRA:          -5.611
REMARK INTER:                  -5.574
REMARK INTRA:                  -0.038
REMARK UNBOUND:                -0.035
REMARK SMILES COc1ccc2ccc(=O)oc2c1
REMARK SMILES IDX 3 1 13 2 12 3 6 4 5 5 4 6 7 7 8 8 9 9 10 10 11 11 2 12 1 13
REMARK H PARENT
REMARK Flexibility Score: inf
ROOT
ATOM      1  C   UNL     1     -23.103  18.383  19.951  1.00  0.00     0.122 A 
ATOM      2  C   UNL     1     -23.199  17.463  18.897  1.00  0.00     0.094 A 
ATOM      3  C   UNL     1     -24.199  16.486  18.896  1.00  0.00     0.142 A 
ATOM      4  C   UNL     1     -25.119  16.422  19.965  1.00  0.00     0.018 A 
ATOM      5  C   UNL     1     -25.028  17.338  21.020  1.00  0.00     0.016 A 
ATOM      6  C   UNL     1     -24.024  18.313  21.014  1.00  0.00     0.047 A 
ATOM      7  C   UNL     1     -26.107  15.433  19.936  1.00  0.00     0.019 A 
ATOM      8  C   UNL     1     -26.155  14.545  18.862  1.00  0.00     0.094 A 
ATOM      9  C   UNL     1     -25.210  14.668  17.838  1.00  0.00     0.336 A 
ATOM     10  O   UNL     1     -25.237  13.876  16.859  1.00  0.00    -0.246 OA
ATOM     11  O   UNL     1     -24.280  15.618  17.890  1.00  0.00    -0.423 OA
ENDROOT
BRANCH   1  12
ATOM     12  O   UNL     1     -22.081  19.343  19.903  1.00  0.00    -0.497 OA
ATOM     13  C   UNL     1     -21.824  20.186  18.785  1.00  0.00     0.278 C 
ENDBRANCH   1  12
TORSDOF 1
ENDMDL
MODEL 5
REMARK VINA RESULT:    -3.936     12.071     13.241
REMARK INTER + INTRA:          -4.201
REMARK INTER:                  -4.166
REMARK INTRA:                  -0.036
REMARK UNBOUND:                -0.035
REMARK SMILES COc1ccc2ccc(=O)oc2c1
REMARK SMILES IDX 3 1 13 2 12 3 6 4 5 5 4 6 7 7 8 8 9 9 10 10 11 11 2 12 1 13
REMARK H PARENT
REMARK Flexibility Score: inf
ROOT
ATOM      1  C   UNL     1     -15.478  14.631  12.225  1.00  0.00     0.122 A 
ATOM      2  C   UNL     1     -15.044  14.232  10.953  1.00  0.00     0.094 A 
ATOM      3  C   UNL     1     -15.436  14.939   9.813  1.00  0.00     0.142 A 
ATOM      4  C   UNL     1     -16.279  16.065   9.942  1.00  0.00     0.018 A 
ATOM      5  C   UNL     1     -16.717  16.468  11.209  1.00  0.00     0.016 A 
ATOM      6  C   UNL     1     -16.319  15.755  12.346  1.00  0.00     0.047 A 
ATOM      7  C   UNL     1     -16.656  16.751   8.784  1.00  0.00     0.019 A 
ATOM      8  C   UNL     1     -16.193  16.310   7.545  1.00  0.00     0.094 A 
ATOM      9  C   UNL     1     -15.360  15.187   7.494  1.00  0.00     0.336 A 
ATOM     10  O   UNL     1     -14.931  14.772   6.385  1.00  0.00    -0.246 OA
ATOM     11  O   UNL     1     -15.017  14.551   8.611  1.00  0.00    -0.423 OA
ENDROOT
BRANCH   1  12
ATOM     12  O   UNL     1     -15.054  13.885  13.336  1.00  0.00    -0.497 OA
ATOM     13  C   UNL     1     -15.291  14.258  14.690  1.00  0.00     0.278 C 
ENDBRANCH   1  12
TORSDOF 1
ENDMDL
MODEL 6
REMARK VINA RESULT:    -3.934     11.886     13.116
REMARK INTER + INTRA:          -4.199
REMARK INTER:                  -4.156
REMARK INTRA:                  -0.043
REMARK UNBOUND:                -0.035
REMARK SMILES COc1ccc2ccc(=O)oc2c1
REMARK SMILES IDX 3 1 13 2 12 3 6 4 5 5 4 6 7 7 8 8 9 9 10 10 11 11 2 12 1 13
REMARK H PARENT
REMARK Flexibility Score: inf
ROOT
ATOM      1  C   UNL     1     -14.833  15.407   8.435  1.00  0.00     0.122 A 
ATOM      2  C   UNL     1     -15.937  15.845   9.179  1.00  0.00     0.094 A 
ATOM      3  C   UNL     1     -15.986  15.645  10.563  1.00  0.00     0.142 A 
ATOM      4  C   UNL     1     -14.916  14.995  11.216  1.00  0.00     0.018 A 
ATOM      5  C   UNL     1     -13.811  14.554  10.476  1.00  0.00     0.016 A 
ATOM      6  C   UNL     1     -13.770  14.758   9.093  1.00  0.00     0.047 A 
ATOM      7  C   UNL     1     -14.994  14.809  12.599  1.00  0.00     0.019 A 
ATOM      8  C   UNL     1     -16.115  15.266  13.290  1.00  0.00     0.094 A 
ATOM      9  C   UNL     1     -17.137  15.902  12.576  1.00  0.00     0.336 A 
ATOM     10  O   UNL     1     -18.158  16.323  13.181  1.00  0.00    -0.246 OA
ATOM     11  O   UNL     1     -17.039  16.066  11.260  1.00  0.00    -0.423 OA
ENDROOT
BRANCH   1  12
ATOM     12  O   UNL     1     -14.835  15.633   7.050  1.00  0.00    -0.497 OA
ATOM     13  C   UNL     1     -15.918  16.217   6.333  1.00  0.00     0.278 C 
ENDBRANCH   1  12
TORSDOF 1
ENDMDL
MODEL 7
REMARK VINA RESULT:    -3.893     11.940     13.094
REMARK INTER + INTRA:          -4.155
REMARK INTER:                  -4.125
REMARK INTRA:                  -0.030
REMARK UNBOUND:                -0.035
REMARK SMILES COc1ccc2ccc(=O)oc2c1
REMARK SMILES IDX 3 1 13 2 12 3 6 4 5 5 4 6 7 7 8 8 9 9 10 10 11 11 2 12 1 13
REMARK H PARENT
REMARK Flexibility Score: inf
ROOT
ATOM      1  C   UNL     1     -15.037  15.067   8.436  1.00  0.00     0.122 A 
ATOM      2  C   UNL     1     -14.811  14.498   9.697  1.00  0.00     0.094 A 
ATOM      3  C   UNL     1     -15.482  14.980  10.825  1.00  0.00     0.142 A 
ATOM      4  C   UNL     1     -16.395  16.050  10.695  1.00  0.00     0.018 A 
ATOM      5  C   UNL     1     -16.624  16.622   9.438  1.00  0.00     0.016 A 
ATOM      6  C   UNL     1     -15.949  16.135   8.314  1.00  0.00     0.047 A 
ATOM      7  C   UNL     1     -17.050  16.510  11.841  1.00  0.00     0.019 A 
ATOM      8  C   UNL     1     -16.787  15.906  13.070  1.00  0.00     0.094 A 
ATOM      9  C   UNL     1     -15.870  14.850  13.123  1.00  0.00     0.336 A 
ATOM     10  O   UNL     1     -15.619  14.291  14.223  1.00  0.00    -0.246 OA
ATOM     11  O   UNL     1     -15.260  14.431  12.017  1.00  0.00    -0.423 OA
ENDROOT
BRANCH   1  12
ATOM     12  O   UNL     1     -14.338  14.546   7.337  1.00  0.00    -0.497 OA
ATOM     13  C   UNL     1     -14.950  13.875   6.241  1.00  0.00     0.278 C 
ENDBRANCH   1  12
TORSDOF 1
ENDMDL
MODEL 8
REMARK VINA RESULT:    -3.774     12.485     13.744
REMARK INTER + INTRA:          -4.030
REMARK INTER:                  -3.989
REMARK INTRA:                  -0.041
REMARK UNBOUND:                -0.035
REMARK SMILES COc1ccc2ccc(=O)oc2c1
REMARK SMILES IDX 3 1 13 2 12 3 6 4 5 5 4 6 7 7 8 8 9 9 10 10 11 11 2 12 1 13
REMARK H PARENT
REMARK Flexibility Score: inf
ROOT
ATOM      1  C   UNL     1     -15.819  15.762  11.683  1.00  0.00     0.122 A 
ATOM      2  C   UNL     1     -16.393  16.123  10.457  1.00  0.00     0.094 A 
ATOM      3  C   UNL     1     -15.781  15.763   9.252  1.00  0.00     0.142 A 
ATOM      4  C   UNL     1     -14.574  15.031   9.269  1.00  0.00     0.018 A 
ATOM      5  C   UNL     1     -13.995  14.668  10.492  1.00  0.00     0.016 A 
ATOM      6  C   UNL     1     -14.614  15.032  11.693  1.00  0.00     0.047 A 
ATOM      7  C   UNL     1     -13.986  14.687   8.049  1.00  0.00     0.019 A 
ATOM      8  C   UNL     1     -14.601  15.072   6.859  1.00  0.00     0.094 A 
ATOM      9  C   UNL     1     -15.797  15.796   6.918  1.00  0.00     0.336 A 
ATOM     10  O   UNL     1     -16.369  16.153   5.855  1.00  0.00    -0.246 OA
ATOM     11  O   UNL     1     -16.336  16.112   8.093  1.00  0.00    -0.423 OA
ENDROOT
BRANCH   1  12
ATOM     12  O   UNL     1     -16.473  16.148  12.863  1.00  0.00    -0.497 OA
ATOM     13  C   UNL     1     -17.884  16.295  12.986  1.00  0.00     0.278 C 
ENDBRANCH   1  12
TORSDOF 1
ENDMDL
MODEL 9
REMARK VINA RESULT:    -3.439     11.396     12.709
REMARK INTER + INTRA:          -3.675
REMARK INTER:                  -3.641
REMARK INTRA:                  -0.034
REMARK UNBOUND:                -0.035
REMARK SMILES COc1ccc2ccc(=O)oc2c1
REMARK SMILES IDX 3 1 13 2 12 3 6 4 5 5 4 6 7 7 8 8 9 9 10 10 11 11 2 12 1 13
REMARK H PARENT
REMARK Flexibility Score: inf
ROOT
ATOM      1  C   UNL     1     -15.451  14.829  13.260  1.00  0.00     0.122 A 
ATOM      2  C   UNL     1     -16.216  15.642  12.413  1.00  0.00     0.094 A 
ATOM      3  C   UNL     1     -15.971  15.664  11.037  1.00  0.00     0.142 A 
ATOM      4  C   UNL     1     -14.944  14.861  10.494  1.00  0.00     0.018 A 
ATOM      5  C   UNL     1     -14.177  14.046  11.336  1.00  0.00     0.016 A 
ATOM      6  C   UNL     1     -14.428  14.030  12.712  1.00  0.00     0.047 A 
ATOM      7  C   UNL     1     -14.723  14.904   9.115  1.00  0.00     0.019 A 
ATOM      8  C   UNL     1     -15.514  15.732   8.320  1.00  0.00     0.094 A 
ATOM      9  C   UNL     1     -16.514  16.501   8.927  1.00  0.00     0.336 A 
ATOM     10  O   UNL     1     -17.240  17.254   8.226  1.00  0.00    -0.246 OA
ATOM     11  O   UNL     1     -16.704  16.441  10.242  1.00  0.00    -0.423 OA
ENDROOT
BRANCH   1  12
ATOM     12  O   UNL     1     -15.738  14.845  14.634  1.00  0.00    -0.497 OA
ATOM     13  C   UNL     1     -14.761  14.706  15.660  1.00  0.00     0.278 C 
ENDBRANCH   1  12
TORSDOF 1
ENDMDL
