MODEL 1
REMARK VINA RESULT:    -5.570      0.000      0.000
REMARK INTER + INTRA:         -15.079
REMARK INTER:                 -12.734
REMARK INTRA:                  -2.344
REMARK UNBOUND:                -2.344
REMARK SMILES CCCCCCCCCCCCCCCCCCCCCCCC(=O)[O-]
REMARK SMILES IDX 13 1 14 2 15 3 16 4 17 5 18 6 19 7 20 8 21 9 22 10 23 11
REMARK SMILES IDX 24 12 25 13 26 14 12 15 11 16 10 17 9 18 8 19 7 20 6 21 5 22
REMARK SMILES IDX 4 23 3 24 2 25 1 26
REMARK H PARENT
REMARK Flexibility Score: inf
ROOT
ATOM      1  C   UNL     1       1.235  13.105  25.864  1.00  0.00     0.000 C 
ENDROOT
BRANCH   1   2
ATOM      2  C   UNL     1       0.961  14.569  25.478  1.00  0.00     0.000 C 
BRANCH   2   3
ATOM      3  C   UNL     1       2.255  15.355  25.203  1.00  0.00     0.000 C 
BRANCH   3   4
ATOM      4  C   UNL     1       2.301  16.694  25.969  1.00  0.00     0.000 C 
BRANCH   4   5
ATOM      5  C   UNL     1       2.994  17.829  25.196  1.00  0.00     0.000 C 
BRANCH   5   6
ATOM      6  C   UNL     1       3.817  17.323  24.000  1.00  0.00     0.000 C 
BRANCH   6   7
ATOM      7  C   UNL     1       4.278  18.460  23.074  1.00  0.00     0.000 C 
BRANCH   7   8
ATOM      8  C   UNL     1       3.594  19.800  23.397  1.00  0.00     0.000 C 
BRANCH   8   9
ATOM      9  C   UNL     1       2.880  20.406  22.179  1.00  0.00     0.000 C 
BRANCH   9  10
ATOM     10  C   UNL     1       1.446  20.866  22.498  1.00  0.00     0.006 C 
BRANCH  10  11
ATOM     11  C   UNL     1       0.785  19.994  23.575  1.00  0.00     0.053 C 
BRANCH  11  12
ATOM     12  C   UNL     1      -0.023  18.885  22.974  1.00  0.00     0.041 C 
ATOM     13  O   UNL     1       0.364  17.691  23.083  1.00  0.00    -0.550 OA
ATOM     14  O   UNL     1      -1.217  19.166  22.321  1.00  0.00    -0.550 OA
ENDBRANCH  11  12
ENDBRANCH  10  11
ENDBRANCH   9  10
ENDBRANCH   8   9
ENDBRANCH   7   8
ENDBRANCH   6   7
ENDBRANCH   5   6
ENDBRANCH   4   5
ENDBRANCH   3   4
ENDBRANCH   2   3
ENDBRANCH   1   2
BRANCH   1  15
ATOM     15  C   UNL     1       0.025  12.441  26.545  1.00  0.00     0.000 C 
BRANCH  15  16
ATOM     16  C   UNL     1      -1.313  12.998  26.030  1.00  0.00     0.000 C 
BRANCH  16  17
ATOM     17  C   UNL     1      -2.201  11.906  25.415  1.00  0.00     0.000 C 
BRANCH  17  18
ATOM     18  C   UNL     1      -1.611  10.513  25.663  1.00  0.00    -0.000 C 
BRANCH  18  19
ATOM     19  C   UNL     1      -2.348   9.449  24.835  1.00  0.00    -0.000 C 
BRANCH  19  20
ATOM     20  C   UNL     1      -1.437   8.799  23.773  1.00  0.00    -0.000 C 
BRANCH  20  21
ATOM     21  C   UNL     1      -2.201   7.982  22.716  1.00  0.00    -0.000 C 
BRANCH  21  22
ATOM     22  C   UNL     1      -1.890   8.429  21.279  1.00  0.00    -0.000 C 
BRANCH  22  23
ATOM     23  C   UNL     1      -3.052   9.198  20.620  1.00  0.00    -0.000 C 
BRANCH  23  24
ATOM     24  C   UNL     1      -4.284   9.429  21.520  1.00  0.00    -0.000 C 
BRANCH  24  25
ATOM     25  C   UNL     1      -4.436  10.861  22.062  1.00  0.00    -0.003 C 
ATOM     26  C   UNL     1      -3.234  11.749  21.742  1.00  0.00     0.004 C 
ENDBRANCH  24  25
ENDBRANCH  23  24
ENDBRANCH  22  23
ENDBRANCH  21  22
ENDBRANCH  20  21
ENDBRANCH  19  20
ENDBRANCH  18  19
ENDBRANCH  17  18
ENDBRANCH  16  17
ENDBRANCH  15  16
ENDBRANCH   1  15
TORSDOF 22
ENDMDL
MODEL 2
REMARK VINA RESULT:    -5.483      1.149      2.801
REMARK INTER + INTRA:         -14.880
REMARK INTER:                 -12.052
REMARK INTRA:                  -2.828
REMARK UNBOUND:                -2.344
REMARK SMILES CCCCCCCCCCCCCCCCCCCCCCCC(=O)[O-]
REMARK SMILES IDX 13 1 14 2 15 3 16 4 17 5 18 6 19 7 20 8 21 9 22 10 23 11
REMARK SMILES IDX 24 12 25 13 26 14 12 15 11 16 10 17 9 18 8 19 7 20 6 21 5 22
REMARK SMILES IDX 4 23 3 24 2 25 1 26
REMARK H PARENT
REMARK Flexibility Score: inf
ROOT
ATOM      1  C   UNL     1      -1.507  13.143  26.815  1.00  0.00     0.000 C 
ENDROOT
BRANCH   1   2
ATOM      2  C   UNL     1      -0.087  13.735  26.848  1.00  0.00     0.000 C 
BRANCH   2   3
ATOM      3  C   UNL     1       0.897  12.951  25.962  1.00  0.00     0.000 C 
BRANCH   3   4
ATOM      4  C   UNL     1       1.940  13.868  25.291  1.00  0.00     0.000 C 
BRANCH   4   5
ATOM      5  C   UNL     1       1.444  15.306  25.055  1.00  0.00     0.000 C 
BRANCH   5   6
ATOM      6  C   UNL     1       2.098  15.972  23.834  1.00  0.00     0.000 C 
BRANCH   6   7
ATOM      7  C   UNL     1       3.622  16.114  23.981  1.00  0.00     0.000 C 
BRANCH   7   8
ATOM      8  C   UNL     1       4.159  17.407  23.344  1.00  0.00     0.000 C 
BRANCH   8   9
ATOM      9  C   UNL     1       3.673  18.670  24.074  1.00  0.00     0.000 C 
BRANCH   9  10
ATOM     10  C   UNL     1       2.663  19.484  23.246  1.00  0.00     0.006 C 
BRANCH  10  11
ATOM     11  C   UNL     1       1.531  20.055  24.112  1.00  0.00     0.053 C 
BRANCH  11  12
ATOM     12  C   UNL     1       0.185  19.593  23.643  1.00  0.00     0.041 C 
ATOM     13  O   UNL     1       0.090  18.835  22.642  1.00  0.00    -0.550 OA
ATOM     14  O   UNL     1      -0.962  19.975  24.329  1.00  0.00    -0.550 OA
ENDBRANCH  11  12
ENDBRANCH  10  11
ENDBRANCH   9  10
ENDBRANCH   8   9
ENDBRANCH   7   8
ENDBRANCH   6   7
ENDBRANCH   5   6
ENDBRANCH   4   5
ENDBRANCH   3   4
ENDBRANCH   2   3
ENDBRANCH   1   2
BRANCH   1  15
ATOM     15  C   UNL     1      -1.767  12.315  25.544  1.00  0.00     0.000 C 
BRANCH  15  16
ATOM     16  C   UNL     1      -3.067  11.498  25.635  1.00  0.00     0.000 C 
BRANCH  16  17
ATOM     17  C   UNL     1      -3.728  11.298  24.263  1.00  0.00     0.000 C 
BRANCH  17  18
ATOM     18  C   UNL     1      -2.835  11.836  23.139  1.00  0.00    -0.000 C 
BRANCH  18  19
ATOM     19  C   UNL     1      -3.481  11.602  21.765  1.00  0.00    -0.000 C 
BRANCH  19  20
ATOM     20  C   UNL     1      -4.105  10.197  21.642  1.00  0.00    -0.000 C 
BRANCH  20  21
ATOM     21  C   UNL     1      -3.319   9.247  20.720  1.00  0.00    -0.000 C 
BRANCH  21  22
ATOM     22  C   UNL     1      -2.224   8.466  21.466  1.00  0.00    -0.000 C 
BRANCH  22  23
ATOM     23  C   UNL     1      -2.665   7.996  22.865  1.00  0.00    -0.000 C 
BRANCH  23  24
ATOM     24  C   UNL     1      -1.715   8.376  24.020  1.00  0.00    -0.000 C 
BRANCH  24  25
ATOM     25  C   UNL     1      -0.445   9.135  23.596  1.00  0.00    -0.003 C 
ATOM     26  C   UNL     1       0.480   9.449  24.771  1.00  0.00     0.004 C 
ENDBRANCH  24  25
ENDBRANCH  23  24
ENDBRANCH  22  23
ENDBRANCH  21  22
ENDBRANCH  20  21
ENDBRANCH  19  20
ENDBRANCH  18  19
ENDBRANCH  17  18
ENDBRANCH  16  17
ENDBRANCH  15  16
ENDBRANCH   1  15
TORSDOF 22
ENDMDL
MODEL 3
REMARK VINA RESULT:    -5.461      2.794      9.475
REMARK INTER + INTRA:         -14.828
REMARK INTER:                 -12.709
REMARK INTRA:                  -2.119
REMARK UNBOUND:                -2.344
REMARK SMILES CCCCCCCCCCCCCCCCCCCCCCCC(=O)[O-]
REMARK SMILES IDX 13 1 14 2 15 3 16 4 17 5 18 6 19 7 20 8 21 9 22 10 23 11
REMARK SMILES IDX 24 12 25 13 26 14 12 15 11 16 10 17 9 18 8 19 7 20 6 21 5 22
REMARK SMILES IDX 4 23 3 24 2 25 1 26
REMARK H PARENT
REMARK Flexibility Score: inf
ROOT
ATOM      1  C   UNL     1       0.738  12.253  26.032  1.00  0.00     0.000 C 
ENDROOT
BRANCH   1   2
ATOM      2  C   UNL     1      -0.654  11.691  26.371  1.00  0.00     0.000 C 
BRANCH   2   3
ATOM      3  C   UNL     1      -1.760  12.292  25.485  1.00  0.00     0.000 C 
BRANCH   3   4
ATOM      4  C   UNL     1      -3.078  11.495  25.574  1.00  0.00     0.000 C 
BRANCH   4   5
ATOM      5  C   UNL     1      -3.712  11.188  24.206  1.00  0.00     0.000 C 
BRANCH   5   6
ATOM      6  C   UNL     1      -2.959  11.844  23.037  1.00  0.00     0.000 C 
BRANCH   6   7
ATOM      7  C   UNL     1      -3.467  11.371  21.665  1.00  0.00     0.000 C 
BRANCH   7   8
ATOM      8  C   UNL     1      -3.981   9.922  21.692  1.00  0.00     0.000 C 
BRANCH   8   9
ATOM      9  C   UNL     1      -3.110   8.972  20.853  1.00  0.00     0.000 C 
BRANCH   9  10
ATOM     10  C   UNL     1      -1.926   8.393  21.648  1.00  0.00     0.006 C 
BRANCH  10  11
ATOM     11  C   UNL     1      -2.298   8.097  23.108  1.00  0.00     0.053 C 
BRANCH  11  12
ATOM     12  C   UNL     1      -1.265   8.617  24.061  1.00  0.00     0.041 C 
ATOM     13  O   UNL     1      -0.272   9.260  23.628  1.00  0.00    -0.550 OA
ATOM     14  O   UNL     1      -1.416   8.419  25.428  1.00  0.00    -0.550 OA
ENDBRANCH  11  12
ENDBRANCH  10  11
ENDBRANCH   9  10
ENDBRANCH   8   9
ENDBRANCH   7   8
ENDBRANCH   6   7
ENDBRANCH   5   6
ENDBRANCH   4   5
ENDBRANCH   3   4
ENDBRANCH   2   3
ENDBRANCH   1   2
BRANCH   1  15
ATOM     15  C   UNL     1       0.797  13.786  26.151  1.00  0.00     0.000 C 
BRANCH  15  16
ATOM     16  C   UNL     1       1.680  14.423  25.065  1.00  0.00     0.000 C 
BRANCH  16  17
ATOM     17  C   UNL     1       2.979  13.636  24.834  1.00  0.00     0.000 C 
BRANCH  17  18
ATOM     18  C   UNL     1       4.113  14.565  24.386  1.00  0.00    -0.000 C 
BRANCH  18  19
ATOM     19  C   UNL     1       3.553  15.859  23.775  1.00  0.00    -0.000 C 
BRANCH  19  20
ATOM     20  C   UNL     1       4.634  16.950  23.623  1.00  0.00    -0.000 C 
BRANCH  20  21
ATOM     21  C   UNL     1       4.146  18.207  22.880  1.00  0.00    -0.000 C 
BRANCH  21  22
ATOM     22  C   UNL     1       3.787  19.358  23.833  1.00  0.00    -0.000 C 
BRANCH  22  23
ATOM     23  C   UNL     1       2.587  19.035  24.745  1.00  0.00    -0.000 C 
BRANCH  23  24
ATOM     24  C   UNL     1       1.311  18.565  24.016  1.00  0.00    -0.000 C 
BRANCH  24  25
ATOM     25  C   UNL     1       0.663  19.613  23.096  1.00  0.00    -0.003 C 
ATOM     26  C   UNL     1      -0.578  19.086  22.375  1.00  0.00     0.004 C 
ENDBRANCH  24  25
ENDBRANCH  23  24
ENDBRANCH  22  23
ENDBRANCH  21  22
ENDBRANCH  20  21
ENDBRANCH  19  20
ENDBRANCH  18  19
ENDBRANCH  17  18
ENDBRANCH  16  17
ENDBRANCH  15  16
ENDBRANCH   1  15
TORSDOF 22
ENDMDL
MODEL 4
REMARK VINA RESULT:    -5.422      3.130      6.885
REMARK INTER + INTRA:         -14.739
REMARK INTER:                 -11.516
REMARK INTRA:                  -3.223
REMARK UNBOUND:                -2.344
REMARK SMILES CCCCCCCCCCCCCCCCCCCCCCCC(=O)[O-]
REMARK SMILES IDX 13 1 14 2 15 3 16 4 17 5 18 6 19 7 20 8 21 9 22 10 23 11
REMARK SMILES IDX 24 12 25 13 26 14 12 15 11 16 10 17 9 18 8 19 7 20 6 21 5 22
REMARK SMILES IDX 4 23 3 24 2 25 1 26
REMARK H PARENT
REMARK Flexibility Score: inf
ROOT
ATOM      1  C   UNL     1      -3.969  11.116  24.281  1.00  0.00     0.000 C 
ENDROOT
BRANCH   1   2
ATOM      2  C   UNL     1      -3.012  10.350  25.212  1.00  0.00     0.000 C 
BRANCH   2   3
ATOM      3  C   UNL     1      -3.730   9.770  26.443  1.00  0.00     0.000 C 
BRANCH   3   4
ATOM      4  C   UNL     1      -2.778   9.585  27.643  1.00  0.00     0.000 C 
BRANCH   4   5
ATOM      5  C   UNL     1      -3.026  10.579  28.792  1.00  0.00     0.000 C 
BRANCH   5   6
ATOM      6  C   UNL     1      -2.068  11.781  28.760  1.00  0.00     0.000 C 
BRANCH   6   7
ATOM      7  C   UNL     1      -2.600  12.941  27.903  1.00  0.00     0.000 C 
BRANCH   7   8
ATOM      8  C   UNL     1      -1.611  13.363  26.802  1.00  0.00     0.000 C 
BRANCH   8   9
ATOM      9  C   UNL     1      -0.520  12.308  26.555  1.00  0.00     0.000 C 
BRANCH   9  10
ATOM     10  C   UNL     1       0.839  12.933  26.191  1.00  0.00     0.006 C 
BRANCH  10  11
ATOM     11  C   UNL     1       0.714  14.419  25.827  1.00  0.00     0.053 C 
BRANCH  11  12
ATOM     12  C   UNL     1       1.779  14.848  24.864  1.00  0.00     0.041 C 
ATOM     13  O   UNL     1       1.777  16.018  24.399  1.00  0.00    -0.550 OA
ATOM     14  O   UNL     1       2.790  13.965  24.506  1.00  0.00    -0.550 OA
ENDBRANCH  11  12
ENDBRANCH  10  11
ENDBRANCH   9  10
ENDBRANCH   8   9
ENDBRANCH   7   8
ENDBRANCH   6   7
ENDBRANCH   5   6
ENDBRANCH   4   5
ENDBRANCH   3   4
ENDBRANCH   2   3
ENDBRANCH   1   2
BRANCH   1  15
ATOM     15  C   UNL     1      -3.229  11.818  23.128  1.00  0.00     0.000 C 
BRANCH  15  16
ATOM     16  C   UNL     1      -3.764  11.397  21.749  1.00  0.00     0.000 C 
BRANCH  16  17
ATOM     17  C   UNL     1      -4.942  10.416  21.855  1.00  0.00     0.000 C 
BRANCH  17  18
ATOM     18  C   UNL     1      -4.546   9.025  21.346  1.00  0.00    -0.000 C 
BRANCH  18  19
ATOM     19  C   UNL     1      -3.044   8.964  21.025  1.00  0.00    -0.000 C 
BRANCH  19  20
ATOM     20  C   UNL     1      -2.234   8.276  22.143  1.00  0.00    -0.000 C 
BRANCH  20  21
ATOM     21  C   UNL     1      -0.889   8.962  22.446  1.00  0.00    -0.000 C 
BRANCH  21  22
ATOM     22  C   UNL     1      -0.437   8.768  23.902  1.00  0.00    -0.000 C 
BRANCH  22  23
ATOM     23  C   UNL     1       0.881   9.496  24.227  1.00  0.00    -0.000 C 
BRANCH  23  24
ATOM     24  C   UNL     1       1.352   9.387  25.693  1.00  0.00    -0.000 C 
BRANCH  24  25
ATOM     25  C   UNL     1       2.872   9.497  25.900  1.00  0.00    -0.003 C 
ATOM     26  C   UNL     1       3.493   8.210  26.443  1.00  0.00     0.004 C 
ENDBRANCH  24  25
ENDBRANCH  23  24
ENDBRANCH  22  23
ENDBRANCH  21  22
ENDBRANCH  20  21
ENDBRANCH  19  20
ENDBRANCH  18  19
ENDBRANCH  17  18
ENDBRANCH  16  17
ENDBRANCH  15  16
ENDBRANCH   1  15
TORSDOF 22
ENDMDL
MODEL 5
REMARK VINA RESULT:    -5.406      2.398      5.893
REMARK INTER + INTRA:         -14.704
REMARK INTER:                 -12.080
REMARK INTRA:                  -2.624
REMARK UNBOUND:                -2.344
REMARK SMILES CCCCCCCCCCCCCCCCCCCCCCCC(=O)[O-]
REMARK SMILES IDX 13 1 14 2 15 3 16 4 17 5 18 6 19 7 20 8 21 9 22 10 23 11
REMARK SMILES IDX 24 12 25 13 26 14 12 15 11 16 10 17 9 18 8 19 7 20 6 21 5 22
REMARK SMILES IDX 4 23 3 24 2 25 1 26
REMARK H PARENT
REMARK Flexibility Score: inf
ROOT
ATOM      1  C   UNL     1      -4.570  10.760  23.439  1.00  0.00     0.000 C 
ENDROOT
BRANCH   1   2
ATOM      2  C   UNL     1      -3.308  11.620  23.629  1.00  0.00     0.000 C 
BRANCH   2   3
ATOM      3  C   UNL     1      -2.970  11.847  25.113  1.00  0.00     0.000 C 
BRANCH   3   4
ATOM      4  C   UNL     1      -1.500  12.268  25.321  1.00  0.00     0.000 C 
BRANCH   4   5
ATOM      5  C   UNL     1      -1.318  13.409  26.337  1.00  0.00     0.000 C 
BRANCH   5   6
ATOM      6  C   UNL     1       0.150  13.833  26.504  1.00  0.00     0.000 C 
BRANCH   6   7
ATOM      7  C   UNL     1       1.133  12.815  25.903  1.00  0.00     0.000 C 
BRANCH   7   8
ATOM      8  C   UNL     1       2.323  13.488  25.198  1.00  0.00     0.000 C 
BRANCH   8   9
ATOM      9  C   UNL     1       2.214  15.022  25.193  1.00  0.00     0.000 C 
BRANCH   9  10
ATOM     10  C   UNL     1       2.207  15.614  23.773  1.00  0.00     0.006 C 
BRANCH  10  11
ATOM     11  C   UNL     1       1.215  16.777  23.635  1.00  0.00     0.053 C 
BRANCH  11  12
ATOM     12  C   UNL     1       1.860  18.096  23.932  1.00  0.00     0.041 C 
ATOM     13  O   UNL     1       3.089  18.262  23.715  1.00  0.00    -0.550 OA
ATOM     14  O   UNL     1       1.097  19.151  24.420  1.00  0.00    -0.550 OA
ENDBRANCH  11  12
ENDBRANCH  10  11
ENDBRANCH   9  10
ENDBRANCH   8   9
ENDBRANCH   7   8
ENDBRANCH   6   7
ENDBRANCH   5   6
ENDBRANCH   4   5
ENDBRANCH   3   4
ENDBRANCH   2   3
ENDBRANCH   1   2
BRANCH   1  15
ATOM     15  C   UNL     1      -4.823  10.407  21.963  1.00  0.00     0.000 C 
BRANCH  15  16
ATOM     16  C   UNL     1      -4.200   9.057  21.570  1.00  0.00     0.000 C 
BRANCH  16  17
ATOM     17  C   UNL     1      -2.829   9.222  20.897  1.00  0.00     0.000 C 
BRANCH  17  18
ATOM     18  C   UNL     1      -1.739   8.483  21.681  1.00  0.00    -0.000 C 
BRANCH  18  19
ATOM     19  C   UNL     1      -2.306   7.881  22.976  1.00  0.00    -0.000 C 
BRANCH  19  20
ATOM     20  C   UNL     1      -1.632   8.461  24.236  1.00  0.00    -0.000 C 
BRANCH  20  21
ATOM     21  C   UNL     1      -0.343   9.250  23.943  1.00  0.00    -0.000 C 
BRANCH  21  22
ATOM     22  C   UNL     1       0.522   9.463  25.196  1.00  0.00    -0.000 C 
BRANCH  22  23
ATOM     23  C   UNL     1       2.020   9.203  24.947  1.00  0.00    -0.000 C 
BRANCH  23  24
ATOM     24  C   UNL     1       2.923   9.292  26.195  1.00  0.00    -0.000 C 
BRANCH  24  25
ATOM     25  C   UNL     1       3.402   7.940  26.751  1.00  0.00    -0.003 C 
ATOM     26  C   UNL     1       4.684   7.443  26.084  1.00  0.00     0.004 C 
ENDBRANCH  24  25
ENDBRANCH  23  24
ENDBRANCH  22  23
ENDBRANCH  21  22
ENDBRANCH  20  21
ENDBRANCH  19  20
ENDBRANCH  18  19
ENDBRANCH  17  18
ENDBRANCH  16  17
ENDBRANCH  15  16
ENDBRANCH   1  15
TORSDOF 22
ENDMDL
MODEL 6
REMARK VINA RESULT:    -5.334      1.670      2.138
REMARK INTER + INTRA:         -14.538
REMARK INTER:                 -12.335
REMARK INTRA:                  -2.203
REMARK UNBOUND:                -2.344
REMARK SMILES CCCCCCCCCCCCCCCCCCCCCCCC(=O)[O-]
REMARK SMILES IDX 13 1 14 2 15 3 16 4 17 5 18 6 19 7 20 8 21 9 22 10 23 11
REMARK SMILES IDX 24 12 25 13 26 14 12 15 11 16 10 17 9 18 8 19 7 20 6 21 5 22
REMARK SMILES IDX 4 23 3 24 2 25 1 26
REMARK H PARENT
REMARK Flexibility Score: inf
ROOT
ATOM      1  C   UNL     1       1.207  13.228  25.867  1.00  0.00     0.000 C 
ENDROOT
BRANCH   1   2
ATOM      2  C   UNL     1       1.237  14.661  25.310  1.00  0.00     0.000 C 
BRANCH   2   3
ATOM      3  C   UNL     1       2.332  14.854  24.246  1.00  0.00     0.000 C 
BRANCH   3   4
ATOM      4  C   UNL     1       2.264  16.246  23.582  1.00  0.00     0.000 C 
BRANCH   4   5
ATOM      5  C   UNL     1       3.593  17.021  23.627  1.00  0.00     0.000 C 
BRANCH   5   6
ATOM      6  C   UNL     1       3.499  18.323  24.439  1.00  0.00     0.000 C 
BRANCH   6   7
ATOM      7  C   UNL     1       2.180  18.442  25.219  1.00  0.00     0.000 C 
BRANCH   7   8
ATOM      8  C   UNL     1       1.431  19.751  24.917  1.00  0.00     0.000 C 
BRANCH   8   9
ATOM      9  C   UNL     1       0.404  19.594  23.783  1.00  0.00     0.000 C 
BRANCH   9  10
ATOM     10  C   UNL     1       0.976  19.975  22.407  1.00  0.00     0.006 C 
BRANCH  10  11
ATOM     11  C   UNL     1       1.928  21.177  22.489  1.00  0.00     0.053 C 
BRANCH  11  12
ATOM     12  C   UNL     1       3.108  21.014  21.580  1.00  0.00     0.041 C 
ATOM     13  O   UNL     1       4.274  20.980  22.056  1.00  0.00    -0.550 OA
ATOM     14  O   UNL     1       2.919  20.868  20.211  1.00  0.00    -0.550 OA
ENDBRANCH  11  12
ENDBRANCH  10  11
ENDBRANCH   9  10
ENDBRANCH   8   9
ENDBRANCH   7   8
ENDBRANCH   6   7
ENDBRANCH   5   6
ENDBRANCH   4   5
ENDBRANCH   3   4
ENDBRANCH   2   3
ENDBRANCH   1   2
BRANCH   1  15
ATOM     15  C   UNL     1      -0.133  12.889  26.546  1.00  0.00     0.000 C 
BRANCH  15  16
ATOM     16  C   UNL     1      -1.307  12.890  25.553  1.00  0.00     0.000 C 
BRANCH  16  17
ATOM     17  C   UNL     1      -2.125  11.591  25.617  1.00  0.00     0.000 C 
BRANCH  17  18
ATOM     18  C   UNL     1      -1.402  10.526  26.448  1.00  0.00    -0.000 C 
BRANCH  18  19
ATOM     19  C   UNL     1      -1.360   9.182  25.704  1.00  0.00    -0.000 C 
BRANCH  19  20
ATOM     20  C   UNL     1      -1.290   9.362  24.174  1.00  0.00    -0.000 C 
BRANCH  20  21
ATOM     21  C   UNL     1      -1.997   8.245  23.385  1.00  0.00    -0.000 C 
BRANCH  21  22
ATOM     22  C   UNL     1      -1.757   8.344  21.870  1.00  0.00    -0.000 C 
BRANCH  22  23
ATOM     23  C   UNL     1      -3.000   8.820  21.092  1.00  0.00    -0.000 C 
BRANCH  23  24
ATOM     24  C   UNL     1      -3.180  10.350  21.008  1.00  0.00    -0.000 C 
BRANCH  24  25
ATOM     25  C   UNL     1      -4.359  10.914  21.819  1.00  0.00    -0.003 C 
ATOM     26  C   UNL     1      -4.085  12.311  22.375  1.00  0.00     0.004 C 
ENDBRANCH  24  25
ENDBRANCH  23  24
ENDBRANCH  22  23
ENDBRANCH  21  22
ENDBRANCH  20  21
ENDBRANCH  19  20
ENDBRANCH  18  19
ENDBRANCH  17  18
ENDBRANCH  16  17
ENDBRANCH  15  16
ENDBRANCH   1  15
TORSDOF 22
ENDMDL
MODEL 7
REMARK VINA RESULT:    -5.332      2.590      9.870
REMARK INTER + INTRA:         -14.534
REMARK INTER:                 -11.634
REMARK INTRA:                  -2.900
REMARK UNBOUND:                -2.344
REMARK SMILES CCCCCCCCCCCCCCCCCCCCCCCC(=O)[O-]
REMARK SMILES IDX 13 1 14 2 15 3 16 4 17 5 18 6 19 7 20 8 21 9 22 10 23 11
REMARK SMILES IDX 24 12 25 13 26 14 12 15 11 16 10 17 9 18 8 19 7 20 6 21 5 22
REMARK SMILES IDX 4 23 3 24 2 25 1 26
REMARK H PARENT
REMARK Flexibility Score: inf
ROOT
ATOM      1  C   UNL     1       2.437  14.650  24.598  1.00  0.00     0.000 C 
ENDROOT
BRANCH   1   2
ATOM      2  C   UNL     1       1.017  14.862  25.150  1.00  0.00     0.000 C 
BRANCH   2   3
ATOM      3  C   UNL     1       0.534  13.672  25.998  1.00  0.00     0.000 C 
BRANCH   3   4
ATOM      4  C   UNL     1       1.475  12.454  25.888  1.00  0.00     0.000 C 
BRANCH   4   5
ATOM      5  C   UNL     1       0.742  11.101  25.876  1.00  0.00     0.000 C 
BRANCH   5   6
ATOM      6  C   UNL     1      -0.788  11.250  25.876  1.00  0.00     0.000 C 
BRANCH   6   7
ATOM      7  C   UNL     1      -1.515   9.896  25.917  1.00  0.00     0.000 C 
BRANCH   7   8
ATOM      8  C   UNL     1      -0.921   8.876  24.931  1.00  0.00     0.000 C 
BRANCH   8   9
ATOM      9  C   UNL     1      -1.437   9.074  23.496  1.00  0.00     0.000 C 
BRANCH   9  10
ATOM     10  C   UNL     1      -2.804   8.408  23.259  1.00  0.00     0.006 C 
BRANCH  10  11
ATOM     11  C   UNL     1      -3.816   9.373  22.625  1.00  0.00     0.053 C 
BRANCH  11  12
ATOM     12  C   UNL     1      -3.255  10.049  21.411  1.00  0.00     0.041 C 
ATOM     13  O   UNL     1      -3.179  11.305  21.364  1.00  0.00    -0.550 OA
ATOM     14  O   UNL     1      -2.787   9.290  20.345  1.00  0.00    -0.550 OA
ENDBRANCH  11  12
ENDBRANCH  10  11
ENDBRANCH   9  10
ENDBRANCH   8   9
ENDBRANCH   7   8
ENDBRANCH   6   7
ENDBRANCH   5   6
ENDBRANCH   4   5
ENDBRANCH   3   4
ENDBRANCH   2   3
ENDBRANCH   1   2
BRANCH   1  15
ATOM     15  C   UNL     1       2.788  15.648  23.480  1.00  0.00     0.000 C 
BRANCH  15  16
ATOM     16  C   UNL     1       4.100  16.400  23.758  1.00  0.00     0.000 C 
BRANCH  16  17
ATOM     17  C   UNL     1       4.146  17.769  23.061  1.00  0.00     0.000 C 
BRANCH  17  18
ATOM     18  C   UNL     1       4.799  18.822  23.963  1.00  0.00    -0.000 C 
BRANCH  18  19
ATOM     19  C   UNL     1       4.600  20.234  23.392  1.00  0.00    -0.000 C 
BRANCH  19  20
ATOM     20  C   UNL     1       3.897  20.217  22.019  1.00  0.00    -0.000 C 
BRANCH  20  21
ATOM     21  C   UNL     1       2.738  21.224  21.902  1.00  0.00    -0.000 C 
BRANCH  21  22
ATOM     22  C   UNL     1       1.667  21.027  22.986  1.00  0.00    -0.000 C 
BRANCH  22  23
ATOM     23  C   UNL     1       0.813  19.763  22.768  1.00  0.00    -0.000 C 
BRANCH  23  24
ATOM     24  C   UNL     1       0.789  18.770  23.949  1.00  0.00    -0.000 C 
BRANCH  24  25
ATOM     25  C   UNL     1       1.253  19.348  25.297  1.00  0.00    -0.003 C 
ATOM     26  C   UNL     1       1.900  18.301  26.202  1.00  0.00     0.004 C 
ENDBRANCH  24  25
ENDBRANCH  23  24
ENDBRANCH  22  23
ENDBRANCH  21  22
ENDBRANCH  20  21
ENDBRANCH  19  20
ENDBRANCH  18  19
ENDBRANCH  17  18
ENDBRANCH  16  17
ENDBRANCH  15  16
ENDBRANCH   1  15
TORSDOF 22
ENDMDL
MODEL 8
REMARK VINA RESULT:    -5.328      2.061      4.097
REMARK INTER + INTRA:         -14.524
REMARK INTER:                 -12.263
REMARK INTRA:                  -2.261
REMARK UNBOUND:                -2.344
REMARK SMILES CCCCCCCCCCCCCCCCCCCCCCCC(=O)[O-]
REMARK SMILES IDX 13 1 14 2 15 3 16 4 17 5 18 6 19 7 20 8 21 9 22 10 23 11
REMARK SMILES IDX 24 12 25 13 26 14 12 15 11 16 10 17 9 18 8 19 7 20 6 21 5 22
REMARK SMILES IDX 4 23 3 24 2 25 1 26
REMARK H PARENT
REMARK Flexibility Score: inf
ROOT
ATOM      1  C   UNL     1      -2.352  12.239  26.077  1.00  0.00     0.000 C 
ENDROOT
BRANCH   1   2
ATOM      2  C   UNL     1      -1.370  13.254  26.687  1.00  0.00     0.000 C 
BRANCH   2   3
ATOM      3  C   UNL     1       0.064  13.074  26.157  1.00  0.00     0.000 C 
BRANCH   3   4
ATOM      4  C   UNL     1       0.871  14.388  26.192  1.00  0.00     0.000 C 
BRANCH   4   5
ATOM      5  C   UNL     1       1.378  14.843  24.813  1.00  0.00     0.000 C 
BRANCH   5   6
ATOM      6  C   UNL     1       2.738  14.230  24.443  1.00  0.00     0.000 C 
BRANCH   6   7
ATOM      7  C   UNL     1       3.835  15.290  24.253  1.00  0.00     0.000 C 
BRANCH   7   8
ATOM      8  C   UNL     1       3.262  16.687  23.959  1.00  0.00     0.000 C 
BRANCH   8   9
ATOM      9  C   UNL     1       4.278  17.605  23.260  1.00  0.00     0.000 C 
BRANCH   9  10
ATOM     10  C   UNL     1       3.656  18.933  22.793  1.00  0.00     0.006 C 
BRANCH  10  11
ATOM     11  C   UNL     1       4.662  19.806  22.029  1.00  0.00     0.053 C 
BRANCH  11  12
ATOM     12  C   UNL     1       4.051  21.101  21.587  1.00  0.00     0.041 C 
ATOM     13  O   UNL     1       4.785  22.094  21.338  1.00  0.00    -0.550 OA
ATOM     14  O   UNL     1       2.675  21.201  21.418  1.00  0.00    -0.550 OA
ENDBRANCH  11  12
ENDBRANCH  10  11
ENDBRANCH   9  10
ENDBRANCH   8   9
ENDBRANCH   7   8
ENDBRANCH   6   7
ENDBRANCH   5   6
ENDBRANCH   4   5
ENDBRANCH   3   4
ENDBRANCH   2   3
ENDBRANCH   1   2
BRANCH   1  15
ATOM     15  C   UNL     1      -2.252  12.173  24.543  1.00  0.00     0.000 C 
BRANCH  15  16
ATOM     16  C   UNL     1      -3.501  11.548  23.902  1.00  0.00     0.000 C 
BRANCH  16  17
ATOM     17  C   UNL     1      -3.883  12.232  22.580  1.00  0.00     0.000 C 
BRANCH  17  18
ATOM     18  C   UNL     1      -3.303  11.475  21.381  1.00  0.00    -0.000 C 
BRANCH  18  19
ATOM     19  C   UNL     1      -3.773  10.013  21.373  1.00  0.00    -0.000 C 
BRANCH  19  20
ATOM     20  C   UNL     1      -2.638   9.034  21.009  1.00  0.00    -0.000 C 
BRANCH  20  21
ATOM     21  C   UNL     1      -2.086   8.248  22.212  1.00  0.00    -0.000 C 
BRANCH  21  22
ATOM     22  C   UNL     1      -1.004   9.023  22.982  1.00  0.00    -0.000 C 
BRANCH  22  23
ATOM     23  C   UNL     1      -0.951   8.660  24.479  1.00  0.00    -0.000 C 
BRANCH  23  24
ATOM     24  C   UNL     1       0.003   9.520  25.333  1.00  0.00    -0.000 C 
BRANCH  24  25
ATOM     25  C   UNL     1       1.457   9.576  24.832  1.00  0.00    -0.003 C 
ATOM     26  C   UNL     1       2.399  10.268  25.817  1.00  0.00     0.004 C 
ENDBRANCH  24  25
ENDBRANCH  23  24
ENDBRANCH  22  23
ENDBRANCH  21  22
ENDBRANCH  20  21
ENDBRANCH  19  20
ENDBRANCH  18  19
ENDBRANCH  17  18
ENDBRANCH  16  17
ENDBRANCH  15  16
ENDBRANCH   1  15
TORSDOF 22
ENDMDL
MODEL 9
REMARK VINA RESULT:    -5.303      2.890      9.734
REMARK INTER + INTRA:         -14.469
REMARK INTER:                 -11.977
REMARK INTRA:                  -2.492
REMARK UNBOUND:                -2.344
REMARK SMILES CCCCCCCCCCCCCCCCCCCCCCCC(=O)[O-]
REMARK SMILES IDX 13 1 14 2 15 3 16 4 17 5 18 6 19 7 20 8 21 9 22 10 23 11
REMARK SMILES IDX 24 12 25 13 26 14 12 15 11 16 10 17 9 18 8 19 7 20 6 21 5 22
REMARK SMILES IDX 4 23 3 24 2 25 1 26
REMARK H PARENT
REMARK Flexibility Score: inf
ROOT
ATOM      1  C   UNL     1       0.610  14.018  25.909  1.00  0.00     0.000 C 
ENDROOT
BRANCH   1   2
ATOM      2  C   UNL     1       0.696  12.497  26.128  1.00  0.00     0.000 C 
BRANCH   2   3
ATOM      3  C   UNL     1      -0.679  11.867  26.410  1.00  0.00     0.000 C 
BRANCH   3   4
ATOM      4  C   UNL     1      -0.788  10.429  25.861  1.00  0.00     0.000 C 
BRANCH   4   5
ATOM      5  C   UNL     1      -2.230   9.896  25.796  1.00  0.00     0.000 C 
BRANCH   5   6
ATOM      6  C   UNL     1      -3.272  11.010  25.607  1.00  0.00     0.000 C 
BRANCH   6   7
ATOM      7  C   UNL     1      -3.866  11.034  24.189  1.00  0.00     0.000 C 
BRANCH   7   8
ATOM      8  C   UNL     1      -3.009  11.847  23.204  1.00  0.00     0.000 C 
BRANCH   8   9
ATOM      9  C   UNL     1      -3.220  11.413  21.744  1.00  0.00     0.000 C 
BRANCH   9  10
ATOM     10  C   UNL     1      -3.766   9.980  21.622  1.00  0.00     0.006 C 
BRANCH  10  11
ATOM     11  C   UNL     1      -2.680   8.980  21.200  1.00  0.00     0.053 C 
BRANCH  11  12
ATOM     12  C   UNL     1      -1.924   8.449  22.381  1.00  0.00     0.041 C 
ATOM     13  O   UNL     1      -2.466   7.617  23.156  1.00  0.00    -0.550 OA
ATOM     14  O   UNL     1      -0.613   8.850  22.606  1.00  0.00    -0.550 OA
ENDBRANCH  11  12
ENDBRANCH  10  11
ENDBRANCH   9  10
ENDBRANCH   8   9
ENDBRANCH   7   8
ENDBRANCH   6   7
ENDBRANCH   5   6
ENDBRANCH   4   5
ENDBRANCH   3   4
ENDBRANCH   2   3
ENDBRANCH   1   2
BRANCH   1  15
ATOM     15  C   UNL     1       1.899  14.596  25.297  1.00  0.00     0.000 C 
BRANCH  15  16
ATOM     16  C   UNL     1       1.618  15.479  24.070  1.00  0.00     0.000 C 
BRANCH  16  17
ATOM     17  C   UNL     1       2.299  16.852  24.171  1.00  0.00     0.000 C 
BRANCH  17  18
ATOM     18  C   UNL     1       3.577  16.896  23.328  1.00  0.00    -0.000 C 
BRANCH  18  19
ATOM     19  C   UNL     1       4.436  18.117  23.693  1.00  0.00    -0.000 C 
BRANCH  19  20
ATOM     20  C   UNL     1       3.747  19.028  24.729  1.00  0.00    -0.000 C 
BRANCH  20  21
ATOM     21  C   UNL     1       3.531  20.472  24.240  1.00  0.00    -0.000 C 
BRANCH  21  22
ATOM     22  C   UNL     1       3.135  20.544  22.756  1.00  0.00    -0.000 C 
BRANCH  22  23
ATOM     23  C   UNL     1       1.652  20.907  22.544  1.00  0.00    -0.000 C 
BRANCH  23  24
ATOM     24  C   UNL     1       0.727  19.724  22.189  1.00  0.00    -0.000 C 
BRANCH  24  25
ATOM     25  C   UNL     1      -0.197  19.253  23.325  1.00  0.00    -0.003 C 
ATOM     26  C   UNL     1      -0.205  20.207  24.519  1.00  0.00     0.004 C 
ENDBRANCH  24  25
ENDBRANCH  23  24
ENDBRANCH  22  23
ENDBRANCH  21  22
ENDBRANCH  20  21
ENDBRANCH  19  20
ENDBRANCH  18  19
ENDBRANCH  17  18
ENDBRANCH  16  17
ENDBRANCH  15  16
ENDBRANCH   1  15
TORSDOF 22
ENDMDL
