MODEL 1
REMARK VINA RESULT:    -3.945      0.000      0.000
REMARK INTER + INTRA:          -5.222
REMARK INTER:                  -5.560
REMARK INTRA:                   0.338
REMARK UNBOUND:                 0.338
REMARK SMILES CC1=CCC(=C(C)C)C(=O)CC(C)=CCC1
REMARK SMILES IDX 12 1 14 2 13 3 15 4 16 5 2 6 1 7 3 8 11 10 9 11 10 12 5 13
REMARK SMILES IDX 6 14 7 15 8 16 4 17
REMARK H PARENT
REMARK Flexibility Score: 60.00
ROOT
ATOM      1  C   UNL     1      14.310  18.539  17.715  1.00  0.00    -0.070 C 
ATOM      2  C   UNL     1      13.375  19.448  18.067  1.00  0.00    -0.027 C 
ATOM      3  C   UNL     1      15.714  18.736  18.228  1.00  0.00     0.039 C 
ENDROOT
BRANCH   2   4
ATOM      4  C   UNL     1      11.900  19.371  17.736  1.00  0.00     0.032 C 
BRANCH   4   5
ATOM      5  C   UNL     1      11.540  19.772  16.290  1.00  0.00     0.034 C 
BRANCH   5   6
ATOM      6  C   UNL     1      10.596  18.793  15.616  1.00  0.00    -0.077 C 
ATOM      7  C   UNL     1       9.197  18.674  16.167  1.00  0.00     0.039 C 
ATOM      8  C   UNL     1      10.906  18.070  14.511  1.00  0.00    -0.023 CG0
ATOM      9  G   UNL     1      12.244  18.014  13.801  1.00  0.00     0.000 G0
ENDBRANCH   5   6
ENDBRANCH   4   5
ENDBRANCH   2   4
BRANCH   1  10
ATOM     10  C   UNL     1      13.998  17.291  16.913  1.00  0.00     0.111 C 
BRANCH  10  11
ATOM     11  C   UNL     1      14.161  17.526  15.435  1.00  0.00     0.163 C 
ATOM     12  O   UNL     1      15.192  18.134  15.041  1.00  0.00    -0.294 OA
BRANCH  11  13
ATOM     13  C   UNL     1      13.185  17.011  14.429  1.00  0.00    -0.002 C 
ATOM     14  C   UNL     1      13.103  15.674  14.156  1.00  0.00    -0.069 C 
ATOM     15  C   UNL     1      14.096  14.692  14.738  1.00  0.00     0.039 C 
ATOM     16  C   UNL     1      12.022  15.104  13.262  1.00  0.00     0.039 C 
BRANCH  13  17
ATOM     17  C   UNL     1      12.234  18.019  13.803  1.00  0.00     0.066 CG0
ATOM     18  G   UNL     1      10.900  18.076  14.521  1.00  0.00     0.000 G0
ENDBRANCH  13  17
ENDBRANCH  11  13
ENDBRANCH  10  11
ENDBRANCH   1  10
TORSDOF 0
ENDMDL
MODEL 2
REMARK VINA RESULT:    -3.839      1.583      3.685
REMARK INTER + INTRA:          -5.073
REMARK INTER:                  -5.276
REMARK INTRA:                   0.204
REMARK UNBOUND:                 0.338
REMARK SMILES CC1=CCC(=C(C)C)C(=O)CC(C)=CCC1
REMARK SMILES IDX 12 1 14 2 13 3 15 4 16 5 2 6 1 7 3 8 11 10 9 11 10 12 5 13
REMARK SMILES IDX 6 14 7 15 8 16 4 17
REMARK H PARENT
REMARK Flexibility Score: 60.00
ROOT
ATOM      1  C   UNL     1      13.318  19.383  17.243  1.00  0.00    -0.070 C 
ATOM      2  C   UNL     1      14.265  18.481  17.583  1.00  0.00    -0.027 C 
ATOM      3  C   UNL     1      12.121  19.523  18.149  1.00  0.00     0.039 C 
ENDROOT
BRANCH   2   4
ATOM      4  C   UNL     1      15.578  18.265  16.860  1.00  0.00     0.032 C 
BRANCH   4   5
ATOM      5  C   UNL     1      15.440  17.799  15.396  1.00  0.00     0.034 C 
BRANCH   5   6
ATOM      6  C   UNL     1      14.456  16.657  15.222  1.00  0.00    -0.077 C 
ATOM      7  C   UNL     1      14.790  15.337  15.871  1.00  0.00     0.039 C 
ATOM      8  C   UNL     1      13.266  16.765  14.580  1.00  0.00    -0.023 CG0
ATOM      9  G   UNL     1      12.732  17.977  13.843  1.00  0.00     0.000 G0
ENDBRANCH   5   6
ENDBRANCH   4   5
ENDBRANCH   2   4
BRANCH   1  10
ATOM     10  C   UNL     1      13.445  20.316  16.056  1.00  0.00     0.111 C 
BRANCH  10  11
ATOM     11  C   UNL     1      12.290  20.162  15.102  1.00  0.00     0.163 C 
ATOM     12  O   UNL     1      11.771  21.208  14.626  1.00  0.00    -0.294 OA
BRANCH  11  13
ATOM     13  C   UNL     1      11.790  18.828  14.659  1.00  0.00    -0.002 C 
ATOM     14  C   UNL     1      10.507  18.437  14.930  1.00  0.00    -0.069 C 
ATOM     15  C   UNL     1       9.606  19.267  15.817  1.00  0.00     0.039 C 
ATOM     16  C   UNL     1       9.922  17.163  14.361  1.00  0.00     0.039 C 
BRANCH  13  17
ATOM     17  C   UNL     1      12.729  17.975  13.821  1.00  0.00     0.066 CG0
ATOM     18  G   UNL     1      13.257  16.778  14.586  1.00  0.00     0.000 G0
ENDBRANCH  13  17
ENDBRANCH  11  13
ENDBRANCH  10  11
ENDBRANCH   1  10
TORSDOF 0
ENDMDL
MODEL 3
REMARK VINA RESULT:    -3.583      1.357      3.574
REMARK INTER + INTRA:          -4.711
REMARK INTER:                  -4.867
REMARK INTRA:                   0.156
REMARK UNBOUND:                 0.338
REMARK SMILES CC1=CCC(=C(C)C)C(=O)CC(C)=CCC1
REMARK SMILES IDX 12 1 14 2 13 3 15 4 16 5 2 6 1 7 3 8 11 10 9 11 10 12 5 13
REMARK SMILES IDX 6 14 7 15 8 16 4 17
REMARK H PARENT
REMARK Flexibility Score: 60.00
ROOT
ATOM      1  C   UNL     1      13.850  18.564  17.379  1.00  0.00    -0.070 C 
ATOM      2  C   UNL     1      14.731  17.608  17.011  1.00  0.00    -0.027 C 
ATOM      3  C   UNL     1      14.396  19.835  17.977  1.00  0.00     0.039 C 
ENDROOT
BRANCH   2   4
ATOM      4  C   UNL     1      14.386  16.313  16.308  1.00  0.00     0.032 C 
BRANCH   4   5
ATOM      5  C   UNL     1      14.307  16.414  14.770  1.00  0.00     0.034 C 
BRANCH   5   6
ATOM      6  C   UNL     1      13.099  15.703  14.186  1.00  0.00    -0.077 C 
ATOM      7  C   UNL     1      13.102  14.195  14.191  1.00  0.00     0.039 C 
ATOM      8  C   UNL     1      11.991  16.333  13.724  1.00  0.00    -0.023 CG0
ATOM      9  G   UNL     1      11.773  17.829  13.605  1.00  0.00     0.000 G0
ENDBRANCH   5   6
ENDBRANCH   4   5
ENDBRANCH   2   4
BRANCH   1  10
ATOM     10  C   UNL     1      12.358  18.459  17.134  1.00  0.00     0.111 C 
BRANCH  10  11
ATOM     11  C   UNL     1      11.960  19.107  15.835  1.00  0.00     0.163 C 
ATOM     12  O   UNL     1      12.429  20.247  15.572  1.00  0.00    -0.294 OA
BRANCH  11  13
ATOM     13  C   UNL     1      11.089  18.424  14.832  1.00  0.00    -0.002 C 
ATOM     14  C   UNL     1       9.730  18.415  14.978  1.00  0.00    -0.069 C 
ATOM     15  C   UNL     1       9.072  18.954  16.230  1.00  0.00     0.039 C 
ATOM     16  C   UNL     1       8.813  17.871  13.904  1.00  0.00     0.039 C 
BRANCH  13  17
ATOM     17  C   UNL     1      11.770  17.830  13.609  1.00  0.00     0.066 CG0
ATOM     18  G   UNL     1      11.968  16.333  13.730  1.00  0.00     0.000 G0
ENDBRANCH  13  17
ENDBRANCH  11  13
ENDBRANCH  10  11
ENDBRANCH   1  10
TORSDOF 0
ENDMDL
MODEL 4
REMARK VINA RESULT:    -3.343      1.898      2.648
REMARK INTER + INTRA:          -4.373
REMARK INTER:                  -4.830
REMARK INTRA:                   0.457
REMARK UNBOUND:                 0.338
REMARK SMILES CC1=CCC(=C(C)C)C(=O)CC(C)=CCC1
REMARK SMILES IDX 12 1 14 2 13 3 15 4 16 5 2 6 1 7 3 8 11 10 9 11 10 12 5 13
REMARK SMILES IDX 6 14 7 15 8 16 4 17
REMARK H PARENT
REMARK Flexibility Score: 60.00
ROOT
ATOM      1  C   UNL     1      13.913  18.381  17.326  1.00  0.00    -0.070 C 
ATOM      2  C   UNL     1      12.851  19.181  17.567  1.00  0.00    -0.027 C 
ATOM      3  C   UNL     1      15.230  18.747  17.963  1.00  0.00     0.039 C 
ENDROOT
BRANCH   2   4
ATOM      4  C   UNL     1      11.433  18.929  17.102  1.00  0.00     0.032 C 
BRANCH   4   5
ATOM      5  C   UNL     1      10.910  19.931  16.051  1.00  0.00     0.034 C 
BRANCH   5   6
ATOM      6  C   UNL     1      11.963  20.926  15.597  1.00  0.00    -0.077 C 
ATOM      7  C   UNL     1      12.057  22.235  16.340  1.00  0.00     0.039 C 
ATOM      8  C   UNL     1      12.867  20.687  14.615  1.00  0.00    -0.023 CG0
ATOM      9  G   UNL     1      12.950  19.461  13.728  1.00  0.00     0.000 G0
ENDBRANCH   5   6
ENDBRANCH   4   5
ENDBRANCH   2   4
BRANCH   1  10
ATOM     10  C   UNL     1      13.823  17.096  16.529  1.00  0.00     0.111 C 
BRANCH  10  11
ATOM     11  C   UNL     1      13.332  17.344  15.128  1.00  0.00     0.163 C 
ATOM     12  O   UNL     1      12.361  16.657  14.709  1.00  0.00    -0.294 OA
BRANCH  11  13
ATOM     13  C   UNL     1      13.908  18.408  14.253  1.00  0.00    -0.002 C 
ATOM     14  C   UNL     1      15.225  18.375  13.888  1.00  0.00    -0.069 C 
ATOM     15  C   UNL     1      16.177  17.358  14.478  1.00  0.00     0.039 C 
ATOM     16  C   UNL     1      15.802  19.345  12.880  1.00  0.00     0.039 C 
BRANCH  13  17
ATOM     17  C   UNL     1      12.952  19.462  13.717  1.00  0.00     0.066 CG0
ATOM     18  G   UNL     1      12.891  20.689  14.606  1.00  0.00     0.000 G0
ENDBRANCH  13  17
ENDBRANCH  11  13
ENDBRANCH  10  11
ENDBRANCH   1  10
TORSDOF 0
ENDMDL
MODEL 5
REMARK VINA RESULT:    -3.279      3.471      6.357
REMARK INTER + INTRA:          -4.283
REMARK INTER:                  -4.566
REMARK INTRA:                   0.284
REMARK UNBOUND:                 0.338
REMARK SMILES CC1=CCC(=C(C)C)C(=O)CC(C)=CCC1
REMARK SMILES IDX 12 1 14 2 13 3 15 4 16 5 2 6 1 7 3 8 11 10 9 11 10 12 5 13
REMARK SMILES IDX 6 14 7 15 8 16 4 17
REMARK H PARENT
REMARK Flexibility Score: 60.00
ROOT
ATOM      1  C   UNL     1       5.917  16.834  15.217  1.00  0.00    -0.070 C 
ATOM      2  C   UNL     1       5.758  15.711  14.482  1.00  0.00    -0.027 C 
ATOM      3  C   UNL     1       4.702  17.689  15.470  1.00  0.00     0.039 C 
ENDROOT
BRANCH   2   4
ATOM      4  C   UNL     1       6.830  14.679  14.203  1.00  0.00     0.032 C 
BRANCH   4   5
ATOM      5  C   UNL     1       7.711  14.978  12.972  1.00  0.00     0.034 C 
BRANCH   5   6
ATOM      6  C   UNL     1       9.195  15.000  13.290  1.00  0.00    -0.077 C 
ATOM      7  C   UNL     1       9.895  13.676  13.466  1.00  0.00     0.039 C 
ATOM      8  C   UNL     1       9.945  16.128  13.358  1.00  0.00    -0.023 CG0
ATOM      9  G   UNL     1       9.459  17.558  13.235  1.00  0.00     0.000 G0
ENDBRANCH   5   6
ENDBRANCH   4   5
ENDBRANCH   2   4
BRANCH   1  10
ATOM     10  C   UNL     1       7.228  17.222  15.870  1.00  0.00     0.111 C 
BRANCH  10  11
ATOM     11  C   UNL     1       7.900  18.354  15.139  1.00  0.00     0.163 C 
ATOM     12  O   UNL     1       7.275  19.444  15.032  1.00  0.00    -0.294 OA
BRANCH  11  13
ATOM     13  C   UNL     1       9.288  18.249  14.600  1.00  0.00    -0.002 C 
ATOM     14  C   UNL     1      10.358  18.677  15.337  1.00  0.00    -0.069 C 
ATOM     15  C   UNL     1      10.165  19.411  16.645  1.00  0.00     0.039 C 
ATOM     16  C   UNL     1      11.784  18.442  14.888  1.00  0.00     0.039 C 
BRANCH  13  17
ATOM     17  C   UNL     1       9.462  17.566  13.253  1.00  0.00     0.066 CG0
ATOM     18  G   UNL     1       9.950  16.137  13.391  1.00  0.00     0.000 G0
ENDBRANCH  13  17
ENDBRANCH  11  13
ENDBRANCH  10  11
ENDBRANCH   1  10
TORSDOF 0
ENDMDL
MODEL 6
REMARK VINA RESULT:    -3.241      1.697      2.597
REMARK INTER + INTRA:          -4.230
REMARK INTER:                  -4.442
REMARK INTRA:                   0.211
REMARK UNBOUND:                 0.338
REMARK SMILES CC1=CCC(=C(C)C)C(=O)CC(C)=CCC1
REMARK SMILES IDX 12 1 14 2 13 3 15 4 16 5 2 6 1 7 3 8 11 10 9 11 10 12 5 13
REMARK SMILES IDX 6 14 7 15 8 16 4 17
REMARK H PARENT
REMARK Flexibility Score: 60.00
ROOT
ATOM      1  C   UNL     1      11.430  19.943  16.318  1.00  0.00    -0.070 C 
ATOM      2  C   UNL     1      10.102  19.969  16.069  1.00  0.00    -0.027 C 
ATOM      3  C   UNL     1      12.113  21.248  16.641  1.00  0.00     0.039 C 
ENDROOT
BRANCH   2   4
ATOM      4  C   UNL     1       9.226  18.759  15.824  1.00  0.00     0.032 C 
BRANCH   4   5
ATOM      5  C   UNL     1       9.224  18.247  14.368  1.00  0.00     0.034 C 
BRANCH   5   6
ATOM      6  C   UNL     1       9.465  16.752  14.260  1.00  0.00    -0.077 C 
ATOM      7  C   UNL     1       8.346  15.829  14.673  1.00  0.00     0.039 C 
ATOM      8  C   UNL     1      10.593  16.195  13.753  1.00  0.00    -0.023 CG0
ATOM      9  G   UNL     1      11.844  16.918  13.297  1.00  0.00     0.000 G0
ENDBRANCH   5   6
ENDBRANCH   4   5
ENDBRANCH   2   4
BRANCH   1  10
ATOM     10  C   UNL     1      12.240  18.664  16.378  1.00  0.00     0.111 C 
BRANCH  10  11
ATOM     11  C   UNL     1      12.949  18.393  15.077  1.00  0.00     0.163 C 
ATOM     12  O   UNL     1      13.663  19.309  14.588  1.00  0.00    -0.294 OA
BRANCH  11  13
ATOM     13  C   UNL     1      12.884  17.069  14.390  1.00  0.00    -0.002 C 
ATOM     14  C   UNL     1      13.664  16.026  14.807  1.00  0.00    -0.069 C 
ATOM     15  C   UNL     1      14.727  16.217  15.867  1.00  0.00     0.039 C 
ATOM     16  C   UNL     1      13.510  14.633  14.237  1.00  0.00     0.039 C 
BRANCH  13  17
ATOM     17  C   UNL     1      11.854  16.909  13.283  1.00  0.00     0.066 CG0
ATOM     18  G   UNL     1      10.605  16.192  13.756  1.00  0.00     0.000 G0
ENDBRANCH  13  17
ENDBRANCH  11  13
ENDBRANCH  10  11
ENDBRANCH   1  10
TORSDOF 0
ENDMDL
MODEL 7
REMARK VINA RESULT:    -3.215      1.407      2.030
REMARK INTER + INTRA:          -4.193
REMARK INTER:                  -4.954
REMARK INTRA:                   0.760
REMARK UNBOUND:                 0.338
REMARK SMILES CC1=CCC(=C(C)C)C(=O)CC(C)=CCC1
REMARK SMILES IDX 12 1 14 2 13 3 15 4 16 5 2 6 1 7 3 8 11 10 9 11 10 12 5 13
REMARK SMILES IDX 6 14 7 15 8 16 4 17
REMARK H PARENT
REMARK Flexibility Score: 60.00
ROOT
ATOM      1  C   UNL     1      14.173  19.532  17.636  1.00  0.00    -0.070 C 
ATOM      2  C   UNL     1      12.896  19.506  18.078  1.00  0.00    -0.027 C 
ATOM      3  C   UNL     1      15.209  18.773  18.425  1.00  0.00     0.039 C 
ENDROOT
BRANCH   2   4
ATOM      4  C   UNL     1      11.705  20.120  17.375  1.00  0.00     0.032 C 
BRANCH   4   5
ATOM      5  C   UNL     1      10.696  19.102  16.803  1.00  0.00     0.034 C 
BRANCH   5   6
ATOM      6  C   UNL     1      10.750  18.993  15.290  1.00  0.00    -0.077 C 
ATOM      7  C   UNL     1       9.783  19.830  14.491  1.00  0.00     0.039 C 
ATOM      8  C   UNL     1      11.654  18.245  14.610  1.00  0.00    -0.023 CG0
ATOM      9  G   UNL     1      12.700  17.317  15.196  1.00  0.00     0.000 G0
ENDBRANCH   5   6
ENDBRANCH   4   5
ENDBRANCH   2   4
BRANCH   1  10
ATOM     10  C   UNL     1      14.592  20.205  16.345  1.00  0.00     0.111 C 
BRANCH  10  11
ATOM     11  C   UNL     1      14.207  19.387  15.140  1.00  0.00     0.163 C 
ATOM     12  O   UNL     1      14.024  19.989  14.048  1.00  0.00    -0.294 OA
BRANCH  11  13
ATOM     13  C   UNL     1      14.101  17.899  15.184  1.00  0.00    -0.002 C 
ATOM     14  C   UNL     1      15.219  17.121  15.297  1.00  0.00    -0.069 C 
ATOM     15  C   UNL     1      16.605  17.724  15.223  1.00  0.00     0.039 C 
ATOM     16  C   UNL     1      15.136  15.624  15.501  1.00  0.00     0.039 C 
BRANCH  13  17
ATOM     17  C   UNL     1      12.702  17.301  15.193  1.00  0.00     0.066 CG0
ATOM     18  G   UNL     1      11.669  18.245  14.611  1.00  0.00     0.000 G0
ENDBRANCH  13  17
ENDBRANCH  11  13
ENDBRANCH  10  11
ENDBRANCH   1  10
TORSDOF 0
ENDMDL
MODEL 8
REMARK VINA RESULT:    -3.202      1.987      4.886
REMARK INTER + INTRA:          -4.174
REMARK INTER:                  -4.370
REMARK INTRA:                   0.196
REMARK UNBOUND:                 0.338
REMARK SMILES CC1=CCC(=C(C)C)C(=O)CC(C)=CCC1
REMARK SMILES IDX 12 1 14 2 13 3 15 4 16 5 2 6 1 7 3 8 11 10 9 11 10 12 5 13
REMARK SMILES IDX 6 14 7 15 8 16 4 17
REMARK H PARENT
REMARK Flexibility Score: 60.00
ROOT
ATOM      1  C   UNL     1      13.046  16.311  13.881  1.00  0.00    -0.070 C 
ATOM      2  C   UNL     1      13.900  15.800  14.795  1.00  0.00    -0.027 C 
ATOM      3  C   UNL     1      12.195  15.346  13.095  1.00  0.00     0.039 C 
ENDROOT
BRANCH   2   4
ATOM      4  C   UNL     1      14.762  16.605  15.745  1.00  0.00     0.032 C 
BRANCH   4   5
ATOM      5  C   UNL     1      14.069  17.008  17.063  1.00  0.00     0.034 C 
BRANCH   5   6
ATOM      6  C   UNL     1      14.386  18.429  17.495  1.00  0.00    -0.077 C 
ATOM      7  C   UNL     1      15.772  18.710  18.019  1.00  0.00     0.039 C 
ATOM      8  C   UNL     1      13.528  19.472  17.376  1.00  0.00    -0.023 CG0
ATOM      9  G   UNL     1      12.090  19.425  16.898  1.00  0.00     0.000 G0
ENDBRANCH   5   6
ENDBRANCH   4   5
ENDBRANCH   2   4
BRANCH   1  10
ATOM     10  C   UNL     1      12.840  17.798  13.674  1.00  0.00     0.111 C 
BRANCH  10  11
ATOM     11  C   UNL     1      11.765  18.340  14.578  1.00  0.00     0.163 C 
ATOM     12  O   UNL     1      10.694  17.684  14.688  1.00  0.00    -0.294 OA
BRANCH  11  13
ATOM     13  C   UNL     1      11.949  19.582  15.387  1.00  0.00    -0.002 C 
ATOM     14  C   UNL     1      11.919  20.813  14.793  1.00  0.00    -0.069 C 
ATOM     15  C   UNL     1      11.858  20.957  13.288  1.00  0.00     0.039 C 
ATOM     16  C   UNL     1      11.945  22.093  15.601  1.00  0.00     0.039 C 
BRANCH  13  17
ATOM     17  C   UNL     1      12.073  19.420  16.894  1.00  0.00     0.066 CG0
ATOM     18  G   UNL     1      13.515  19.467  17.361  1.00  0.00     0.000 G0
ENDBRANCH  13  17
ENDBRANCH  11  13
ENDBRANCH  10  11
ENDBRANCH   1  10
TORSDOF 0
ENDMDL
MODEL 9
REMARK VINA RESULT:    -2.992      1.902      4.056
REMARK INTER + INTRA:          -3.879
REMARK INTER:                  -4.455
REMARK INTRA:                   0.576
REMARK UNBOUND:                 0.338
REMARK SMILES CC1=CCC(=C(C)C)C(=O)CC(C)=CCC1
REMARK SMILES IDX 12 1 14 2 13 3 15 4 16 5 2 6 1 7 3 8 11 10 9 11 10 12 5 13
REMARK SMILES IDX 6 14 7 15 8 16 4 17
REMARK H PARENT
REMARK Flexibility Score: 60.00
ROOT
ATOM      1  C   UNL     1      14.354  18.256  17.228  1.00  0.00    -0.070 C 
ATOM      2  C   UNL     1      15.093  17.283  16.651  1.00  0.00    -0.027 C 
ATOM      3  C   UNL     1      15.076  19.464  17.767  1.00  0.00     0.039 C 
ENDROOT
BRANCH   2   4
ATOM      4  C   UNL     1      14.547  16.046  15.969  1.00  0.00     0.032 C 
BRANCH   4   5
ATOM      5  C   UNL     1      14.761  16.003  14.441  1.00  0.00     0.034 C 
BRANCH   5   6
ATOM      6  C   UNL     1      13.513  16.355  13.652  1.00  0.00    -0.077 C 
ATOM      7  C   UNL     1      12.682  15.219  13.111  1.00  0.00     0.039 C 
ATOM      8  C   UNL     1      13.061  17.619  13.462  1.00  0.00    -0.023 CG0
ATOM      9  G   UNL     1      13.735  18.906  13.894  1.00  0.00     0.000 G0
ENDBRANCH   5   6
ENDBRANCH   4   5
ENDBRANCH   2   4
BRANCH   1  10
ATOM     10  C   UNL     1      12.839  18.232  17.275  1.00  0.00     0.111 C 
BRANCH  10  11
ATOM     11  C   UNL     1      12.235  18.734  15.991  1.00  0.00     0.163 C 
ATOM     12  O   UNL     1      11.030  18.451  15.751  1.00  0.00    -0.294 OA
BRANCH  11  13
ATOM     13  C   UNL     1      12.988  19.599  15.035  1.00  0.00    -0.002 C 
ATOM     14  C   UNL     1      13.071  20.950  15.230  1.00  0.00    -0.069 C 
ATOM     15  C   UNL     1      12.278  21.634  16.323  1.00  0.00     0.039 C 
ATOM     16  C   UNL     1      13.953  21.831  14.373  1.00  0.00     0.039 C 
BRANCH  13  17
ATOM     17  C   UNL     1      13.729  18.905  13.903  1.00  0.00     0.066 CG0
ATOM     18  G   UNL     1      13.047  17.622  13.470  1.00  0.00     0.000 G0
ENDBRANCH  13  17
ENDBRANCH  11  13
ENDBRANCH  10  11
ENDBRANCH   1  10
TORSDOF 0
ENDMDL
