MODEL 1
REMARK VINA RESULT:    -5.025      0.000      0.000
REMARK INTER + INTRA:          -6.151
REMARK INTER:                  -5.907
REMARK INTRA:                  -0.245
REMARK UNBOUND:                -0.245
REMARK SMILES O=c1c(O)c(-c2ccc(O)cc2)oc2cc(O)cc(O)c12
REMARK SMILES IDX 5 1 3 2 2 3 1 4 21 5 19 6 18 7 16 8 15 9 14 10 13 11 6 12
REMARK SMILES IDX 7 13 8 14 9 15 12 16 11 17 10 18 4 20 20 22 17 24
REMARK H PARENT 10 19 4 21 20 23 17 25
REMARK Flexibility Score: inf
ROOT
ATOM      1  C   UNL     1      14.951  48.429  30.782  1.00  0.00     0.180 A 
ATOM      2  C   UNL     1      15.023  49.832  30.758  1.00  0.00     0.208 A 
ATOM      3  C   UNL     1      15.703  50.462  29.702  1.00  0.00     0.238 A 
ATOM      4  O   UNL     1      15.717  51.719  29.657  1.00  0.00    -0.285 OA
ATOM      5  C   UNL     1      16.314  49.680  28.693  1.00  0.00     0.111 A 
ATOM      6  C   UNL     1      17.062  50.210  27.599  1.00  0.00     0.134 A 
ATOM      7  C   UNL     1      17.512  49.350  26.589  1.00  0.00     0.093 A 
ATOM      8  C   UNL     1      17.298  47.975  26.666  1.00  0.00     0.123 A 
ATOM      9  C   UNL     1      16.620  47.439  27.762  1.00  0.00     0.094 A 
ATOM     10  C   UNL     1      16.127  48.275  28.767  1.00  0.00     0.146 A 
ATOM     11  O   UNL     1      15.479  47.727  29.787  1.00  0.00    -0.452 OA
ENDROOT
BRANCH   1  12
ATOM     12  C   UNL     1      14.275  47.693  31.875  1.00  0.00     0.021 A 
ATOM     13  C   UNL     1      12.874  47.587  31.874  1.00  0.00     0.016 A 
ATOM     14  C   UNL     1      12.217  46.878  32.884  1.00  0.00     0.047 A 
ATOM     15  C   UNL     1      12.953  46.253  33.898  1.00  0.00     0.115 A 
ATOM     16  C   UNL     1      15.009  47.045  32.886  1.00  0.00     0.016 A 
ATOM     17  C   UNL     1      14.349  46.336  33.895  1.00  0.00     0.047 A 
BRANCH  15  18
ATOM     18  O   UNL     1      12.310  45.543  34.910  1.00  0.00    -0.508 OA
ATOM     19  H   UNL     1      12.634  45.577  35.870  1.00  0.00     0.293 HD
ENDBRANCH  15  18
ENDBRANCH   1  12
BRANCH   2  20
ATOM     20  O   UNL     1      14.393  50.586  31.753  1.00  0.00    -0.502 OA
ATOM     21  H   UNL     1      13.915  50.159  32.537  1.00  0.00     0.293 HD
ENDBRANCH   2  20
BRANCH   6  22
ATOM     22  O   UNL     1      17.411  51.558  27.473  1.00  0.00    -0.507 OA
ATOM     23  H   UNL     1      16.753  52.322  27.442  1.00  0.00     0.293 HD
ENDBRANCH   6  22
BRANCH   8  24
ATOM     24  O   UNL     1      17.773  47.148  25.651  1.00  0.00    -0.508 OA
ATOM     25  H   UNL     1      18.610  46.589  25.770  1.00  0.00     0.293 HD
ENDBRANCH   8  24
TORSDOF 5
ENDMDL
MODEL 2
REMARK VINA RESULT:    -5.004      1.878      3.525
REMARK INTER + INTRA:          -6.126
REMARK INTER:                  -6.320
REMARK INTRA:                   0.193
REMARK UNBOUND:                -0.245
REMARK SMILES O=c1c(O)c(-c2ccc(O)cc2)oc2cc(O)cc(O)c12
REMARK SMILES IDX 5 1 3 2 2 3 1 4 21 5 19 6 18 7 16 8 15 9 14 10 13 11 6 12
REMARK SMILES IDX 7 13 8 14 9 15 12 16 11 17 10 18 4 20 20 22 17 24
REMARK H PARENT 10 19 4 21 20 23 17 25
REMARK Flexibility Score: inf
ROOT
ATOM      1  C   UNL     1      14.270  47.717  31.941  1.00  0.00     0.180 A 
ATOM      2  C   UNL     1      15.438  47.145  31.408  1.00  0.00     0.208 A 
ATOM      3  C   UNL     1      16.226  47.902  30.525  1.00  0.00     0.238 A 
ATOM      4  O   UNL     1      17.299  47.404  30.094  1.00  0.00    -0.285 OA
ATOM      5  C   UNL     1      15.829  49.214  30.175  1.00  0.00     0.111 A 
ATOM      6  C   UNL     1      16.529  50.056  29.260  1.00  0.00     0.134 A 
ATOM      7  C   UNL     1      16.117  51.383  29.088  1.00  0.00     0.093 A 
ATOM      8  C   UNL     1      14.994  51.879  29.746  1.00  0.00     0.123 A 
ATOM      9  C   UNL     1      14.265  51.047  30.598  1.00  0.00     0.094 A 
ATOM     10  C   UNL     1      14.673  49.729  30.818  1.00  0.00     0.146 A 
ATOM     11  O   UNL     1      13.960  48.974  31.644  1.00  0.00    -0.452 OA
ENDROOT
BRANCH   1  12
ATOM     12  C   UNL     1      13.375  46.974  32.857  1.00  0.00     0.021 A 
ATOM     13  C   UNL     1      13.930  46.195  33.885  1.00  0.00     0.016 A 
ATOM     14  C   UNL     1      13.103  45.503  34.775  1.00  0.00     0.047 A 
ATOM     15  C   UNL     1      11.710  45.594  34.657  1.00  0.00     0.115 A 
ATOM     16  C   UNL     1      11.975  47.077  32.757  1.00  0.00     0.016 A 
ATOM     17  C   UNL     1      11.150  46.385  33.648  1.00  0.00     0.047 A 
BRANCH  15  18
ATOM     18  O   UNL     1      10.875  44.910  35.537  1.00  0.00    -0.508 OA
ATOM     19  H   UNL     1       9.928  44.657  35.280  1.00  0.00     0.293 HD
ENDBRANCH  15  18
ENDBRANCH   1  12
BRANCH   2  20
ATOM     20  O   UNL     1      15.824  45.856  31.784  1.00  0.00    -0.502 OA
ATOM     21  H   UNL     1      16.552  45.683  32.466  1.00  0.00     0.293 HD
ENDBRANCH   2  20
BRANCH   6  22
ATOM     22  O   UNL     1      17.610  49.632  28.480  1.00  0.00    -0.507 OA
ATOM     23  H   UNL     1      18.241  50.247  27.989  1.00  0.00     0.293 HD
ENDBRANCH   6  22
BRANCH   8  24
ATOM     24  O   UNL     1      14.603  53.200  29.540  1.00  0.00    -0.508 OA
ATOM     25  H   UNL     1      15.238  53.887  29.149  1.00  0.00     0.293 HD
ENDBRANCH   8  24
TORSDOF 5
ENDMDL
MODEL 3
REMARK VINA RESULT:    -4.891      3.436      6.201
REMARK INTER + INTRA:          -5.993
REMARK INTER:                  -5.699
REMARK INTRA:                  -0.294
REMARK UNBOUND:                -0.245
REMARK SMILES O=c1c(O)c(-c2ccc(O)cc2)oc2cc(O)cc(O)c12
REMARK SMILES IDX 5 1 3 2 2 3 1 4 21 5 19 6 18 7 16 8 15 9 14 10 13 11 6 12
REMARK SMILES IDX 7 13 8 14 9 15 12 16 11 17 10 18 4 20 20 22 17 24
REMARK H PARENT 10 19 4 21 20 23 17 25
REMARK Flexibility Score: inf
ROOT
ATOM      1  C   UNL     1      14.644  50.518  31.103  1.00  0.00     0.180 A 
ATOM      2  C   UNL     1      13.426  50.730  30.435  1.00  0.00     0.208 A 
ATOM      3  C   UNL     1      12.697  51.900  30.703  1.00  0.00     0.238 A 
ATOM      4  O   UNL     1      11.635  52.111  30.061  1.00  0.00    -0.285 OA
ATOM      5  C   UNL     1      13.186  52.835  31.646  1.00  0.00     0.111 A 
ATOM      6  C   UNL     1      12.512  54.034  32.024  1.00  0.00     0.134 A 
ATOM      7  C   UNL     1      13.151  54.949  32.871  1.00  0.00     0.093 A 
ATOM      8  C   UNL     1      14.410  54.679  33.403  1.00  0.00     0.123 A 
ATOM      9  C   UNL     1      15.054  53.482  33.087  1.00  0.00     0.094 A 
ATOM     10  C   UNL     1      14.458  52.566  32.217  1.00  0.00     0.146 A 
ATOM     11  O   UNL     1      15.108  51.444  31.934  1.00  0.00    -0.452 OA
ENDROOT
BRANCH   1  12
ATOM     12  C   UNL     1      15.456  49.297  30.893  1.00  0.00     0.021 A 
ATOM     13  C   UNL     1      16.541  49.334  30.001  1.00  0.00     0.016 A 
ATOM     14  C   UNL     1      17.334  48.199  29.806  1.00  0.00     0.047 A 
ATOM     15  C   UNL     1      17.062  47.020  30.510  1.00  0.00     0.115 A 
ATOM     16  C   UNL     1      15.201  48.114  31.613  1.00  0.00     0.016 A 
ATOM     17  C   UNL     1      15.997  46.982  31.415  1.00  0.00     0.047 A 
BRANCH  15  18
ATOM     18  O   UNL     1      17.846  45.883  30.323  1.00  0.00    -0.508 OA
ATOM     19  H   UNL     1      17.545  44.972  30.651  1.00  0.00     0.293 HD
ENDBRANCH  15  18
ENDBRANCH   1  12
BRANCH   2  20
ATOM     20  O   UNL     1      12.972  49.805  29.491  1.00  0.00    -0.502 OA
ATOM     21  H   UNL     1      13.479  49.606  28.637  1.00  0.00     0.293 HD
ENDBRANCH   2  20
BRANCH   6  22
ATOM     22  O   UNL     1      11.212  54.358  31.623  1.00  0.00    -0.507 OA
ATOM     23  H   UNL     1      10.379  53.882  31.934  1.00  0.00     0.293 HD
ENDBRANCH   6  22
BRANCH   8  24
ATOM     24  O   UNL     1      15.010  55.605  34.253  1.00  0.00    -0.508 OA
ATOM     25  H   UNL     1      14.461  56.277  34.778  1.00  0.00     0.293 HD
ENDBRANCH   8  24
TORSDOF 5
ENDMDL
MODEL 4
REMARK VINA RESULT:    -4.810      5.365      7.612
REMARK INTER + INTRA:          -5.898
REMARK INTER:                  -5.598
REMARK INTRA:                  -0.300
REMARK UNBOUND:                -0.245
REMARK SMILES O=c1c(O)c(-c2ccc(O)cc2)oc2cc(O)cc(O)c12
REMARK SMILES IDX 5 1 3 2 2 3 1 4 21 5 19 6 18 7 16 8 15 9 14 10 13 11 6 12
REMARK SMILES IDX 7 13 8 14 9 15 12 16 11 17 10 18 4 20 20 22 17 24
REMARK H PARENT 10 19 4 21 20 23 17 25
REMARK Flexibility Score: inf
ROOT
ATOM      1  C   UNL     1      14.603  53.959  31.213  1.00  0.00     0.180 A 
ATOM      2  C   UNL     1      13.469  54.659  31.661  1.00  0.00     0.208 A 
ATOM      3  C   UNL     1      13.615  55.987  32.095  1.00  0.00     0.238 A 
ATOM      4  O   UNL     1      12.587  56.625  32.443  1.00  0.00    -0.285 OA
ATOM      5  C   UNL     1      14.893  56.593  32.088  1.00  0.00     0.111 A 
ATOM      6  C   UNL     1      15.163  57.919  32.542  1.00  0.00     0.134 A 
ATOM      7  C   UNL     1      16.443  58.461  32.369  1.00  0.00     0.093 A 
ATOM      8  C   UNL     1      17.477  57.706  31.819  1.00  0.00     0.123 A 
ATOM      9  C   UNL     1      17.239  56.387  31.426  1.00  0.00     0.094 A 
ATOM     10  C   UNL     1      15.964  55.831  31.553  1.00  0.00     0.146 A 
ATOM     11  O   UNL     1      15.777  54.577  31.159  1.00  0.00    -0.452 OA
ENDROOT
BRANCH   1  12
ATOM     12  C   UNL     1      14.534  52.549  30.766  1.00  0.00     0.021 A 
ATOM     13  C   UNL     1      14.386  52.264  29.399  1.00  0.00     0.016 A 
ATOM     14  C   UNL     1      14.341  50.940  28.952  1.00  0.00     0.047 A 
ATOM     15  C   UNL     1      14.459  49.885  29.866  1.00  0.00     0.115 A 
ATOM     16  C   UNL     1      14.672  51.484  31.676  1.00  0.00     0.016 A 
ATOM     17  C   UNL     1      14.628  50.161  31.226  1.00  0.00     0.047 A 
BRANCH  15  18
ATOM     18  O   UNL     1      14.416  48.561  29.433  1.00  0.00    -0.508 OA
ATOM     19  H   UNL     1      15.185  48.148  28.917  1.00  0.00     0.293 HD
ENDBRANCH  15  18
ENDBRANCH   1  12
BRANCH   2  20
ATOM     20  O   UNL     1      12.212  54.048  31.638  1.00  0.00    -0.502 OA
ATOM     21  H   UNL     1      11.860  53.558  30.825  1.00  0.00     0.293 HD
ENDBRANCH   2  20
BRANCH   6  22
ATOM     22  O   UNL     1      14.225  58.728  33.190  1.00  0.00    -0.507 OA
ATOM     23  H   UNL     1      13.975  59.662  32.901  1.00  0.00     0.293 HD
ENDBRANCH   6  22
BRANCH   8  24
ATOM     24  O   UNL     1      18.741  58.272  31.675  1.00  0.00    -0.508 OA
ATOM     25  H   UNL     1      19.526  57.969  32.241  1.00  0.00     0.293 HD
ENDBRANCH   8  24
TORSDOF 5
ENDMDL
MODEL 5
REMARK VINA RESULT:    -4.742      3.679      5.053
REMARK INTER + INTRA:          -5.819
REMARK INTER:                  -5.598
REMARK INTRA:                  -0.221
REMARK UNBOUND:                -0.245
REMARK SMILES O=c1c(O)c(-c2ccc(O)cc2)oc2cc(O)cc(O)c12
REMARK SMILES IDX 5 1 3 2 2 3 1 4 21 5 19 6 18 7 16 8 15 9 14 10 13 11 6 12
REMARK SMILES IDX 7 13 8 14 9 15 12 16 11 17 10 18 4 20 20 22 17 24
REMARK H PARENT 10 19 4 21 20 23 17 25
REMARK Flexibility Score: inf
ROOT
ATOM      1  C   UNL     1      14.921  52.704  31.792  1.00  0.00     0.180 A 
ATOM      2  C   UNL     1      15.062  53.488  30.634  1.00  0.00     0.208 A 
ATOM      3  C   UNL     1      15.446  52.869  29.434  1.00  0.00     0.238 A 
ATOM      4  O   UNL     1      15.518  53.567  28.390  1.00  0.00    -0.285 OA
ATOM      5  C   UNL     1      15.698  51.477  29.409  1.00  0.00     0.111 A 
ATOM      6  C   UNL     1      16.131  50.752  28.259  1.00  0.00     0.134 A 
ATOM      7  C   UNL     1      16.224  49.356  28.317  1.00  0.00     0.093 A 
ATOM      8  C   UNL     1      15.964  48.665  29.498  1.00  0.00     0.123 A 
ATOM      9  C   UNL     1      15.598  49.369  30.647  1.00  0.00     0.094 A 
ATOM     10  C   UNL     1      15.461  50.759  30.611  1.00  0.00     0.146 A 
ATOM     11  O   UNL     1      15.101  51.390  31.721  1.00  0.00    -0.452 OA
ENDROOT
BRANCH   1  12
ATOM     12  C   UNL     1      14.544  53.288  33.100  1.00  0.00     0.021 A 
ATOM     13  C   UNL     1      13.209  53.657  33.334  1.00  0.00     0.016 A 
ATOM     14  C   UNL     1      12.828  54.189  34.569  1.00  0.00     0.047 A 
ATOM     15  C   UNL     1      13.774  54.345  35.590  1.00  0.00     0.115 A 
ATOM     16  C   UNL     1      15.485  53.429  34.137  1.00  0.00     0.016 A 
ATOM     17  C   UNL     1      15.101  53.961  35.372  1.00  0.00     0.047 A 
BRANCH  15  18
ATOM     18  O   UNL     1      13.406  54.875  36.826  1.00  0.00    -0.508 OA
ATOM     19  H   UNL     1      14.044  55.448  37.367  1.00  0.00     0.293 HD
ENDBRANCH  15  18
ENDBRANCH   1  12
BRANCH   2  20
ATOM     20  O   UNL     1      14.786  54.858  30.676  1.00  0.00    -0.502 OA
ATOM     21  H   UNL     1      14.161  55.308  30.019  1.00  0.00     0.293 HD
ENDBRANCH   2  20
BRANCH   6  22
ATOM     22  O   UNL     1      16.505  51.353  27.053  1.00  0.00    -0.507 OA
ATOM     23  H   UNL     1      16.075  52.179  26.665  1.00  0.00     0.293 HD
ENDBRANCH   6  22
BRANCH   8  24
ATOM     24  O   UNL     1      16.081  47.277  29.524  1.00  0.00    -0.508 OA
ATOM     25  H   UNL     1      15.459  46.682  28.989  1.00  0.00     0.293 HD
ENDBRANCH   8  24
TORSDOF 5
ENDMDL
MODEL 6
REMARK VINA RESULT:    -4.731      3.695      6.422
REMARK INTER + INTRA:          -5.806
REMARK INTER:                  -5.568
REMARK INTRA:                  -0.238
REMARK UNBOUND:                -0.245
REMARK SMILES O=c1c(O)c(-c2ccc(O)cc2)oc2cc(O)cc(O)c12
REMARK SMILES IDX 5 1 3 2 2 3 1 4 21 5 19 6 18 7 16 8 15 9 14 10 13 11 6 12
REMARK SMILES IDX 7 13 8 14 9 15 12 16 11 17 10 18 4 20 20 22 17 24
REMARK H PARENT 10 19 4 21 20 23 17 25
REMARK Flexibility Score: inf
ROOT
ATOM      1  C   UNL     1      15.283  51.528  31.117  1.00  0.00     0.180 A 
ATOM      2  C   UNL     1      15.285  52.549  30.151  1.00  0.00     0.208 A 
ATOM      3  C   UNL     1      15.192  53.885  30.572  1.00  0.00     0.238 A 
ATOM      4  O   UNL     1      15.249  54.797  29.706  1.00  0.00    -0.285 OA
ATOM      5  C   UNL     1      15.083  54.184  31.951  1.00  0.00     0.111 A 
ATOM      6  C   UNL     1      14.944  55.498  32.487  1.00  0.00     0.134 A 
ATOM      7  C   UNL     1      14.975  55.686  33.875  1.00  0.00     0.093 A 
ATOM      8  C   UNL     1      15.076  54.603  34.745  1.00  0.00     0.123 A 
ATOM      9  C   UNL     1      15.153  53.306  34.233  1.00  0.00     0.094 A 
ATOM     10  C   UNL     1      15.160  53.090  32.853  1.00  0.00     0.146 A 
ATOM     11  O   UNL     1      15.245  51.843  32.406  1.00  0.00    -0.452 OA
ENDROOT
BRANCH   1  12
ATOM     12  C   UNL     1      15.351  50.095  30.750  1.00  0.00     0.021 A 
ATOM     13  C   UNL     1      16.586  49.532  30.386  1.00  0.00     0.016 A 
ATOM     14  C   UNL     1      16.677  48.176  30.058  1.00  0.00     0.047 A 
ATOM     15  C   UNL     1      15.538  47.363  30.104  1.00  0.00     0.115 A 
ATOM     16  C   UNL     1      14.215  49.267  30.814  1.00  0.00     0.016 A 
ATOM     17  C   UNL     1      14.309  47.911  30.486  1.00  0.00     0.047 A 
BRANCH  15  18
ATOM     18  O   UNL     1      15.616  46.010  29.780  1.00  0.00    -0.508 OA
ATOM     19  H   UNL     1      14.867  45.541  29.284  1.00  0.00     0.293 HD
ENDBRANCH  15  18
ENDBRANCH   1  12
BRANCH   2  20
ATOM     20  O   UNL     1      15.415  52.233  28.795  1.00  0.00    -0.502 OA
ATOM     21  H   UNL     1      14.617  52.145  28.178  1.00  0.00     0.293 HD
ENDBRANCH   2  20
BRANCH   6  22
ATOM     22  O   UNL     1      14.745  56.642  31.707  1.00  0.00    -0.507 OA
ATOM     23  H   UNL     1      13.851  57.084  31.553  1.00  0.00     0.293 HD
ENDBRANCH   6  22
BRANCH   8  24
ATOM     24  O   UNL     1      15.090  54.824  36.120  1.00  0.00    -0.508 OA
ATOM     25  H   UNL     1      14.315  55.276  36.593  1.00  0.00     0.293 HD
ENDBRANCH   8  24
TORSDOF 5
ENDMDL
MODEL 7
REMARK VINA RESULT:    -4.730      1.360      3.208
REMARK INTER + INTRA:          -5.804
REMARK INTER:                  -5.508
REMARK INTRA:                  -0.297
REMARK UNBOUND:                -0.245
REMARK SMILES O=c1c(O)c(-c2ccc(O)cc2)oc2cc(O)cc(O)c12
REMARK SMILES IDX 5 1 3 2 2 3 1 4 21 5 19 6 18 7 16 8 15 9 14 10 13 11 6 12
REMARK SMILES IDX 7 13 8 14 9 15 12 16 11 17 10 18 4 20 20 22 17 24
REMARK H PARENT 10 19 4 21 20 23 17 25
REMARK Flexibility Score: inf
ROOT
ATOM      1  C   UNL     1      15.719  47.444  30.214  1.00  0.00     0.180 A 
ATOM      2  C   UNL     1      16.333  46.530  29.341  1.00  0.00     0.208 A 
ATOM      3  C   UNL     1      16.941  47.010  28.169  1.00  0.00     0.238 A 
ATOM      4  O   UNL     1      17.536  46.194  27.419  1.00  0.00    -0.285 OA
ATOM      5  C   UNL     1      16.914  48.395  27.879  1.00  0.00     0.111 A 
ATOM      6  C   UNL     1      17.463  48.987  26.702  1.00  0.00     0.134 A 
ATOM      7  C   UNL     1      17.494  50.382  26.581  1.00  0.00     0.093 A 
ATOM      8  C   UNL     1      16.939  51.203  27.561  1.00  0.00     0.123 A 
ATOM      9  C   UNL     1      16.346  50.632  28.689  1.00  0.00     0.094 A 
ATOM     10  C   UNL     1      16.332  49.246  28.855  1.00  0.00     0.146 A 
ATOM     11  O   UNL     1      15.767  48.743  29.946  1.00  0.00    -0.452 OA
ENDROOT
BRANCH   1  12
ATOM     12  C   UNL     1      15.036  47.011  31.455  1.00  0.00     0.021 A 
ATOM     13  C   UNL     1      15.748  46.990  32.665  1.00  0.00     0.016 A 
ATOM     14  C   UNL     1      15.116  46.607  33.852  1.00  0.00     0.047 A 
ATOM     15  C   UNL     1      13.760  46.254  33.846  1.00  0.00     0.115 A 
ATOM     16  C   UNL     1      13.669  46.675  31.460  1.00  0.00     0.016 A 
ATOM     17  C   UNL     1      13.040  46.292  32.648  1.00  0.00     0.047 A 
BRANCH  15  18
ATOM     18  O   UNL     1      13.120  45.870  35.022  1.00  0.00    -0.508 OA
ATOM     19  H   UNL     1      12.187  45.474  35.011  1.00  0.00     0.293 HD
ENDBRANCH  15  18
ENDBRANCH   1  12
BRANCH   2  20
ATOM     20  O   UNL     1      16.368  45.169  29.658  1.00  0.00    -0.502 OA
ATOM     21  H   UNL     1      15.870  44.783  30.450  1.00  0.00     0.293 HD
ENDBRANCH   2  20
BRANCH   6  22
ATOM     22  O   UNL     1      17.961  48.256  25.620  1.00  0.00    -0.507 OA
ATOM     23  H   UNL     1      18.876  48.380  25.214  1.00  0.00     0.293 HD
ENDBRANCH   6  22
BRANCH   8  24
ATOM     24  O   UNL     1      16.974  52.586  27.401  1.00  0.00    -0.508 OA
ATOM     25  H   UNL     1      16.336  53.064  26.776  1.00  0.00     0.293 HD
ENDBRANCH   8  24
TORSDOF 5
ENDMDL
MODEL 8
REMARK VINA RESULT:    -4.714      3.023      4.858
REMARK INTER + INTRA:          -5.785
REMARK INTER:                  -5.614
REMARK INTRA:                  -0.171
REMARK UNBOUND:                -0.245
REMARK SMILES O=c1c(O)c(-c2ccc(O)cc2)oc2cc(O)cc(O)c12
REMARK SMILES IDX 5 1 3 2 2 3 1 4 21 5 19 6 18 7 16 8 15 9 14 10 13 11 6 12
REMARK SMILES IDX 7 13 8 14 9 15 12 16 11 17 10 18 4 20 20 22 17 24
REMARK H PARENT 10 19 4 21 20 23 17 25
REMARK Flexibility Score: inf
ROOT
ATOM      1  C   UNL     1      15.411  51.643  30.757  1.00  0.00     0.180 A 
ATOM      2  C   UNL     1      15.460  52.010  29.401  1.00  0.00     0.208 A 
ATOM      3  C   UNL     1      15.992  51.105  28.469  1.00  0.00     0.238 A 
ATOM      4  O   UNL     1      15.984  51.418  27.250  1.00  0.00    -0.285 OA
ATOM      5  C   UNL     1      16.481  49.851  28.905  1.00  0.00     0.111 A 
ATOM      6  C   UNL     1      17.077  48.872  28.054  1.00  0.00     0.134 A 
ATOM      7  C   UNL     1      17.406  47.614  28.573  1.00  0.00     0.093 A 
ATOM      8  C   UNL     1      17.222  47.321  29.922  1.00  0.00     0.123 A 
ATOM      9  C   UNL     1      16.696  48.291  30.777  1.00  0.00     0.094 A 
ATOM     10  C   UNL     1      16.324  49.543  30.282  1.00  0.00     0.146 A 
ATOM     11  O   UNL     1      15.817  50.434  31.125  1.00  0.00    -0.452 OA
ENDROOT
BRANCH   1  12
ATOM     12  C   UNL     1      14.888  52.553  31.802  1.00  0.00     0.021 A 
ATOM     13  C   UNL     1      15.779  53.143  32.714  1.00  0.00     0.016 A 
ATOM     14  C   UNL     1      15.309  54.022  33.694  1.00  0.00     0.047 A 
ATOM     15  C   UNL     1      13.946  54.334  33.765  1.00  0.00     0.115 A 
ATOM     16  C   UNL     1      13.522  52.886  31.867  1.00  0.00     0.016 A 
ATOM     17  C   UNL     1      13.056  53.767  32.849  1.00  0.00     0.047 A 
BRANCH  15  18
ATOM     18  O   UNL     1      13.467  55.209  34.738  1.00  0.00    -0.508 OA
ATOM     19  H   UNL     1      14.089  55.655  35.402  1.00  0.00     0.293 HD
ENDBRANCH  15  18
ENDBRANCH   1  12
BRANCH   2  20
ATOM     20  O   UNL     1      14.952  53.246  28.989  1.00  0.00    -0.502 OA
ATOM     21  H   UNL     1      15.318  53.744  28.187  1.00  0.00     0.293 HD
ENDBRANCH   2  20
BRANCH   6  22
ATOM     22  O   UNL     1      17.389  49.094  26.709  1.00  0.00    -0.507 OA
ATOM     23  H   UNL     1      18.324  49.207  26.347  1.00  0.00     0.293 HD
ENDBRANCH   6  22
BRANCH   8  24
ATOM     24  O   UNL     1      17.575  46.064  30.408  1.00  0.00    -0.508 OA
ATOM     25  H   UNL     1      18.351  45.941  31.048  1.00  0.00     0.293 HD
ENDBRANCH   8  24
TORSDOF 5
ENDMDL
MODEL 9
REMARK VINA RESULT:    -4.710      1.982      4.052
REMARK INTER + INTRA:          -5.780
REMARK INTER:                  -5.484
REMARK INTRA:                  -0.297
REMARK UNBOUND:                -0.245
REMARK SMILES O=c1c(O)c(-c2ccc(O)cc2)oc2cc(O)cc(O)c12
REMARK SMILES IDX 5 1 3 2 2 3 1 4 21 5 19 6 18 7 16 8 15 9 14 10 13 11 6 12
REMARK SMILES IDX 7 13 8 14 9 15 12 16 11 17 10 18 4 20 20 22 17 24
REMARK H PARENT 10 19 4 21 20 23 17 25
REMARK Flexibility Score: inf
ROOT
ATOM      1  C   UNL     1      14.576  49.192  31.164  1.00  0.00     0.180 A 
ATOM      2  C   UNL     1      14.869  49.048  29.797  1.00  0.00     0.208 A 
ATOM      3  C   UNL     1      15.181  50.190  29.043  1.00  0.00     0.238 A 
ATOM      4  O   UNL     1      15.495  50.047  27.832  1.00  0.00    -0.285 OA
ATOM      5  C   UNL     1      15.183  51.463  29.660  1.00  0.00     0.111 A 
ATOM      6  C   UNL     1      15.446  52.692  28.983  1.00  0.00     0.134 A 
ATOM      7  C   UNL     1      15.549  53.878  29.721  1.00  0.00     0.093 A 
ATOM      8  C   UNL     1      15.335  53.892  31.097  1.00  0.00     0.123 A 
ATOM      9  C   UNL     1      15.018  52.705  31.761  1.00  0.00     0.094 A 
ATOM     10  C   UNL     1      14.944  51.500  31.059  1.00  0.00     0.146 A 
ATOM     11  O   UNL     1      14.650  50.392  31.729  1.00  0.00    -0.452 OA
ENDROOT
BRANCH   1  12
ATOM     12  C   UNL     1      14.212  48.040  32.020  1.00  0.00     0.021 A 
ATOM     13  C   UNL     1      15.215  47.368  32.738  1.00  0.00     0.016 A 
ATOM     14  C   UNL     1      14.890  46.291  33.569  1.00  0.00     0.047 A 
ATOM     15  C   UNL     1      13.558  45.882  33.703  1.00  0.00     0.115 A 
ATOM     16  C   UNL     1      12.873  47.636  32.175  1.00  0.00     0.016 A 
ATOM     17  C   UNL     1      12.551  46.559  33.007  1.00  0.00     0.047 A 
BRANCH  15  18
ATOM     18  O   UNL     1      13.222  44.811  34.528  1.00  0.00    -0.508 OA
ATOM     19  H   UNL     1      13.132  44.923  35.531  1.00  0.00     0.293 HD
ENDBRANCH  15  18
ENDBRANCH   1  12
BRANCH   2  20
ATOM     20  O   UNL     1      14.883  47.778  29.213  1.00  0.00    -0.502 OA
ATOM     21  H   UNL     1      15.692  47.413  28.724  1.00  0.00     0.293 HD
ENDBRANCH   2  20
BRANCH   6  22
ATOM     22  O   UNL     1      15.585  52.805  27.597  1.00  0.00    -0.507 OA
ATOM     23  H   UNL     1      14.925  53.263  26.988  1.00  0.00     0.293 HD
ENDBRANCH   6  22
BRANCH   8  24
ATOM     24  O   UNL     1      15.431  55.092  31.797  1.00  0.00    -0.508 OA
ATOM     25  H   UNL     1      16.254  55.680  31.732  1.00  0.00     0.293 HD
ENDBRANCH   8  24
TORSDOF 5
ENDMDL
