MODEL 1
REMARK VINA RESULT:    -2.542      0.000      0.000
REMARK INTER + INTRA:          -2.765
REMARK INTER:                  -2.765
REMARK INTRA:                   0.000
REMARK UNBOUND:                 0.000
REMARK SMILES [NH3+]CC(=O)[O-]
REMARK SMILES IDX 2 1 1 2 3 6 4 7 5 8
REMARK H PARENT 1 3 1 4 1 5
REMARK Flexibility Score: inf
ROOT
ATOM      1  C   UNL     1    -477.031 294.638   0.191  1.00  0.00     0.312 C 
ENDROOT
BRANCH   1   2
ATOM      2  N   UNL     1    -475.660 295.138   0.106  1.00  0.00    -0.353 N 
ATOM      3  H   UNL     1    -475.026 294.550   0.697  1.00  0.00     0.344 HD
ATOM      4  H   UNL     1    -475.620 296.133   0.426  1.00  0.00     0.344 HD
ATOM      5  H   UNL     1    -475.338 295.089  -0.888  1.00  0.00     0.344 HD
ENDBRANCH   1   2
BRANCH   1   6
ATOM      6  C   UNL     1    -477.045 293.211   0.644  1.00  0.00     0.096 C 
ATOM      7  O   UNL     1    -478.059 292.491   0.439  1.00  0.00    -0.544 OA
ATOM      8  O   UNL     1    -475.921 292.662   1.247  1.00  0.00    -0.544 OA
ENDBRANCH   1   6
TORSDOF 2
ENDMDL
MODEL 2
REMARK VINA RESULT:    -2.531      2.446      2.848
REMARK INTER + INTRA:          -2.753
REMARK INTER:                  -2.753
REMARK INTRA:                   0.000
REMARK UNBOUND:                 0.000
REMARK SMILES [NH3+]CC(=O)[O-]
REMARK SMILES IDX 2 1 1 2 3 6 4 7 5 8
REMARK H PARENT 1 3 1 4 1 5
REMARK Flexibility Score: inf
ROOT
ATOM      1  C   UNL     1    -477.428 293.502   0.269  1.00  0.00     0.312 C 
ENDROOT
BRANCH   1   2
ATOM      2  N   UNL     1    -476.994 293.560   1.664  1.00  0.00    -0.353 N 
ATOM      3  H   UNL     1    -476.230 292.864   1.832  1.00  0.00     0.344 HD
ATOM      4  H   UNL     1    -477.801 293.361   2.299  1.00  0.00     0.344 HD
ATOM      5  H   UNL     1    -476.630 294.519   1.870  1.00  0.00     0.344 HD
ENDBRANCH   1   2
BRANCH   1   6
ATOM      6  C   UNL     1    -477.077 294.770  -0.445  1.00  0.00     0.096 C 
ATOM      7  O   UNL     1    -476.588 295.742   0.190  1.00  0.00    -0.544 OA
ATOM      8  O   UNL     1    -477.244 294.861  -1.821  1.00  0.00    -0.544 OA
ENDBRANCH   1   6
TORSDOF 2
ENDMDL
MODEL 3
REMARK VINA RESULT:    -2.450     10.833     11.145
REMARK INTER + INTRA:          -2.665
REMARK INTER:                  -2.665
REMARK INTRA:                   0.000
REMARK UNBOUND:                 0.000
REMARK SMILES [NH3+]CC(=O)[O-]
REMARK SMILES IDX 2 1 1 2 3 6 4 7 5 8
REMARK H PARENT 1 3 1 4 1 5
REMARK Flexibility Score: inf
ROOT
ATOM      1  C   UNL     1    -475.303 283.794  -1.033  1.00  0.00     0.312 C 
ENDROOT
BRANCH   1   2
ATOM      2  N   UNL     1    -474.964 284.034   0.368  1.00  0.00    -0.353 N 
ATOM      3  H   UNL     1    -473.925 284.056   0.488  1.00  0.00     0.344 HD
ATOM      4  H   UNL     1    -475.374 283.283   0.971  1.00  0.00     0.344 HD
ATOM      5  H   UNL     1    -475.359 284.957   0.663  1.00  0.00     0.344 HD
ENDBRANCH   1   2
BRANCH   1   6
ATOM      6  C   UNL     1    -474.423 282.731  -1.615  1.00  0.00     0.096 C 
ATOM      7  O   UNL     1    -473.783 281.954  -0.857  1.00  0.00    -0.544 OA
ATOM      8  O   UNL     1    -474.348 282.568  -2.992  1.00  0.00    -0.544 OA
ENDBRANCH   1   6
TORSDOF 2
ENDMDL
MODEL 4
REMARK VINA RESULT:    -2.449     10.142     10.409
REMARK INTER + INTRA:          -2.663
REMARK INTER:                  -2.663
REMARK INTRA:                   0.000
REMARK UNBOUND:                 0.000
REMARK SMILES [NH3+]CC(=O)[O-]
REMARK SMILES IDX 2 1 1 2 3 6 4 7 5 8
REMARK H PARENT 1 3 1 4 1 5
REMARK Flexibility Score: inf
ROOT
ATOM      1  C   UNL     1    -475.754 284.187   0.002  1.00  0.00     0.312 C 
ENDROOT
BRANCH   1   2
ATOM      2  N   UNL     1    -475.108 283.951   1.292  1.00  0.00    -0.353 N 
ATOM      3  H   UNL     1    -474.172 283.505   1.149  1.00  0.00     0.344 HD
ATOM      4  H   UNL     1    -475.708 283.333   1.886  1.00  0.00     0.344 HD
ATOM      5  H   UNL     1    -474.976 284.866   1.782  1.00  0.00     0.344 HD
ENDBRANCH   1   2
BRANCH   1   6
ATOM      6  C   UNL     1    -475.015 283.485  -1.094  1.00  0.00     0.096 C 
ATOM      7  O   UNL     1    -475.121 283.882  -2.285  1.00  0.00    -0.544 OA
ATOM      8  O   UNL     1    -474.170 282.424  -0.795  1.00  0.00    -0.544 OA
ENDBRANCH   1   6
TORSDOF 2
ENDMDL
MODEL 5
REMARK VINA RESULT:    -2.408      2.610      3.022
REMARK INTER + INTRA:          -2.619
REMARK INTER:                  -2.619
REMARK INTRA:                   0.000
REMARK UNBOUND:                 0.000
REMARK SMILES [NH3+]CC(=O)[O-]
REMARK SMILES IDX 2 1 1 2 3 6 4 7 5 8
REMARK H PARENT 1 3 1 4 1 5
REMARK Flexibility Score: inf
ROOT
ATOM      1  C   UNL     1    -476.593 295.005  -0.029  1.00  0.00     0.312 C 
ENDROOT
BRANCH   1   2
ATOM      2  N   UNL     1    -475.959 296.240   0.428  1.00  0.00    -0.353 N 
ATOM      3  H   UNL     1    -474.919 296.161   0.348  1.00  0.00     0.344 HD
ATOM      4  H   UNL     1    -476.225 296.433   1.421  1.00  0.00     0.344 HD
ATOM      5  H   UNL     1    -476.286 297.034  -0.170  1.00  0.00     0.344 HD
ENDBRANCH   1   2
BRANCH   1   6
ATOM      6  C   UNL     1    -477.415 295.255  -1.255  1.00  0.00     0.096 C 
ATOM      7  O   UNL     1    -477.728 294.300  -2.014  1.00  0.00    -0.544 OA
ATOM      8  O   UNL     1    -477.878 296.535  -1.532  1.00  0.00    -0.544 OA
ENDBRANCH   1   6
TORSDOF 2
ENDMDL
MODEL 6
REMARK VINA RESULT:    -2.353      9.127      9.526
REMARK INTER + INTRA:          -2.559
REMARK INTER:                  -2.559
REMARK INTRA:                   0.000
REMARK UNBOUND:                 0.000
REMARK SMILES [NH3+]CC(=O)[O-]
REMARK SMILES IDX 2 1 1 2 3 6 4 7 5 8
REMARK H PARENT 1 3 1 4 1 5
REMARK Flexibility Score: inf
ROOT
ATOM      1  C   UNL     1    -475.443 283.908  -0.345  1.00  0.00     0.312 C 
ENDROOT
BRANCH   1   2
ATOM      2  N   UNL     1    -474.889 283.923   1.007  1.00  0.00    -0.353 N 
ATOM      3  H   UNL     1    -474.639 282.951   1.304  1.00  0.00     0.344 HD
ATOM      4  H   UNL     1    -475.585 284.330   1.675  1.00  0.00     0.344 HD
ATOM      5  H   UNL     1    -474.026 284.514   1.017  1.00  0.00     0.344 HD
ENDBRANCH   1   2
BRANCH   1   6
ATOM      6  C   UNL     1    -476.801 284.539  -0.367  1.00  0.00     0.096 C 
ATOM      7  O   UNL     1    -477.155 285.313   0.562  1.00  0.00    -0.544 OA
ATOM      8  O   UNL     1    -477.656 284.310  -1.437  1.00  0.00    -0.544 OA
ENDBRANCH   1   6
TORSDOF 2
ENDMDL
MODEL 7
REMARK VINA RESULT:    -2.337      2.311      2.437
REMARK INTER + INTRA:          -2.542
REMARK INTER:                  -2.542
REMARK INTRA:                   0.000
REMARK UNBOUND:                 0.000
REMARK SMILES [NH3+]CC(=O)[O-]
REMARK SMILES IDX 2 1 1 2 3 6 4 7 5 8
REMARK H PARENT 1 3 1 4 1 5
REMARK Flexibility Score: inf
ROOT
ATOM      1  C   UNL     1    -476.191 292.742   1.378  1.00  0.00     0.312 C 
ENDROOT
BRANCH   1   2
ATOM      2  N   UNL     1    -475.502 291.453   1.370  1.00  0.00    -0.353 N 
ATOM      3  H   UNL     1    -475.045 291.284   2.296  1.00  0.00     0.344 HD
ATOM      4  H   UNL     1    -474.782 291.435   0.611  1.00  0.00     0.344 HD
ATOM      5  H   UNL     1    -476.199 290.693   1.193  1.00  0.00     0.344 HD
ENDBRANCH   1   2
BRANCH   1   6
ATOM      6  C   UNL     1    -477.379 292.711   0.468  1.00  0.00     0.096 C 
ATOM      7  O   UNL     1    -477.734 291.631  -0.075  1.00  0.00    -0.544 OA
ATOM      8  O   UNL     1    -478.125 293.864   0.260  1.00  0.00    -0.544 OA
ENDBRANCH   1   6
TORSDOF 2
ENDMDL
MODEL 8
REMARK VINA RESULT:    -2.231      3.300      3.501
REMARK INTER + INTRA:          -2.427
REMARK INTER:                  -2.427
REMARK INTRA:                   0.000
REMARK UNBOUND:                 0.000
REMARK SMILES [NH3+]CC(=O)[O-]
REMARK SMILES IDX 2 1 1 2 3 6 4 7 5 8
REMARK H PARENT 1 3 1 4 1 5
REMARK Flexibility Score: inf
ROOT
ATOM      1  C   UNL     1    -477.166 294.858  -2.975  1.00  0.00     0.312 C 
ENDROOT
BRANCH   1   2
ATOM      2  N   UNL     1    -475.914 295.326  -3.568  1.00  0.00    -0.353 N 
ATOM      3  H   UNL     1    -476.002 296.331  -3.847  1.00  0.00     0.344 HD
ATOM      4  H   UNL     1    -475.674 294.745  -4.405  1.00  0.00     0.344 HD
ATOM      5  H   UNL     1    -475.147 295.237  -2.863  1.00  0.00     0.344 HD
ENDBRANCH   1   2
BRANCH   1   6
ATOM      6  C   UNL     1    -477.339 295.419  -1.597  1.00  0.00     0.096 C 
ATOM      7  O   UNL     1    -477.985 296.487  -1.425  1.00  0.00    -0.544 OA
ATOM      8  O   UNL     1    -476.831 294.736  -0.500  1.00  0.00    -0.544 OA
ENDBRANCH   1   6
TORSDOF 2
ENDMDL
MODEL 9
REMARK VINA RESULT:    -2.155      6.562      6.903
REMARK INTER + INTRA:          -2.344
REMARK INTER:                  -2.344
REMARK INTRA:                   0.000
REMARK UNBOUND:                 0.000
REMARK SMILES [NH3+]CC(=O)[O-]
REMARK SMILES IDX 2 1 1 2 3 6 4 7 5 8
REMARK H PARENT 1 3 1 4 1 5
REMARK Flexibility Score: inf
ROOT
ATOM      1  C   UNL     1    -475.431 296.048  -5.149  1.00  0.00     0.312 C 
ENDROOT
BRANCH   1   2
ATOM      2  N   UNL     1    -475.642 295.300  -3.911  1.00  0.00    -0.353 N 
ATOM      3  H   UNL     1    -475.630 294.271  -4.106  1.00  0.00     0.344 HD
ATOM      4  H   UNL     1    -476.558 295.568  -3.482  1.00  0.00     0.344 HD
ATOM      5  H   UNL     1    -474.873 295.526  -3.239  1.00  0.00     0.344 HD
ENDBRANCH   1   2
BRANCH   1   6
ATOM      6  C   UNL     1    -475.867 297.471  -4.987  1.00  0.00     0.096 C 
ATOM      7  O   UNL     1    -475.083 298.412  -5.283  1.00  0.00    -0.544 OA
ATOM      8  O   UNL     1    -477.156 297.757  -4.556  1.00  0.00    -0.544 OA
ENDBRANCH   1   6
TORSDOF 2
ENDMDL
