MODEL 1
REMARK VINA RESULT:    -3.147      0.000      0.000
REMARK INTER + INTRA:          -3.770
REMARK INTER:                  -3.699
REMARK INTRA:                  -0.071
REMARK UNBOUND:                -0.071
REMARK SMILES CCCCC(=O)[O-]
REMARK SMILES IDX 4 1 5 2 6 3 7 4 3 5 2 6 1 7
REMARK H PARENT
REMARK Flexibility Score: inf
ROOT
ATOM      1  C   UNL     1      98.600   5.276 -28.550  1.00  0.00     0.053 C 
ENDROOT
BRANCH   1   2
ATOM      2  C   UNL     1      98.497   4.112 -29.485  1.00  0.00     0.041 C 
ATOM      3  O   UNL     1      97.372   3.734 -29.906  1.00  0.00    -0.550 OA
ATOM      4  O   UNL     1      99.647   3.472 -29.928  1.00  0.00    -0.550 OA
ENDBRANCH   1   2
BRANCH   1   5
ATOM      5  C   UNL     1      99.092   4.812 -27.173  1.00  0.00     0.006 C 
BRANCH   5   6
ATOM      6  C   UNL     1      98.084   3.893 -26.466  1.00  0.00    -0.003 C 
ATOM      7  C   UNL     1      98.477   3.584 -25.021  1.00  0.00     0.004 C 
ENDBRANCH   5   6
ENDBRANCH   1   5
TORSDOF 3
ENDMDL
MODEL 2
REMARK VINA RESULT:    -2.972      2.587      3.795
REMARK INTER + INTRA:          -3.564
REMARK INTER:                  -3.464
REMARK INTRA:                  -0.101
REMARK UNBOUND:                -0.071
REMARK SMILES CCCCC(=O)[O-]
REMARK SMILES IDX 4 1 5 2 6 3 7 4 3 5 2 6 1 7
REMARK H PARENT
REMARK Flexibility Score: inf
ROOT
ATOM      1  C   UNL     1      99.017   3.489 -27.030  1.00  0.00     0.053 C 
ENDROOT
BRANCH   1   2
ATOM      2  C   UNL     1      98.127   3.560 -25.829  1.00  0.00     0.041 C 
ATOM      3  O   UNL     1      98.619   3.754 -24.686  1.00  0.00    -0.550 OA
ATOM      4  O   UNL     1      96.750   3.460 -25.977  1.00  0.00    -0.550 OA
ENDBRANCH   1   2
BRANCH   1   5
ATOM      5  C   UNL     1      99.418   4.901 -27.481  1.00  0.00     0.006 C 
BRANCH   5   6
ATOM      6  C   UNL     1      98.614   5.379 -28.699  1.00  0.00    -0.003 C 
ATOM      7  C   UNL     1      98.040   4.224 -29.520  1.00  0.00     0.004 C 
ENDBRANCH   5   6
ENDBRANCH   1   5
TORSDOF 3
ENDMDL
MODEL 3
REMARK VINA RESULT:    -2.941     22.829     23.656
REMARK INTER + INTRA:          -3.528
REMARK INTER:                  -3.432
REMARK INTRA:                  -0.095
REMARK UNBOUND:                -0.071
REMARK SMILES CCCCC(=O)[O-]
REMARK SMILES IDX 4 1 5 2 6 3 7 4 3 5 2 6 1 7
REMARK H PARENT
REMARK Flexibility Score: inf
ROOT
ATOM      1  C   UNL     1      82.207  -6.321 -13.751  1.00  0.00     0.053 C 
ENDROOT
BRANCH   1   2
ATOM      2  C   UNL     1      83.682  -6.117 -13.892  1.00  0.00     0.041 C 
ATOM      3  O   UNL     1      84.428  -7.082 -14.207  1.00  0.00    -0.550 OA
ATOM      4  O   UNL     1      84.230  -4.852 -13.723  1.00  0.00    -0.550 OA
ENDBRANCH   1   2
BRANCH   1   5
ATOM      5  C   UNL     1      81.588  -5.184 -12.926  1.00  0.00     0.006 C 
BRANCH   5   6
ATOM      6  C   UNL     1      80.396  -4.525 -13.635  1.00  0.00    -0.003 C 
ATOM      7  C   UNL     1      80.817  -3.395 -14.575  1.00  0.00     0.004 C 
ENDBRANCH   5   6
ENDBRANCH   1   5
TORSDOF 3
ENDMDL
MODEL 4
REMARK VINA RESULT:    -2.898      0.589      1.348
REMARK INTER + INTRA:          -3.477
REMARK INTER:                  -3.403
REMARK INTRA:                  -0.074
REMARK UNBOUND:                -0.071
REMARK SMILES CCCCC(=O)[O-]
REMARK SMILES IDX 4 1 5 2 6 3 7 4 3 5 2 6 1 7
REMARK H PARENT
REMARK Flexibility Score: inf
ROOT
ATOM      1  C   UNL     1      98.343   5.113 -28.268  1.00  0.00     0.053 C 
ENDROOT
BRANCH   1   2
ATOM      2  C   UNL     1      98.434   4.147 -29.407  1.00  0.00     0.041 C 
ATOM      3  O   UNL     1      99.558   3.779 -29.838  1.00  0.00    -0.550 OA
ATOM      4  O   UNL     1      97.277   3.616 -29.962  1.00  0.00    -0.550 OA
ENDBRANCH   1   2
BRANCH   1   5
ATOM      5  C   UNL     1      99.076   4.559 -27.039  1.00  0.00     0.006 C 
BRANCH   5   6
ATOM      6  C   UNL     1      98.148   3.763 -26.109  1.00  0.00    -0.003 C 
ATOM      7  C   UNL     1      98.741   2.418 -25.692  1.00  0.00     0.004 C 
ENDBRANCH   5   6
ENDBRANCH   1   5
TORSDOF 3
ENDMDL
MODEL 5
REMARK VINA RESULT:    -2.895     23.128     24.021
REMARK INTER + INTRA:          -3.474
REMARK INTER:                  -3.367
REMARK INTRA:                  -0.107
REMARK UNBOUND:                -0.071
REMARK SMILES CCCCC(=O)[O-]
REMARK SMILES IDX 4 1 5 2 6 3 7 4 3 5 2 6 1 7
REMARK H PARENT
REMARK Flexibility Score: inf
ROOT
ATOM      1  C   UNL     1      81.661  -5.049 -12.848  1.00  0.00     0.053 C 
ENDROOT
BRANCH   1   2
ATOM      2  C   UNL     1      80.487  -4.975 -13.772  1.00  0.00     0.041 C 
ATOM      3  O   UNL     1      80.057  -3.858 -14.164  1.00  0.00    -0.550 OA
ATOM      4  O   UNL     1      79.896  -6.142 -14.241  1.00  0.00    -0.550 OA
ENDBRANCH   1   2
BRANCH   1   5
ATOM      5  C   UNL     1      82.931  -4.560 -13.558  1.00  0.00     0.006 C 
BRANCH   5   6
ATOM      6  C   UNL     1      83.404  -5.530 -14.651  1.00  0.00    -0.003 C 
ATOM      7  C   UNL     1      84.113  -6.760 -14.083  1.00  0.00     0.004 C 
ENDBRANCH   5   6
ENDBRANCH   1   5
TORSDOF 3
ENDMDL
MODEL 6
REMARK VINA RESULT:    -2.837      2.347      3.289
REMARK INTER + INTRA:          -3.405
REMARK INTER:                  -3.293
REMARK INTRA:                  -0.113
REMARK UNBOUND:                -0.071
REMARK SMILES CCCCC(=O)[O-]
REMARK SMILES IDX 4 1 5 2 6 3 7 4 3 5 2 6 1 7
REMARK H PARENT
REMARK Flexibility Score: inf
ROOT
ATOM      1  C   UNL     1      98.277   2.394 -27.025  1.00  0.00     0.053 C 
ENDROOT
BRANCH   1   2
ATOM      2  C   UNL     1      99.508   1.601 -27.332  1.00  0.00     0.041 C 
ATOM      3  O   UNL     1     100.013   1.636 -28.485  1.00  0.00    -0.550 OA
ATOM      4  O   UNL     1     100.125   0.859 -26.333  1.00  0.00    -0.550 OA
ENDBRANCH   1   2
BRANCH   1   5
ATOM      5  C   UNL     1      98.655   3.808 -26.562  1.00  0.00     0.006 C 
BRANCH   5   6
ATOM      6  C   UNL     1      98.454   4.860 -27.662  1.00  0.00    -0.003 C 
ATOM      7  C   UNL     1      99.757   5.232 -28.371  1.00  0.00     0.004 C 
ENDBRANCH   5   6
ENDBRANCH   1   5
TORSDOF 3
ENDMDL
MODEL 7
REMARK VINA RESULT:    -2.768      2.174      2.924
REMARK INTER + INTRA:          -3.324
REMARK INTER:                  -3.225
REMARK INTRA:                  -0.099
REMARK UNBOUND:                -0.071
REMARK SMILES CCCCC(=O)[O-]
REMARK SMILES IDX 4 1 5 2 6 3 7 4 3 5 2 6 1 7
REMARK H PARENT
REMARK Flexibility Score: inf
ROOT
ATOM      1  C   UNL     1      99.816   2.502 -27.968  1.00  0.00     0.053 C 
ENDROOT
BRANCH   1   2
ATOM      2  C   UNL     1      98.891   1.610 -28.733  1.00  0.00     0.041 C 
ATOM      3  O   UNL     1      98.814   0.385 -28.451  1.00  0.00    -0.550 OA
ATOM      4  O   UNL     1      98.077   2.138 -29.726  1.00  0.00    -0.550 OA
ENDBRANCH   1   2
BRANCH   1   5
ATOM      5  C   UNL     1      99.015   3.491 -27.110  1.00  0.00     0.006 C 
BRANCH   5   6
ATOM      6  C   UNL     1      98.944   4.891 -27.738  1.00  0.00    -0.003 C 
ATOM      7  C   UNL     1     100.122   5.183 -28.668  1.00  0.00     0.004 C 
ENDBRANCH   5   6
ENDBRANCH   1   5
TORSDOF 3
ENDMDL
MODEL 8
REMARK VINA RESULT:    -2.721     22.157     22.921
REMARK INTER + INTRA:          -3.269
REMARK INTER:                  -3.163
REMARK INTRA:                  -0.106
REMARK UNBOUND:                -0.071
REMARK SMILES CCCCC(=O)[O-]
REMARK SMILES IDX 4 1 5 2 6 3 7 4 3 5 2 6 1 7
REMARK H PARENT
REMARK Flexibility Score: inf
ROOT
ATOM      1  C   UNL     1      83.631  -6.352 -14.485  1.00  0.00     0.053 C 
ENDROOT
BRANCH   1   2
ATOM      2  C   UNL     1      82.821  -5.940 -15.674  1.00  0.00     0.041 C 
ATOM      3  O   UNL     1      83.310  -5.161 -16.535  1.00  0.00    -0.550 OA
ATOM      4  O   UNL     1      81.543  -6.452 -15.857  1.00  0.00    -0.550 OA
ENDBRANCH   1   2
BRANCH   1   5
ATOM      5  C   UNL     1      83.690  -5.212 -13.459  1.00  0.00     0.006 C 
BRANCH   5   6
ATOM      6  C   UNL     1      82.313  -4.885 -12.862  1.00  0.00    -0.003 C 
ATOM      7  C   UNL     1      81.904  -3.429 -13.081  1.00  0.00     0.004 C 
ENDBRANCH   5   6
ENDBRANCH   1   5
TORSDOF 3
ENDMDL
