MODEL 1
REMARK VINA RESULT:    -8.332      0.000      0.000
REMARK INTER + INTRA:         -17.737
REMARK INTER:                 -14.665
REMARK INTRA:                  -3.072
REMARK UNBOUND:                -3.072
REMARK SMILES C[C@@H]1O[C@@H](O[C@H]2[C@@H](O)[C@@H](OCCc3ccc(O)c(O)c3)O[C@H](CO)[C@@H]2OC(=O)C=Cc2ccc(O)c(O)c2)[C@H](O)[C@H](O)[C@H]1O
REMARK SMILES IDX 6 1 7 2 9 3 21 4 22 5 25 6 5 7 4 8 1 9 2 10 43 11 3 12 41 13
REMARK SMILES IDX 39 14 44 15 42 17 40 19 8 21 26 23 27 24 28 25 29 26 30 27
REMARK SMILES IDX 31 28 38 29 32 30 36 31 33 32 34 33 37 34 35 36 10 38 11 39
REMARK SMILES IDX 12 40 13 41 20 42 14 43 18 44 15 45 16 46 19 47 17 49 23 51
REMARK SMILES IDX 24 52
REMARK H PARENT 44 16 42 18 40 20 8 22 37 35 35 37 19 48 17 50 24 53
REMARK Flexibility Score: inf
ROOT
ATOM      1  C   UNL     1     182.524  36.991  -4.905  1.00  0.00     0.199 C 
ATOM      2  C   UNL     1     181.134  37.623  -4.195  1.00  0.00     0.203 C 
ATOM      3  C   UNL     1     181.226  38.733  -3.003  1.00  0.00     0.282 C 
ATOM      4  O   UNL     1     182.555  38.699  -2.544  1.00  0.00    -0.340 OA
ATOM      5  C   UNL     1     183.503  39.085  -3.538  1.00  0.00     0.190 C 
ATOM      6  C   UNL     1     183.443  38.268  -4.905  1.00  0.00     0.240 C 
ENDROOT
BRANCH   1   7
ATOM      7  O   UNL     1     183.424  35.798  -4.702  1.00  0.00    -0.340 OA
BRANCH   7   8
ATOM      8  C   UNL     1     182.992  34.510  -4.062  1.00  0.00     0.282 C 
ATOM      9  C   UNL     1     182.426  34.283  -0.735  1.00  0.00     0.041 C 
ATOM     10  C   UNL     1     183.274  35.000  -1.760  1.00  0.00     0.150 C 
ATOM     11  C   UNL     1     184.714  34.410  -1.842  1.00  0.00     0.174 C 
ATOM     12  O   UNL     1     182.382  34.942  -2.854  1.00  0.00    -0.344 OA
ATOM     13  C   UNL     1     184.664  32.894  -2.374  1.00  0.00     0.179 C 
ATOM     14  C   UNL     1     183.710  32.966  -3.738  1.00  0.00     0.202 C 
BRANCH  11  15
ATOM     15  O   UNL     1     185.690  35.092  -2.885  1.00  0.00    -0.388 OA
ATOM     16  H   UNL     1     186.215  34.742  -3.789  1.00  0.00     0.211 HD
ENDBRANCH  11  15
BRANCH  13  17
ATOM     17  O   UNL     1     184.688  31.695  -1.519  1.00  0.00    -0.387 OA
ATOM     18  H   UNL     1     184.990  31.985  -0.628  1.00  0.00     0.211 HD
ENDBRANCH  13  17
BRANCH  14  19
ATOM     19  O   UNL     1     182.756  31.946  -3.692  1.00  0.00    -0.385 OA
ATOM     20  H   UNL     1     182.773  31.442  -2.832  1.00  0.00     0.211 HD
ENDBRANCH  14  19
ENDBRANCH   7   8
ENDBRANCH   1   7
BRANCH   2  21
ATOM     21  O   UNL     1     180.118  36.713  -3.894  1.00  0.00    -0.385 OA
ATOM     22  H   UNL     1     179.444  37.120  -3.264  1.00  0.00     0.211 HD
ENDBRANCH   2  21
BRANCH   6  23
ATOM     23  O   UNL     1     183.138  39.116  -6.033  1.00  0.00    -0.453 OA
BRANCH  23  24
ATOM     24  C   UNL     1     183.450  38.755  -7.357  1.00  0.00     0.331 C 
ATOM     25  O   UNL     1     184.608  38.976  -7.794  1.00  0.00    -0.247 OA
BRANCH  24  26
ATOM     26  C   UNL     1     182.502  38.011  -8.221  1.00  0.00     0.094 C 
ATOM     27  C   UNL     1     181.274  38.421  -8.597  1.00  0.00     0.016 C 
BRANCH  27  28
ATOM     28  C   UNL     1     180.638  39.695  -8.202  1.00  0.00    -0.021 A 
ATOM     29  C   UNL     1     180.817  40.894  -8.931  1.00  0.00     0.058 A 
ATOM     30  C   UNL     1     179.875  39.741  -7.024  1.00  0.00     0.012 A 
ATOM     31  C   UNL     1     180.084  42.038  -8.624  1.00  0.00     0.157 A 
ATOM     32  C   UNL     1     179.135  40.903  -6.707  1.00  0.00     0.051 A 
ATOM     33  C   UNL     1     179.236  42.032  -7.516  1.00  0.00     0.157 A 
BRANCH  31  34
ATOM     34  O   UNL     1     180.276  43.185  -9.413  1.00  0.00    -0.504 OA
ATOM     35  H   UNL     1     181.094  43.741  -9.365  1.00  0.00     0.293 HD
ENDBRANCH  31  34
BRANCH  33  36
ATOM     36  O   UNL     1     178.485  43.173  -7.210  1.00  0.00    -0.504 OA
ATOM     37  H   UNL     1     178.317  43.470  -6.254  1.00  0.00     0.293 HD
ENDBRANCH  33  36
ENDBRANCH  27  28
ENDBRANCH  24  26
ENDBRANCH  23  24
ENDBRANCH   6  23
BRANCH   3  38
ATOM     38  O   UNL     1     180.328  38.232  -1.901  1.00  0.00    -0.350 OA
BRANCH  38  39
ATOM     39  C   UNL     1     180.800  37.528  -0.686  1.00  0.00     0.168 C 
BRANCH  39  40
ATOM     40  C   UNL     1     181.300  38.454   0.707  1.00  0.00     0.064 C 
BRANCH  40  41
ATOM     41  C   UNL     1     182.545  39.361   1.430  1.00  0.00    -0.042 A 
ATOM     42  C   UNL     1     183.799  39.669   0.568  1.00  0.00     0.054 A 
ATOM     43  C   UNL     1     182.831  39.300   2.837  1.00  0.00     0.008 A 
ATOM     44  C   UNL     1     184.702  38.521   0.863  1.00  0.00     0.157 A 
ATOM     45  C   UNL     1     184.247  39.117   3.152  1.00  0.00     0.050 A 
ATOM     46  C   UNL     1     185.201  38.970   2.111  1.00  0.00     0.157 A 
BRANCH  44  47
ATOM     47  O   UNL     1     184.161  37.121   0.821  1.00  0.00    -0.504 OA
ATOM     48  H   UNL     1     184.642  36.218   1.463  1.00  0.00     0.293 HD
ENDBRANCH  44  47
BRANCH  46  49
ATOM     49  O   UNL     1     186.532  39.383   2.234  1.00  0.00    -0.504 OA
ATOM     50  H   UNL     1     186.707  39.965   3.089  1.00  0.00     0.293 HD
ENDBRANCH  46  49
ENDBRANCH  40  41
ENDBRANCH  39  40
ENDBRANCH  38  39
ENDBRANCH   3  38
BRANCH   5  51
ATOM     51  C   UNL     1     183.552  40.640  -3.675  1.00  0.00     0.192 C 
BRANCH  51  52
ATOM     52  O   UNL     1     184.646  41.128  -4.406  1.00  0.00    -0.394 OA
ATOM     53  H   UNL     1     185.398  40.488  -4.230  1.00  0.00     0.210 HD
ENDBRANCH  51  52
ENDBRANCH   5  51
TORSDOF 20
ENDMDL
MODEL 2
REMARK VINA RESULT:    -8.283      2.012      4.146
REMARK INTER + INTRA:         -17.649
REMARK INTER:                 -13.748
REMARK INTRA:                  -3.902
REMARK UNBOUND:                -3.072
REMARK SMILES C[C@@H]1O[C@@H](O[C@H]2[C@@H](O)[C@@H](OCCc3ccc(O)c(O)c3)O[C@H](CO)[C@@H]2OC(=O)C=Cc2ccc(O)c(O)c2)[C@H](O)[C@H](O)[C@H]1O
REMARK SMILES IDX 6 1 7 2 9 3 21 4 22 5 25 6 5 7 4 8 1 9 2 10 43 11 3 12 41 13
REMARK SMILES IDX 39 14 44 15 42 17 40 19 8 21 26 23 27 24 28 25 29 26 30 27
REMARK SMILES IDX 31 28 38 29 32 30 36 31 33 32 34 33 37 34 35 36 10 38 11 39
REMARK SMILES IDX 12 40 13 41 20 42 14 43 18 44 15 45 16 46 19 47 17 49 23 51
REMARK SMILES IDX 24 52
REMARK H PARENT 44 16 42 18 40 20 8 22 37 35 35 37 19 48 17 50 24 53
REMARK Flexibility Score: inf
ROOT
ATOM      1  C   UNL     1     182.134  38.430  -3.535  1.00  0.00     0.199 C 
ATOM      2  C   UNL     1     181.817  39.201  -2.071  1.00  0.00     0.203 C 
ATOM      3  C   UNL     1     183.029  39.722  -1.113  1.00  0.00     0.282 C 
ATOM      4  O   UNL     1     184.193  39.086  -1.579  1.00  0.00    -0.340 OA
ATOM      5  C   UNL     1     184.539  39.454  -2.914  1.00  0.00     0.190 C 
ATOM      6  C   UNL     1     183.399  39.239  -4.007  1.00  0.00     0.240 C 
ENDROOT
BRANCH   1   7
ATOM      7  O   UNL     1     182.307  37.014  -4.025  1.00  0.00    -0.340 OA
BRANCH   7   8
ATOM      8  C   UNL     1     181.192  36.160  -4.557  1.00  0.00     0.282 C 
ATOM      9  C   UNL     1     181.269  32.787  -4.315  1.00  0.00     0.041 C 
ATOM     10  C   UNL     1     182.160  33.997  -4.468  1.00  0.00     0.150 C 
ATOM     11  C   UNL     1     182.641  34.186  -5.938  1.00  0.00     0.174 C 
ATOM     12  O   UNL     1     181.338  34.951  -3.825  1.00  0.00    -0.344 OA
ATOM     13  C   UNL     1     181.390  34.503  -6.896  1.00  0.00     0.179 C 
ATOM     14  C   UNL     1     180.575  35.730  -6.118  1.00  0.00     0.202 C 
BRANCH  11  15
ATOM     15  O   UNL     1     183.586  35.426  -6.210  1.00  0.00    -0.388 OA
ATOM     16  H   UNL     1     183.660  36.443  -5.790  1.00  0.00     0.211 HD
ENDBRANCH  11  15
BRANCH  13  17
ATOM     17  O   UNL     1     180.676  33.508  -7.714  1.00  0.00    -0.387 OA
ATOM     18  H   UNL     1     180.078  34.006  -8.315  1.00  0.00     0.211 HD
ENDBRANCH  13  17
BRANCH  14  19
ATOM     19  O   UNL     1     179.212  35.429  -6.076  1.00  0.00    -0.385 OA
ATOM     20  H   UNL     1     178.701  36.041  -5.478  1.00  0.00     0.211 HD
ENDBRANCH  14  19
ENDBRANCH   7   8
ENDBRANCH   1   7
BRANCH   2  21
ATOM     21  O   UNL     1     180.815  38.639  -1.276  1.00  0.00    -0.385 OA
ATOM     22  H   UNL     1     180.641  37.681  -1.537  1.00  0.00     0.211 HD
ENDBRANCH   2  21
BRANCH   6  23
ATOM     23  O   UNL     1     183.006  40.478  -4.636  1.00  0.00    -0.453 OA
BRANCH  23  24
ATOM     24  C   UNL     1     183.112  40.690  -6.023  1.00  0.00     0.331 C 
ATOM     25  O   UNL     1     183.759  41.683  -6.442  1.00  0.00    -0.247 OA
BRANCH  24  26
ATOM     26  C   UNL     1     182.592  39.718  -7.015  1.00  0.00     0.094 C 
ATOM     27  C   UNL     1     181.295  39.461  -7.278  1.00  0.00     0.016 C 
BRANCH  27  28
ATOM     28  C   UNL     1     180.143  40.100  -6.608  1.00  0.00    -0.021 A 
ATOM     29  C   UNL     1     179.383  39.445  -5.610  1.00  0.00     0.058 A 
ATOM     30  C   UNL     1     179.740  41.383  -7.016  1.00  0.00     0.012 A 
ATOM     31  C   UNL     1     178.403  40.126  -4.891  1.00  0.00     0.157 A 
ATOM     32  C   UNL     1     178.743  42.072  -6.292  1.00  0.00     0.051 A 
ATOM     33  C   UNL     1     178.095  41.444  -5.231  1.00  0.00     0.157 A 
BRANCH  31  34
ATOM     34  O   UNL     1     177.713  39.432  -3.883  1.00  0.00    -0.504 OA
ATOM     35  H   UNL     1     177.887  38.481  -3.668  1.00  0.00     0.293 HD
ENDBRANCH  31  34
BRANCH  33  36
ATOM     36  O   UNL     1     177.122  42.140  -4.503  1.00  0.00    -0.504 OA
ATOM     37  H   UNL     1     176.130  42.038  -4.692  1.00  0.00     0.293 HD
ENDBRANCH  33  36
ENDBRANCH  27  28
ENDBRANCH  24  26
ENDBRANCH  23  24
ENDBRANCH   6  23
BRANCH   3  38
ATOM     38  O   UNL     1     182.720  39.199   0.266  1.00  0.00    -0.350 OA
BRANCH  38  39
ATOM     39  C   UNL     1     183.521  38.174   0.976  1.00  0.00     0.168 C 
BRANCH  39  40
ATOM     40  C   UNL     1     183.480  36.517   0.428  1.00  0.00     0.064 C 
BRANCH  40  41
ATOM     41  C   UNL     1     183.441  35.471  -0.914  1.00  0.00    -0.042 A 
ATOM     42  C   UNL     1     182.720  34.107  -0.738  1.00  0.00     0.054 A 
ATOM     43  C   UNL     1     184.492  35.429  -1.895  1.00  0.00     0.008 A 
ATOM     44  C   UNL     1     183.814  33.203  -0.285  1.00  0.00     0.157 A 
ATOM     45  C   UNL     1     184.956  34.080  -2.216  1.00  0.00     0.050 A 
ATOM     46  C   UNL     1     184.409  32.955  -1.547  1.00  0.00     0.157 A 
BRANCH  44  47
ATOM     47  O   UNL     1     184.735  33.645   0.815  1.00  0.00    -0.504 OA
ATOM     48  H   UNL     1     184.334  33.981   1.904  1.00  0.00     0.293 HD
ENDBRANCH  44  47
BRANCH  46  49
ATOM     49  O   UNL     1     184.308  31.691  -2.140  1.00  0.00    -0.504 OA
ATOM     50  H   UNL     1     185.091  31.046  -1.875  1.00  0.00     0.293 HD
ENDBRANCH  46  49
ENDBRANCH  40  41
ENDBRANCH  39  40
ENDBRANCH  38  39
ENDBRANCH   3  38
BRANCH   5  51
ATOM     51  C   UNL     1     185.247  40.846  -2.934  1.00  0.00     0.192 C 
BRANCH  51  52
ATOM     52  O   UNL     1     185.848  41.179  -4.158  1.00  0.00    -0.394 OA
ATOM     53  H   UNL     1     185.156  41.694  -4.669  1.00  0.00     0.210 HD
ENDBRANCH  51  52
ENDBRANCH   5  51
TORSDOF 20
ENDMDL
MODEL 3
REMARK VINA RESULT:    -8.251      2.443      8.592
REMARK INTER + INTRA:         -17.593
REMARK INTER:                 -13.526
REMARK INTRA:                  -4.066
REMARK UNBOUND:                -3.072
REMARK SMILES C[C@@H]1O[C@@H](O[C@H]2[C@@H](O)[C@@H](OCCc3ccc(O)c(O)c3)O[C@H](CO)[C@@H]2OC(=O)C=Cc2ccc(O)c(O)c2)[C@H](O)[C@H](O)[C@H]1O
REMARK SMILES IDX 6 1 7 2 9 3 21 4 22 5 25 6 5 7 4 8 1 9 2 10 43 11 3 12 41 13
REMARK SMILES IDX 39 14 44 15 42 17 40 19 8 21 26 23 27 24 28 25 29 26 30 27
REMARK SMILES IDX 31 28 38 29 32 30 36 31 33 32 34 33 37 34 35 36 10 38 11 39
REMARK SMILES IDX 12 40 13 41 20 42 14 43 18 44 15 45 16 46 19 47 17 49 23 51
REMARK SMILES IDX 24 52
REMARK H PARENT 44 16 42 18 40 20 8 22 37 35 35 37 19 48 17 50 24 53
REMARK Flexibility Score: inf
ROOT
ATOM      1  C   UNL     1     183.312  37.909  -3.012  1.00  0.00     0.199 C 
ATOM      2  C   UNL     1     184.951  37.541  -3.141  1.00  0.00     0.203 C 
ATOM      3  C   UNL     1     186.092  38.574  -2.603  1.00  0.00     0.282 C 
ATOM      4  O   UNL     1     185.443  39.808  -2.420  1.00  0.00    -0.340 OA
ATOM      5  C   UNL     1     184.425  39.764  -1.420  1.00  0.00     0.190 C 
ATOM      6  C   UNL     1     183.303  38.652  -1.624  1.00  0.00     0.240 C 
ENDROOT
BRANCH   1   7
ATOM      7  O   UNL     1     182.254  38.558  -3.869  1.00  0.00    -0.340 OA
BRANCH   7   8
ATOM      8  C   UNL     1     181.371  39.685  -3.415  1.00  0.00     0.282 C 
ATOM      9  C   UNL     1     178.051  39.710  -4.064  1.00  0.00     0.041 C 
ATOM     10  C   UNL     1     179.377  39.247  -4.621  1.00  0.00     0.150 C 
ATOM     11  C   UNL     1     179.893  40.183  -5.755  1.00  0.00     0.174 C 
ATOM     12  O   UNL     1     180.078  39.094  -3.404  1.00  0.00    -0.344 OA
ATOM     13  C   UNL     1     180.211  41.645  -5.167  1.00  0.00     0.179 C 
ATOM     14  C   UNL     1     181.155  41.354  -3.826  1.00  0.00     0.202 C 
BRANCH  11  15
ATOM     15  O   UNL     1     181.277  39.786  -6.412  1.00  0.00    -0.388 OA
ATOM     16  H   UNL     1     181.584  39.454  -7.418  1.00  0.00     0.211 HD
ENDBRANCH  11  15
BRANCH  13  17
ATOM     17  O   UNL     1     179.295  42.797  -5.224  1.00  0.00    -0.387 OA
ATOM     18  H   UNL     1     179.820  43.565  -5.547  1.00  0.00     0.211 HD
ENDBRANCH  13  17
BRANCH  14  19
ATOM     19  O   UNL     1     180.672  42.099  -2.747  1.00  0.00    -0.385 OA
ATOM     20  H   UNL     1     181.156  41.904  -1.898  1.00  0.00     0.211 HD
ENDBRANCH  14  19
ENDBRANCH   7   8
ENDBRANCH   1   7
BRANCH   2  21
ATOM     21  O   UNL     1     185.371  36.985  -4.352  1.00  0.00    -0.385 OA
ATOM     22  H   UNL     1     186.254  36.511  -4.244  1.00  0.00     0.211 HD
ENDBRANCH   2  21
BRANCH   6  23
ATOM     23  O   UNL     1     183.272  37.702  -0.537  1.00  0.00    -0.453 OA
BRANCH  23  24
ATOM     24  C   UNL     1     182.111  37.456   0.220  1.00  0.00     0.331 C 
ATOM     25  O   UNL     1     181.980  38.018   1.337  1.00  0.00    -0.247 OA
BRANCH  24  26
ATOM     26  C   UNL     1     180.978  36.654  -0.303  1.00  0.00     0.094 C 
ATOM     27  C   UNL     1     181.047  35.401  -0.795  1.00  0.00     0.016 C 
BRANCH  27  28
ATOM     28  C   UNL     1     182.280  34.595  -0.916  1.00  0.00    -0.021 A 
ATOM     29  C   UNL     1     183.015  34.152   0.209  1.00  0.00     0.058 A 
ATOM     30  C   UNL     1     182.784  34.305  -2.196  1.00  0.00     0.012 A 
ATOM     31  C   UNL     1     184.082  33.267   0.067  1.00  0.00     0.157 A 
ATOM     32  C   UNL     1     183.869  33.413  -2.340  1.00  0.00     0.051 A 
ATOM     33  C   UNL     1     184.497  32.893  -1.211  1.00  0.00     0.157 A 
BRANCH  31  34
ATOM     34  O   UNL     1     184.744  32.831   1.227  1.00  0.00    -0.504 OA
ATOM     35  H   UNL     1     184.519  33.163   2.133  1.00  0.00     0.293 HD
ENDBRANCH  31  34
BRANCH  33  36
ATOM     36  O   UNL     1     185.559  31.992  -1.361  1.00  0.00    -0.504 OA
ATOM     37  H   UNL     1     185.430  30.988  -1.293  1.00  0.00     0.293 HD
ENDBRANCH  33  36
ENDBRANCH  27  28
ENDBRANCH  24  26
ENDBRANCH  23  24
ENDBRANCH   6  23
BRANCH   3  38
ATOM     38  O   UNL     1     187.082  38.719  -3.730  1.00  0.00    -0.350 OA
BRANCH  38  39
ATOM     39  C   UNL     1     188.023  39.854  -3.882  1.00  0.00     0.168 C 
BRANCH  39  40
ATOM     40  C   UNL     1     187.588  41.204  -4.901  1.00  0.00     0.064 C 
BRANCH  40  41
ATOM     41  C   UNL     1     186.676  41.731  -6.237  1.00  0.00    -0.042 A 
ATOM     42  C   UNL     1     185.430  42.612  -5.950  1.00  0.00     0.054 A 
ATOM     43  C   UNL     1     186.554  40.961  -7.445  1.00  0.00     0.008 A 
ATOM     44  C   UNL     1     184.333  41.613  -5.818  1.00  0.00     0.157 A 
ATOM     45  C   UNL     1     185.181  40.820  -7.928  1.00  0.00     0.050 A 
ATOM     46  C   UNL     1     184.101  41.380  -7.196  1.00  0.00     0.157 A 
BRANCH  44  47
ATOM     47  O   UNL     1     184.534  40.400  -4.956  1.00  0.00    -0.504 OA
ATOM     48  H   UNL     1     183.918  40.218  -3.933  1.00  0.00     0.293 HD
ENDBRANCH  44  47
BRANCH  46  49
ATOM     49  O   UNL     1     182.923  41.830  -7.801  1.00  0.00    -0.504 OA
ATOM     50  H   UNL     1     182.732  42.847  -7.632  1.00  0.00     0.293 HD
ENDBRANCH  46  49
ENDBRANCH  40  41
ENDBRANCH  39  40
ENDBRANCH  38  39
ENDBRANCH   3  38
BRANCH   5  51
ATOM     51  C   UNL     1     185.056  39.842   0.007  1.00  0.00     0.192 C 
BRANCH  51  52
ATOM     52  O   UNL     1     184.124  39.896   1.055  1.00  0.00    -0.394 OA
ATOM     53  H   UNL     1     184.626  39.629   1.881  1.00  0.00     0.210 HD
ENDBRANCH  51  52
ENDBRANCH   5  51
TORSDOF 20
ENDMDL
MODEL 4
REMARK VINA RESULT:    -8.223      1.850      3.318
REMARK INTER + INTRA:         -17.545
REMARK INTER:                 -13.800
REMARK INTRA:                  -3.745
REMARK UNBOUND:                -3.072
REMARK SMILES C[C@@H]1O[C@@H](O[C@H]2[C@@H](O)[C@@H](OCCc3ccc(O)c(O)c3)O[C@H](CO)[C@@H]2OC(=O)C=Cc2ccc(O)c(O)c2)[C@H](O)[C@H](O)[C@H]1O
REMARK SMILES IDX 6 1 7 2 9 3 21 4 22 5 25 6 5 7 4 8 1 9 2 10 43 11 3 12 41 13
REMARK SMILES IDX 39 14 44 15 42 17 40 19 8 21 26 23 27 24 28 25 29 26 30 27
REMARK SMILES IDX 31 28 38 29 32 30 36 31 33 32 34 33 37 34 35 36 10 38 11 39
REMARK SMILES IDX 12 40 13 41 20 42 14 43 18 44 15 45 16 46 19 47 17 49 23 51
REMARK SMILES IDX 24 52
REMARK H PARENT 44 16 42 18 40 20 8 22 37 35 35 37 19 48 17 50 24 53
REMARK Flexibility Score: inf
ROOT
ATOM      1  C   UNL     1     181.031  36.262  -2.688  1.00  0.00     0.199 C 
ATOM      2  C   UNL     1     180.432  37.004  -1.300  1.00  0.00     0.203 C 
ATOM      3  C   UNL     1     180.964  38.473  -0.832  1.00  0.00     0.282 C 
ATOM      4  O   UNL     1     182.146  38.706  -1.558  1.00  0.00    -0.340 OA
ATOM      5  C   UNL     1     181.936  38.776  -2.967  1.00  0.00     0.190 C 
ATOM      6  C   UNL     1     181.207  37.518  -3.621  1.00  0.00     0.240 C 
ENDROOT
BRANCH   1   7
ATOM      7  O   UNL     1     182.134  35.294  -3.037  1.00  0.00    -0.340 OA
BRANCH   7   8
ATOM      8  C   UNL     1     183.364  35.076  -2.204  1.00  0.00     0.282 C 
ATOM      9  C   UNL     1     186.247  33.939  -3.560  1.00  0.00     0.041 C 
ATOM     10  C   UNL     1     184.745  33.857  -3.697  1.00  0.00     0.150 C 
ATOM     11  C   UNL     1     184.174  32.537  -3.098  1.00  0.00     0.174 C 
ATOM     12  O   UNL     1     184.412  35.122  -3.163  1.00  0.00    -0.344 OA
ATOM     13  C   UNL     1     184.420  32.495  -1.510  1.00  0.00     0.179 C 
ATOM     14  C   UNL     1     183.864  33.969  -0.968  1.00  0.00     0.202 C 
BRANCH  11  15
ATOM     15  O   UNL     1     182.606  32.347  -3.193  1.00  0.00    -0.388 OA
ATOM     16  H   UNL     1     181.892  31.621  -2.769  1.00  0.00     0.211 HD
ENDBRANCH  11  15
BRANCH  13  17
ATOM     17  O   UNL     1     185.538  31.807  -0.844  1.00  0.00    -0.387 OA
ATOM     18  H   UNL     1     186.356  32.044  -1.337  1.00  0.00     0.211 HD
ENDBRANCH  13  17
BRANCH  14  19
ATOM     19  O   UNL     1     184.811  34.536  -0.111  1.00  0.00    -0.385 OA
ATOM     20  H   UNL     1     185.637  33.983  -0.031  1.00  0.00     0.211 HD
ENDBRANCH  14  19
ENDBRANCH   7   8
ENDBRANCH   1   7
BRANCH   2  21
ATOM     21  O   UNL     1     180.286  36.191  -0.173  1.00  0.00    -0.385 OA
ATOM     22  H   UNL     1     180.689  36.627   0.642  1.00  0.00     0.211 HD
ENDBRANCH   2  21
BRANCH   6  23
ATOM     23  O   UNL     1     179.952  37.875  -4.238  1.00  0.00    -0.453 OA
BRANCH  23  24
ATOM     24  C   UNL     1     179.461  37.224  -5.386  1.00  0.00     0.331 C 
ATOM     25  O   UNL     1     178.247  37.347  -5.686  1.00  0.00    -0.247 OA
BRANCH  24  26
ATOM     26  C   UNL     1     180.349  36.497  -6.325  1.00  0.00     0.094 C 
ATOM     27  C   UNL     1     181.074  37.041  -7.322  1.00  0.00     0.016 C 
BRANCH  27  28
ATOM     28  C   UNL     1     181.106  38.476  -7.674  1.00  0.00    -0.021 A 
ATOM     29  C   UNL     1     181.815  39.432  -6.911  1.00  0.00     0.058 A 
ATOM     30  C   UNL     1     180.353  38.927  -8.772  1.00  0.00     0.012 A 
ATOM     31  C   UNL     1     181.952  40.747  -7.353  1.00  0.00     0.157 A 
ATOM     32  C   UNL     1     180.487  40.260  -9.218  1.00  0.00     0.051 A 
ATOM     33  C   UNL     1     181.294  41.151  -8.514  1.00  0.00     0.157 A 
BRANCH  31  34
ATOM     34  O   UNL     1     182.706  41.638  -6.571  1.00  0.00    -0.504 OA
ATOM     35  H   UNL     1     182.746  42.611  -6.750  1.00  0.00     0.293 HD
ENDBRANCH  31  34
BRANCH  33  36
ATOM     36  O   UNL     1     181.439  42.466  -8.973  1.00  0.00    -0.504 OA
ATOM     37  H   UNL     1     182.198  43.066  -8.666  1.00  0.00     0.293 HD
ENDBRANCH  33  36
ENDBRANCH  27  28
ENDBRANCH  24  26
ENDBRANCH  23  24
ENDBRANCH   6  23
BRANCH   3  38
ATOM     38  O   UNL     1     181.319  38.339   0.626  1.00  0.00    -0.350 OA
BRANCH  38  39
ATOM     39  C   UNL     1     182.173  39.292   1.375  1.00  0.00     0.168 C 
BRANCH  39  40
ATOM     40  C   UNL     1     183.907  39.090   1.358  1.00  0.00     0.064 C 
BRANCH  40  41
ATOM     41  C   UNL     1     185.323  39.092   0.413  1.00  0.00    -0.042 A 
ATOM     42  C   UNL     1     186.069  40.443   0.246  1.00  0.00     0.054 A 
ATOM     43  C   UNL     1     185.512  38.204  -0.702  1.00  0.00     0.008 A 
ATOM     44  C   UNL     1     185.456  41.018  -0.984  1.00  0.00     0.157 A 
ATOM     45  C   UNL     1     185.988  38.862  -1.917  1.00  0.00     0.050 A 
ATOM     46  C   UNL     1     186.181  40.268  -1.943  1.00  0.00     0.157 A 
BRANCH  44  47
ATOM     47  O   UNL     1     183.962  41.032  -1.132  1.00  0.00    -0.504 OA
ATOM     48  H   UNL     1     183.308  40.020  -1.216  1.00  0.00     0.293 HD
ENDBRANCH  44  47
BRANCH  46  49
ATOM     49  O   UNL     1     187.140  40.890  -2.751  1.00  0.00    -0.504 OA
ATOM     50  H   UNL     1     188.110  40.836  -2.357  1.00  0.00     0.293 HD
ENDBRANCH  46  49
ENDBRANCH  40  41
ENDBRANCH  39  40
ENDBRANCH  38  39
ENDBRANCH   3  38
BRANCH   5  51
ATOM     51  C   UNL     1     181.369  40.175  -3.369  1.00  0.00     0.192 C 
BRANCH  51  52
ATOM     52  O   UNL     1     182.346  41.145  -3.641  1.00  0.00    -0.394 OA
ATOM     53  H   UNL     1     182.084  41.558  -4.517  1.00  0.00     0.210 HD
ENDBRANCH  51  52
ENDBRANCH   5  51
TORSDOF 20
ENDMDL
MODEL 5
REMARK VINA RESULT:    -8.196      1.409      2.260
REMARK INTER + INTRA:         -17.497
REMARK INTER:                 -14.284
REMARK INTRA:                  -3.213
REMARK UNBOUND:                -3.072
REMARK SMILES C[C@@H]1O[C@@H](O[C@H]2[C@@H](O)[C@@H](OCCc3ccc(O)c(O)c3)O[C@H](CO)[C@@H]2OC(=O)C=Cc2ccc(O)c(O)c2)[C@H](O)[C@H](O)[C@H]1O
REMARK SMILES IDX 6 1 7 2 9 3 21 4 22 5 25 6 5 7 4 8 1 9 2 10 43 11 3 12 41 13
REMARK SMILES IDX 39 14 44 15 42 17 40 19 8 21 26 23 27 24 28 25 29 26 30 27
REMARK SMILES IDX 31 28 38 29 32 30 36 31 33 32 34 33 37 34 35 36 10 38 11 39
REMARK SMILES IDX 12 40 13 41 20 42 14 43 18 44 15 45 16 46 19 47 17 49 23 51
REMARK SMILES IDX 24 52
REMARK H PARENT 44 16 42 18 40 20 8 22 37 35 35 37 19 48 17 50 24 53
REMARK Flexibility Score: inf
ROOT
ATOM      1  C   UNL     1     183.458  37.142  -4.796  1.00  0.00     0.199 C 
ATOM      2  C   UNL     1     183.139  38.487  -3.832  1.00  0.00     0.203 C 
ATOM      3  C   UNL     1     184.152  39.765  -3.806  1.00  0.00     0.282 C 
ATOM      4  O   UNL     1     185.352  39.320  -4.388  1.00  0.00    -0.340 OA
ATOM      5  C   UNL     1     185.206  38.941  -5.757  1.00  0.00     0.190 C 
ATOM      6  C   UNL     1     184.088  37.846  -6.055  1.00  0.00     0.240 C 
ENDROOT
BRANCH   1   7
ATOM      7  O   UNL     1     184.149  35.810  -4.641  1.00  0.00    -0.340 OA
BRANCH   7   8
ATOM      8  C   UNL     1     183.497  34.578  -4.083  1.00  0.00     0.282 C 
ATOM      9  C   UNL     1     182.301  34.481  -0.920  1.00  0.00     0.041 C 
ATOM     10  C   UNL     1     183.383  35.100  -1.773  1.00  0.00     0.150 C 
ATOM     11  C   UNL     1     184.758  34.393  -1.577  1.00  0.00     0.174 C 
ATOM     12  O   UNL     1     182.710  35.089  -3.015  1.00  0.00    -0.344 OA
ATOM     13  C   UNL     1     184.679  32.873  -2.096  1.00  0.00     0.179 C 
ATOM     14  C   UNL     1     184.007  32.990  -3.615  1.00  0.00     0.202 C 
BRANCH  11  15
ATOM     15  O   UNL     1     185.966  34.966  -2.423  1.00  0.00    -0.388 OA
ATOM     16  H   UNL     1     186.778  35.683  -2.217  1.00  0.00     0.211 HD
ENDBRANCH  11  15
BRANCH  13  17
ATOM     17  O   UNL     1     184.440  31.698  -1.240  1.00  0.00    -0.387 OA
ATOM     18  H   UNL     1     184.356  32.028  -0.317  1.00  0.00     0.211 HD
ENDBRANCH  13  17
BRANCH  14  19
ATOM     19  O   UNL     1     182.978  32.053  -3.741  1.00  0.00    -0.385 OA
ATOM     20  H   UNL     1     182.806  31.795  -4.689  1.00  0.00     0.211 HD
ENDBRANCH  14  19
ENDBRANCH   7   8
ENDBRANCH   1   7
BRANCH   2  21
ATOM     21  O   UNL     1     182.691  38.231  -2.534  1.00  0.00    -0.385 OA
ATOM     22  H   UNL     1     183.449  38.294  -1.872  1.00  0.00     0.211 HD
ENDBRANCH   2  21
BRANCH   6  23
ATOM     23  O   UNL     1     183.054  38.345  -6.930  1.00  0.00    -0.453 OA
BRANCH  23  24
ATOM     24  C   UNL     1     182.960  37.968  -8.283  1.00  0.00     0.331 C 
ATOM     25  O   UNL     1     183.994  37.992  -8.997  1.00  0.00    -0.247 OA
BRANCH  24  26
ATOM     26  C   UNL     1     181.710  37.426  -8.870  1.00  0.00     0.094 C 
ATOM     27  C   UNL     1     180.526  38.063  -8.955  1.00  0.00     0.016 C 
BRANCH  27  28
ATOM     28  C   UNL     1     180.250  39.429  -8.461  1.00  0.00    -0.021 A 
ATOM     29  C   UNL     1     180.499  40.585  -9.237  1.00  0.00     0.058 A 
ATOM     30  C   UNL     1     179.781  39.599  -7.147  1.00  0.00     0.012 A 
ATOM     31  C   UNL     1     180.086  41.844  -8.805  1.00  0.00     0.157 A 
ATOM     32  C   UNL     1     179.368  40.875  -6.705  1.00  0.00     0.051 A 
ATOM     33  C   UNL     1     179.511  41.979  -7.541  1.00  0.00     0.157 A 
BRANCH  31  34
ATOM     34  O   UNL     1     180.323  42.946  -9.642  1.00  0.00    -0.504 OA
ATOM     35  H   UNL     1     181.229  43.312  -9.807  1.00  0.00     0.293 HD
ENDBRANCH  31  34
BRANCH  33  36
ATOM     36  O   UNL     1     179.080  43.239  -7.106  1.00  0.00    -0.504 OA
ATOM     37  H   UNL     1     178.140  43.579  -7.281  1.00  0.00     0.293 HD
ENDBRANCH  33  36
ENDBRANCH  27  28
ENDBRANCH  24  26
ENDBRANCH  23  24
ENDBRANCH   6  23
BRANCH   3  38
ATOM     38  O   UNL     1     184.409  40.058  -2.350  1.00  0.00    -0.350 OA
BRANCH  38  39
ATOM     39  C   UNL     1     185.653  39.701  -1.627  1.00  0.00     0.168 C 
BRANCH  39  40
ATOM     40  C   UNL     1     185.562  38.701  -0.200  1.00  0.00     0.064 C 
BRANCH  40  41
ATOM     41  C   UNL     1     184.704  38.343   1.226  1.00  0.00    -0.042 A 
ATOM     42  C   UNL     1     183.337  37.622   1.076  1.00  0.00     0.054 A 
ATOM     43  C   UNL     1     184.780  39.164   2.403  1.00  0.00     0.008 A 
ATOM     44  C   UNL     1     182.368  38.750   0.983  1.00  0.00     0.157 A 
ATOM     45  C   UNL     1     183.481  39.499   2.984  1.00  0.00     0.050 A 
ATOM     46  C   UNL     1     182.282  39.059   2.363  1.00  0.00     0.157 A 
BRANCH  44  47
ATOM     47  O   UNL     1     182.650  39.896   0.055  1.00  0.00    -0.504 OA
ATOM     48  H   UNL     1     181.788  40.650  -0.330  1.00  0.00     0.293 HD
ENDBRANCH  44  47
BRANCH  46  49
ATOM     49  O   UNL     1     181.110  38.788   3.077  1.00  0.00    -0.504 OA
ATOM     50  H   UNL     1     181.069  39.274   4.006  1.00  0.00     0.293 HD
ENDBRANCH  46  49
ENDBRANCH  40  41
ENDBRANCH  39  40
ENDBRANCH  38  39
ENDBRANCH   3  38
BRANCH   5  51
ATOM     51  C   UNL     1     185.183  40.204  -6.676  1.00  0.00     0.192 C 
BRANCH  51  52
ATOM     52  O   UNL     1     185.876  40.057  -7.888  1.00  0.00    -0.394 OA
ATOM     53  H   UNL     1     186.778  40.468  -7.738  1.00  0.00     0.210 HD
ENDBRANCH  51  52
ENDBRANCH   5  51
TORSDOF 20
ENDMDL
MODEL 6
REMARK VINA RESULT:    -8.193      2.578      8.421
REMARK INTER + INTRA:         -17.492
REMARK INTER:                 -13.401
REMARK INTRA:                  -4.092
REMARK UNBOUND:                -3.072
REMARK SMILES C[C@@H]1O[C@@H](O[C@H]2[C@@H](O)[C@@H](OCCc3ccc(O)c(O)c3)O[C@H](CO)[C@@H]2OC(=O)C=Cc2ccc(O)c(O)c2)[C@H](O)[C@H](O)[C@H]1O
REMARK SMILES IDX 6 1 7 2 9 3 21 4 22 5 25 6 5 7 4 8 1 9 2 10 43 11 3 12 41 13
REMARK SMILES IDX 39 14 44 15 42 17 40 19 8 21 26 23 27 24 28 25 29 26 30 27
REMARK SMILES IDX 31 28 38 29 32 30 36 31 33 32 34 33 37 34 35 36 10 38 11 39
REMARK SMILES IDX 12 40 13 41 20 42 14 43 18 44 15 45 16 46 19 47 17 49 23 51
REMARK SMILES IDX 24 52
REMARK H PARENT 44 16 42 18 40 20 8 22 37 35 35 37 19 48 17 50 24 53
REMARK Flexibility Score: inf
ROOT
ATOM      1  C   UNL     1     182.400  38.606  -1.898  1.00  0.00     0.199 C 
ATOM      2  C   UNL     1     181.183  39.756  -2.083  1.00  0.00     0.203 C 
ATOM      3  C   UNL     1     180.476  40.009  -3.532  1.00  0.00     0.282 C 
ATOM      4  O   UNL     1     181.313  39.399  -4.483  1.00  0.00    -0.340 OA
ATOM      5  C   UNL     1     181.415  37.985  -4.318  1.00  0.00     0.190 C 
ATOM      6  C   UNL     1     181.879  37.489  -2.877  1.00  0.00     0.240 C 
ENDROOT
BRANCH   1   7
ATOM      7  O   UNL     1     183.907  38.573  -1.949  1.00  0.00    -0.340 OA
BRANCH   7   8
ATOM      8  C   UNL     1     184.723  39.005  -3.133  1.00  0.00     0.282 C 
ATOM      9  C   UNL     1     187.911  40.084  -2.791  1.00  0.00     0.041 C 
ATOM     10  C   UNL     1     186.578  40.045  -2.082  1.00  0.00     0.150 C 
ATOM     11  C   UNL     1     185.827  41.407  -2.174  1.00  0.00     0.174 C 
ATOM     12  O   UNL     1     186.059  38.868  -2.667  1.00  0.00    -0.344 OA
ATOM     13  C   UNL     1     185.443  41.728  -3.702  1.00  0.00     0.179 C 
ATOM     14  C   UNL     1     184.715  40.332  -4.247  1.00  0.00     0.202 C 
BRANCH  11  15
ATOM     15  O   UNL     1     184.416  41.477  -1.460  1.00  0.00    -0.388 OA
ATOM     16  H   UNL     1     184.081  41.737  -0.442  1.00  0.00     0.211 HD
ENDBRANCH  11  15
BRANCH  13  17
ATOM     17  O   UNL     1     186.222  42.589  -4.607  1.00  0.00    -0.387 OA
ATOM     18  H   UNL     1     187.149  42.587  -4.278  1.00  0.00     0.211 HD
ENDBRANCH  13  17
BRANCH  14  19
ATOM     19  O   UNL     1     185.257  39.978  -5.485  1.00  0.00    -0.385 OA
ATOM     20  H   UNL     1     184.602  39.508  -6.071  1.00  0.00     0.211 HD
ENDBRANCH  14  19
ENDBRANCH   7   8
ENDBRANCH   1   7
BRANCH   2  21
ATOM     21  O   UNL     1     181.386  40.986  -1.453  1.00  0.00    -0.385 OA
ATOM     22  H   UNL     1     181.643  40.858  -0.486  1.00  0.00     0.211 HD
ENDBRANCH   2  21
BRANCH   6  23
ATOM     23  O   UNL     1     180.878  36.673  -2.232  1.00  0.00    -0.453 OA
BRANCH  23  24
ATOM     24  C   UNL     1     181.139  35.361  -1.792  1.00  0.00     0.331 C 
ATOM     25  O   UNL     1     181.040  34.412  -2.609  1.00  0.00    -0.247 OA
BRANCH  24  26
ATOM     26  C   UNL     1     181.646  35.069  -0.429  1.00  0.00     0.094 C 
ATOM     27  C   UNL     1     182.865  34.585  -0.118  1.00  0.00     0.016 C 
BRANCH  27  28
ATOM     28  C   UNL     1     183.925  34.240  -1.089  1.00  0.00    -0.021 A 
ATOM     29  C   UNL     1     184.489  35.192  -1.970  1.00  0.00     0.058 A 
ATOM     30  C   UNL     1     184.350  32.905  -1.191  1.00  0.00     0.012 A 
ATOM     31  C   UNL     1     185.589  34.873  -2.763  1.00  0.00     0.157 A 
ATOM     32  C   UNL     1     185.461  32.579  -1.999  1.00  0.00     0.051 A 
ATOM     33  C   UNL     1     186.077  33.566  -2.765  1.00  0.00     0.157 A 
BRANCH  31  34
ATOM     34  O   UNL     1     186.131  35.875  -3.585  1.00  0.00    -0.504 OA
ATOM     35  H   UNL     1     186.978  35.763  -4.085  1.00  0.00     0.293 HD
ENDBRANCH  31  34
BRANCH  33  36
ATOM     36  O   UNL     1     187.192  33.242  -3.548  1.00  0.00    -0.504 OA
ATOM     37  H   UNL     1     187.534  33.854  -4.281  1.00  0.00     0.293 HD
ENDBRANCH  33  36
ENDBRANCH  27  28
ENDBRANCH  24  26
ENDBRANCH  23  24
ENDBRANCH   6  23
BRANCH   3  38
ATOM     38  O   UNL     1     180.510  41.499  -3.753  1.00  0.00    -0.350 OA
BRANCH  38  39
ATOM     39  C   UNL     1     179.350  42.311  -4.191  1.00  0.00     0.168 C 
BRANCH  39  40
ATOM     40  C   UNL     1     178.771  42.172  -5.832  1.00  0.00     0.064 C 
BRANCH  40  41
ATOM     41  C   UNL     1     179.124  41.670  -7.419  1.00  0.00    -0.042 A 
ATOM     42  C   UNL     1     179.848  40.307  -7.594  1.00  0.00     0.054 A 
ATOM     43  C   UNL     1     179.408  42.597  -8.480  1.00  0.00     0.008 A 
ATOM     44  C   UNL     1     181.289  40.685  -7.579  1.00  0.00     0.157 A 
ATOM     45  C   UNL     1     180.600  42.267  -9.260  1.00  0.00     0.050 A 
ATOM     46  C   UNL     1     181.394  41.141  -8.916  1.00  0.00     0.157 A 
BRANCH  44  47
ATOM     47  O   UNL     1     181.803  41.608  -6.512  1.00  0.00    -0.504 OA
ATOM     48  H   UNL     1     182.633  41.270  -5.703  1.00  0.00     0.293 HD
ENDBRANCH  44  47
BRANCH  46  49
ATOM     49  O   UNL     1     182.125  40.410  -9.858  1.00  0.00    -0.504 OA
ATOM     50  H   UNL     1     181.765  40.519 -10.837  1.00  0.00     0.293 HD
ENDBRANCH  46  49
ENDBRANCH  40  41
ENDBRANCH  39  40
ENDBRANCH  38  39
ENDBRANCH   3  38
BRANCH   5  51
ATOM     51  C   UNL     1     180.158  37.272  -4.911  1.00  0.00     0.192 C 
BRANCH  51  52
ATOM     52  O   UNL     1     180.300  35.887  -5.085  1.00  0.00    -0.394 OA
ATOM     53  H   UNL     1     181.235  35.749  -5.420  1.00  0.00     0.210 HD
ENDBRANCH  51  52
ENDBRANCH   5  51
TORSDOF 20
ENDMDL
MODEL 7
REMARK VINA RESULT:    -8.169      1.891      8.210
REMARK INTER + INTRA:         -17.449
REMARK INTER:                 -14.915
REMARK INTRA:                  -2.535
REMARK UNBOUND:                -3.072
REMARK SMILES C[C@@H]1O[C@@H](O[C@H]2[C@@H](O)[C@@H](OCCc3ccc(O)c(O)c3)O[C@H](CO)[C@@H]2OC(=O)C=Cc2ccc(O)c(O)c2)[C@H](O)[C@H](O)[C@H]1O
REMARK SMILES IDX 6 1 7 2 9 3 21 4 22 5 25 6 5 7 4 8 1 9 2 10 43 11 3 12 41 13
REMARK SMILES IDX 39 14 44 15 42 17 40 19 8 21 26 23 27 24 28 25 29 26 30 27
REMARK SMILES IDX 31 28 38 29 32 30 36 31 33 32 34 33 37 34 35 36 10 38 11 39
REMARK SMILES IDX 12 40 13 41 20 42 14 43 18 44 15 45 16 46 19 47 17 49 23 51
REMARK SMILES IDX 24 52
REMARK H PARENT 44 16 42 18 40 20 8 22 37 35 35 37 19 48 17 50 24 53
REMARK Flexibility Score: inf
ROOT
ATOM      1  C   UNL     1     183.853  37.911  -2.974  1.00  0.00     0.199 C 
ATOM      2  C   UNL     1     183.436  39.539  -3.078  1.00  0.00     0.203 C 
ATOM      3  C   UNL     1     181.899  40.032  -2.838  1.00  0.00     0.282 C 
ATOM      4  O   UNL     1     181.104  38.876  -2.921  1.00  0.00    -0.340 OA
ATOM      5  C   UNL     1     181.391  37.922  -1.899  1.00  0.00     0.190 C 
ATOM      6  C   UNL     1     182.912  37.456  -1.797  1.00  0.00     0.240 C 
ENDROOT
BRANCH   1   7
ATOM      7  O   UNL     1     183.981  36.739  -3.915  1.00  0.00    -0.340 OA
BRANCH   7   8
ATOM      8  C   UNL     1     184.881  35.561  -3.684  1.00  0.00     0.282 C 
ATOM      9  C   UNL     1     184.620  32.738  -5.529  1.00  0.00     0.041 C 
ATOM     10  C   UNL     1     183.807  33.877  -4.962  1.00  0.00     0.150 C 
ATOM     11  C   UNL     1     183.020  33.454  -3.686  1.00  0.00     0.174 C 
ATOM     12  O   UNL     1     184.819  34.863  -4.920  1.00  0.00    -0.344 OA
ATOM     13  C   UNL     1     184.041  33.081  -2.501  1.00  0.00     0.179 C 
ATOM     14  C   UNL     1     185.096  34.368  -2.445  1.00  0.00     0.202 C 
BRANCH  11  15
ATOM     15  O   UNL     1     182.129  34.575  -3.010  1.00  0.00    -0.388 OA
ATOM     16  H   UNL     1     182.312  35.615  -2.692  1.00  0.00     0.211 HD
ENDBRANCH  11  15
BRANCH  13  17
ATOM     17  O   UNL     1     184.477  31.717  -2.158  1.00  0.00    -0.387 OA
ATOM     18  H   UNL     1     183.672  31.151  -2.153  1.00  0.00     0.211 HD
ENDBRANCH  13  17
BRANCH  14  19
ATOM     19  O   UNL     1     186.408  33.891  -2.401  1.00  0.00    -0.385 OA
ATOM     20  H   UNL     1     187.022  34.499  -1.903  1.00  0.00     0.211 HD
ENDBRANCH  14  19
ENDBRANCH   7   8
ENDBRANCH   1   7
BRANCH   2  21
ATOM     21  O   UNL     1     183.986  40.257  -4.143  1.00  0.00    -0.385 OA
ATOM     22  H   UNL     1     184.801  39.791  -4.508  1.00  0.00     0.211 HD
ENDBRANCH   2  21
BRANCH   6  23
ATOM     23  O   UNL     1     183.498  37.786  -0.519  1.00  0.00    -0.453 OA
BRANCH  23  24
ATOM     24  C   UNL     1     184.884  37.720  -0.283  1.00  0.00     0.331 C 
ATOM     25  O   UNL     1     185.470  36.613  -0.390  1.00  0.00    -0.247 OA
BRANCH  24  26
ATOM     26  C   UNL     1     185.704  38.930  -0.032  1.00  0.00     0.094 C 
ATOM     27  C   UNL     1     185.754  39.637   1.115  1.00  0.00     0.016 C 
BRANCH  27  28
ATOM     28  C   UNL     1     184.982  39.339   2.340  1.00  0.00    -0.021 A 
ATOM     29  C   UNL     1     183.569  39.300   2.359  1.00  0.00     0.058 A 
ATOM     30  C   UNL     1     185.669  39.148   3.550  1.00  0.00     0.012 A 
ATOM     31  C   UNL     1     182.877  38.867   3.488  1.00  0.00     0.157 A 
ATOM     32  C   UNL     1     184.969  38.714   4.697  1.00  0.00     0.051 A 
ATOM     33  C   UNL     1     183.585  38.564   4.651  1.00  0.00     0.157 A 
BRANCH  31  34
ATOM     34  O   UNL     1     181.474  38.810   3.429  1.00  0.00    -0.504 OA
ATOM     35  H   UNL     1     180.906  39.614   3.321  1.00  0.00     0.293 HD
ENDBRANCH  31  34
BRANCH  33  36
ATOM     36  O   UNL     1     182.898  38.114   5.785  1.00  0.00    -0.504 OA
ATOM     37  H   UNL     1     183.345  37.546   6.498  1.00  0.00     0.293 HD
ENDBRANCH  33  36
ENDBRANCH  27  28
ENDBRANCH  24  26
ENDBRANCH  23  24
ENDBRANCH   6  23
BRANCH   3  38
ATOM     38  O   UNL     1     181.565  40.924  -4.006  1.00  0.00    -0.350 OA
BRANCH  38  39
ATOM     39  C   UNL     1     180.194  41.349  -4.375  1.00  0.00     0.168 C 
BRANCH  39  40
ATOM     40  C   UNL     1     179.685  41.260  -6.043  1.00  0.00     0.064 C 
BRANCH  40  41
ATOM     41  C   UNL     1     180.141  40.913  -7.645  1.00  0.00    -0.042 A 
ATOM     42  C   UNL     1     181.188  39.787  -7.863  1.00  0.00     0.054 A 
ATOM     43  C   UNL     1     180.169  41.913  -8.677  1.00  0.00     0.008 A 
ATOM     44  C   UNL     1     182.484  40.521  -7.837  1.00  0.00     0.157 A 
ATOM     45  C   UNL     1     181.400  41.924  -9.467  1.00  0.00     0.050 A 
ATOM     46  C   UNL     1     182.458  41.029  -9.159  1.00  0.00     0.157 A 
BRANCH  44  47
ATOM     47  O   UNL     1     182.754  41.512  -6.742  1.00  0.00    -0.504 OA
ATOM     48  H   UNL     1     182.222  42.596  -6.700  1.00  0.00     0.293 HD
ENDBRANCH  44  47
BRANCH  46  49
ATOM     49  O   UNL     1     183.344  40.538 -10.124  1.00  0.00    -0.504 OA
ATOM     50  H   UNL     1     182.931  40.505 -11.087  1.00  0.00     0.293 HD
ENDBRANCH  46  49
ENDBRANCH  40  41
ENDBRANCH  39  40
ENDBRANCH  38  39
ENDBRANCH   3  38
BRANCH   5  51
ATOM     51  C   UNL     1     180.714  38.337  -0.554  1.00  0.00     0.192 C 
BRANCH  51  52
ATOM     52  O   UNL     1     181.027  37.511   0.537  1.00  0.00    -0.394 OA
ATOM     53  H   UNL     1     180.922  38.086   1.352  1.00  0.00     0.210 HD
ENDBRANCH  51  52
ENDBRANCH   5  51
TORSDOF 20
ENDMDL
MODEL 8
REMARK VINA RESULT:    -8.168      2.492      6.295
REMARK INTER + INTRA:         -17.448
REMARK INTER:                 -13.286
REMARK INTRA:                  -4.162
REMARK UNBOUND:                -3.072
REMARK SMILES C[C@@H]1O[C@@H](O[C@H]2[C@@H](O)[C@@H](OCCc3ccc(O)c(O)c3)O[C@H](CO)[C@@H]2OC(=O)C=Cc2ccc(O)c(O)c2)[C@H](O)[C@H](O)[C@H]1O
REMARK SMILES IDX 6 1 7 2 9 3 21 4 22 5 25 6 5 7 4 8 1 9 2 10 43 11 3 12 41 13
REMARK SMILES IDX 39 14 44 15 42 17 40 19 8 21 26 23 27 24 28 25 29 26 30 27
REMARK SMILES IDX 31 28 38 29 32 30 36 31 33 32 34 33 37 34 35 36 10 38 11 39
REMARK SMILES IDX 12 40 13 41 20 42 14 43 18 44 15 45 16 46 19 47 17 49 23 51
REMARK SMILES IDX 24 52
REMARK H PARENT 44 16 42 18 40 20 8 22 37 35 35 37 19 48 17 50 24 53
REMARK Flexibility Score: inf
ROOT
ATOM      1  C   UNL     1     183.584  37.157  -3.571  1.00  0.00     0.199 C 
ATOM      2  C   UNL     1     184.891  38.149  -3.190  1.00  0.00     0.203 C 
ATOM      3  C   UNL     1     185.258  39.447  -4.107  1.00  0.00     0.282 C 
ATOM      4  O   UNL     1     184.554  39.282  -5.313  1.00  0.00    -0.340 OA
ATOM      5  C   UNL     1     183.137  39.288  -5.142  1.00  0.00     0.190 C 
ATOM      6  C   UNL     1     182.562  38.232  -4.098  1.00  0.00     0.240 C 
ENDROOT
BRANCH   1   7
ATOM      7  O   UNL     1     183.347  35.895  -4.363  1.00  0.00    -0.340 OA
BRANCH   7   8
ATOM      8  C   UNL     1     181.995  35.411  -4.800  1.00  0.00     0.282 C 
ATOM      9  C   UNL     1     181.059  32.182  -4.426  1.00  0.00     0.041 C 
ATOM     10  C   UNL     1     182.263  33.058  -4.675  1.00  0.00     0.150 C 
ATOM     11  C   UNL     1     182.686  33.058  -6.175  1.00  0.00     0.174 C 
ATOM     12  O   UNL     1     181.812  34.231  -4.029  1.00  0.00    -0.344 OA
ATOM     13  C   UNL     1     181.532  33.721  -7.078  1.00  0.00     0.179 C 
ATOM     14  C   UNL     1     181.179  35.155  -6.308  1.00  0.00     0.202 C 
BRANCH  11  15
ATOM     15  O   UNL     1     183.943  33.944  -6.547  1.00  0.00    -0.388 OA
ATOM     16  H   UNL     1     184.500  34.136  -7.479  1.00  0.00     0.211 HD
ENDBRANCH  11  15
BRANCH  13  17
ATOM     17  O   UNL     1     180.500  32.973  -7.815  1.00  0.00    -0.387 OA
ATOM     18  H   UNL     1     179.632  33.373  -7.578  1.00  0.00     0.211 HD
ENDBRANCH  13  17
BRANCH  14  19
ATOM     19  O   UNL     1     179.794  35.286  -6.181  1.00  0.00    -0.385 OA
ATOM     20  H   UNL     1     179.422  36.011  -6.755  1.00  0.00     0.211 HD
ENDBRANCH  14  19
ENDBRANCH   7   8
ENDBRANCH   1   7
BRANCH   2  21
ATOM     21  O   UNL     1     186.072  37.506  -2.813  1.00  0.00    -0.385 OA
ATOM     22  H   UNL     1     186.725  37.474  -3.581  1.00  0.00     0.211 HD
ENDBRANCH   2  21
BRANCH   6  23
ATOM     23  O   UNL     1     181.879  38.869  -2.996  1.00  0.00    -0.453 OA
BRANCH  23  24
ATOM     24  C   UNL     1     180.736  38.313  -2.392  1.00  0.00     0.331 C 
ATOM     25  O   UNL     1     179.957  37.613  -3.086  1.00  0.00    -0.247 OA
BRANCH  24  26
ATOM     26  C   UNL     1     180.478  38.422  -0.935  1.00  0.00     0.094 C 
ATOM     27  C   UNL     1     181.049  37.679   0.034  1.00  0.00     0.016 C 
BRANCH  27  28
ATOM     28  C   UNL     1     182.037  36.601  -0.181  1.00  0.00    -0.021 A 
ATOM     29  C   UNL     1     183.432  36.820  -0.103  1.00  0.00     0.058 A 
ATOM     30  C   UNL     1     181.583  35.321  -0.541  1.00  0.00     0.012 A 
ATOM     31  C   UNL     1     184.330  35.756  -0.158  1.00  0.00     0.157 A 
ATOM     32  C   UNL     1     182.493  34.242  -0.603  1.00  0.00     0.051 A 
ATOM     33  C   UNL     1     183.852  34.468  -0.397  1.00  0.00     0.157 A 
BRANCH  31  34
ATOM     34  O   UNL     1     185.701  36.034  -0.030  1.00  0.00    -0.504 OA
ATOM     35  H   UNL     1     186.408  35.424  -0.360  1.00  0.00     0.293 HD
ENDBRANCH  31  34
BRANCH  33  36
ATOM     36  O   UNL     1     184.747  33.391  -0.439  1.00  0.00    -0.504 OA
ATOM     37  H   UNL     1     184.818  32.778  -1.245  1.00  0.00     0.293 HD
ENDBRANCH  33  36
ENDBRANCH  27  28
ENDBRANCH  24  26
ENDBRANCH  23  24
ENDBRANCH   6  23
BRANCH   3  38
ATOM     38  O   UNL     1     186.733  39.344  -4.398  1.00  0.00    -0.350 OA
BRANCH  38  39
ATOM     39  C   UNL     1     187.765  40.255  -3.849  1.00  0.00     0.168 C 
BRANCH  39  40
ATOM     40  C   UNL     1     187.854  40.516  -2.125  1.00  0.00     0.064 C 
BRANCH  40  41
ATOM     41  C   UNL     1     186.988  40.837  -0.696  1.00  0.00    -0.042 A 
ATOM     42  C   UNL     1     187.691  40.520   0.652  1.00  0.00     0.054 A 
ATOM     43  C   UNL     1     185.556  40.741  -0.619  1.00  0.00     0.008 A 
ATOM     44  C   UNL     1     187.280  39.115   0.926  1.00  0.00     0.157 A 
ATOM     45  C   UNL     1     185.068  39.982   0.531  1.00  0.00     0.050 A 
ATOM     46  C   UNL     1     185.983  39.376   1.431  1.00  0.00     0.157 A 
BRANCH  44  47
ATOM     47  O   UNL     1     187.381  38.087  -0.164  1.00  0.00    -0.504 OA
ATOM     48  H   UNL     1     186.470  37.346  -0.447  1.00  0.00     0.293 HD
ENDBRANCH  44  47
BRANCH  46  49
ATOM     49  O   UNL     1     185.699  39.180   2.787  1.00  0.00    -0.504 OA
ATOM     50  H   UNL     1     185.760  40.059   3.355  1.00  0.00     0.293 HD
ENDBRANCH  46  49
ENDBRANCH  40  41
ENDBRANCH  39  40
ENDBRANCH  38  39
ENDBRANCH   3  38
BRANCH   5  51
ATOM     51  C   UNL     1     182.609  40.751  -4.991  1.00  0.00     0.192 C 
BRANCH  51  52
ATOM     52  O   UNL     1     182.396  41.423  -6.205  1.00  0.00    -0.394 OA
ATOM     53  H   UNL     1     183.190  41.207  -6.778  1.00  0.00     0.210 HD
ENDBRANCH  51  52
ENDBRANCH   5  51
TORSDOF 20
ENDMDL
MODEL 9
REMARK VINA RESULT:    -8.074      2.010      3.431
REMARK INTER + INTRA:         -17.283
REMARK INTER:                 -12.651
REMARK INTRA:                  -4.632
REMARK UNBOUND:                -3.072
REMARK SMILES C[C@@H]1O[C@@H](O[C@H]2[C@@H](O)[C@@H](OCCc3ccc(O)c(O)c3)O[C@H](CO)[C@@H]2OC(=O)C=Cc2ccc(O)c(O)c2)[C@H](O)[C@H](O)[C@H]1O
REMARK SMILES IDX 6 1 7 2 9 3 21 4 22 5 25 6 5 7 4 8 1 9 2 10 43 11 3 12 41 13
REMARK SMILES IDX 39 14 44 15 42 17 40 19 8 21 26 23 27 24 28 25 29 26 30 27
REMARK SMILES IDX 31 28 38 29 32 30 36 31 33 32 34 33 37 34 35 36 10 38 11 39
REMARK SMILES IDX 12 40 13 41 20 42 14 43 18 44 15 45 16 46 19 47 17 49 23 51
REMARK SMILES IDX 24 52
REMARK H PARENT 44 16 42 18 40 20 8 22 37 35 35 37 19 48 17 50 24 53
REMARK Flexibility Score: inf
ROOT
ATOM      1  C   UNL     1     182.990  38.781  -4.979  1.00  0.00     0.199 C 
ATOM      2  C   UNL     1     183.049  39.959  -3.776  1.00  0.00     0.203 C 
ATOM      3  C   UNL     1     184.424  40.783  -3.471  1.00  0.00     0.282 C 
ATOM      4  O   UNL     1     185.455  40.063  -4.099  1.00  0.00    -0.340 OA
ATOM      5  C   UNL     1     185.318  40.007  -5.519  1.00  0.00     0.190 C 
ATOM      6  C   UNL     1     183.931  39.436  -6.057  1.00  0.00     0.240 C 
ENDROOT
BRANCH   1   7
ATOM      7  O   UNL     1     183.179  37.288  -5.075  1.00  0.00    -0.340 OA
BRANCH   7   8
ATOM      8  C   UNL     1     182.128  36.276  -4.719  1.00  0.00     0.282 C 
ATOM      9  C   UNL     1     181.503  35.420  -1.507  1.00  0.00     0.041 C 
ATOM     10  C   UNL     1     182.609  35.868  -2.433  1.00  0.00     0.150 C 
ATOM     11  C   UNL     1     183.521  34.682  -2.869  1.00  0.00     0.174 C 
ATOM     12  O   UNL     1     181.829  36.589  -3.365  1.00  0.00    -0.344 OA
ATOM     13  C   UNL     1     182.682  33.629  -3.749  1.00  0.00     0.179 C 
ATOM     14  C   UNL     1     181.920  34.565  -4.897  1.00  0.00     0.202 C 
BRANCH  11  15
ATOM     15  O   UNL     1     184.717  35.042  -3.841  1.00  0.00    -0.388 OA
ATOM     16  H   UNL     1     185.094  35.979  -4.283  1.00  0.00     0.211 HD
ENDBRANCH  11  15
BRANCH  13  17
ATOM     17  O   UNL     1     182.063  32.397  -3.231  1.00  0.00    -0.387 OA
ATOM     18  H   UNL     1     181.919  31.803  -4.001  1.00  0.00     0.211 HD
ENDBRANCH  13  17
BRANCH  14  19
ATOM     19  O   UNL     1     180.571  34.208  -4.967  1.00  0.00    -0.385 OA
ATOM     20  H   UNL     1     180.435  33.291  -5.335  1.00  0.00     0.211 HD
ENDBRANCH  14  19
ENDBRANCH   7   8
ENDBRANCH   1   7
BRANCH   2  21
ATOM     21  O   UNL     1     182.425  39.647  -2.566  1.00  0.00    -0.385 OA
ATOM     22  H   UNL     1     181.456  39.927  -2.578  1.00  0.00     0.211 HD
ENDBRANCH   2  21
BRANCH   6  23
ATOM     23  O   UNL     1     183.208  40.409  -6.842  1.00  0.00    -0.453 OA
BRANCH  23  24
ATOM     24  C   UNL     1     182.305  40.042  -7.857  1.00  0.00     0.331 C 
ATOM     25  O   UNL     1     182.455  38.937  -8.437  1.00  0.00    -0.247 OA
BRANCH  24  26
ATOM     26  C   UNL     1     181.109  40.855  -8.186  1.00  0.00     0.094 C 
ATOM     27  C   UNL     1     179.895  40.760  -7.609  1.00  0.00     0.016 C 
BRANCH  27  28
ATOM     28  C   UNL     1     179.526  39.808  -6.540  1.00  0.00    -0.021 A 
ATOM     29  C   UNL     1     179.197  38.458  -6.802  1.00  0.00     0.058 A 
ATOM     30  C   UNL     1     179.437  40.270  -5.216  1.00  0.00     0.012 A 
ATOM     31  C   UNL     1     179.005  37.550  -5.763  1.00  0.00     0.157 A 
ATOM     32  C   UNL     1     179.236  39.352  -4.162  1.00  0.00     0.051 A 
ATOM     33  C   UNL     1     179.037  38.002  -4.444  1.00  0.00     0.157 A 
BRANCH  31  34
ATOM     34  O   UNL     1     178.722  36.213  -6.090  1.00  0.00    -0.504 OA
ATOM     35  H   UNL     1     179.345  35.468  -5.895  1.00  0.00     0.293 HD
ENDBRANCH  31  34
BRANCH  33  36
ATOM     36  O   UNL     1     178.859  37.093  -3.393  1.00  0.00    -0.504 OA
ATOM     37  H   UNL     1     178.074  36.452  -3.360  1.00  0.00     0.293 HD
ENDBRANCH  33  36
ENDBRANCH  27  28
ENDBRANCH  24  26
ENDBRANCH  23  24
ENDBRANCH   6  23
BRANCH   3  38
ATOM     38  O   UNL     1     184.629  40.705  -1.980  1.00  0.00    -0.350 OA
BRANCH  38  39
ATOM     39  C   UNL     1     185.765  40.017  -1.321  1.00  0.00     0.168 C 
BRANCH  39  40
ATOM     40  C   UNL     1     185.448  38.788  -0.122  1.00  0.00     0.064 C 
BRANCH  40  41
ATOM     41  C   UNL     1     184.619  38.389   1.309  1.00  0.00    -0.042 A 
ATOM     42  C   UNL     1     183.252  37.666   1.166  1.00  0.00     0.054 A 
ATOM     43  C   UNL     1     184.714  39.178   2.507  1.00  0.00     0.008 A 
ATOM     44  C   UNL     1     182.277  38.792   1.122  1.00  0.00     0.157 A 
ATOM     45  C   UNL     1     183.425  39.491   3.122  1.00  0.00     0.050 A 
ATOM     46  C   UNL     1     182.216  39.063   2.511  1.00  0.00     0.157 A 
BRANCH  44  47
ATOM     47  O   UNL     1     182.537  39.964   0.221  1.00  0.00    -0.504 OA
ATOM     48  H   UNL     1     183.420  40.762   0.429  1.00  0.00     0.293 HD
ENDBRANCH  44  47
BRANCH  46  49
ATOM     49  O   UNL     1     181.059  38.768   3.240  1.00  0.00    -0.504 OA
ATOM     50  H   UNL     1     180.692  39.586   3.784  1.00  0.00     0.293 HD
ENDBRANCH  46  49
ENDBRANCH  40  41
ENDBRANCH  39  40
ENDBRANCH  38  39
ENDBRANCH   3  38
BRANCH   5  51
ATOM     51  C   UNL     1     185.803  41.342  -6.169  1.00  0.00     0.192 C 
BRANCH  51  52
ATOM     52  O   UNL     1     185.996  41.279  -7.558  1.00  0.00    -0.394 OA
ATOM     53  H   UNL     1     185.585  42.116  -7.928  1.00  0.00     0.210 HD
ENDBRANCH  51  52
ENDBRANCH   5  51
TORSDOF 20
ENDMDL
