MODEL 1
REMARK VINA RESULT:    -4.416      0.000      0.000
REMARK INTER + INTRA:          -5.505
REMARK INTER:                  -5.191
REMARK INTRA:                  -0.314
REMARK UNBOUND:                -0.314
REMARK SMILES O=c1c(O)c(-c2ccc(O)c(O)c2)oc2cc(O)ccc12
REMARK SMILES IDX 5 1 3 2 2 3 1 4 21 5 15 6 14 7 16 8 17 9 19 10 20 11 6 12
REMARK SMILES IDX 7 13 8 14 9 15 13 16 11 17 10 18 12 20 4 22 18 24
REMARK H PARENT 10 19 12 21 4 23 18 25
REMARK Flexibility Score: inf
ROOT
ATOM      1  C   UNL     1      18.775  34.953  44.877  1.00  0.00     0.180 A 
ATOM      2  C   UNL     1      17.668  34.796  45.736  1.00  0.00     0.208 A 
ATOM      3  C   UNL     1      16.383  34.718  45.176  1.00  0.00     0.235 A 
ATOM      4  O   UNL     1      15.378  34.567  45.923  1.00  0.00    -0.285 OA
ATOM      5  C   UNL     1      16.230  34.818  43.785  1.00  0.00     0.069 A 
ATOM      6  C   UNL     1      17.386  34.999  42.996  1.00  0.00     0.142 A 
ATOM      7  O   UNL     1      18.585  35.058  43.564  1.00  0.00    -0.452 OA
ATOM      8  C   UNL     1      17.273  35.113  41.605  1.00  0.00     0.094 A 
ATOM      9  C   UNL     1      16.018  35.048  40.991  1.00  0.00     0.119 A 
ATOM     10  C   UNL     1      14.868  34.867  41.772  1.00  0.00     0.047 A 
ATOM     11  C   UNL     1      14.969  34.753  43.161  1.00  0.00     0.020 A 
ENDROOT
BRANCH   1  12
ATOM     12  C   UNL     1      20.163  35.025  45.389  1.00  0.00     0.025 A 
ATOM     13  C   UNL     1      20.915  33.845  45.514  1.00  0.00     0.016 A 
ATOM     14  C   UNL     1      22.218  33.887  46.014  1.00  0.00     0.051 A 
ATOM     15  C   UNL     1      22.784  35.106  46.410  1.00  0.00     0.157 A 
ATOM     16  C   UNL     1      20.727  36.244  45.807  1.00  0.00     0.062 A 
ATOM     17  C   UNL     1      22.036  36.285  46.311  1.00  0.00     0.158 A 
BRANCH  15  18
ATOM     18  O   UNL     1      24.085  35.153  46.908  1.00  0.00    -0.504 OA
ATOM     19  H   UNL     1      24.881  35.291  46.296  1.00  0.00     0.293 HD
ENDBRANCH  15  18
BRANCH  17  20
ATOM     20  O   UNL     1      22.595  37.495  46.719  1.00  0.00    -0.504 OA
ATOM     21  H   UNL     1      22.355  37.919  47.608  1.00  0.00     0.293 HD
ENDBRANCH  17  20
ENDBRANCH   1  12
BRANCH   2  22
ATOM     22  O   UNL     1      17.847  34.748  47.121  1.00  0.00    -0.502 OA
ATOM     23  H   UNL     1      17.238  35.241  47.763  1.00  0.00     0.293 HD
ENDBRANCH   2  22
BRANCH   9  24
ATOM     24  O   UNL     1      15.925  35.162  39.606  1.00  0.00    -0.508 OA
ATOM     25  H   UNL     1      16.530  34.633  38.989  1.00  0.00     0.293 HD
ENDBRANCH   9  24
TORSDOF 5
ENDMDL
MODEL 2
REMARK VINA RESULT:    -4.299      1.148      2.857
REMARK INTER + INTRA:          -5.368
REMARK INTER:                  -5.083
REMARK INTRA:                  -0.284
REMARK UNBOUND:                -0.314
REMARK SMILES O=c1c(O)c(-c2ccc(O)c(O)c2)oc2cc(O)ccc12
REMARK SMILES IDX 5 1 3 2 2 3 1 4 21 5 15 6 14 7 16 8 17 9 19 10 20 11 6 12
REMARK SMILES IDX 7 13 8 14 9 15 13 16 11 17 10 18 12 20 4 22 18 24
REMARK H PARENT 10 19 12 21 4 23 18 25
REMARK Flexibility Score: inf
ROOT
ATOM      1  C   UNL     1      19.113  34.826  44.410  1.00  0.00     0.180 A 
ATOM      2  C   UNL     1      18.991  34.737  43.008  1.00  0.00     0.208 A 
ATOM      3  C   UNL     1      17.707  34.670  42.444  1.00  0.00     0.235 A 
ATOM      4  O   UNL     1      17.572  34.601  41.192  1.00  0.00    -0.285 OA
ATOM      5  C   UNL     1      16.583  34.673  43.285  1.00  0.00     0.069 A 
ATOM      6  C   UNL     1      16.791  34.739  44.679  1.00  0.00     0.142 A 
ATOM      7  O   UNL     1      18.022  34.811  45.173  1.00  0.00    -0.452 OA
ATOM      8  C   UNL     1      15.695  34.735  45.550  1.00  0.00     0.094 A 
ATOM      9  C   UNL     1      14.393  34.665  45.046  1.00  0.00     0.119 A 
ATOM     10  C   UNL     1      14.183  34.599  43.662  1.00  0.00     0.047 A 
ATOM     11  C   UNL     1      15.270  34.603  42.783  1.00  0.00     0.020 A 
ENDROOT
BRANCH   1  12
ATOM     12  C   UNL     1      20.430  34.919  45.080  1.00  0.00     0.025 A 
ATOM     13  C   UNL     1      21.182  33.752  45.291  1.00  0.00     0.016 A 
ATOM     14  C   UNL     1      22.417  33.814  45.940  1.00  0.00     0.051 A 
ATOM     15  C   UNL     1      22.913  35.040  46.400  1.00  0.00     0.157 A 
ATOM     16  C   UNL     1      20.922  36.146  45.562  1.00  0.00     0.062 A 
ATOM     17  C   UNL     1      22.162  36.207  46.215  1.00  0.00     0.158 A 
BRANCH  15  18
ATOM     18  O   UNL     1      24.147  35.107  47.046  1.00  0.00    -0.504 OA
ATOM     19  H   UNL     1      24.956  34.609  46.693  1.00  0.00     0.293 HD
ENDBRANCH  15  18
BRANCH  17  20
ATOM     20  O   UNL     1      22.651  37.425  46.687  1.00  0.00    -0.504 OA
ATOM     21  H   UNL     1      23.473  37.474  47.277  1.00  0.00     0.293 HD
ENDBRANCH  17  20
ENDBRANCH   1  12
BRANCH   2  22
ATOM     22  O   UNL     1      20.129  34.687  42.200  1.00  0.00    -0.502 OA
ATOM     23  H   UNL     1      20.829  33.961  42.295  1.00  0.00     0.293 HD
ENDBRANCH   2  22
BRANCH   9  24
ATOM     24  O   UNL     1      13.315  34.661  45.928  1.00  0.00    -0.508 OA
ATOM     25  H   UNL     1      13.179  33.911  46.596  1.00  0.00     0.293 HD
ENDBRANCH   9  24
TORSDOF 5
ENDMDL
MODEL 3
REMARK VINA RESULT:    -4.088      1.138      1.929
REMARK INTER + INTRA:          -5.119
REMARK INTER:                  -4.795
REMARK INTRA:                  -0.324
REMARK UNBOUND:                -0.314
REMARK SMILES O=c1c(O)c(-c2ccc(O)c(O)c2)oc2cc(O)ccc12
REMARK SMILES IDX 5 1 3 2 2 3 1 4 21 5 15 6 14 7 16 8 17 9 19 10 20 11 6 12
REMARK SMILES IDX 7 13 8 14 9 15 13 16 11 17 10 18 12 20 4 22 18 24
REMARK H PARENT 10 19 12 21 4 23 18 25
REMARK Flexibility Score: inf
ROOT
ATOM      1  C   UNL     1      17.867  35.342  44.205  1.00  0.00     0.180 A 
ATOM      2  C   UNL     1      16.794  34.798  44.941  1.00  0.00     0.208 A 
ATOM      3  C   UNL     1      15.671  34.321  44.248  1.00  0.00     0.235 A 
ATOM      4  O   UNL     1      14.704  33.820  44.883  1.00  0.00    -0.285 OA
ATOM      5  C   UNL     1      15.635  34.414  42.847  1.00  0.00     0.069 A 
ATOM      6  C   UNL     1      16.738  34.994  42.186  1.00  0.00     0.142 A 
ATOM      7  O   UNL     1      17.786  35.425  42.879  1.00  0.00    -0.452 OA
ATOM      8  C   UNL     1      16.734  35.113  40.792  1.00  0.00     0.094 A 
ATOM      9  C   UNL     1      15.641  34.660  40.047  1.00  0.00     0.119 A 
ATOM     10  C   UNL     1      14.544  34.082  40.701  1.00  0.00     0.047 A 
ATOM     11  C   UNL     1      14.537  33.959  42.093  1.00  0.00     0.020 A 
ENDROOT
BRANCH   1  12
ATOM     12  C   UNL     1      19.094  35.849  44.862  1.00  0.00     0.025 A 
ATOM     13  C   UNL     1      19.189  37.212  45.189  1.00  0.00     0.016 A 
ATOM     14  C   UNL     1      20.345  37.715  45.790  1.00  0.00     0.051 A 
ATOM     15  C   UNL     1      21.427  36.869  46.059  1.00  0.00     0.157 A 
ATOM     16  C   UNL     1      20.191  35.006  45.115  1.00  0.00     0.062 A 
ATOM     17  C   UNL     1      21.353  35.513  45.716  1.00  0.00     0.158 A 
BRANCH  15  18
ATOM     18  O   UNL     1      22.582  37.367  46.660  1.00  0.00    -0.504 OA
ATOM     19  H   UNL     1      23.438  36.826  46.694  1.00  0.00     0.293 HD
ENDBRANCH  15  18
BRANCH  17  20
ATOM     20  O   UNL     1      22.437  34.676  45.972  1.00  0.00    -0.504 OA
ATOM     21  H   UNL     1      22.385  33.676  45.814  1.00  0.00     0.293 HD
ENDBRANCH  17  20
ENDBRANCH   1  12
BRANCH   2  22
ATOM     22  O   UNL     1      16.839  34.763  46.337  1.00  0.00    -0.502 OA
ATOM     23  H   UNL     1      17.133  35.560  46.890  1.00  0.00     0.293 HD
ENDBRANCH   2  22
BRANCH   9  24
ATOM     24  O   UNL     1      15.655  34.786  38.660  1.00  0.00    -0.508 OA
ATOM     25  H   UNL     1      15.102  35.493  38.187  1.00  0.00     0.293 HD
ENDBRANCH   9  24
TORSDOF 5
ENDMDL
MODEL 4
REMARK VINA RESULT:    -4.012      1.586      6.925
REMARK INTER + INTRA:          -5.030
REMARK INTER:                  -4.714
REMARK INTRA:                  -0.316
REMARK UNBOUND:                -0.314
REMARK SMILES O=c1c(O)c(-c2ccc(O)c(O)c2)oc2cc(O)ccc12
REMARK SMILES IDX 5 1 3 2 2 3 1 4 21 5 15 6 14 7 16 8 17 9 19 10 20 11 6 12
REMARK SMILES IDX 7 13 8 14 9 15 13 16 11 17 10 18 12 20 4 22 18 24
REMARK H PARENT 10 19 12 21 4 23 18 25
REMARK Flexibility Score: inf
ROOT
ATOM      1  C   UNL     1      18.486  34.524  43.482  1.00  0.00     0.180 A 
ATOM      2  C   UNL     1      19.033  33.227  43.558  1.00  0.00     0.208 A 
ATOM      3  C   UNL     1      20.204  33.029  44.307  1.00  0.00     0.235 A 
ATOM      4  O   UNL     1      20.706  31.876  44.400  1.00  0.00    -0.285 OA
ATOM      5  C   UNL     1      20.809  34.125  44.942  1.00  0.00     0.069 A 
ATOM      6  C   UNL     1      20.213  35.396  44.797  1.00  0.00     0.142 A 
ATOM      7  O   UNL     1      19.100  35.539  44.087  1.00  0.00    -0.452 OA
ATOM      8  C   UNL     1      20.793  36.514  45.407  1.00  0.00     0.094 A 
ATOM      9  C   UNL     1      21.962  36.379  46.162  1.00  0.00     0.119 A 
ATOM     10  C   UNL     1      22.556  35.118  46.309  1.00  0.00     0.047 A 
ATOM     11  C   UNL     1      21.986  33.995  45.704  1.00  0.00     0.020 A 
ENDROOT
BRANCH   1  12
ATOM     12  C   UNL     1      17.245  34.811  42.727  1.00  0.00     0.025 A 
ATOM     13  C   UNL     1      16.004  34.728  43.380  1.00  0.00     0.016 A 
ATOM     14  C   UNL     1      14.820  34.974  42.682  1.00  0.00     0.051 A 
ATOM     15  C   UNL     1      14.857  35.291  41.318  1.00  0.00     0.157 A 
ATOM     16  C   UNL     1      17.276  35.110  41.353  1.00  0.00     0.062 A 
ATOM     17  C   UNL     1      16.086  35.354  40.651  1.00  0.00     0.158 A 
BRANCH  15  18
ATOM     18  O   UNL     1      13.676  35.539  40.619  1.00  0.00    -0.504 OA
ATOM     19  H   UNL     1      13.041  36.279  40.897  1.00  0.00     0.293 HD
ENDBRANCH  15  18
BRANCH  17  20
ATOM     20  O   UNL     1      16.118  35.656  39.291  1.00  0.00    -0.504 OA
ATOM     21  H   UNL     1      16.838  35.285  38.681  1.00  0.00     0.293 HD
ENDBRANCH  17  20
ENDBRANCH   1  12
BRANCH   2  22
ATOM     22  O   UNL     1      18.435  32.165  42.875  1.00  0.00    -0.502 OA
ATOM     23  H   UNL     1      18.782  31.216  42.939  1.00  0.00     0.293 HD
ENDBRANCH   2  22
BRANCH   9  24
ATOM     24  O   UNL     1      22.525  37.503  46.763  1.00  0.00    -0.508 OA
ATOM     25  H   UNL     1      21.949  38.228  47.175  1.00  0.00     0.293 HD
ENDBRANCH   9  24
TORSDOF 5
ENDMDL
MODEL 5
REMARK VINA RESULT:    -3.856      3.860      5.162
REMARK INTER + INTRA:          -4.847
REMARK INTER:                  -4.528
REMARK INTRA:                  -0.319
REMARK UNBOUND:                -0.314
REMARK SMILES O=c1c(O)c(-c2ccc(O)c(O)c2)oc2cc(O)ccc12
REMARK SMILES IDX 5 1 3 2 2 3 1 4 21 5 15 6 14 7 16 8 17 9 19 10 20 11 6 12
REMARK SMILES IDX 7 13 8 14 9 15 13 16 11 17 10 18 12 20 4 22 18 24
REMARK H PARENT 10 19 12 21 4 23 18 25
REMARK Flexibility Score: inf
ROOT
ATOM      1  C   UNL     1      20.951  34.081  43.326  1.00  0.00     0.180 A 
ATOM      2  C   UNL     1      21.253  32.748  43.673  1.00  0.00     0.208 A 
ATOM      3  C   UNL     1      21.685  31.868  42.669  1.00  0.00     0.235 A 
ATOM      4  O   UNL     1      21.972  30.674  42.957  1.00  0.00    -0.285 OA
ATOM      5  C   UNL     1      21.786  32.328  41.346  1.00  0.00     0.069 A 
ATOM      6  C   UNL     1      21.441  33.669  41.076  1.00  0.00     0.142 A 
ATOM      7  O   UNL     1      21.045  34.472  42.057  1.00  0.00    -0.452 OA
ATOM      8  C   UNL     1      21.519  34.161  39.768  1.00  0.00     0.094 A 
ATOM      9  C   UNL     1      21.939  33.330  38.725  1.00  0.00     0.119 A 
ATOM     10  C   UNL     1      22.283  31.997  38.990  1.00  0.00     0.047 A 
ATOM     11  C   UNL     1      22.208  31.495  40.292  1.00  0.00     0.020 A 
ENDROOT
BRANCH   1  12
ATOM     12  C   UNL     1      20.507  35.074  44.330  1.00  0.00     0.025 A 
ATOM     13  C   UNL     1      19.135  35.326  44.493  1.00  0.00     0.016 A 
ATOM     14  C   UNL     1      18.695  36.274  45.420  1.00  0.00     0.051 A 
ATOM     15  C   UNL     1      19.620  36.994  46.187  1.00  0.00     0.157 A 
ATOM     16  C   UNL     1      21.433  35.814  45.087  1.00  0.00     0.062 A 
ATOM     17  C   UNL     1      20.991  36.768  46.017  1.00  0.00     0.158 A 
BRANCH  15  18
ATOM     18  O   UNL     1      19.185  37.940  47.115  1.00  0.00    -0.504 OA
ATOM     19  H   UNL     1      19.039  37.698  48.088  1.00  0.00     0.293 HD
ENDBRANCH  15  18
BRANCH  17  20
ATOM     20  O   UNL     1      21.910  37.496  46.771  1.00  0.00    -0.504 OA
ATOM     21  H   UNL     1      22.681  37.044  47.250  1.00  0.00     0.293 HD
ENDBRANCH  17  20
ENDBRANCH   1  12
BRANCH   2  22
ATOM     22  O   UNL     1      21.096  32.307  44.989  1.00  0.00    -0.502 OA
ATOM     23  H   UNL     1      21.864  31.923  45.528  1.00  0.00     0.293 HD
ENDBRANCH   2  22
BRANCH   9  24
ATOM     24  O   UNL     1      22.011  33.837  37.429  1.00  0.00    -0.508 OA
ATOM     25  H   UNL     1      22.657  34.579  37.186  1.00  0.00     0.293 HD
ENDBRANCH   9  24
TORSDOF 5
ENDMDL
MODEL 6
REMARK VINA RESULT:    -3.848      3.713      7.098
REMARK INTER + INTRA:          -4.837
REMARK INTER:                  -4.560
REMARK INTRA:                  -0.277
REMARK UNBOUND:                -0.314
REMARK SMILES O=c1c(O)c(-c2ccc(O)c(O)c2)oc2cc(O)ccc12
REMARK SMILES IDX 5 1 3 2 2 3 1 4 21 5 15 6 14 7 16 8 17 9 19 10 20 11 6 12
REMARK SMILES IDX 7 13 8 14 9 15 13 16 11 17 10 18 12 20 4 22 18 24
REMARK H PARENT 10 19 12 21 4 23 18 25
REMARK Flexibility Score: inf
ROOT
ATOM      1  C   UNL     1      21.637  34.048  42.709  1.00  0.00     0.180 A 
ATOM      2  C   UNL     1      22.850  33.589  43.264  1.00  0.00     0.208 A 
ATOM      3  C   UNL     1      23.226  34.043  44.537  1.00  0.00     0.235 A 
ATOM      4  O   UNL     1      24.301  33.638  45.059  1.00  0.00    -0.285 OA
ATOM      5  C   UNL     1      22.402  34.954  45.217  1.00  0.00     0.069 A 
ATOM      6  C   UNL     1      21.216  35.384  44.583  1.00  0.00     0.142 A 
ATOM      7  O   UNL     1      20.892  34.923  43.381  1.00  0.00    -0.452 OA
ATOM      8  C   UNL     1      20.373  36.299  45.224  1.00  0.00     0.094 A 
ATOM      9  C   UNL     1      20.699  36.790  46.493  1.00  0.00     0.119 A 
ATOM     10  C   UNL     1      21.875  36.364  47.125  1.00  0.00     0.047 A 
ATOM     11  C   UNL     1      22.724  35.451  46.493  1.00  0.00     0.020 A 
ENDROOT
BRANCH   1  12
ATOM     12  C   UNL     1      21.162  33.602  41.380  1.00  0.00     0.025 A 
ATOM     13  C   UNL     1      20.584  32.329  41.244  1.00  0.00     0.016 A 
ATOM     14  C   UNL     1      20.148  31.880  39.996  1.00  0.00     0.051 A 
ATOM     15  C   UNL     1      20.297  32.690  38.862  1.00  0.00     0.157 A 
ATOM     16  C   UNL     1      21.329  34.403  40.236  1.00  0.00     0.062 A 
ATOM     17  C   UNL     1      20.893  33.951  38.981  1.00  0.00     0.158 A 
BRANCH  15  18
ATOM     18  O   UNL     1      19.861  32.246  37.614  1.00  0.00    -0.504 OA
ATOM     19  H   UNL     1      19.434  32.878  36.947  1.00  0.00     0.293 HD
ENDBRANCH  15  18
BRANCH  17  20
ATOM     20  O   UNL     1      21.053  34.749  37.850  1.00  0.00    -0.504 OA
ATOM     21  H   UNL     1      21.706  35.523  37.834  1.00  0.00     0.293 HD
ENDBRANCH  17  20
ENDBRANCH   1  12
BRANCH   2  22
ATOM     22  O   UNL     1      23.673  32.721  42.543  1.00  0.00    -0.502 OA
ATOM     23  H   UNL     1      24.301  33.046  41.818  1.00  0.00     0.293 HD
ENDBRANCH   2  22
BRANCH   9  24
ATOM     24  O   UNL     1      19.848  37.700  47.116  1.00  0.00    -0.508 OA
ATOM     25  H   UNL     1      19.924  38.697  46.948  1.00  0.00     0.293 HD
ENDBRANCH   9  24
TORSDOF 5
ENDMDL
MODEL 7
REMARK VINA RESULT:    -3.740      3.410      7.027
REMARK INTER + INTRA:          -4.710
REMARK INTER:                  -4.388
REMARK INTRA:                  -0.322
REMARK UNBOUND:                -0.314
REMARK SMILES O=c1c(O)c(-c2ccc(O)c(O)c2)oc2cc(O)ccc12
REMARK SMILES IDX 5 1 3 2 2 3 1 4 21 5 15 6 14 7 16 8 17 9 19 10 20 11 6 12
REMARK SMILES IDX 7 13 8 14 9 15 13 16 11 17 10 18 12 20 4 22 18 24
REMARK H PARENT 10 19 12 21 4 23 18 25
REMARK Flexibility Score: inf
ROOT
ATOM      1  C   UNL     1      21.027  34.107  42.605  1.00  0.00     0.180 A 
ATOM      2  C   UNL     1      19.921  34.666  43.278  1.00  0.00     0.208 A 
ATOM      3  C   UNL     1      20.088  35.112  44.598  1.00  0.00     0.235 A 
ATOM      4  O   UNL     1      19.117  35.626  45.218  1.00  0.00    -0.285 OA
ATOM      5  C   UNL     1      21.339  34.975  45.220  1.00  0.00     0.069 A 
ATOM      6  C   UNL     1      22.389  34.382  44.487  1.00  0.00     0.142 A 
ATOM      7  O   UNL     1      22.193  33.981  43.236  1.00  0.00    -0.452 OA
ATOM      8  C   UNL     1      23.648  34.219  45.076  1.00  0.00     0.094 A 
ATOM      9  C   UNL     1      23.873  34.641  46.390  1.00  0.00     0.119 A 
ATOM     10  C   UNL     1      22.832  35.230  47.121  1.00  0.00     0.047 A 
ATOM     11  C   UNL     1      21.571  35.397  46.543  1.00  0.00     0.020 A 
ENDROOT
BRANCH   1  12
ATOM     12  C   UNL     1      20.937  33.630  41.205  1.00  0.00     0.025 A 
ATOM     13  C   UNL     1      20.689  32.271  40.954  1.00  0.00     0.016 A 
ATOM     14  C   UNL     1      20.620  31.796  39.642  1.00  0.00     0.051 A 
ATOM     15  C   UNL     1      20.814  32.669  38.564  1.00  0.00     0.157 A 
ATOM     16  C   UNL     1      21.151  34.499  40.120  1.00  0.00     0.062 A 
ATOM     17  C   UNL     1      21.085  34.021  38.803  1.00  0.00     0.158 A 
BRANCH  15  18
ATOM     18  O   UNL     1      20.744  32.199  37.253  1.00  0.00    -0.504 OA
ATOM     19  H   UNL     1      19.893  31.796  36.880  1.00  0.00     0.293 HD
ENDBRANCH  15  18
BRANCH  17  20
ATOM     20  O   UNL     1      21.291  34.885  37.729  1.00  0.00    -0.504 OA
ATOM     21  H   UNL     1      22.153  35.409  37.626  1.00  0.00     0.293 HD
ENDBRANCH  17  20
ENDBRANCH   1  12
BRANCH   2  22
ATOM     22  O   UNL     1      18.676  34.745  42.650  1.00  0.00    -0.502 OA
ATOM     23  H   UNL     1      17.841  35.047  43.137  1.00  0.00     0.293 HD
ENDBRANCH   2  22
BRANCH   9  24
ATOM     24  O   UNL     1      25.132  34.470  46.960  1.00  0.00    -0.508 OA
ATOM     25  H   UNL     1      25.975  34.488  46.397  1.00  0.00     0.293 HD
ENDBRANCH   9  24
TORSDOF 5
ENDMDL
MODEL 8
REMARK VINA RESULT:    -3.733      3.807      6.098
REMARK INTER + INTRA:          -4.702
REMARK INTER:                  -4.398
REMARK INTRA:                  -0.304
REMARK UNBOUND:                -0.314
REMARK SMILES O=c1c(O)c(-c2ccc(O)c(O)c2)oc2cc(O)ccc12
REMARK SMILES IDX 5 1 3 2 2 3 1 4 21 5 15 6 14 7 16 8 17 9 19 10 20 11 6 12
REMARK SMILES IDX 7 13 8 14 9 15 13 16 11 17 10 18 12 20 4 22 18 24
REMARK H PARENT 10 19 12 21 4 23 18 25
REMARK Flexibility Score: inf
ROOT
ATOM      1  C   UNL     1      21.102  33.784  43.573  1.00  0.00     0.180 A 
ATOM      2  C   UNL     1      21.389  33.951  42.203  1.00  0.00     0.208 A 
ATOM      3  C   UNL     1      21.815  32.838  41.460  1.00  0.00     0.235 A 
ATOM      4  O   UNL     1      22.067  32.960  40.230  1.00  0.00    -0.285 OA
ATOM      5  C   UNL     1      21.962  31.598  42.100  1.00  0.00     0.069 A 
ATOM      6  C   UNL     1      21.679  31.519  43.480  1.00  0.00     0.142 A 
ATOM      7  O   UNL     1      21.269  32.593  44.145  1.00  0.00    -0.452 OA
ATOM      8  C   UNL     1      21.824  30.301  44.155  1.00  0.00     0.094 A 
ATOM      9  C   UNL     1      22.248  29.159  43.469  1.00  0.00     0.119 A 
ATOM     10  C   UNL     1      22.531  29.235  42.098  1.00  0.00     0.047 A 
ATOM     11  C   UNL     1      22.390  30.445  41.414  1.00  0.00     0.020 A 
ENDROOT
BRANCH   1  12
ATOM     12  C   UNL     1      20.631  34.904  44.420  1.00  0.00     0.025 A 
ATOM     13  C   UNL     1      19.271  35.252  44.410  1.00  0.00     0.016 A 
ATOM     14  C   UNL     1      18.808  36.319  45.185  1.00  0.00     0.051 A 
ATOM     15  C   UNL     1      19.701  37.061  45.968  1.00  0.00     0.157 A 
ATOM     16  C   UNL     1      21.527  35.665  45.192  1.00  0.00     0.062 A 
ATOM     17  C   UNL     1      21.063  36.737  45.968  1.00  0.00     0.158 A 
BRANCH  15  18
ATOM     18  O   UNL     1      19.243  38.125  46.745  1.00  0.00    -0.504 OA
ATOM     19  H   UNL     1      19.498  38.216  47.722  1.00  0.00     0.293 HD
ENDBRANCH  15  18
BRANCH  17  20
ATOM     20  O   UNL     1      21.951  37.487  46.738  1.00  0.00    -0.504 OA
ATOM     21  H   UNL     1      22.950  37.464  46.569  1.00  0.00     0.293 HD
ENDBRANCH  17  20
ENDBRANCH   1  12
BRANCH   2  22
ATOM     22  O   UNL     1      21.280  35.208  41.605  1.00  0.00    -0.502 OA
ATOM     23  H   UNL     1      21.203  36.061  42.146  1.00  0.00     0.293 HD
ENDBRANCH   2  22
BRANCH   9  24
ATOM     24  O   UNL     1      22.387  27.956  44.157  1.00  0.00    -0.508 OA
ATOM     25  H   UNL     1      22.375  27.921  45.170  1.00  0.00     0.293 HD
ENDBRANCH   9  24
TORSDOF 5
ENDMDL
MODEL 9
REMARK VINA RESULT:    -3.699      3.457      4.538
REMARK INTER + INTRA:          -4.662
REMARK INTER:                  -4.385
REMARK INTRA:                  -0.277
REMARK UNBOUND:                -0.314
REMARK SMILES O=c1c(O)c(-c2ccc(O)c(O)c2)oc2cc(O)ccc12
REMARK SMILES IDX 5 1 3 2 2 3 1 4 21 5 15 6 14 7 16 8 17 9 19 10 20 11 6 12
REMARK SMILES IDX 7 13 8 14 9 15 13 16 11 17 10 18 12 20 4 22 18 24
REMARK H PARENT 10 19 12 21 4 23 18 25
REMARK Flexibility Score: inf
ROOT
ATOM      1  C   UNL     1      20.348  33.792  43.289  1.00  0.00     0.180 A 
ATOM      2  C   UNL     1      20.504  33.967  41.898  1.00  0.00     0.208 A 
ATOM      3  C   UNL     1      19.961  33.008  41.030  1.00  0.00     0.235 A 
ATOM      4  O   UNL     1      20.079  33.148  39.782  1.00  0.00    -0.285 OA
ATOM      5  C   UNL     1      19.295  31.893  41.564  1.00  0.00     0.069 A 
ATOM      6  C   UNL     1      19.202  31.778  42.967  1.00  0.00     0.142 A 
ATOM      7  O   UNL     1      19.722  32.713  43.754  1.00  0.00    -0.452 OA
ATOM      8  C   UNL     1      18.555  30.676  43.537  1.00  0.00     0.094 A 
ATOM      9  C   UNL     1      17.997  29.685  42.722  1.00  0.00     0.119 A 
ATOM     10  C   UNL     1      18.088  29.797  41.328  1.00  0.00     0.047 A 
ATOM     11  C   UNL     1      18.733  30.893  40.748  1.00  0.00     0.020 A 
ENDROOT
BRANCH   1  12
ATOM     12  C   UNL     1      20.876  34.769  44.269  1.00  0.00     0.025 A 
ATOM     13  C   UNL     1      22.007  34.438  45.033  1.00  0.00     0.016 A 
ATOM     14  C   UNL     1      22.509  35.335  45.978  1.00  0.00     0.051 A 
ATOM     15  C   UNL     1      21.881  36.570  46.183  1.00  0.00     0.157 A 
ATOM     16  C   UNL     1      20.236  36.001  44.493  1.00  0.00     0.062 A 
ATOM     17  C   UNL     1      20.740  36.902  45.443  1.00  0.00     0.158 A 
BRANCH  15  18
ATOM     18  O   UNL     1      22.381  37.470  47.124  1.00  0.00    -0.504 OA
ATOM     19  H   UNL     1      22.378  38.469  46.954  1.00  0.00     0.293 HD
ENDBRANCH  15  18
BRANCH  17  20
ATOM     20  O   UNL     1      20.108  38.125  45.659  1.00  0.00    -0.504 OA
ATOM     21  H   UNL     1      20.569  38.881  46.152  1.00  0.00     0.293 HD
ENDBRANCH  17  20
ENDBRANCH   1  12
BRANCH   2  22
ATOM     22  O   UNL     1      21.214  35.062  41.399  1.00  0.00    -0.502 OA
ATOM     23  H   UNL     1      21.368  35.903  41.942  1.00  0.00     0.293 HD
ENDBRANCH   2  22
BRANCH   9  24
ATOM     24  O   UNL     1      17.357  28.596  43.307  1.00  0.00    -0.508 OA
ATOM     25  H   UNL     1      17.075  28.607  44.281  1.00  0.00     0.293 HD
ENDBRANCH   9  24
TORSDOF 5
ENDMDL
