MODEL 1
REMARK VINA RESULT:    -4.645      0.000      0.000
REMARK INTER + INTRA:          -6.187
REMARK INTER:                  -6.274
REMARK INTRA:                   0.087
REMARK UNBOUND:                 0.087
REMARK SMILES C=C(C)[C@@H]1CC[C@@H](C)C2=C(C1)[C@H](C)CC2
REMARK SMILES IDX 10 1 9 2 15 3 14 4 12 5 13 6 7 7 8 8 6 9 11 11 4 12 5 13
REMARK SMILES IDX 2 15 1 16 3 17
REMARK H PARENT
REMARK Flexibility Score: 80.00
ROOT
ATOM      1  C   UNL     1     -50.601 -49.932  19.897  1.00  0.00    -0.067 C 
ATOM      2  C   UNL     1     -50.387 -48.888  20.697  1.00  0.00    -0.068 C 
ATOM      3  C   UNL     1     -51.671 -48.372  21.268  1.00  0.00     0.032 C 
ATOM      4  C   UNL     1     -52.730 -49.385  20.831  1.00  0.00     0.012 C 
ATOM      5  C   UNL     1     -52.052 -50.281  19.784  1.00  0.00     0.012 C 
ATOM      6  C   UNL     1     -52.573 -49.995  18.370  1.00  0.00     0.012 C 
ENDROOT
BRANCH   2   7
ATOM      7  C   UNL     1     -49.016 -48.271  20.934  1.00  0.00     0.012 C 
ATOM      8  C   UNL     1     -49.059 -47.161  21.995  1.00  0.00     0.012 C 
BRANCH   7   9
ATOM      9  C   UNL     1     -48.434 -47.720  19.611  1.00  0.00     0.008 CG0
ATOM     10  G   UNL     1     -47.803 -48.810  18.728  1.00  0.00     0.000 G0
ENDBRANCH   7   9
ENDBRANCH   2   7
BRANCH   1  11
ATOM     11  C   UNL     1     -49.517 -50.671  19.152  1.00  0.00     0.039 C 
BRANCH  11  12
ATOM     12  C   UNL     1     -48.840 -49.769  18.099  1.00  0.00     0.018 C 
BRANCH  12  13
ATOM     13  C   UNL     1     -47.804 -48.811  18.726  1.00  0.00     0.009 CG0
ATOM     14  G   UNL     1     -48.423 -47.722  19.618  1.00  0.00     0.000 G0
ENDBRANCH  12  13
BRANCH  12  15
ATOM     15  C   UNL     1     -48.172 -50.622  17.027  1.00  0.00    -0.077 C 
ATOM     16  C   UNL     1     -47.930 -51.924  17.250  1.00  0.00     0.008 C 
ATOM     17  C   UNL     1     -47.776 -50.030  15.698  1.00  0.00     0.039 C 
ENDBRANCH  12  15
ENDBRANCH  11  12
ENDBRANCH   1  11
TORSDOF 1
ENDMDL
MODEL 2
REMARK VINA RESULT:    -4.621      1.649      5.192
REMARK INTER + INTRA:          -6.155
REMARK INTER:                  -6.212
REMARK INTRA:                   0.057
REMARK UNBOUND:                 0.087
REMARK SMILES C=C(C)[C@@H]1CC[C@@H](C)C2=C(C1)[C@H](C)CC2
REMARK SMILES IDX 10 1 9 2 15 3 14 4 12 5 13 6 7 7 8 8 6 9 11 11 4 12 5 13
REMARK SMILES IDX 2 15 1 16 3 17
REMARK H PARENT
REMARK Flexibility Score: 80.00
ROOT
ATOM      1  C   UNL     1     -47.902 -48.386  17.875  1.00  0.00    -0.067 C 
ATOM      2  C   UNL     1     -48.001 -49.503  17.155  1.00  0.00    -0.068 C 
ATOM      3  C   UNL     1     -47.566 -49.276  15.741  1.00  0.00     0.032 C 
ATOM      4  C   UNL     1     -47.000 -47.855  15.729  1.00  0.00     0.012 C 
ATOM      5  C   UNL     1     -47.403 -47.227  17.071  1.00  0.00     0.012 C 
ATOM      6  C   UNL     1     -48.501 -46.171  16.896  1.00  0.00     0.012 C 
ENDROOT
BRANCH   2   7
ATOM      7  C   UNL     1     -48.553 -50.813  17.698  1.00  0.00     0.012 C 
ATOM      8  C   UNL     1     -48.427 -51.958  16.681  1.00  0.00     0.012 C 
BRANCH   7   9
ATOM      9  C   UNL     1     -50.029 -50.644  18.128  1.00  0.00     0.008 CG0
ATOM     10  G   UNL     1     -50.185 -49.959  19.496  1.00  0.00     0.000 G0
ENDBRANCH   7   9
ENDBRANCH   2   7
BRANCH   1  11
ATOM     11  C   UNL     1     -48.279 -48.275  19.332  1.00  0.00     0.039 C 
BRANCH  11  12
ATOM     12  C   UNL     1     -49.795 -48.478  19.540  1.00  0.00     0.018 C 
BRANCH  12  13
ATOM     13  C   UNL     1     -50.196 -49.968  19.509  1.00  0.00     0.009 CG0
ATOM     14  G   UNL     1     -50.024 -50.632  18.132  1.00  0.00     0.000 G0
ENDBRANCH  12  13
BRANCH  12  15
ATOM     15  C   UNL     1     -50.233 -47.851  20.858  1.00  0.00    -0.077 C 
ATOM     16  C   UNL     1     -49.408 -47.028  21.524  1.00  0.00     0.008 C 
ATOM     17  C   UNL     1     -51.596 -48.135  21.438  1.00  0.00     0.039 C 
ENDBRANCH  12  15
ENDBRANCH  11  12
ENDBRANCH   1  11
TORSDOF 1
ENDMDL
MODEL 3
REMARK VINA RESULT:    -4.504      1.924      5.287
REMARK INTER + INTRA:          -5.997
REMARK INTER:                  -6.068
REMARK INTRA:                   0.071
REMARK UNBOUND:                 0.087
REMARK SMILES C=C(C)[C@@H]1CC[C@@H](C)C2=C(C1)[C@H](C)CC2
REMARK SMILES IDX 10 1 9 2 15 3 14 4 12 5 13 6 7 7 8 8 6 9 11 11 4 12 5 13
REMARK SMILES IDX 2 15 1 16 3 17
REMARK H PARENT
REMARK Flexibility Score: 80.00
ROOT
ATOM      1  C   UNL     1     -48.126 -49.119  17.603  1.00  0.00    -0.067 C 
ATOM      2  C   UNL     1     -48.409 -49.838  16.516  1.00  0.00    -0.068 C 
ATOM      3  C   UNL     1     -47.834 -49.209  15.286  1.00  0.00     0.032 C 
ATOM      4  C   UNL     1     -46.979 -48.050  15.801  1.00  0.00     0.012 C 
ATOM      5  C   UNL     1     -47.335 -47.889  17.286  1.00  0.00     0.012 C 
ATOM      6  C   UNL     1     -48.167 -46.625  17.536  1.00  0.00     0.012 C 
ENDROOT
BRANCH   2   7
ATOM      7  C   UNL     1     -49.266 -51.096  16.535  1.00  0.00     0.012 C 
ATOM      8  C   UNL     1     -49.320 -51.777  15.158  1.00  0.00     0.012 C 
BRANCH   7   9
ATOM      9  C   UNL     1     -50.696 -50.772  17.024  1.00  0.00     0.008 CG0
ATOM     10  G   UNL     1     -50.800 -50.661  18.555  1.00  0.00     0.000 G0
ENDBRANCH   7   9
ENDBRANCH   2   7
BRANCH   1  11
ATOM     11  C   UNL     1     -48.575 -49.472  18.999  1.00  0.00     0.039 C 
BRANCH  11  12
ATOM     12  C   UNL     1     -50.111 -49.399  19.133  1.00  0.00     0.018 C 
BRANCH  12  13
ATOM     13  C   UNL     1     -50.810 -50.648  18.554  1.00  0.00     0.009 CG0
ATOM     14  G   UNL     1     -50.706 -50.767  17.025  1.00  0.00     0.000 G0
ENDBRANCH  12  13
BRANCH  12  15
ATOM     15  C   UNL     1     -50.503 -49.219  20.595  1.00  0.00    -0.077 C 
ATOM     16  C   UNL     1     -49.560 -49.013  21.529  1.00  0.00     0.008 C 
ATOM     17  C   UNL     1     -51.948 -49.262  21.023  1.00  0.00     0.039 C 
ENDBRANCH  12  15
ENDBRANCH  11  12
ENDBRANCH   1  11
TORSDOF 1
ENDMDL
MODEL 4
REMARK VINA RESULT:    -4.461     10.910     13.006
REMARK INTER + INTRA:          -5.939
REMARK INTER:                  -6.038
REMARK INTRA:                   0.099
REMARK UNBOUND:                 0.087
REMARK SMILES C=C(C)[C@@H]1CC[C@@H](C)C2=C(C1)[C@H](C)CC2
REMARK SMILES IDX 10 1 9 2 15 3 14 4 12 5 13 6 7 7 8 8 6 9 11 11 4 12 5 13
REMARK SMILES IDX 2 15 1 16 3 17
REMARK H PARENT
REMARK Flexibility Score: 80.00
ROOT
ATOM      1  C   UNL     1     -42.016 -49.142  27.611  1.00  0.00    -0.067 C 
ATOM      2  C   UNL     1     -42.793 -49.872  28.412  1.00  0.00    -0.068 C 
ATOM      3  C   UNL     1     -44.226 -49.800  27.988  1.00  0.00     0.032 C 
ATOM      4  C   UNL     1     -44.205 -49.035  26.664  1.00  0.00     0.012 C 
ATOM      5  C   UNL     1     -42.791 -48.451  26.535  1.00  0.00     0.012 C 
ATOM      6  C   UNL     1     -42.783 -46.932  26.746  1.00  0.00     0.012 C 
ENDROOT
BRANCH   2   7
ATOM      7  C   UNL     1     -42.280 -50.620  29.635  1.00  0.00     0.012 C 
ATOM      8  C   UNL     1     -43.376 -51.479  30.286  1.00  0.00     0.012 C 
BRANCH   7   9
ATOM      9  C   UNL     1     -41.695 -49.631  30.670  1.00  0.00     0.008 CG0
ATOM     10  G   UNL     1     -40.264 -49.180  30.331  1.00  0.00     0.000 G0
ENDBRANCH   7   9
ENDBRANCH   2   7
BRANCH   1  11
ATOM     11  C   UNL     1     -40.524 -48.991  27.778  1.00  0.00     0.039 C 
BRANCH  11  12
ATOM     12  C   UNL     1     -40.174 -48.256  29.089  1.00  0.00     0.018 C 
BRANCH  12  13
ATOM     13  C   UNL     1     -40.261 -49.181  30.321  1.00  0.00     0.009 CG0
ATOM     14  G   UNL     1     -41.693 -49.622  30.669  1.00  0.00     0.000 G0
ENDBRANCH  12  13
BRANCH  12  15
ATOM     15  C   UNL     1     -38.779 -47.650  28.995  1.00  0.00    -0.077 C 
ATOM     16  C   UNL     1     -38.590 -46.341  29.230  1.00  0.00     0.008 C 
ATOM     17  C   UNL     1     -37.585 -48.501  28.642  1.00  0.00     0.039 C 
ENDBRANCH  12  15
ENDBRANCH  11  12
ENDBRANCH   1  11
TORSDOF 1
ENDMDL
MODEL 5
REMARK VINA RESULT:    -4.427      9.165     11.696
REMARK INTER + INTRA:          -5.893
REMARK INTER:                  -5.938
REMARK INTRA:                   0.046
REMARK UNBOUND:                 0.087
REMARK SMILES C=C(C)[C@@H]1CC[C@@H](C)C2=C(C1)[C@H](C)CC2
REMARK SMILES IDX 10 1 9 2 15 3 14 4 12 5 13 6 7 7 8 8 6 9 11 11 4 12 5 13
REMARK SMILES IDX 2 15 1 16 3 17
REMARK H PARENT
REMARK Flexibility Score: 80.00
ROOT
ATOM      1  C   UNL     1     -41.955 -48.298  26.638  1.00  0.00    -0.067 C 
ATOM      2  C   UNL     1     -43.030 -48.587  25.905  1.00  0.00    -0.068 C 
ATOM      3  C   UNL     1     -43.345 -47.482  24.946  1.00  0.00     0.032 C 
ATOM      4  C   UNL     1     -42.172 -46.508  25.072  1.00  0.00     0.012 C 
ATOM      5  C   UNL     1     -41.381 -46.956  26.310  1.00  0.00     0.012 C 
ATOM      6  C   UNL     1     -41.562 -45.983  27.481  1.00  0.00     0.012 C 
ENDROOT
BRANCH   2   7
ATOM      7  C   UNL     1     -43.859 -49.852  26.082  1.00  0.00     0.012 C 
ATOM      8  C   UNL     1     -44.959 -49.974  25.016  1.00  0.00     0.012 C 
BRANCH   7   9
ATOM      9  C   UNL     1     -44.481 -49.899  27.496  1.00  0.00     0.008 CG0
ATOM     10  G   UNL     1     -43.495 -50.380  28.574  1.00  0.00     0.000 G0
ENDBRANCH   7   9
ENDBRANCH   2   7
BRANCH   1  11
ATOM     11  C   UNL     1     -41.386 -49.196  27.709  1.00  0.00     0.039 C 
BRANCH  11  12
ATOM     12  C   UNL     1     -42.370 -49.364  28.886  1.00  0.00     0.018 C 
BRANCH  12  13
ATOM     13  C   UNL     1     -43.485 -50.386  28.577  1.00  0.00     0.009 CG0
ATOM     14  G   UNL     1     -44.480 -49.917  27.502  1.00  0.00     0.000 G0
ENDBRANCH  12  13
BRANCH  12  15
ATOM     15  C   UNL     1     -41.618 -49.784  30.143  1.00  0.00    -0.077 C 
ATOM     16  C   UNL     1     -40.404 -49.274  30.409  1.00  0.00     0.008 C 
ATOM     17  C   UNL     1     -42.217 -50.770  31.114  1.00  0.00     0.039 C 
ENDBRANCH  12  15
ENDBRANCH  11  12
ENDBRANCH   1  11
TORSDOF 1
ENDMDL
MODEL 6
REMARK VINA RESULT:    -4.394      1.643      3.360
REMARK INTER + INTRA:          -5.848
REMARK INTER:                  -5.904
REMARK INTRA:                   0.056
REMARK UNBOUND:                 0.087
REMARK SMILES C=C(C)[C@@H]1CC[C@@H](C)C2=C(C1)[C@H](C)CC2
REMARK SMILES IDX 10 1 9 2 15 3 14 4 12 5 13 6 7 7 8 8 6 9 11 11 4 12 5 13
REMARK SMILES IDX 2 15 1 16 3 17
REMARK H PARENT
REMARK Flexibility Score: 80.00
ROOT
ATOM      1  C   UNL     1     -50.052 -47.890  20.484  1.00  0.00    -0.067 C 
ATOM      2  C   UNL     1     -51.238 -48.231  20.988  1.00  0.00    -0.068 C 
ATOM      3  C   UNL     1     -51.451 -47.618  22.336  1.00  0.00     0.032 C 
ATOM      4  C   UNL     1     -50.262 -46.675  22.530  1.00  0.00     0.012 C 
ATOM      5  C   UNL     1     -49.269 -47.010  21.407  1.00  0.00     0.012 C 
ATOM      6  C   UNL     1     -48.033 -47.743  21.943  1.00  0.00     0.012 C 
ENDROOT
BRANCH   2   7
ATOM      7  C   UNL     1     -52.208 -49.180  20.298  1.00  0.00     0.012 C 
ATOM      8  C   UNL     1     -53.543 -49.287  21.050  1.00  0.00     0.012 C 
BRANCH   7   9
ATOM      9  C   UNL     1     -51.575 -50.582  20.137  1.00  0.00     0.008 CG0
ATOM     10  G   UNL     1     -50.608 -50.675  18.945  1.00  0.00     0.000 G0
ENDBRANCH   7   9
ENDBRANCH   2   7
BRANCH   1  11
ATOM     11  C   UNL     1     -49.526 -48.357  19.149  1.00  0.00     0.039 C 
BRANCH  11  12
ATOM     12  C   UNL     1     -49.291 -49.882  19.137  1.00  0.00     0.018 C 
BRANCH  12  13
ATOM     13  C   UNL     1     -50.601 -50.675  18.942  1.00  0.00     0.009 CG0
ATOM     14  G   UNL     1     -51.573 -50.574  20.130  1.00  0.00     0.000 G0
ENDBRANCH  12  13
BRANCH  12  15
ATOM     15  C   UNL     1     -48.295 -50.251  18.044  1.00  0.00    -0.077 C 
ATOM     16  C   UNL     1     -48.192 -51.522  17.623  1.00  0.00     0.008 C 
ATOM     17  C   UNL     1     -47.413 -49.204  17.412  1.00  0.00     0.039 C 
ENDBRANCH  12  15
ENDBRANCH  11  12
ENDBRANCH   1  11
TORSDOF 1
ENDMDL
MODEL 7
REMARK VINA RESULT:    -4.245     10.227     12.304
REMARK INTER + INTRA:          -5.647
REMARK INTER:                  -5.703
REMARK INTRA:                   0.056
REMARK UNBOUND:                 0.087
REMARK SMILES C=C(C)[C@@H]1CC[C@@H](C)C2=C(C1)[C@H](C)CC2
REMARK SMILES IDX 10 1 9 2 15 3 14 4 12 5 13 6 7 7 8 8 6 9 11 11 4 12 5 13
REMARK SMILES IDX 2 15 1 16 3 17
REMARK H PARENT
REMARK Flexibility Score: 80.00
ROOT
ATOM      1  C   UNL     1     -41.511 -49.309  28.754  1.00  0.00    -0.067 C 
ATOM      2  C   UNL     1     -40.426 -48.712  29.249  1.00  0.00    -0.068 C 
ATOM      3  C   UNL     1     -40.285 -48.975  30.716  1.00  0.00     0.032 C 
ATOM      4  C   UNL     1     -41.376 -49.996  31.037  1.00  0.00     0.012 C 
ATOM      5  C   UNL     1     -42.281 -50.054  29.798  1.00  0.00     0.012 C 
ATOM      6  C   UNL     1     -43.638 -49.387  30.056  1.00  0.00     0.012 C 
ENDROOT
BRANCH   2   7
ATOM      7  C   UNL     1     -39.502 -47.823  28.428  1.00  0.00     0.012 C 
ATOM      8  C   UNL     1     -38.267 -47.381  29.229  1.00  0.00     0.012 C 
BRANCH   7   9
ATOM      9  C   UNL     1     -40.265 -46.586  27.900  1.00  0.00     0.008 CG0
ATOM     10  G   UNL     1     -41.114 -46.887  26.653  1.00  0.00     0.000 G0
ENDBRANCH   7   9
ENDBRANCH   2   7
BRANCH   1  11
ATOM     11  C   UNL     1     -41.947 -49.225  27.312  1.00  0.00     0.039 C 
BRANCH  11  12
ATOM     12  C   UNL     1     -42.341 -47.784  26.925  1.00  0.00     0.018 C 
BRANCH  12  13
ATOM     13  C   UNL     1     -41.111 -46.893  26.654  1.00  0.00     0.009 CG0
ATOM     14  G   UNL     1     -40.265 -46.601  27.905  1.00  0.00     0.000 G0
ENDBRANCH  12  13
BRANCH  12  15
ATOM     15  C   UNL     1     -43.248 -47.800  25.700  1.00  0.00    -0.077 C 
ATOM     16  C   UNL     1     -44.033 -48.861  25.451  1.00  0.00     0.008 C 
ATOM     17  C   UNL     1     -43.289 -46.630  24.749  1.00  0.00     0.039 C 
ENDBRANCH  12  15
ENDBRANCH  11  12
ENDBRANCH   1  11
TORSDOF 1
ENDMDL
MODEL 8
REMARK VINA RESULT:    -4.244     10.305     12.607
REMARK INTER + INTRA:          -5.646
REMARK INTER:                  -5.690
REMARK INTRA:                   0.044
REMARK UNBOUND:                 0.087
REMARK SMILES C=C(C)[C@@H]1CC[C@@H](C)C2=C(C1)[C@H](C)CC2
REMARK SMILES IDX 10 1 9 2 15 3 14 4 12 5 13 6 7 7 8 8 6 9 11 11 4 12 5 13
REMARK SMILES IDX 2 15 1 16 3 17
REMARK H PARENT
REMARK Flexibility Score: 80.00
ROOT
ATOM      1  C   UNL     1     -42.839 -48.107  27.843  1.00  0.00    -0.067 C 
ATOM      2  C   UNL     1     -41.593 -47.679  27.646  1.00  0.00    -0.068 C 
ATOM      3  C   UNL     1     -41.372 -47.290  26.218  1.00  0.00     0.032 C 
ATOM      4  C   UNL     1     -42.755 -47.377  25.571  1.00  0.00     0.012 C 
ATOM      5  C   UNL     1     -43.655 -48.093  26.589  1.00  0.00     0.012 C 
ATOM      6  C   UNL     1     -43.993 -49.520  26.141  1.00  0.00     0.012 C 
ENDROOT
BRANCH   2   7
ATOM      7  C   UNL     1     -40.524 -47.660  28.731  1.00  0.00     0.012 C 
ATOM      8  C   UNL     1     -39.224 -46.999  28.248  1.00  0.00     0.012 C 
BRANCH   7   9
ATOM      9  C   UNL     1     -40.237 -49.094  29.234  1.00  0.00     0.008 CG0
ATOM     10  G   UNL     1     -41.277 -49.598  30.249  1.00  0.00     0.000 G0
ENDBRANCH   7   9
ENDBRANCH   2   7
BRANCH   1  11
ATOM     11  C   UNL     1     -43.376 -48.589  29.168  1.00  0.00     0.039 C 
BRANCH  11  12
ATOM     12  C   UNL     1     -42.665 -49.879  29.630  1.00  0.00     0.018 C 
BRANCH  12  13
ATOM     13  C   UNL     1     -41.284 -49.594  30.258  1.00  0.00     0.009 CG0
ATOM     14  G   UNL     1     -40.232 -49.100  29.250  1.00  0.00     0.000 G0
ENDBRANCH  12  13
BRANCH  12  15
ATOM     15  C   UNL     1     -43.539 -50.633  30.625  1.00  0.00    -0.077 C 
ATOM     16  C   UNL     1     -44.831 -50.872  30.347  1.00  0.00     0.008 C 
ATOM     17  C   UNL     1     -42.976 -51.129  31.933  1.00  0.00     0.039 C 
ENDBRANCH  12  15
ENDBRANCH  11  12
ENDBRANCH   1  11
TORSDOF 1
ENDMDL
MODEL 9
REMARK VINA RESULT:    -4.201     10.049     12.425
REMARK INTER + INTRA:          -5.587
REMARK INTER:                  -5.639
REMARK INTRA:                   0.052
REMARK UNBOUND:                 0.087
REMARK SMILES C=C(C)[C@@H]1CC[C@@H](C)C2=C(C1)[C@H](C)CC2
REMARK SMILES IDX 10 1 9 2 15 3 14 4 12 5 13 6 7 7 8 8 6 9 11 11 4 12 5 13
REMARK SMILES IDX 2 15 1 16 3 17
REMARK H PARENT
REMARK Flexibility Score: 80.00
ROOT
ATOM      1  C   UNL     1     -43.581 -48.645  28.057  1.00  0.00    -0.067 C 
ATOM      2  C   UNL     1     -42.259 -48.580  27.894  1.00  0.00    -0.068 C 
ATOM      3  C   UNL     1     -41.896 -48.504  26.444  1.00  0.00     0.032 C 
ATOM      4  C   UNL     1     -43.230 -48.351  25.713  1.00  0.00     0.012 C 
ATOM      5  C   UNL     1     -44.320 -48.639  26.757  1.00  0.00     0.012 C 
ATOM      6  C   UNL     1     -44.999 -49.991  26.508  1.00  0.00     0.012 C 
ENDROOT
BRANCH   2   7
ATOM      7  C   UNL     1     -41.261 -48.647  29.042  1.00  0.00     0.012 C 
ATOM      8  C   UNL     1     -39.818 -48.418  28.565  1.00  0.00     0.012 C 
BRANCH   7   9
ATOM      9  C   UNL     1     -41.370 -50.002  29.778  1.00  0.00     0.008 CG0
ATOM     10  G   UNL     1     -42.549 -50.061  30.764  1.00  0.00     0.000 G0
ENDBRANCH   7   9
ENDBRANCH   2   7
BRANCH   1  11
ATOM     11  C   UNL     1     -44.270 -48.748  29.395  1.00  0.00     0.039 C 
BRANCH  11  12
ATOM     12  C   UNL     1     -43.942 -50.083  30.097  1.00  0.00     0.018 C 
BRANCH  12  13
ATOM     13  C   UNL     1     -42.553 -50.066  30.770  1.00  0.00     0.009 CG0
ATOM     14  G   UNL     1     -41.381 -49.995  29.777  1.00  0.00     0.000 G0
ENDBRANCH  12  13
BRANCH  12  15
ATOM     15  C   UNL     1     -45.014 -50.409  31.131  1.00  0.00    -0.077 C 
ATOM     16  C   UNL     1     -46.220 -49.824  31.065  1.00  0.00     0.008 C 
ATOM     17  C   UNL     1     -44.747 -51.395  32.241  1.00  0.00     0.039 C 
ENDBRANCH  12  15
ENDBRANCH  11  12
ENDBRANCH   1  11
TORSDOF 1
ENDMDL
