MODEL 1
REMARK VINA RESULT:    -5.479      0.000      0.000
REMARK INTER + INTRA:          -5.479
REMARK INTER:                  -5.479
REMARK INTRA:                   0.000
REMARK UNBOUND:                 0.000
REMARK SMILES O=c1ccc2ccccc2o1
REMARK SMILES IDX 7 1 8 2 9 3 10 4 5 5 6 6 4 7 3 8 2 9 1 10 11 11
REMARK H PARENT
REMARK Flexibility Score: inf
ROOT
ATOM      1  C   UNL     1     261.184 -27.501  51.097  1.00  0.00     0.001 A 
ATOM      2  C   UNL     1     262.050 -26.812  51.954  1.00  0.00     0.004 A 
ATOM      3  C   UNL     1     261.875 -26.887  53.340  1.00  0.00     0.048 A 
ATOM      4  C   UNL     1     260.833 -27.653  53.875  1.00  0.00     0.138 A 
ATOM      5  C   UNL     1     259.959 -28.349  53.010  1.00  0.00     0.018 A 
ATOM      6  C   UNL     1     260.139 -28.269  51.621  1.00  0.00     0.012 A 
ATOM      7  C   UNL     1     258.927 -29.106  53.572  1.00  0.00     0.019 A 
ATOM      8  C   UNL     1     258.791 -29.152  54.960  1.00  0.00     0.094 A 
ATOM      9  C   UNL     1     259.695 -28.437  55.754  1.00  0.00     0.336 A 
ATOM     10  O   UNL     1     259.587 -28.467  57.008  1.00  0.00    -0.246 OA
ATOM     11  O   UNL     1     260.668 -27.724  55.193  1.00  0.00    -0.423 OA
ENDROOT
TORSDOF 0
ENDMDL
MODEL 2
REMARK VINA RESULT:    -5.402      7.622      8.625
REMARK INTER + INTRA:          -5.402
REMARK INTER:                  -5.402
REMARK INTRA:                   0.000
REMARK UNBOUND:                 0.000
REMARK SMILES O=c1ccc2ccccc2o1
REMARK SMILES IDX 7 1 8 2 9 3 10 4 5 5 6 6 4 7 3 8 2 9 1 10 11 11
REMARK H PARENT
REMARK Flexibility Score: inf
ROOT
ATOM      1  C   UNL     1     254.025 -26.706  53.519  1.00  0.00     0.001 A 
ATOM      2  C   UNL     1     253.331 -25.745  54.263  1.00  0.00     0.004 A 
ATOM      3  C   UNL     1     253.056 -24.490  53.709  1.00  0.00     0.048 A 
ATOM      4  C   UNL     1     253.476 -24.191  52.408  1.00  0.00     0.138 A 
ATOM      5  C   UNL     1     254.177 -25.160  51.657  1.00  0.00     0.018 A 
ATOM      6  C   UNL     1     254.450 -26.417  52.218  1.00  0.00     0.012 A 
ATOM      7  C   UNL     1     254.584 -24.833  50.361  1.00  0.00     0.019 A 
ATOM      8  C   UNL     1     254.288 -23.569  49.850  1.00  0.00     0.094 A 
ATOM      9  C   UNL     1     253.590 -22.660  50.652  1.00  0.00     0.336 A 
ATOM     10  O   UNL     1     253.314 -21.514  50.207  1.00  0.00    -0.246 OA
ATOM     11  O   UNL     1     253.214 -22.996  51.883  1.00  0.00    -0.423 OA
ENDROOT
TORSDOF 0
ENDMDL
MODEL 3
REMARK VINA RESULT:    -5.365      7.377      8.504
REMARK INTER + INTRA:          -5.365
REMARK INTER:                  -5.365
REMARK INTRA:                   0.000
REMARK UNBOUND:                 0.000
REMARK SMILES O=c1ccc2ccccc2o1
REMARK SMILES IDX 7 1 8 2 9 3 10 4 5 5 6 6 4 7 3 8 2 9 1 10 11 11
REMARK H PARENT
REMARK Flexibility Score: inf
ROOT
ATOM      1  C   UNL     1     253.251 -25.677  54.404  1.00  0.00     0.001 A 
ATOM      2  C   UNL     1     253.952 -26.715  53.781  1.00  0.00     0.004 A 
ATOM      3  C   UNL     1     254.425 -26.559  52.473  1.00  0.00     0.048 A 
ATOM      4  C   UNL     1     254.198 -25.363  51.784  1.00  0.00     0.138 A 
ATOM      5  C   UNL     1     253.490 -24.314  52.413  1.00  0.00     0.018 A 
ATOM      6  C   UNL     1     253.018 -24.477  53.724  1.00  0.00     0.012 A 
ATOM      7  C   UNL     1     253.278 -23.131  51.700  1.00  0.00     0.019 A 
ATOM      8  C   UNL     1     253.768 -23.020  50.398  1.00  0.00     0.094 A 
ATOM      9  C   UNL     1     254.460 -24.100  49.840  1.00  0.00     0.336 A 
ATOM     10  O   UNL     1     254.908 -24.018  48.666  1.00  0.00    -0.246 OA
ATOM     11  O   UNL     1     254.648 -25.215  50.540  1.00  0.00    -0.423 OA
ENDROOT
TORSDOF 0
ENDMDL
MODEL 4
REMARK VINA RESULT:    -5.338      1.974      4.362
REMARK INTER + INTRA:          -5.338
REMARK INTER:                  -5.338
REMARK INTRA:                   0.000
REMARK UNBOUND:                 0.000
REMARK SMILES O=c1ccc2ccccc2o1
REMARK SMILES IDX 7 1 8 2 9 3 10 4 5 5 6 6 4 7 3 8 2 9 1 10 11 11
REMARK H PARENT
REMARK Flexibility Score: inf
ROOT
ATOM      1  C   UNL     1     259.959 -28.259  56.037  1.00  0.00     0.001 A 
ATOM      2  C   UNL     1     259.017 -29.045  55.365  1.00  0.00     0.004 A 
ATOM      3  C   UNL     1     259.010 -29.095  53.967  1.00  0.00     0.048 A 
ATOM      4  C   UNL     1     259.946 -28.356  53.235  1.00  0.00     0.138 A 
ATOM      5  C   UNL     1     260.898 -27.562  53.913  1.00  0.00     0.018 A 
ATOM      6  C   UNL     1     260.900 -27.517  55.315  1.00  0.00     0.012 A 
ATOM      7  C   UNL     1     261.821 -26.836  53.156  1.00  0.00     0.019 A 
ATOM      8  C   UNL     1     261.777 -26.915  51.764  1.00  0.00     0.094 A 
ATOM      9  C   UNL     1     260.805 -27.722  51.161  1.00  0.00     0.336 A 
ATOM     10  O   UNL     1     260.750 -27.805  49.906  1.00  0.00    -0.246 OA
ATOM     11  O   UNL     1     259.939 -28.404  51.905  1.00  0.00    -0.423 OA
ENDROOT
TORSDOF 0
ENDMDL
MODEL 5
REMARK VINA RESULT:    -5.254      3.968      6.518
REMARK INTER + INTRA:          -5.254
REMARK INTER:                  -5.254
REMARK INTRA:                   0.000
REMARK UNBOUND:                 0.000
REMARK SMILES O=c1ccc2ccccc2o1
REMARK SMILES IDX 7 1 8 2 9 3 10 4 5 5 6 6 4 7 3 8 2 9 1 10 11 11
REMARK H PARENT
REMARK Flexibility Score: inf
ROOT
ATOM      1  C   UNL     1     259.622 -28.719  61.628  1.00  0.00     0.001 A 
ATOM      2  C   UNL     1     260.761 -27.916  61.759  1.00  0.00     0.004 A 
ATOM      3  C   UNL     1     261.286 -27.252  60.645  1.00  0.00     0.048 A 
ATOM      4  C   UNL     1     260.673 -27.391  59.394  1.00  0.00     0.138 A 
ATOM      5  C   UNL     1     259.524 -28.202  59.262  1.00  0.00     0.018 A 
ATOM      6  C   UNL     1     259.003 -28.865  60.383  1.00  0.00     0.012 A 
ATOM      7  C   UNL     1     258.935 -28.322  58.000  1.00  0.00     0.019 A 
ATOM      8  C   UNL     1     259.492 -27.642  56.917  1.00  0.00     0.094 A 
ATOM      9  C   UNL     1     260.632 -26.856  57.124  1.00  0.00     0.336 A 
ATOM     10  O   UNL     1     261.149 -26.236  56.158  1.00  0.00    -0.246 OA
ATOM     11  O   UNL     1     261.174 -26.759  58.335  1.00  0.00    -0.423 OA
ENDROOT
TORSDOF 0
ENDMDL
MODEL 6
REMARK VINA RESULT:    -5.164      7.933      8.965
REMARK INTER + INTRA:          -5.164
REMARK INTER:                  -5.164
REMARK INTRA:                   0.000
REMARK UNBOUND:                 0.000
REMARK SMILES O=c1ccc2ccccc2o1
REMARK SMILES IDX 7 1 8 2 9 3 10 4 5 5 6 6 4 7 3 8 2 9 1 10 11 11
REMARK H PARENT
REMARK Flexibility Score: inf
ROOT
ATOM      1  C   UNL     1     253.792 -25.623  54.644  1.00  0.00     0.001 A 
ATOM      2  C   UNL     1     252.927 -24.525  54.596  1.00  0.00     0.004 A 
ATOM      3  C   UNL     1     252.332 -24.148  53.387  1.00  0.00     0.048 A 
ATOM      4  C   UNL     1     252.604 -24.870  52.219  1.00  0.00     0.138 A 
ATOM      5  C   UNL     1     253.478 -25.979  52.267  1.00  0.00     0.018 A 
ATOM      6  C   UNL     1     254.070 -26.351  53.482  1.00  0.00     0.012 A 
ATOM      7  C   UNL     1     253.730 -26.680  51.084  1.00  0.00     0.019 A 
ATOM      8  C   UNL     1     253.116 -26.270  49.901  1.00  0.00     0.094 A 
ATOM      9  C   UNL     1     252.261 -25.162  49.930  1.00  0.00     0.336 A 
ATOM     10  O   UNL     1     251.698 -24.777  48.871  1.00  0.00    -0.246 OA
ATOM     11  O   UNL     1     252.038 -24.512  51.068  1.00  0.00    -0.423 OA
ENDROOT
TORSDOF 0
ENDMDL
MODEL 7
REMARK VINA RESULT:    -5.067      7.364      7.756
REMARK INTER + INTRA:          -5.067
REMARK INTER:                  -5.067
REMARK INTRA:                   0.000
REMARK UNBOUND:                 0.000
REMARK SMILES O=c1ccc2ccccc2o1
REMARK SMILES IDX 7 1 8 2 9 3 10 4 5 5 6 6 4 7 3 8 2 9 1 10 11 11
REMARK H PARENT
REMARK Flexibility Score: inf
ROOT
ATOM      1  C   UNL     1     254.147 -23.441  49.405  1.00  0.00     0.001 A 
ATOM      2  C   UNL     1     253.545 -22.493  50.239  1.00  0.00     0.004 A 
ATOM      3  C   UNL     1     253.223 -22.821  51.560  1.00  0.00     0.048 A 
ATOM      4  C   UNL     1     253.502 -24.102  52.052  1.00  0.00     0.138 A 
ATOM      5  C   UNL     1     254.110 -25.059  51.209  1.00  0.00     0.018 A 
ATOM      6  C   UNL     1     254.431 -24.723  49.886  1.00  0.00     0.012 A 
ATOM      7  C   UNL     1     254.377 -26.329  51.728  1.00  0.00     0.019 A 
ATOM      8  C   UNL     1     254.039 -26.613  53.051  1.00  0.00     0.094 A 
ATOM      9  C   UNL     1     253.439 -25.615  53.826  1.00  0.00     0.336 A 
ATOM     10  O   UNL     1     253.126 -25.853  55.023  1.00  0.00    -0.246 OA
ATOM     11  O   UNL     1     253.195 -24.414  53.309  1.00  0.00    -0.423 OA
ENDROOT
TORSDOF 0
ENDMDL
MODEL 8
REMARK VINA RESULT:    -5.062      3.511      5.079
REMARK INTER + INTRA:          -5.062
REMARK INTER:                  -5.062
REMARK INTRA:                   0.000
REMARK UNBOUND:                 0.000
REMARK SMILES O=c1ccc2ccccc2o1
REMARK SMILES IDX 7 1 8 2 9 3 10 4 5 5 6 6 4 7 3 8 2 9 1 10 11 11
REMARK H PARENT
REMARK Flexibility Score: inf
ROOT
ATOM      1  C   UNL     1     260.233 -27.872  55.939  1.00  0.00     0.001 A 
ATOM      2  C   UNL     1     261.504 -27.494  56.386  1.00  0.00     0.004 A 
ATOM      3  C   UNL     1     261.797 -27.492  57.754  1.00  0.00     0.048 A 
ATOM      4  C   UNL     1     260.817 -27.867  58.681  1.00  0.00     0.138 A 
ATOM      5  C   UNL     1     259.534 -28.249  58.229  1.00  0.00     0.018 A 
ATOM      6  C   UNL     1     259.247 -28.249  56.856  1.00  0.00     0.012 A 
ATOM      7  C   UNL     1     258.576 -28.618  59.178  1.00  0.00     0.019 A 
ATOM      8  C   UNL     1     258.912 -28.601  60.532  1.00  0.00     0.094 A 
ATOM      9  C   UNL     1     260.203 -28.212  60.905  1.00  0.00     0.336 A 
ATOM     10  O   UNL     1     260.524 -28.190  62.122  1.00  0.00    -0.246 OA
ATOM     11  O   UNL     1     261.096 -27.864  59.982  1.00  0.00    -0.423 OA
ENDROOT
TORSDOF 0
ENDMDL
MODEL 9
REMARK VINA RESULT:    -4.947      3.549      6.355
REMARK INTER + INTRA:          -4.947
REMARK INTER:                  -4.947
REMARK INTRA:                   0.000
REMARK UNBOUND:                 0.000
REMARK SMILES O=c1ccc2ccccc2o1
REMARK SMILES IDX 7 1 8 2 9 3 10 4 5 5 6 6 4 7 3 8 2 9 1 10 11 11
REMARK H PARENT
REMARK Flexibility Score: inf
ROOT
ATOM      1  C   UNL     1     260.271 -27.623  61.332  1.00  0.00     0.001 A 
ATOM      2  C   UNL     1     259.348 -28.655  61.127  1.00  0.00     0.004 A 
ATOM      3  C   UNL     1     259.004 -29.043  59.827  1.00  0.00     0.048 A 
ATOM      4  C   UNL     1     259.582 -28.398  58.727  1.00  0.00     0.138 A 
ATOM      5  C   UNL     1     260.512 -27.356  58.934  1.00  0.00     0.018 A 
ATOM      6  C   UNL     1     260.853 -26.971  60.240  1.00  0.00     0.012 A 
ATOM      7  C   UNL     1     261.072 -26.730  57.817  1.00  0.00     0.019 A 
ATOM      8  C   UNL     1     260.699 -27.150  56.540  1.00  0.00     0.094 A 
ATOM      9  C   UNL     1     259.771 -28.189  56.411  1.00  0.00     0.336 A 
ATOM     10  O   UNL     1     259.423 -28.581  55.266  1.00  0.00    -0.246 OA
ATOM     11  O   UNL     1     259.253 -28.768  57.491  1.00  0.00    -0.423 OA
ENDROOT
TORSDOF 0
ENDMDL
