MODEL 1
REMARK VINA RESULT:    -3.753      0.000      0.000
REMARK INTER + INTRA:          -8.077
REMARK INTER:                  -7.043
REMARK INTRA:                  -1.034
REMARK UNBOUND:                -1.034
REMARK SMILES O=C([O-])CCCCCCCCCCCCCCC(=O)[O-]
REMARK SMILES IDX 10 1 9 2 8 3 7 4 6 5 5 6 4 7 2 8 1 9 3 10 11 11 12 12 13 13
REMARK SMILES IDX 14 14 15 15 16 16 17 17 18 18 19 19 20 20
REMARK H PARENT
REMARK Flexibility Score: inf
ROOT
ATOM      1  C   UNL     1      48.537  46.932  42.438  1.00  0.00     0.000 C 
ENDROOT
BRANCH   1   2
ATOM      2  C   UNL     1      49.938  46.329  42.238  1.00  0.00     0.000 C 
BRANCH   2   3
ATOM      3  C   UNL     1      51.006  47.316  41.721  1.00  0.00     0.000 C 
BRANCH   3   4
ATOM      4  C   UNL     1      52.449  46.777  41.706  1.00  0.00     0.000 C 
BRANCH   4   5
ATOM      5  C   UNL     1      52.675  45.649  42.728  1.00  0.00     0.000 C 
BRANCH   5   6
ATOM      6  C   UNL     1      52.873  46.178  44.157  1.00  0.00     0.006 C 
BRANCH   6   7
ATOM      7  C   UNL     1      51.926  45.523  45.171  1.00  0.00     0.053 C 
BRANCH   7   8
ATOM      8  C   UNL     1      51.135  46.567  45.895  1.00  0.00     0.041 C 
ATOM      9  O   UNL     1      51.706  47.350  46.699  1.00  0.00    -0.550 OA
ATOM     10  O   UNL     1      49.777  46.716  45.635  1.00  0.00    -0.550 OA
ENDBRANCH   7   8
ENDBRANCH   6   7
ENDBRANCH   5   6
ENDBRANCH   4   5
ENDBRANCH   3   4
ENDBRANCH   2   3
ENDBRANCH   1   2
BRANCH   1  11
ATOM     11  C   UNL     1      48.019  47.661  41.187  1.00  0.00     0.000 C 
BRANCH  11  12
ATOM     12  C   UNL     1      46.552  47.326  40.875  1.00  0.00     0.000 C 
BRANCH  12  13
ATOM     13  C   UNL     1      46.094  46.017  41.540  1.00  0.00     0.000 C 
BRANCH  13  14
ATOM     14  C   UNL     1      44.799  45.465  40.923  1.00  0.00     0.000 C 
BRANCH  14  15
ATOM     15  C   UNL     1      43.541  45.934  41.675  1.00  0.00     0.000 C 
BRANCH  15  16
ATOM     16  C   UNL     1      42.855  47.142  41.007  1.00  0.00     0.006 C 
BRANCH  16  17
ATOM     17  C   UNL     1      42.501  48.277  41.984  1.00  0.00     0.053 C 
BRANCH  17  18
ATOM     18  C   UNL     1      43.543  49.351  42.026  1.00  0.00     0.041 C 
ATOM     19  O   UNL     1      44.151  49.687  40.975  1.00  0.00    -0.550 OA
ATOM     20  O   UNL     1      43.857  49.971  43.230  1.00  0.00    -0.550 OA
ENDBRANCH  17  18
ENDBRANCH  16  17
ENDBRANCH  15  16
ENDBRANCH  14  15
ENDBRANCH  13  14
ENDBRANCH  12  13
ENDBRANCH  11  12
ENDBRANCH   1  11
TORSDOF 15
ENDMDL
MODEL 2
REMARK VINA RESULT:    -3.614      1.282      2.218
REMARK INTER + INTRA:          -7.818
REMARK INTER:                  -6.418
REMARK INTRA:                  -1.400
REMARK UNBOUND:                -1.034
REMARK SMILES O=C([O-])CCCCCCCCCCCCCCC(=O)[O-]
REMARK SMILES IDX 10 1 9 2 8 3 7 4 6 5 5 6 4 7 2 8 1 9 3 10 11 11 12 12 13 13
REMARK SMILES IDX 14 14 15 15 16 16 17 17 18 18 19 19 20 20
REMARK H PARENT
REMARK Flexibility Score: inf
ROOT
ATOM      1  C   UNL     1      50.309  47.073  41.181  1.00  0.00     0.000 C 
ENDROOT
BRANCH   1   2
ATOM      2  C   UNL     1      51.781  47.315  41.557  1.00  0.00     0.000 C 
BRANCH   2   3
ATOM      3  C   UNL     1      52.663  46.049  41.587  1.00  0.00     0.000 C 
BRANCH   3   4
ATOM      4  C   UNL     1      53.866  46.107  42.547  1.00  0.00     0.000 C 
BRANCH   4   5
ATOM      5  C   UNL     1      53.504  45.689  43.982  1.00  0.00     0.000 C 
BRANCH   5   6
ATOM      6  C   UNL     1      52.137  44.991  44.068  1.00  0.00     0.006 C 
BRANCH   6   7
ATOM      7  C   UNL     1      51.457  45.177  45.430  1.00  0.00     0.053 C 
BRANCH   7   8
ATOM      8  C   UNL     1      51.086  46.612  45.636  1.00  0.00     0.041 C 
ATOM      9  O   UNL     1      50.402  47.219  44.770  1.00  0.00    -0.550 OA
ATOM     10  O   UNL     1      51.439  47.261  46.813  1.00  0.00    -0.550 OA
ENDBRANCH   7   8
ENDBRANCH   6   7
ENDBRANCH   5   6
ENDBRANCH   4   5
ENDBRANCH   3   4
ENDBRANCH   2   3
ENDBRANCH   1   2
BRANCH   1  11
ATOM     11  C   UNL     1      49.879  45.609  41.371  1.00  0.00     0.000 C 
BRANCH  11  12
ATOM     12  C   UNL     1      48.620  45.473  42.241  1.00  0.00     0.000 C 
BRANCH  12  13
ATOM     13  C   UNL     1      47.430  44.883  41.465  1.00  0.00     0.000 C 
BRANCH  13  14
ATOM     14  C   UNL     1      46.422  45.958  41.028  1.00  0.00     0.000 C 
BRANCH  14  15
ATOM     15  C   UNL     1      46.514  47.235  41.882  1.00  0.00     0.000 C 
BRANCH  15  16
ATOM     16  C   UNL     1      45.378  48.236  41.597  1.00  0.00     0.006 C 
BRANCH  16  17
ATOM     17  C   UNL     1      44.109  47.589  41.015  1.00  0.00     0.053 C 
BRANCH  17  18
ATOM     18  C   UNL     1      42.850  48.181  41.569  1.00  0.00     0.041 C 
ATOM     19  O   UNL     1      42.900  48.991  42.533  1.00  0.00    -0.550 OA
ATOM     20  O   UNL     1      41.618  47.825  41.033  1.00  0.00    -0.550 OA
ENDBRANCH  17  18
ENDBRANCH  16  17
ENDBRANCH  15  16
ENDBRANCH  14  15
ENDBRANCH  13  14
ENDBRANCH  12  13
ENDBRANCH  11  12
ENDBRANCH   1  11
TORSDOF 15
ENDMDL
MODEL 3
REMARK VINA RESULT:    -3.374      0.943      7.985
REMARK INTER + INTRA:          -7.367
REMARK INTER:                  -6.655
REMARK INTRA:                  -0.712
REMARK UNBOUND:                -1.034
REMARK SMILES O=C([O-])CCCCCCCCCCCCCCC(=O)[O-]
REMARK SMILES IDX 10 1 9 2 8 3 7 4 6 5 5 6 4 7 2 8 1 9 3 10 11 11 12 12 13 13
REMARK SMILES IDX 14 14 15 15 16 16 17 17 18 18 19 19 20 20
REMARK H PARENT
REMARK Flexibility Score: inf
ROOT
ATOM      1  C   UNL     1      48.298  46.192  42.514  1.00  0.00     0.000 C 
ENDROOT
BRANCH   1   2
ATOM      2  C   UNL     1      47.698  45.874  41.133  1.00  0.00     0.000 C 
BRANCH   2   3
ATOM      3  C   UNL     1      46.205  45.485  41.145  1.00  0.00     0.000 C 
BRANCH   3   4
ATOM      4  C   UNL     1      45.217  46.661  41.023  1.00  0.00     0.000 C 
BRANCH   4   5
ATOM      5  C   UNL     1      43.749  46.204  40.973  1.00  0.00     0.000 C 
BRANCH   5   6
ATOM      6  C   UNL     1      42.819  47.116  41.790  1.00  0.00     0.006 C 
BRANCH   6   7
ATOM      7  C   UNL     1      42.726  48.537  41.219  1.00  0.00     0.053 C 
BRANCH   7   8
ATOM      8  C   UNL     1      43.683  49.446  41.924  1.00  0.00     0.041 C 
ATOM      9  O   UNL     1      44.653  49.951  41.301  1.00  0.00    -0.550 OA
ATOM     10  O   UNL     1      43.467  49.787  43.255  1.00  0.00    -0.550 OA
ENDBRANCH   7   8
ENDBRANCH   6   7
ENDBRANCH   5   6
ENDBRANCH   4   5
ENDBRANCH   3   4
ENDBRANCH   2   3
ENDBRANCH   1   2
BRANCH   1  11
ATOM     11  C   UNL     1      49.333  45.147  42.968  1.00  0.00     0.000 C 
BRANCH  11  12
ATOM     12  C   UNL     1      50.401  44.875  41.898  1.00  0.00     0.000 C 
BRANCH  12  13
ATOM     13  C   UNL     1      51.421  46.021  41.780  1.00  0.00     0.000 C 
BRANCH  13  14
ATOM     14  C   UNL     1      52.874  45.525  41.856  1.00  0.00     0.000 C 
BRANCH  14  15
ATOM     15  C   UNL     1      53.317  45.216  43.297  1.00  0.00     0.000 C 
BRANCH  15  16
ATOM     16  C   UNL     1      52.815  46.255  44.318  1.00  0.00     0.006 C 
BRANCH  16  17
ATOM     17  C   UNL     1      51.814  45.692  45.341  1.00  0.00     0.053 C 
BRANCH  17  18
ATOM     18  C   UNL     1      51.074  46.764  46.080  1.00  0.00     0.041 C 
ATOM     19  O   UNL     1      51.698  47.575  46.814  1.00  0.00    -0.550 OA
ATOM     20  O   UNL     1      49.691  46.856  45.975  1.00  0.00    -0.550 OA
ENDBRANCH  17  18
ENDBRANCH  16  17
ENDBRANCH  15  16
ENDBRANCH  14  15
ENDBRANCH  13  14
ENDBRANCH  12  13
ENDBRANCH  11  12
ENDBRANCH   1  11
TORSDOF 15
ENDMDL
MODEL 4
REMARK VINA RESULT:    -3.289      1.957      2.585
REMARK INTER + INTRA:          -7.206
REMARK INTER:                  -6.879
REMARK INTRA:                  -0.327
REMARK UNBOUND:                -1.034
REMARK SMILES O=C([O-])CCCCCCCCCCCCCCC(=O)[O-]
REMARK SMILES IDX 10 1 9 2 8 3 7 4 6 5 5 6 4 7 2 8 1 9 3 10 11 11 12 12 13 13
REMARK SMILES IDX 14 14 15 15 16 16 17 17 18 18 19 19 20 20
REMARK H PARENT
REMARK Flexibility Score: inf
ROOT
ATOM      1  C   UNL     1      47.939  46.777  42.329  1.00  0.00     0.000 C 
ENDROOT
BRANCH   1   2
ATOM      2  C   UNL     1      48.598  45.385  42.329  1.00  0.00     0.000 C 
BRANCH   2   3
ATOM      3  C   UNL     1      49.630  45.152  43.453  1.00  0.00     0.000 C 
BRANCH   3   4
ATOM      4  C   UNL     1      49.574  46.159  44.617  1.00  0.00     0.000 C 
BRANCH   4   5
ATOM      5  C   UNL     1      50.881  46.954  44.781  1.00  0.00     0.000 C 
BRANCH   5   6
ATOM      6  C   UNL     1      52.111  46.044  44.932  1.00  0.00     0.006 C 
BRANCH   6   7
ATOM      7  C   UNL     1      52.462  45.298  43.639  1.00  0.00     0.053 C 
BRANCH   7   8
ATOM      8  C   UNL     1      53.520  46.038  42.881  1.00  0.00     0.041 C 
ATOM      9  O   UNL     1      53.197  46.878  42.000  1.00  0.00    -0.550 OA
ATOM     10  O   UNL     1      54.861  45.847  43.193  1.00  0.00    -0.550 OA
ENDBRANCH   7   8
ENDBRANCH   6   7
ENDBRANCH   5   6
ENDBRANCH   4   5
ENDBRANCH   3   4
ENDBRANCH   2   3
ENDBRANCH   1   2
BRANCH   1  11
ATOM     11  C   UNL     1      46.589  46.795  41.592  1.00  0.00     0.000 C 
BRANCH  11  12
ATOM     12  C   UNL     1      46.272  45.454  40.912  1.00  0.00     0.000 C 
BRANCH  12  13
ATOM     13  C   UNL     1      44.767  45.136  40.915  1.00  0.00     0.000 C 
BRANCH  13  14
ATOM     14  C   UNL     1      43.991  45.967  41.950  1.00  0.00     0.000 C 
BRANCH  14  15
ATOM     15  C   UNL     1      42.603  46.395  41.441  1.00  0.00     0.000 C 
BRANCH  15  16
ATOM     16  C   UNL     1      42.496  47.911  41.183  1.00  0.00     0.006 C 
BRANCH  16  17
ATOM     17  C   UNL     1      43.845  48.590  40.887  1.00  0.00     0.053 C 
BRANCH  17  18
ATOM     18  C   UNL     1      44.084  49.798  41.737  1.00  0.00     0.041 C 
ATOM     19  O   UNL     1      44.654  50.812  41.253  1.00  0.00    -0.550 OA
ATOM     20  O   UNL     1      43.696  49.800  43.072  1.00  0.00    -0.550 OA
ENDBRANCH  17  18
ENDBRANCH  16  17
ENDBRANCH  15  16
ENDBRANCH  14  15
ENDBRANCH  13  14
ENDBRANCH  12  13
ENDBRANCH  11  12
ENDBRANCH   1  11
TORSDOF 15
ENDMDL
MODEL 5
REMARK VINA RESULT:    -2.872     21.345     23.114
REMARK INTER + INTRA:          -6.425
REMARK INTER:                  -5.356
REMARK INTRA:                  -1.069
REMARK UNBOUND:                -1.034
REMARK SMILES O=C([O-])CCCCCCCCCCCCCCC(=O)[O-]
REMARK SMILES IDX 10 1 9 2 8 3 7 4 6 5 5 6 4 7 2 8 1 9 3 10 11 11 12 12 13 13
REMARK SMILES IDX 14 14 15 15 16 16 17 17 18 18 19 19 20 20
REMARK H PARENT
REMARK Flexibility Score: inf
ROOT
ATOM      1  C   UNL     1      44.752  63.791  57.116  1.00  0.00     0.000 C 
ENDROOT
BRANCH   1   2
ATOM      2  C   UNL     1      46.007  64.230  57.891  1.00  0.00     0.000 C 
BRANCH   2   3
ATOM      3  C   UNL     1      45.769  64.573  59.376  1.00  0.00     0.000 C 
BRANCH   3   4
ATOM      4  C   UNL     1      45.616  63.362  60.316  1.00  0.00     0.000 C 
BRANCH   4   5
ATOM      5  C   UNL     1      46.892  63.070  61.125  1.00  0.00     0.000 C 
BRANCH   5   6
ATOM      6  C   UNL     1      47.958  64.165  60.962  1.00  0.00     0.006 C 
BRANCH   6   7
ATOM      7  C   UNL     1      49.381  63.601  60.865  1.00  0.00     0.053 C 
BRANCH   7   8
ATOM      8  C   UNL     1      50.081  64.153  59.663  1.00  0.00     0.041 C 
ATOM      9  O   UNL     1      49.585  65.124  59.032  1.00  0.00    -0.550 OA
ATOM     10  O   UNL     1      51.312  63.637  59.275  1.00  0.00    -0.550 OA
ENDBRANCH   7   8
ENDBRANCH   6   7
ENDBRANCH   5   6
ENDBRANCH   4   5
ENDBRANCH   3   4
ENDBRANCH   2   3
ENDBRANCH   1   2
BRANCH   1  11
ATOM     11  C   UNL     1      44.993  62.539  56.255  1.00  0.00     0.000 C 
BRANCH  11  12
ATOM     12  C   UNL     1      44.329  62.638  54.873  1.00  0.00     0.000 C 
BRANCH  12  13
ATOM     13  C   UNL     1      44.309  64.079  54.332  1.00  0.00     0.000 C 
BRANCH  13  14
ATOM     14  C   UNL     1      43.024  64.395  53.549  1.00  0.00     0.000 C 
BRANCH  14  15
ATOM     15  C   UNL     1      41.975  65.124  54.408  1.00  0.00     0.000 C 
BRANCH  15  16
ATOM     16  C   UNL     1      41.494  64.288  55.610  1.00  0.00     0.006 C 
BRANCH  16  17
ATOM     17  C   UNL     1      41.539  65.040  56.951  1.00  0.00     0.053 C 
BRANCH  17  18
ATOM     18  C   UNL     1      40.300  64.844  57.768  1.00  0.00     0.041 C 
ATOM     19  O   UNL     1      39.186  64.681  57.203  1.00  0.00    -0.550 OA
ATOM     20  O   UNL     1      40.370  64.860  59.156  1.00  0.00    -0.550 OA
ENDBRANCH  17  18
ENDBRANCH  16  17
ENDBRANCH  15  16
ENDBRANCH  14  15
ENDBRANCH  13  14
ENDBRANCH  12  13
ENDBRANCH  11  12
ENDBRANCH   1  11
TORSDOF 15
ENDMDL
MODEL 6
REMARK VINA RESULT:    -2.574     22.143     24.587
REMARK INTER + INTRA:          -5.864
REMARK INTER:                  -4.756
REMARK INTRA:                  -1.108
REMARK UNBOUND:                -1.034
REMARK SMILES O=C([O-])CCCCCCCCCCCCCCC(=O)[O-]
REMARK SMILES IDX 10 1 9 2 8 3 7 4 6 5 5 6 4 7 2 8 1 9 3 10 11 11 12 12 13 13
REMARK SMILES IDX 14 14 15 15 16 16 17 17 18 18 19 19 20 20
REMARK H PARENT
REMARK Flexibility Score: inf
ROOT
ATOM      1  C   UNL     1      42.601  63.955  55.783  1.00  0.00     0.000 C 
ENDROOT
BRANCH   1   2
ATOM      2  C   UNL     1      41.581  65.097  55.628  1.00  0.00     0.000 C 
BRANCH   2   3
ATOM      3  C   UNL     1      40.459  65.117  56.688  1.00  0.00     0.000 C 
BRANCH   3   4
ATOM      4  C   UNL     1      40.770  64.357  57.991  1.00  0.00     0.000 C 
BRANCH   4   5
ATOM      5  C   UNL     1      39.685  64.546  59.065  1.00  0.00     0.000 C 
BRANCH   5   6
ATOM      6  C   UNL     1      38.531  63.542  58.922  1.00  0.00     0.006 C 
BRANCH   6   7
ATOM      7  C   UNL     1      39.005  62.146  58.499  1.00  0.00     0.053 C 
BRANCH   7   8
ATOM      8  C   UNL     1      38.407  61.100  59.387  1.00  0.00     0.041 C 
ATOM      9  O   UNL     1      37.177  61.126  59.655  1.00  0.00    -0.550 OA
ATOM     10  O   UNL     1      39.195  60.060  59.866  1.00  0.00    -0.550 OA
ENDBRANCH   7   8
ENDBRANCH   6   7
ENDBRANCH   5   6
ENDBRANCH   4   5
ENDBRANCH   3   4
ENDBRANCH   2   3
ENDBRANCH   1   2
BRANCH   1  11
ATOM     11  C   UNL     1      43.929  64.242  55.061  1.00  0.00     0.000 C 
BRANCH  11  12
ATOM     12  C   UNL     1      45.019  64.754  56.015  1.00  0.00     0.000 C 
BRANCH  12  13
ATOM     13  C   UNL     1      44.929  64.112  57.410  1.00  0.00     0.000 C 
BRANCH  13  14
ATOM     14  C   UNL     1      44.541  65.124  58.500  1.00  0.00     0.000 C 
BRANCH  14  15
ATOM     15  C   UNL     1      45.149  64.776  59.870  1.00  0.00     0.000 C 
BRANCH  15  16
ATOM     16  C   UNL     1      46.295  63.750  59.779  1.00  0.00     0.006 C 
BRANCH  16  17
ATOM     17  C   UNL     1      47.678  64.327  60.126  1.00  0.00     0.053 C 
BRANCH  17  18
ATOM     18  C   UNL     1      48.705  63.264  60.367  1.00  0.00     0.041 C 
ATOM     19  O   UNL     1      48.382  62.183  60.926  1.00  0.00    -0.550 OA
ATOM     20  O   UNL     1      50.027  63.475  59.991  1.00  0.00    -0.550 OA
ENDBRANCH  17  18
ENDBRANCH  16  17
ENDBRANCH  15  16
ENDBRANCH  14  15
ENDBRANCH  13  14
ENDBRANCH  12  13
ENDBRANCH  11  12
ENDBRANCH   1  11
TORSDOF 15
ENDMDL
MODEL 7
REMARK VINA RESULT:    -2.535     21.532     23.315
REMARK INTER + INTRA:          -5.792
REMARK INTER:                  -5.086
REMARK INTRA:                  -0.705
REMARK UNBOUND:                -1.034
REMARK SMILES O=C([O-])CCCCCCCCCCCCCCC(=O)[O-]
REMARK SMILES IDX 10 1 9 2 8 3 7 4 6 5 5 6 4 7 2 8 1 9 3 10 11 11 12 12 13 13
REMARK SMILES IDX 14 14 15 15 16 16 17 17 18 18 19 19 20 20
REMARK H PARENT
REMARK Flexibility Score: inf
ROOT
ATOM      1  C   UNL     1      44.228  62.969  55.654  1.00  0.00     0.000 C 
ENDROOT
BRANCH   1   2
ATOM      2  C   UNL     1      45.288  63.136  56.757  1.00  0.00     0.000 C 
BRANCH   2   3
ATOM      3  C   UNL     1      45.293  64.514  57.453  1.00  0.00     0.000 C 
BRANCH   3   4
ATOM      4  C   UNL     1      45.031  64.487  58.970  1.00  0.00     0.000 C 
BRANCH   4   5
ATOM      5  C   UNL     1      46.241  64.963  59.793  1.00  0.00     0.000 C 
BRANCH   5   6
ATOM      6  C   UNL     1      47.571  64.793  59.040  1.00  0.00     0.006 C 
BRANCH   6   7
ATOM      7  C   UNL     1      48.795  65.055  59.927  1.00  0.00     0.053 C 
BRANCH   7   8
ATOM      8  C   UNL     1      49.500  63.772  60.235  1.00  0.00     0.041 C 
ATOM      9  O   UNL     1      48.998  62.953  61.050  1.00  0.00    -0.550 OA
ATOM     10  O   UNL     1      50.680  63.450  59.574  1.00  0.00    -0.550 OA
ENDBRANCH   7   8
ENDBRANCH   6   7
ENDBRANCH   5   6
ENDBRANCH   4   5
ENDBRANCH   3   4
ENDBRANCH   2   3
ENDBRANCH   1   2
BRANCH   1  11
ATOM     11  C   UNL     1      44.050  64.237  54.802  1.00  0.00     0.000 C 
BRANCH  11  12
ATOM     12  C   UNL     1      42.684  64.288  54.101  1.00  0.00     0.000 C 
BRANCH  12  13
ATOM     13  C   UNL     1      41.633  65.063  54.916  1.00  0.00     0.000 C 
BRANCH  13  14
ATOM     14  C   UNL     1      41.690  64.729  56.416  1.00  0.00     0.000 C 
BRANCH  14  15
ATOM     15  C   UNL     1      40.397  65.118  57.154  1.00  0.00     0.000 C 
BRANCH  15  16
ATOM     16  C   UNL     1      40.240  64.405  58.512  1.00  0.00     0.006 C 
BRANCH  16  17
ATOM     17  C   UNL     1      38.781  64.091  58.887  1.00  0.00     0.053 C 
BRANCH  17  18
ATOM     18  C   UNL     1      38.459  62.632  58.791  1.00  0.00     0.041 C 
ATOM     19  O   UNL     1      39.038  61.908  57.937  1.00  0.00    -0.550 OA
ATOM     20  O   UNL     1      37.504  62.072  59.631  1.00  0.00    -0.550 OA
ENDBRANCH  17  18
ENDBRANCH  16  17
ENDBRANCH  15  16
ENDBRANCH  14  15
ENDBRANCH  13  14
ENDBRANCH  12  13
ENDBRANCH  11  12
ENDBRANCH   1  11
TORSDOF 15
ENDMDL
MODEL 8
REMARK VINA RESULT:    -2.420      1.879      7.708
REMARK INTER + INTRA:          -5.576
REMARK INTER:                  -4.857
REMARK INTRA:                  -0.719
REMARK UNBOUND:                -1.034
REMARK SMILES O=C([O-])CCCCCCCCCCCCCCC(=O)[O-]
REMARK SMILES IDX 10 1 9 2 8 3 7 4 6 5 5 6 4 7 2 8 1 9 3 10 11 11 12 12 13 13
REMARK SMILES IDX 14 14 15 15 16 16 17 17 18 18 19 19 20 20
REMARK H PARENT
REMARK Flexibility Score: inf
ROOT
ATOM      1  C   UNL     1      47.572  47.015  42.261  1.00  0.00     0.000 C 
ENDROOT
BRANCH   1   2
ATOM      2  C   UNL     1      47.080  47.658  40.952  1.00  0.00     0.000 C 
BRANCH   2   3
ATOM      3  C   UNL     1      46.852  49.183  41.021  1.00  0.00     0.000 C 
BRANCH   3   4
ATOM      4  C   UNL     1      45.387  49.637  40.876  1.00  0.00     0.000 C 
BRANCH   4   5
ATOM      5  C   UNL     1      44.417  48.806  41.733  1.00  0.00     0.000 C 
BRANCH   5   6
ATOM      6  C   UNL     1      43.119  48.457  40.987  1.00  0.00     0.006 C 
BRANCH   6   7
ATOM      7  C   UNL     1      42.341  47.312  41.648  1.00  0.00     0.053 C 
BRANCH   7   8
ATOM      8  C   UNL     1      42.966  45.995  41.310  1.00  0.00     0.041 C 
ATOM      9  O   UNL     1      44.219  45.882  41.262  1.00  0.00    -0.550 OA
ATOM     10  O   UNL     1      42.166  44.875  41.112  1.00  0.00    -0.550 OA
ENDBRANCH   7   8
ENDBRANCH   6   7
ENDBRANCH   5   6
ENDBRANCH   4   5
ENDBRANCH   3   4
ENDBRANCH   2   3
ENDBRANCH   1   2
BRANCH   1  11
ATOM     11  C   UNL     1      47.587  45.478  42.199  1.00  0.00     0.000 C 
BRANCH  11  12
ATOM     12  C   UNL     1      48.998  44.895  42.374  1.00  0.00     0.000 C 
BRANCH  12  13
ATOM     13  C   UNL     1      49.940  45.277  41.220  1.00  0.00     0.000 C 
BRANCH  13  14
ATOM     14  C   UNL     1      51.422  45.205  41.622  1.00  0.00     0.000 C 
BRANCH  14  15
ATOM     15  C   UNL     1      51.985  46.574  42.044  1.00  0.00     0.000 C 
BRANCH  15  16
ATOM     16  C   UNL     1      51.337  47.122  43.331  1.00  0.00     0.006 C 
BRANCH  16  17
ATOM     17  C   UNL     1      51.522  46.213  44.558  1.00  0.00     0.053 C 
BRANCH  17  18
ATOM     18  C   UNL     1      50.904  46.780  45.798  1.00  0.00     0.041 C 
ATOM     19  O   UNL     1      51.632  47.170  46.749  1.00  0.00    -0.550 OA
ATOM     20  O   UNL     1      49.521  46.860  45.913  1.00  0.00    -0.550 OA
ENDBRANCH  17  18
ENDBRANCH  16  17
ENDBRANCH  15  16
ENDBRANCH  14  15
ENDBRANCH  13  14
ENDBRANCH  12  13
ENDBRANCH  11  12
ENDBRANCH   1  11
TORSDOF 15
ENDMDL
