MODEL 1
REMARK VINA RESULT:    13.521      0.000      0.000
REMARK INTER + INTRA:          22.029
REMARK INTER:                  22.216
REMARK INTRA:                  -0.188
REMARK UNBOUND:                -0.188
REMARK SMILES COc1ccc([C@H]2CC(=O)c3c(O)cc(O[C@@H]4O[C@H](CO[C@@H]5O[C@@H](C)[C@H](O)[C@H](O)[C@H]5O)[C@H](O)[C@@H](O)[C@H]4O)cc3O2)cc1O
REMARK SMILES IDX 19 1 32 2 34 3 36 4 17 5 18 6 20 7 21 8 22 9 25 10 24 11
REMARK SMILES IDX 26 12 23 13 28 14 30 15 27 16 29 18 31 20 33 22 35 24 16 26
REMARK SMILES IDX 15 27 14 28 38 29 12 30 39 31 11 32 40 33 9 34 7 35 10 36
REMARK SMILES IDX 8 37 13 38 6 40 41 41 5 42 42 43 4 44 3 45 43 46 2 48 1 49
REMARK SMILES IDX 37 50
REMARK H PARENT 27 17 29 19 31 21 33 23 35 25 13 39 43 47 37 51
REMARK Flexibility Score: inf
ROOT
ATOM      1  C   UNL     1      20.018  11.236  -9.217  1.00  0.00     0.180 C 
ATOM      2  C   UNL     1      18.639  10.775  -9.776  1.00  0.00     0.177 C 
ATOM      3  C   UNL     1      17.482  11.247  -8.870  1.00  0.00     0.180 C 
ATOM      4  C   UNL     1      17.903  11.197  -7.372  1.00  0.00     0.214 C 
ATOM      5  C   UNL     1      19.156  10.304  -7.179  1.00  0.00     0.339 C 
ATOM      6  O   UNL     1      20.290  10.775  -7.896  1.00  0.00    -0.332 OA
ENDROOT
BRANCH   1   7
ATOM      7  C   UNL     1      20.219  12.774  -9.259  1.00  0.00     0.198 C 
BRANCH   7   8
ATOM      8  O   UNL     1      20.811  13.183 -10.476  1.00  0.00    -0.347 OA
BRANCH   8   9
ATOM      9  C   UNL     1      20.315  14.448 -10.897  1.00  0.00     0.281 C 
ATOM     10  C   UNL     1      22.647  16.815  -9.306  1.00  0.00     0.041 C 
ATOM     11  C   UNL     1      21.346  16.014  -9.460  1.00  0.00     0.150 C 
ATOM     12  C   UNL     1      20.085  16.910  -9.251  1.00  0.00     0.174 C 
ATOM     13  O   UNL     1      21.321  15.455 -10.764  1.00  0.00    -0.344 OA
ATOM     14  C   UNL     1      18.869  16.318 -10.013  1.00  0.00     0.179 C 
ATOM     15  C   UNL     1      19.000  14.779 -10.119  1.00  0.00     0.202 C 
BRANCH  12  16
ATOM     16  O   UNL     1      19.818  17.085  -7.881  1.00  0.00    -0.388 OA
ATOM     17  H   UNL     1      19.271  17.907  -7.786  1.00  0.00     0.211 HD
ENDBRANCH  12  16
BRANCH  14  18
ATOM     18  O   UNL     1      17.645  16.720  -9.457  1.00  0.00    -0.387 OA
ATOM     19  H   UNL     1      17.712  17.681  -9.205  1.00  0.00     0.211 HD
ENDBRANCH  14  18
BRANCH  15  20
ATOM     20  O   UNL     1      17.879  14.209 -10.747  1.00  0.00    -0.385 OA
ATOM     21  H   UNL     1      17.539  13.498 -10.142  1.00  0.00     0.211 HD
ENDBRANCH  15  20
ENDBRANCH   8   9
ENDBRANCH   7   8
ENDBRANCH   1   7
BRANCH   2  22
ATOM     22  O   UNL     1      18.444  11.138 -11.125  1.00  0.00    -0.387 OA
ATOM     23  H   UNL     1      17.472  11.135 -11.322  1.00  0.00     0.211 HD
ENDBRANCH   2  22
BRANCH   3  24
ATOM     24  O   UNL     1      16.359  10.434  -9.106  1.00  0.00    -0.387 OA
ATOM     25  H   UNL     1      16.543   9.546  -8.694  1.00  0.00     0.211 HD
ENDBRANCH   3  24
BRANCH   5  26
ATOM     26  O   UNL     1      19.490  10.127  -5.808  1.00  0.00    -0.462 OA
BRANCH  26  27
ATOM     27  C   UNL     1      20.403   9.186  -5.301  1.00  0.00     0.130 A 
ATOM     28  C   UNL     1      20.912   8.162  -6.109  1.00  0.00     0.093 A 
ATOM     29  C   UNL     1      20.654   9.165  -3.926  1.00  0.00     0.094 A 
ATOM     30  C   UNL     1      21.562   7.056  -5.544  1.00  0.00     0.133 A 
ATOM     31  C   UNL     1      21.269   8.061  -3.346  1.00  0.00     0.138 A 
ATOM     32  C   UNL     1      21.731   6.994  -4.143  1.00  0.00     0.102 A 
ATOM     33  O   UNL     1      21.367   7.982  -1.956  1.00  0.00    -0.484 OA
ATOM     34  C   UNL     1      22.302   5.809  -3.444  1.00  0.00     0.174 C 
ATOM     35  C   UNL     1      21.286   6.717  -1.301  1.00  0.00     0.211 C 
ATOM     36  O   UNL     1      22.806   4.858  -4.096  1.00  0.00    -0.294 OA
ATOM     37  C   UNL     1      22.359   5.788  -1.930  1.00  0.00     0.131 C 
BRANCH  30  38
ATOM     38  O   UNL     1      22.015   6.015  -6.359  1.00  0.00    -0.507 OA
ATOM     39  H   UNL     1      21.946   5.042  -6.071  1.00  0.00     0.293 HD
ENDBRANCH  30  38
BRANCH  35  40
ATOM     40  C   UNL     1      19.848   6.212  -1.386  1.00  0.00    -0.003 A 
ATOM     41  C   UNL     1      19.502   5.394  -2.482  1.00  0.00     0.057 A 
ATOM     42  C   UNL     1      18.862   6.488  -0.418  1.00  0.00     0.011 A 
ATOM     43  C   UNL     1      18.230   4.797  -2.572  1.00  0.00     0.158 A 
ATOM     44  C   UNL     1      17.589   5.917  -0.518  1.00  0.00     0.051 A 
ATOM     45  C   UNL     1      17.267   5.058  -1.590  1.00  0.00     0.160 A 
BRANCH  43  46
ATOM     46  O   UNL     1      17.930   3.930  -3.623  1.00  0.00    -0.504 OA
ATOM     47  H   UNL     1      16.989   3.562  -3.743  1.00  0.00     0.293 HD
ENDBRANCH  43  46
BRANCH  45  48
ATOM     48  O   UNL     1      16.011   4.430  -1.700  1.00  0.00    -0.493 OA
ATOM     49  C   UNL     1      15.826   3.049  -2.029  1.00  0.00     0.278 C 
ENDBRANCH  45  48
ENDBRANCH  35  40
ENDBRANCH  26  27
ENDBRANCH   5  26
BRANCH   4  50
ATOM     50  O   UNL     1      16.841  10.757  -6.559  1.00  0.00    -0.384 OA
ATOM     51  H   UNL     1      17.142   9.945  -6.068  1.00  0.00     0.211 HD
ENDBRANCH   4  50
TORSDOF 15
ENDMDL
MODEL 2
REMARK VINA RESULT:    15.614      1.243      1.935
REMARK INTER + INTRA:          25.468
REMARK INTER:                  22.591
REMARK INTRA:                   2.876
REMARK UNBOUND:                -0.188
REMARK SMILES COc1ccc([C@H]2CC(=O)c3c(O)cc(O[C@@H]4O[C@H](CO[C@@H]5O[C@@H](C)[C@H](O)[C@H](O)[C@H]5O)[C@H](O)[C@@H](O)[C@H]4O)cc3O2)cc1O
REMARK SMILES IDX 19 1 32 2 34 3 36 4 17 5 18 6 20 7 21 8 22 9 25 10 24 11
REMARK SMILES IDX 26 12 23 13 28 14 30 15 27 16 29 18 31 20 33 22 35 24 16 26
REMARK SMILES IDX 15 27 14 28 38 29 12 30 39 31 11 32 40 33 9 34 7 35 10 36
REMARK SMILES IDX 8 37 13 38 6 40 41 41 5 42 42 43 4 44 3 45 43 46 2 48 1 49
REMARK SMILES IDX 37 50
REMARK H PARENT 27 17 29 19 31 21 33 23 35 25 13 39 43 47 37 51
REMARK Flexibility Score: inf
ROOT
ATOM      1  C   UNL     1      19.693  12.608  -8.310  1.00  0.00     0.180 C 
ATOM      2  C   UNL     1      20.915  12.199  -9.186  1.00  0.00     0.177 C 
ATOM      3  C   UNL     1      20.827  10.717  -9.610  1.00  0.00     0.180 C 
ATOM      4  C   UNL     1      20.216   9.855  -8.468  1.00  0.00     0.214 C 
ATOM      5  C   UNL     1      20.274  10.609  -7.114  1.00  0.00     0.339 C 
ATOM      6  O   UNL     1      19.545  11.829  -7.125  1.00  0.00    -0.332 OA
ENDROOT
BRANCH   1   7
ATOM      7  C   UNL     1      18.347  12.602  -9.082  1.00  0.00     0.198 C 
BRANCH   7   8
ATOM      8  O   UNL     1      18.555  12.517 -10.478  1.00  0.00    -0.347 OA
BRANCH   8   9
ATOM      9  C   UNL     1      18.255  13.748 -11.125  1.00  0.00     0.281 C 
ATOM     10  C   UNL     1      20.788  16.039  -9.743  1.00  0.00     0.041 C 
ATOM     11  C   UNL     1      19.403  15.388  -9.870  1.00  0.00     0.150 C 
ATOM     12  C   UNL     1      18.262  16.453  -9.897  1.00  0.00     0.174 C 
ATOM     13  O   UNL     1      19.377  14.634 -11.071  1.00  0.00    -0.344 OA
ATOM     14  C   UNL     1      17.022  15.898 -10.649  1.00  0.00     0.179 C 
ATOM     15  C   UNL     1      16.954  14.358 -10.508  1.00  0.00     0.202 C 
BRANCH  12  16
ATOM     16  O   UNL     1      17.944  16.879  -8.595  1.00  0.00    -0.388 OA
ATOM     17  H   UNL     1      17.726  17.845  -8.641  1.00  0.00     0.211 HD
ENDBRANCH  12  16
BRANCH  14  18
ATOM     18  O   UNL     1      15.833  16.531 -10.257  1.00  0.00    -0.387 OA
ATOM     19  H   UNL     1      15.884  16.724  -9.281  1.00  0.00     0.211 HD
ENDBRANCH  14  18
BRANCH  15  20
ATOM     20  O   UNL     1      15.804  13.835 -11.124  1.00  0.00    -0.385 OA
ATOM     21  H   UNL     1      15.475  13.100 -10.544  1.00  0.00     0.211 HD
ENDBRANCH  15  20
ENDBRANCH   8   9
ENDBRANCH   7   8
ENDBRANCH   1   7
BRANCH   2  22
ATOM     22  O   UNL     1      21.114  13.058 -10.286  1.00  0.00    -0.387 OA
ATOM     23  H   UNL     1      20.231  13.351 -10.631  1.00  0.00     0.211 HD
ENDBRANCH   2  22
BRANCH   3  24
ATOM     24  O   UNL     1      22.114  10.265  -9.952  1.00  0.00    -0.387 OA
ATOM     25  H   UNL     1      22.150   9.290  -9.749  1.00  0.00     0.211 HD
ENDBRANCH   3  24
BRANCH   5  26
ATOM     26  O   UNL     1      19.848   9.801  -6.024  1.00  0.00    -0.462 OA
BRANCH  26  27
ATOM     27  C   UNL     1      20.657   8.912  -5.295  1.00  0.00     0.130 A 
ATOM     28  C   UNL     1      21.288   7.830  -5.919  1.00  0.00     0.093 A 
ATOM     29  C   UNL     1      20.676   9.008  -3.901  1.00  0.00     0.094 A 
ATOM     30  C   UNL     1      21.829   6.779  -5.163  1.00  0.00     0.133 A 
ATOM     31  C   UNL     1      21.179   7.961  -3.137  1.00  0.00     0.138 A 
ATOM     32  C   UNL     1      21.761   6.835  -3.754  1.00  0.00     0.102 A 
ATOM     33  O   UNL     1      21.043   7.998  -1.748  1.00  0.00    -0.484 OA
ATOM     34  C   UNL     1      22.200   5.716  -2.873  1.00  0.00     0.174 C 
ATOM     35  C   UNL     1      20.847   6.791  -1.012  1.00  0.00     0.211 C 
ATOM     36  O   UNL     1      22.801   4.719  -3.352  1.00  0.00    -0.294 OA
ATOM     37  C   UNL     1      22.005   5.822  -1.375  1.00  0.00     0.131 C 
BRANCH  30  38
ATOM     38  O   UNL     1      22.405   5.678  -5.803  1.00  0.00    -0.507 OA
ATOM     39  H   UNL     1      22.382   5.576  -6.815  1.00  0.00     0.293 HD
ENDBRANCH  30  38
BRANCH  35  40
ATOM     40  C   UNL     1      19.441   6.270  -1.294  1.00  0.00    -0.003 A 
ATOM     41  C   UNL     1      19.258   5.448  -2.426  1.00  0.00     0.057 A 
ATOM     42  C   UNL     1      18.328   6.533  -0.470  1.00  0.00     0.011 A 
ATOM     43  C   UNL     1      18.017   4.836  -2.689  1.00  0.00     0.158 A 
ATOM     44  C   UNL     1      17.087   5.947  -0.744  1.00  0.00     0.051 A 
ATOM     45  C   UNL     1      16.926   5.085  -1.849  1.00  0.00     0.160 A 
BRANCH  43  46
ATOM     46  O   UNL     1      17.875   3.965  -3.770  1.00  0.00    -0.504 OA
ATOM     47  H   UNL     1      17.184   3.218  -3.750  1.00  0.00     0.293 HD
ENDBRANCH  43  46
BRANCH  45  48
ATOM     48  O   UNL     1      15.704   4.442  -2.130  1.00  0.00    -0.493 OA
ATOM     49  C   UNL     1      15.548   3.024  -2.249  1.00  0.00     0.278 C 
ENDBRANCH  45  48
ENDBRANCH  35  40
ENDBRANCH  26  27
ENDBRANCH   5  26
BRANCH   4  50
ATOM     50  O   UNL     1      20.856   8.604  -8.376  1.00  0.00    -0.384 OA
ATOM     51  H   UNL     1      21.664   8.626  -8.959  1.00  0.00     0.211 HD
ENDBRANCH   4  50
TORSDOF 15
ENDMDL
