MODEL 1
REMARK VINA RESULT:    -4.475      0.000      0.000
REMARK INTER + INTRA:          -4.754
REMARK INTER:                  -4.737
REMARK INTRA:                  -0.018
REMARK UNBOUND:                -0.018
REMARK SMILES O=C([O-])c1cccnc1
REMARK SMILES IDX 4 1 5 2 9 3 6 4 8 5 7 6 2 7 1 8 3 9
REMARK H PARENT
REMARK Flexibility Score: inf
ROOT
ATOM      1  C   UNL     1      30.150  33.829  34.458  1.00  0.00     0.016 A 
ATOM      2  C   UNL     1      29.904  32.461  34.671  1.00  0.00     0.013 A 
ATOM      3  C   UNL     1      31.469  34.237  34.196  1.00  0.00     0.120 A 
ATOM      4  C   UNL     1      30.955  31.544  34.620  1.00  0.00     0.021 A 
ATOM      5  N   UNL     1      32.475  33.323  34.152  1.00  0.00    -0.264 NA
ATOM      6  C   UNL     1      32.248  31.998  34.356  1.00  0.00     0.111 A 
ENDROOT
BRANCH   1   7
ATOM      7  C   UNL     1      29.051  34.816  34.508  1.00  0.00     0.073 C 
ATOM      8  O   UNL     1      29.065  35.748  35.357  1.00  0.00    -0.545 OA
ATOM      9  O   UNL     1      27.987  34.731  33.618  1.00  0.00    -0.545 OA
ENDBRANCH   1   7
TORSDOF 1
ENDMDL
MODEL 2
REMARK VINA RESULT:    -4.030      3.446      4.302
REMARK INTER + INTRA:          -4.284
REMARK INTER:                  -4.264
REMARK INTRA:                  -0.020
REMARK UNBOUND:                -0.018
REMARK SMILES O=C([O-])c1cccnc1
REMARK SMILES IDX 4 1 5 2 9 3 6 4 8 5 7 6 2 7 1 8 3 9
REMARK H PARENT
REMARK Flexibility Score: inf
ROOT
ATOM      1  C   UNL     1      32.232  31.987  34.781  1.00  0.00     0.016 A 
ATOM      2  C   UNL     1      30.879  31.623  34.888  1.00  0.00     0.013 A 
ATOM      3  C   UNL     1      32.542  33.318  34.453  1.00  0.00     0.120 A 
ATOM      4  C   UNL     1      29.879  32.572  34.669  1.00  0.00     0.021 A 
ATOM      5  N   UNL     1      31.547  34.223  34.245  1.00  0.00    -0.264 NA
ATOM      6  C   UNL     1      30.236  33.881  34.346  1.00  0.00     0.111 A 
ENDROOT
BRANCH   1   7
ATOM      7  C   UNL     1      33.307  30.997  35.008  1.00  0.00     0.073 C 
ATOM      8  O   UNL     1      33.235  29.846  34.500  1.00  0.00    -0.545 OA
ATOM      9  O   UNL     1      34.411  31.324  35.786  1.00  0.00    -0.545 OA
ENDBRANCH   1   7
TORSDOF 1
ENDMDL
MODEL 3
REMARK VINA RESULT:    -4.018     10.901     11.495
REMARK INTER + INTRA:          -4.270
REMARK INTER:                  -4.254
REMARK INTRA:                  -0.017
REMARK UNBOUND:                -0.018
REMARK SMILES O=C([O-])c1cccnc1
REMARK SMILES IDX 4 1 5 2 9 3 6 4 8 5 7 6 2 7 1 8 3 9
REMARK H PARENT
REMARK Flexibility Score: inf
ROOT
ATOM      1  C   UNL     1      27.035  27.449  43.520  1.00  0.00     0.016 A 
ATOM      2  C   UNL     1      27.653  28.486  42.801  1.00  0.00     0.013 A 
ATOM      3  C   UNL     1      27.380  26.122  43.209  1.00  0.00     0.120 A 
ATOM      4  C   UNL     1      28.584  28.189  41.804  1.00  0.00     0.021 A 
ATOM      5  N   UNL     1      28.290  25.861  42.233  1.00  0.00    -0.264 NA
ATOM      6  C   UNL     1      28.893  26.856  41.531  1.00  0.00     0.111 A 
ENDROOT
BRANCH   1   7
ATOM      7  C   UNL     1      26.047  27.742  44.580  1.00  0.00     0.073 C 
ATOM      8  O   UNL     1      26.415  28.228  45.683  1.00  0.00    -0.545 OA
ATOM      9  O   UNL     1      24.696  27.485  44.374  1.00  0.00    -0.545 OA
ENDBRANCH   1   7
TORSDOF 1
ENDMDL
MODEL 4
REMARK VINA RESULT:    -3.947      1.949      2.378
REMARK INTER + INTRA:          -4.195
REMARK INTER:                  -4.171
REMARK INTRA:                  -0.024
REMARK UNBOUND:                -0.018
REMARK SMILES O=C([O-])c1cccnc1
REMARK SMILES IDX 4 1 5 2 9 3 6 4 8 5 7 6 2 7 1 8 3 9
REMARK H PARENT
REMARK Flexibility Score: inf
ROOT
ATOM      1  C   UNL     1      31.591  32.452  34.847  1.00  0.00     0.016 A 
ATOM      2  C   UNL     1      30.669  31.480  35.271  1.00  0.00     0.013 A 
ATOM      3  C   UNL     1      32.953  32.106  34.801  1.00  0.00     0.120 A 
ATOM      4  C   UNL     1      31.110  30.207  35.635  1.00  0.00     0.021 A 
ATOM      5  N   UNL     1      33.356  30.858  35.162  1.00  0.00    -0.264 NA
ATOM      6  C   UNL     1      32.472  29.911  35.574  1.00  0.00     0.111 A 
ENDROOT
BRANCH   1   7
ATOM      7  C   UNL     1      31.144  33.806  34.456  1.00  0.00     0.073 C 
ATOM      8  O   UNL     1      31.977  34.667  34.064  1.00  0.00    -0.545 OA
ATOM      9  O   UNL     1      29.799  34.148  34.516  1.00  0.00    -0.545 OA
ENDBRANCH   1   7
TORSDOF 1
ENDMDL
MODEL 5
REMARK VINA RESULT:    -3.909     11.256     12.008
REMARK INTER + INTRA:          -4.155
REMARK INTER:                  -4.132
REMARK INTRA:                  -0.023
REMARK UNBOUND:                -0.018
REMARK SMILES O=C([O-])c1cccnc1
REMARK SMILES IDX 4 1 5 2 9 3 6 4 8 5 7 6 2 7 1 8 3 9
REMARK H PARENT
REMARK Flexibility Score: inf
ROOT
ATOM      1  C   UNL     1      27.123  27.478  43.356  1.00  0.00     0.016 A 
ATOM      2  C   UNL     1      26.935  28.839  43.059  1.00  0.00     0.013 A 
ATOM      3  C   UNL     1      26.045  26.758  43.899  1.00  0.00     0.120 A 
ATOM      4  C   UNL     1      25.702  29.446  43.304  1.00  0.00     0.021 A 
ATOM      5  N   UNL     1      24.854  27.374  44.128  1.00  0.00    -0.264 NA
ATOM      6  C   UNL     1      24.662  28.690  43.845  1.00  0.00     0.111 A 
ENDROOT
BRANCH   1   7
ATOM      7  C   UNL     1      28.421  26.816  43.104  1.00  0.00     0.073 C 
ATOM      8  O   UNL     1      28.675  25.691  43.612  1.00  0.00    -0.545 OA
ATOM      9  O   UNL     1      29.379  27.427  42.303  1.00  0.00    -0.545 OA
ENDBRANCH   1   7
TORSDOF 1
ENDMDL
MODEL 6
REMARK VINA RESULT:    -3.862     10.850     11.598
REMARK INTER + INTRA:          -4.106
REMARK INTER:                  -4.084
REMARK INTRA:                  -0.022
REMARK UNBOUND:                -0.018
REMARK SMILES O=C([O-])c1cccnc1
REMARK SMILES IDX 4 1 5 2 9 3 6 4 8 5 7 6 2 7 1 8 3 9
REMARK H PARENT
REMARK Flexibility Score: inf
ROOT
ATOM      1  C   UNL     1      27.462  27.709  42.995  1.00  0.00     0.016 A 
ATOM      2  C   UNL     1      26.869  28.979  43.094  1.00  0.00     0.013 A 
ATOM      3  C   UNL     1      26.760  26.602  43.502  1.00  0.00     0.120 A 
ATOM      4  C   UNL     1      25.613  29.121  43.686  1.00  0.00     0.021 A 
ATOM      5  N   UNL     1      25.537  26.769  44.074  1.00  0.00    -0.264 NA
ATOM      6  C   UNL     1      24.955  27.993  44.175  1.00  0.00     0.111 A 
ENDROOT
BRANCH   1   7
ATOM      7  C   UNL     1      28.792  27.537  42.372  1.00  0.00     0.073 C 
ATOM      8  O   UNL     1      29.161  28.290  41.431  1.00  0.00    -0.545 OA
ATOM      9  O   UNL     1      29.655  26.542  42.817  1.00  0.00    -0.545 OA
ENDBRANCH   1   7
TORSDOF 1
ENDMDL
MODEL 7
REMARK VINA RESULT:    -3.817     17.646     18.680
REMARK INTER + INTRA:          -4.057
REMARK INTER:                  -4.039
REMARK INTRA:                  -0.018
REMARK UNBOUND:                -0.018
REMARK SMILES O=C([O-])c1cccnc1
REMARK SMILES IDX 4 1 5 2 9 3 6 4 8 5 7 6 2 7 1 8 3 9
REMARK H PARENT
REMARK Flexibility Score: inf
ROOT
ATOM      1  C   UNL     1      41.776  20.085  39.525  1.00  0.00     0.016 A 
ATOM      2  C   UNL     1      42.512  18.906  39.316  1.00  0.00     0.013 A 
ATOM      3  C   UNL     1      40.374  20.015  39.477  1.00  0.00     0.120 A 
ATOM      4  C   UNL     1      41.850  17.703  39.067  1.00  0.00     0.021 A 
ATOM      5  N   UNL     1      39.754  18.829  39.232  1.00  0.00    -0.264 NA
ATOM      6  C   UNL     1      40.456  17.683  39.029  1.00  0.00     0.111 A 
ENDROOT
BRANCH   1   7
ATOM      7  C   UNL     1      42.458  21.370  39.789  1.00  0.00     0.073 C 
ATOM      8  O   UNL     1      43.276  21.477  40.742  1.00  0.00    -0.545 OA
ATOM      9  O   UNL     1      42.205  22.479  38.991  1.00  0.00    -0.545 OA
ENDBRANCH   1   7
TORSDOF 1
ENDMDL
MODEL 8
REMARK VINA RESULT:    -3.778     18.415     19.597
REMARK INTER + INTRA:          -4.016
REMARK INTER:                  -3.993
REMARK INTRA:                  -0.023
REMARK UNBOUND:                -0.018
REMARK SMILES O=C([O-])c1cccnc1
REMARK SMILES IDX 4 1 5 2 9 3 6 4 8 5 7 6 2 7 1 8 3 9
REMARK H PARENT
REMARK Flexibility Score: inf
ROOT
ATOM      1  C   UNL     1      41.219  18.142  39.284  1.00  0.00     0.016 A 
ATOM      2  C   UNL     1      39.982  18.808  39.237  1.00  0.00     0.013 A 
ATOM      3  C   UNL     1      42.393  18.914  39.305  1.00  0.00     0.120 A 
ATOM      4  C   UNL     1      39.939  20.204  39.210  1.00  0.00     0.021 A 
ATOM      5  N   UNL     1      42.323  20.272  39.278  1.00  0.00    -0.264 NA
ATOM      6  C   UNL     1      41.132  20.926  39.232  1.00  0.00     0.111 A 
ENDROOT
BRANCH   1   7
ATOM      7  C   UNL     1      41.287  16.666  39.313  1.00  0.00     0.073 C 
ATOM      8  O   UNL     1      40.269  15.983  39.608  1.00  0.00    -0.545 OA
ATOM      9  O   UNL     1      42.476  16.010  39.016  1.00  0.00    -0.545 OA
ENDBRANCH   1   7
TORSDOF 1
ENDMDL
MODEL 9
REMARK VINA RESULT:    -3.762     18.200     19.028
REMARK INTER + INTRA:          -4.000
REMARK INTER:                  -3.982
REMARK INTRA:                  -0.018
REMARK UNBOUND:                -0.018
REMARK SMILES O=C([O-])c1cccnc1
REMARK SMILES IDX 4 1 5 2 9 3 6 4 8 5 7 6 2 7 1 8 3 9
REMARK H PARENT
REMARK Flexibility Score: inf
ROOT
ATOM      1  C   UNL     1      38.860  17.531  38.882  1.00  0.00     0.016 A 
ATOM      2  C   UNL     1      39.631  18.701  38.989  1.00  0.00     0.013 A 
ATOM      3  C   UNL     1      39.497  16.291  39.061  1.00  0.00     0.120 A 
ATOM      4  C   UNL     1      40.997  18.616  39.265  1.00  0.00     0.021 A 
ATOM      5  N   UNL     1      40.830  16.237  39.329  1.00  0.00    -0.264 NA
ATOM      6  C   UNL     1      41.585  17.362  39.434  1.00  0.00     0.111 A 
ENDROOT
BRANCH   1   7
ATOM      7  C   UNL     1      37.412  17.599  38.591  1.00  0.00     0.073 C 
ATOM      8  O   UNL     1      36.996  18.149  37.536  1.00  0.00    -0.545 OA
ATOM      9  O   UNL     1      36.489  17.056  39.477  1.00  0.00    -0.545 OA
ENDBRANCH   1   7
TORSDOF 1
ENDMDL
