MODEL 1
REMARK VINA RESULT:    63.367      0.000      0.000
REMARK INTER + INTRA:         103.643
REMARK INTER:                  93.002
REMARK INTRA:                  10.641
REMARK UNBOUND:                10.641
REMARK SMILES Cc1cc2c(C(C)C)c(O)c(O)c(C=O)c2c(O)c1-c1c(C)cc2c(C(C)C)c(O)c(O)c(C=O)c2c1O
REMARK SMILES IDX 1 1 2 2 3 3 4 4 16 5 13 6 11 7 9 8 5 9 17 10 19 11 20 12
REMARK SMILES IDX 37 13 21 14 36 15 23 16 22 17 24 18 33 19 25 20 31 21 29 22
REMARK SMILES IDX 38 23 34 25 35 26 26 27 27 28 28 29 32 30 30 32 18 34 6 36
REMARK SMILES IDX 7 37 8 38 14 39 15 40 10 41 12 43
REMARK H PARENT 38 24 32 31 30 33 18 35 10 42 12 44
REMARK Flexibility Score: inf
ROOT
ATOM      1  C   UNL     1      -3.039  39.605  20.570  1.00  0.00     0.045 C 
ATOM      2  C   UNL     1      -3.402  38.285  19.933  1.00  0.00    -0.039 A 
ATOM      3  C   UNL     1      -3.230  38.117  18.560  1.00  0.00     0.013 A 
ATOM      4  C   UNL     1      -3.533  36.899  17.910  1.00  0.00    -0.006 A 
ATOM      5  C   UNL     1      -4.127  35.843  18.671  1.00  0.00     0.039 A 
ATOM      6  C   UNL     1      -4.552  34.661  17.992  1.00  0.00     0.072 A 
ATOM      7  C   UNL     1      -4.448  34.580  16.589  1.00  0.00     0.169 A 
ATOM      8  C   UNL     1      -3.864  35.619  15.858  1.00  0.00     0.162 A 
ATOM      9  C   UNL     1      -3.294  36.732  16.511  1.00  0.00     0.008 A 
ATOM     10  C   UNL     1      -4.312  36.025  20.077  1.00  0.00     0.132 A 
ATOM     11  C   UNL     1      -3.936  37.237  20.698  1.00  0.00     0.031 A 
ENDROOT
BRANCH  11  12
ATOM     12  C   UNL     1      -4.141  37.422  22.159  1.00  0.00     0.031 A 
ATOM     13  C   UNL     1      -4.197  38.720  22.709  1.00  0.00     0.132 A 
ATOM     14  C   UNL     1      -4.282  36.301  22.991  1.00  0.00    -0.039 A 
ATOM     15  C   UNL     1      -4.430  38.905  24.107  1.00  0.00     0.039 A 
ATOM     16  C   UNL     1      -4.405  36.480  24.370  1.00  0.00     0.013 A 
ATOM     17  C   UNL     1      -4.235  34.901  22.429  1.00  0.00     0.045 C 
ATOM     18  C   UNL     1      -4.436  37.759  24.961  1.00  0.00    -0.006 A 
ATOM     19  C   UNL     1      -4.634  40.195  24.678  1.00  0.00     0.072 A 
ATOM     20  C   UNL     1      -4.480  37.922  26.383  1.00  0.00     0.008 A 
ATOM     21  C   UNL     1      -4.805  40.328  26.071  1.00  0.00     0.169 A 
ATOM     22  C   UNL     1      -4.706  39.213  26.909  1.00  0.00     0.162 A 
BRANCH  13  23
ATOM     23  O   UNL     1      -3.991  39.824  21.873  1.00  0.00    -0.507 OA
ATOM     24  H   UNL     1      -3.955  39.769  20.863  1.00  0.00     0.293 HD
ENDBRANCH  13  23
BRANCH  19  25
ATOM     25  C   UNL     1      -4.756  41.408  23.842  1.00  0.00     0.264 C 
ATOM     26  O   UNL     1      -3.758  42.148  23.633  1.00  0.00    -0.298 OA
ENDBRANCH  19  25
BRANCH  20  27
ATOM     27  C   UNL     1      -4.290  36.769  27.391  1.00  0.00     0.017 C 
ATOM     28  C   UNL     1      -5.123  35.533  27.021  1.00  0.00     0.012 C 
ATOM     29  C   UNL     1      -2.817  36.436  27.706  1.00  0.00     0.012 C 
ENDBRANCH  20  27
BRANCH  21  30
ATOM     30  O   UNL     1      -5.103  41.563  26.661  1.00  0.00    -0.504 OA
ATOM     31  H   UNL     1      -4.417  42.280  26.854  1.00  0.00     0.293 HD
ENDBRANCH  21  30
BRANCH  22  32
ATOM     32  O   UNL     1      -4.855  39.384  28.290  1.00  0.00    -0.504 OA
ATOM     33  H   UNL     1      -5.032  38.618  28.928  1.00  0.00     0.293 HD
ENDBRANCH  22  32
ENDBRANCH  11  12
BRANCH  10  34
ATOM     34  O   UNL     1      -4.879  35.011  20.855  1.00  0.00    -0.507 OA
ATOM     35  H   UNL     1      -4.388  34.172  21.140  1.00  0.00     0.293 HD
ENDBRANCH  10  34
BRANCH   9  36
ATOM     36  C   UNL     1      -2.454  37.741  15.705  1.00  0.00     0.017 C 
ATOM     37  C   UNL     1      -2.703  37.576  14.202  1.00  0.00     0.012 C 
ATOM     38  C   UNL     1      -0.949  37.701  16.031  1.00  0.00     0.012 C 
ENDBRANCH   9  36
BRANCH   6  39
ATOM     39  C   UNL     1      -5.123  33.506  18.713  1.00  0.00     0.264 C 
ATOM     40  O   UNL     1      -4.451  32.905  19.594  1.00  0.00    -0.298 OA
ENDBRANCH   6  39
BRANCH   8  41
ATOM     41  O   UNL     1      -3.847  35.546  14.463  1.00  0.00    -0.504 OA
ATOM     42  H   UNL     1      -3.249  36.125  13.887  1.00  0.00     0.293 HD
ENDBRANCH   8  41
BRANCH   7  43
ATOM     43  O   UNL     1      -4.891  33.454  15.884  1.00  0.00    -0.504 OA
ATOM     44  H   UNL     1      -4.280  32.734  15.521  1.00  0.00     0.293 HD
ENDBRANCH   7  43
TORSDOF 11
ENDMDL
MODEL 2
REMARK VINA RESULT:    64.421      1.787      9.041
REMARK INTER + INTRA:         105.190
REMARK INTER:                  98.039
REMARK INTRA:                   7.150
REMARK UNBOUND:                10.641
REMARK SMILES Cc1cc2c(C(C)C)c(O)c(O)c(C=O)c2c(O)c1-c1c(C)cc2c(C(C)C)c(O)c(O)c(C=O)c2c1O
REMARK SMILES IDX 1 1 2 2 3 3 4 4 16 5 13 6 11 7 9 8 5 9 17 10 19 11 20 12
REMARK SMILES IDX 37 13 21 14 36 15 23 16 22 17 24 18 33 19 25 20 31 21 29 22
REMARK SMILES IDX 38 23 34 25 35 26 26 27 27 28 28 29 32 30 30 32 18 34 6 36
REMARK SMILES IDX 7 37 8 38 14 39 15 40 10 41 12 43
REMARK H PARENT 38 24 32 31 30 33 18 35 10 42 12 44
REMARK Flexibility Score: inf
ROOT
ATOM      1  C   UNL     1      -3.669  35.000  22.462  1.00  0.00     0.045 C 
ATOM      2  C   UNL     1      -3.839  36.468  22.777  1.00  0.00    -0.039 A 
ATOM      3  C   UNL     1      -4.039  36.867  24.098  1.00  0.00     0.013 A 
ATOM      4  C   UNL     1      -4.184  38.226  24.455  1.00  0.00    -0.006 A 
ATOM      5  C   UNL     1      -4.225  39.210  23.418  1.00  0.00     0.039 A 
ATOM      6  C   UNL     1      -4.500  40.567  23.767  1.00  0.00     0.072 A 
ATOM      7  C   UNL     1      -4.795  40.903  25.104  1.00  0.00     0.169 A 
ATOM      8  C   UNL     1      -4.749  39.932  26.108  1.00  0.00     0.162 A 
ATOM      9  C   UNL     1      -4.330  38.615  25.823  1.00  0.00     0.008 A 
ATOM     10  C   UNL     1      -4.031  38.794  22.064  1.00  0.00     0.132 A 
ATOM     11  C   UNL     1      -3.826  37.431  21.756  1.00  0.00     0.031 A 
ENDROOT
BRANCH  11  12
ATOM     12  C   UNL     1      -3.635  37.005  20.344  1.00  0.00     0.031 A 
ATOM     13  C   UNL     1      -2.828  37.769  19.475  1.00  0.00     0.132 A 
ATOM     14  C   UNL     1      -4.258  35.837  19.877  1.00  0.00    -0.039 A 
ATOM     15  C   UNL     1      -2.612  37.345  18.128  1.00  0.00     0.039 A 
ATOM     16  C   UNL     1      -4.130  35.481  18.534  1.00  0.00     0.013 A 
ATOM     17  C   UNL     1      -5.120  34.996  20.788  1.00  0.00     0.045 C 
ATOM     18  C   UNL     1      -3.357  36.233  17.627  1.00  0.00    -0.006 A 
ATOM     19  C   UNL     1      -1.693  38.009  17.261  1.00  0.00     0.072 A 
ATOM     20  C   UNL     1      -3.304  35.899  16.236  1.00  0.00     0.008 A 
ATOM     21  C   UNL     1      -1.557  37.584  15.924  1.00  0.00     0.169 A 
ATOM     22  C   UNL     1      -2.366  36.563  15.417  1.00  0.00     0.162 A 
BRANCH  13  23
ATOM     23  O   UNL     1      -2.267  38.965  19.941  1.00  0.00    -0.507 OA
ATOM     24  H   UNL     1      -2.448  39.872  19.530  1.00  0.00     0.293 HD
ENDBRANCH  13  23
BRANCH  19  25
ATOM     25  C   UNL     1      -0.807  39.089  17.745  1.00  0.00     0.264 C 
ATOM     26  O   UNL     1      -0.048  38.903  18.734  1.00  0.00    -0.298 OA
ENDBRANCH  19  25
BRANCH  20  27
ATOM     27  C   UNL     1      -4.217  34.852  15.564  1.00  0.00     0.017 C 
ATOM     28  C   UNL     1      -4.255  35.012  14.038  1.00  0.00     0.012 C 
ATOM     29  C   UNL     1      -3.960  33.399  16.016  1.00  0.00     0.012 C 
ENDBRANCH  20  27
BRANCH  21  30
ATOM     30  O   UNL     1      -0.601  38.146  15.069  1.00  0.00    -0.504 OA
ATOM     31  H   UNL     1       0.022  38.899  15.329  1.00  0.00     0.293 HD
ENDBRANCH  21  30
BRANCH  22  32
ATOM     32  O   UNL     1      -2.222  36.184  14.077  1.00  0.00    -0.504 OA
ATOM     33  H   UNL     1      -2.222  35.219  13.771  1.00  0.00     0.293 HD
ENDBRANCH  22  32
ENDBRANCH  11  12
BRANCH  10  34
ATOM     34  O   UNL     1      -4.053  39.729  21.024  1.00  0.00    -0.507 OA
ATOM     35  H   UNL     1      -4.755  39.751  20.295  1.00  0.00     0.293 HD
ENDBRANCH  10  34
BRANCH   9  36
ATOM     36  C   UNL     1      -4.064  37.633  26.979  1.00  0.00     0.017 C 
ATOM     37  C   UNL     1      -2.562  37.373  27.137  1.00  0.00     0.012 C 
ATOM     38  C   UNL     1      -4.852  36.314  26.871  1.00  0.00     0.012 C 
ENDBRANCH   9  36
BRANCH   6  39
ATOM     39  C   UNL     1      -4.505  41.648  22.762  1.00  0.00     0.264 C 
ATOM     40  O   UNL     1      -3.609  41.706  21.878  1.00  0.00    -0.298 OA
ENDBRANCH   6  39
BRANCH   8  41
ATOM     41  O   UNL     1      -5.124  40.277  27.409  1.00  0.00    -0.504 OA
ATOM     42  H   UNL     1      -5.991  40.750  27.627  1.00  0.00     0.293 HD
ENDBRANCH   8  41
BRANCH   7  43
ATOM     43  O   UNL     1      -5.109  42.216  25.479  1.00  0.00    -0.504 OA
ATOM     44  H   UNL     1      -4.849  43.036  24.947  1.00  0.00     0.293 HD
ENDBRANCH   7  43
TORSDOF 11
ENDMDL
