MODEL 1
REMARK VINA RESULT:    13.709      0.000      0.000
REMARK INTER + INTRA:          30.775
REMARK INTER:                  31.341
REMARK INTRA:                  -0.566
REMARK UNBOUND:                -0.566
REMARK SMILES CCCCCCCCCCCCCCCCCCCCCCCC(=O)[O-]
REMARK SMILES IDX 13 1 14 2 15 3 16 4 17 5 18 6 19 7 20 8 21 9 22 10 23 11
REMARK SMILES IDX 24 12 25 13 26 14 12 15 11 16 10 17 9 18 8 19 7 20 6 21 5 22
REMARK SMILES IDX 4 23 3 24 2 25 1 26
REMARK H PARENT
REMARK Flexibility Score: inf
ROOT
ATOM      1  C   UNL     1      -7.026  16.796 -11.583  1.00  0.00     0.000 C 
ENDROOT
BRANCH   1   2
ATOM      2  C   UNL     1      -6.340  15.740 -10.695  1.00  0.00     0.000 C 
BRANCH   2   3
ATOM      3  C   UNL     1      -5.142  15.061 -11.385  1.00  0.00     0.000 C 
BRANCH   3   4
ATOM      4  C   UNL     1      -4.248  14.222 -10.445  1.00  0.00     0.000 C 
BRANCH   4   5
ATOM      5  C   UNL     1      -2.785  14.701 -10.388  1.00  0.00     0.000 C 
BRANCH   5   6
ATOM      6  C   UNL     1      -2.597  16.157  -9.922  1.00  0.00     0.000 C 
BRANCH   6   7
ATOM      7  C   UNL     1      -3.549  17.184 -10.571  1.00  0.00     0.000 C 
BRANCH   7   8
ATOM      8  C   UNL     1      -2.964  18.595 -10.752  1.00  0.00     0.000 C 
BRANCH   8   9
ATOM      9  C   UNL     1      -4.026  19.642 -11.122  1.00  0.00     0.000 C 
BRANCH   9  10
ATOM     10  C   UNL     1      -5.441  19.092 -10.885  1.00  0.00     0.006 C 
BRANCH  10  11
ATOM     11  C   UNL     1      -6.500  20.203 -10.856  1.00  0.00     0.053 C 
BRANCH  11  12
ATOM     12  C   UNL     1      -6.347  21.146 -12.011  1.00  0.00     0.041 C 
ATOM     13  O   UNL     1      -5.843  22.286 -11.834  1.00  0.00    -0.550 OA
ATOM     14  O   UNL     1      -6.729  20.752 -13.288  1.00  0.00    -0.550 OA
ENDBRANCH  11  12
ENDBRANCH  10  11
ENDBRANCH   9  10
ENDBRANCH   8   9
ENDBRANCH   7   8
ENDBRANCH   6   7
ENDBRANCH   5   6
ENDBRANCH   4   5
ENDBRANCH   3   4
ENDBRANCH   2   3
ENDBRANCH   1   2
BRANCH   1  15
ATOM     15  C   UNL     1      -7.495  16.218 -12.932  1.00  0.00     0.000 C 
BRANCH  15  16
ATOM     16  C   UNL     1      -8.970  15.765 -12.950  1.00  0.00     0.000 C 
BRANCH  16  17
ATOM     17  C   UNL     1      -9.198  14.263 -12.674  1.00  0.00     0.000 C 
BRANCH  17  18
ATOM     18  C   UNL     1     -10.145  13.945 -11.498  1.00  0.00    -0.000 C 
BRANCH  18  19
ATOM     19  C   UNL     1     -10.638  15.169 -10.708  1.00  0.00    -0.000 C 
BRANCH  19  20
ATOM     20  C   UNL     1     -10.530  14.977  -9.186  1.00  0.00    -0.000 C 
BRANCH  20  21
ATOM     21  C   UNL     1      -9.401  15.827  -8.575  1.00  0.00    -0.000 C 
BRANCH  21  22
ATOM     22  C   UNL     1      -9.915  17.019  -7.747  1.00  0.00    -0.000 C 
BRANCH  22  23
ATOM     23  C   UNL     1     -11.412  16.887  -7.412  1.00  0.00    -0.000 C 
BRANCH  23  24
ATOM     24  C   UNL     1     -11.667  16.186  -6.065  1.00  0.00    -0.000 C 
BRANCH  24  25
ATOM     25  C   UNL     1     -13.034  15.492  -5.942  1.00  0.00    -0.003 C 
ATOM     26  C   UNL     1     -12.997  14.248  -5.054  1.00  0.00     0.004 C 
ENDBRANCH  24  25
ENDBRANCH  23  24
ENDBRANCH  22  23
ENDBRANCH  21  22
ENDBRANCH  20  21
ENDBRANCH  19  20
ENDBRANCH  18  19
ENDBRANCH  17  18
ENDBRANCH  16  17
ENDBRANCH  15  16
ENDBRANCH   1  15
TORSDOF 22
ENDMDL
MODEL 2
REMARK VINA RESULT:    14.041      3.369      8.038
REMARK INTER + INTRA:          31.533
REMARK INTER:                  33.427
REMARK INTRA:                  -1.894
REMARK UNBOUND:                -0.566
REMARK SMILES CCCCCCCCCCCCCCCCCCCCCCCC(=O)[O-]
REMARK SMILES IDX 13 1 14 2 15 3 16 4 17 5 18 6 19 7 20 8 21 9 22 10 23 11
REMARK SMILES IDX 24 12 25 13 26 14 12 15 11 16 10 17 9 18 8 19 7 20 6 21 5 22
REMARK SMILES IDX 4 23 3 24 2 25 1 26
REMARK H PARENT
REMARK Flexibility Score: inf
ROOT
ATOM      1  C   UNL     1      -6.234  16.060 -10.896  1.00  0.00     0.000 C 
ENDROOT
BRANCH   1   2
ATOM      2  C   UNL     1      -7.278  16.566 -11.910  1.00  0.00     0.000 C 
BRANCH   2   3
ATOM      3  C   UNL     1      -7.967  15.426 -12.683  1.00  0.00     0.000 C 
BRANCH   3   4
ATOM      4  C   UNL     1      -9.497  15.346 -12.484  1.00  0.00     0.000 C 
BRANCH   4   5
ATOM      5  C   UNL     1      -9.978  14.004 -11.900  1.00  0.00     0.000 C 
BRANCH   5   6
ATOM      6  C   UNL     1     -10.302  14.031 -10.395  1.00  0.00     0.000 C 
BRANCH   6   7
ATOM      7  C   UNL     1     -10.461  15.438  -9.781  1.00  0.00     0.000 C 
BRANCH   7   8
ATOM      8  C   UNL     1      -9.460  15.783  -8.664  1.00  0.00     0.000 C 
BRANCH   8   9
ATOM      9  C   UNL     1      -9.940  16.928  -7.761  1.00  0.00     0.000 C 
BRANCH   9  10
ATOM     10  C   UNL     1     -11.419  16.744  -7.383  1.00  0.00     0.006 C 
BRANCH  10  11
ATOM     11  C   UNL     1     -11.599  16.348  -5.912  1.00  0.00     0.053 C 
BRANCH  11  12
ATOM     12  C   UNL     1     -12.864  15.573  -5.695  1.00  0.00     0.041 C 
ATOM     13  O   UNL     1     -13.775  16.041  -4.963  1.00  0.00    -0.550 OA
ATOM     14  O   UNL     1     -13.051  14.352  -6.332  1.00  0.00    -0.550 OA
ENDBRANCH  11  12
ENDBRANCH  10  11
ENDBRANCH   9  10
ENDBRANCH   8   9
ENDBRANCH   7   8
ENDBRANCH   6   7
ENDBRANCH   5   6
ENDBRANCH   4   5
ENDBRANCH   3   4
ENDBRANCH   2   3
ENDBRANCH   1   2
BRANCH   1  15
ATOM     15  C   UNL     1      -5.267  15.030 -11.511  1.00  0.00     0.000 C 
BRANCH  15  16
ATOM     16  C   UNL     1      -4.136  14.575 -10.564  1.00  0.00     0.000 C 
BRANCH  16  17
ATOM     17  C   UNL     1      -3.366  15.717  -9.868  1.00  0.00     0.000 C 
BRANCH  17  18
ATOM     18  C   UNL     1      -3.040  16.933 -10.761  1.00  0.00    -0.000 C 
BRANCH  18  19
ATOM     19  C   UNL     1      -3.860  18.200 -10.461  1.00  0.00    -0.000 C 
BRANCH  19  20
ATOM     20  C   UNL     1      -3.224  19.472 -11.047  1.00  0.00    -0.000 C 
BRANCH  20  21
ATOM     21  C   UNL     1      -4.175  20.681 -10.970  1.00  0.00    -0.000 C 
BRANCH  21  22
ATOM     22  C   UNL     1      -5.645  20.286 -10.738  1.00  0.00    -0.000 C 
BRANCH  22  23
ATOM     23  C   UNL     1      -6.586  20.927 -11.773  1.00  0.00    -0.000 C 
BRANCH  23  24
ATOM     24  C   UNL     1      -6.678  20.121 -13.081  1.00  0.00    -0.000 C 
BRANCH  24  25
ATOM     25  C   UNL     1      -7.224  20.903 -14.289  1.00  0.00    -0.003 C 
ATOM     26  C   UNL     1      -6.637  22.310 -14.408  1.00  0.00     0.004 C 
ENDBRANCH  24  25
ENDBRANCH  23  24
ENDBRANCH  22  23
ENDBRANCH  21  22
ENDBRANCH  20  21
ENDBRANCH  19  20
ENDBRANCH  18  19
ENDBRANCH  17  18
ENDBRANCH  16  17
ENDBRANCH  15  16
ENDBRANCH   1  15
TORSDOF 22
ENDMDL
MODEL 3
REMARK VINA RESULT:    14.394      0.889      1.144
REMARK INTER + INTRA:          32.341
REMARK INTER:                  33.405
REMARK INTRA:                  -1.064
REMARK UNBOUND:                -0.566
REMARK SMILES CCCCCCCCCCCCCCCCCCCCCCCC(=O)[O-]
REMARK SMILES IDX 13 1 14 2 15 3 16 4 17 5 18 6 19 7 20 8 21 9 22 10 23 11
REMARK SMILES IDX 24 12 25 13 26 14 12 15 11 16 10 17 9 18 8 19 7 20 6 21 5 22
REMARK SMILES IDX 4 23 3 24 2 25 1 26
REMARK H PARENT
REMARK Flexibility Score: inf
ROOT
ATOM      1  C   UNL     1      -6.979  17.201 -11.469  1.00  0.00     0.000 C 
ENDROOT
BRANCH   1   2
ATOM      2  C   UNL     1      -6.108  16.350 -10.525  1.00  0.00     0.000 C 
BRANCH   2   3
ATOM      3  C   UNL     1      -5.500  15.117 -11.218  1.00  0.00     0.000 C 
BRANCH   3   4
ATOM      4  C   UNL     1      -4.129  14.674 -10.659  1.00  0.00     0.000 C 
BRANCH   4   5
ATOM      5  C   UNL     1      -3.196  15.846 -10.300  1.00  0.00     0.000 C 
BRANCH   5   6
ATOM      6  C   UNL     1      -3.441  17.138 -11.101  1.00  0.00     0.000 C 
BRANCH   6   7
ATOM      7  C   UNL     1      -2.974  18.438 -10.413  1.00  0.00     0.000 C 
BRANCH   7   8
ATOM      8  C   UNL     1      -3.280  19.734 -11.184  1.00  0.00     0.000 C 
BRANCH   8   9
ATOM      9  C   UNL     1      -4.346  20.602 -10.499  1.00  0.00     0.000 C 
BRANCH   9  10
ATOM     10  C   UNL     1      -5.707  20.449 -11.196  1.00  0.00     0.006 C 
BRANCH  10  11
ATOM     11  C   UNL     1      -6.022  21.631 -12.124  1.00  0.00     0.053 C 
BRANCH  11  12
ATOM     12  C   UNL     1      -6.711  21.184 -13.378  1.00  0.00     0.041 C 
ATOM     13  O   UNL     1      -6.880  21.992 -14.328  1.00  0.00    -0.550 OA
ATOM     14  O   UNL     1      -7.132  19.866 -13.511  1.00  0.00    -0.550 OA
ENDBRANCH  11  12
ENDBRANCH  10  11
ENDBRANCH   9  10
ENDBRANCH   8   9
ENDBRANCH   7   8
ENDBRANCH   6   7
ENDBRANCH   5   6
ENDBRANCH   4   5
ENDBRANCH   3   4
ENDBRANCH   2   3
ENDBRANCH   1   2
BRANCH   1  15
ATOM     15  C   UNL     1      -7.462  16.410 -12.699  1.00  0.00     0.000 C 
BRANCH  15  16
ATOM     16  C   UNL     1      -8.939  15.966 -12.629  1.00  0.00     0.000 C 
BRANCH  16  17
ATOM     17  C   UNL     1      -9.166  14.525 -12.123  1.00  0.00     0.000 C 
BRANCH  17  18
ATOM     18  C   UNL     1     -10.495  14.291 -11.373  1.00  0.00    -0.000 C 
BRANCH  18  19
ATOM     19  C   UNL     1     -10.478  14.677  -9.884  1.00  0.00    -0.000 C 
BRANCH  19  20
ATOM     20  C   UNL     1      -9.424  15.749  -9.559  1.00  0.00    -0.000 C 
BRANCH  20  21
ATOM     21  C   UNL     1      -9.399  16.100  -8.060  1.00  0.00    -0.000 C 
BRANCH  21  22
ATOM     22  C   UNL     1     -10.498  17.097  -7.651  1.00  0.00    -0.000 C 
BRANCH  22  23
ATOM     23  C   UNL     1     -11.271  16.627  -6.406  1.00  0.00    -0.000 C 
BRANCH  23  24
ATOM     24  C   UNL     1     -12.472  15.728  -6.749  1.00  0.00    -0.000 C 
BRANCH  24  25
ATOM     25  C   UNL     1     -13.408  15.414  -5.568  1.00  0.00    -0.003 C 
ATOM     26  C   UNL     1     -13.094  14.078  -4.894  1.00  0.00     0.004 C 
ENDBRANCH  24  25
ENDBRANCH  23  24
ENDBRANCH  22  23
ENDBRANCH  21  22
ENDBRANCH  20  21
ENDBRANCH  19  20
ENDBRANCH  18  19
ENDBRANCH  17  18
ENDBRANCH  16  17
ENDBRANCH  15  16
ENDBRANCH   1  15
TORSDOF 22
ENDMDL
MODEL 4
REMARK VINA RESULT:    14.741      3.157      7.896
REMARK INTER + INTRA:          33.134
REMARK INTER:                  33.954
REMARK INTRA:                  -0.820
REMARK UNBOUND:                -0.566
REMARK SMILES CCCCCCCCCCCCCCCCCCCCCCCC(=O)[O-]
REMARK SMILES IDX 13 1 14 2 15 3 16 4 17 5 18 6 19 7 20 8 21 9 22 10 23 11
REMARK SMILES IDX 24 12 25 13 26 14 12 15 11 16 10 17 9 18 8 19 7 20 6 21 5 22
REMARK SMILES IDX 4 23 3 24 2 25 1 26
REMARK H PARENT
REMARK Flexibility Score: inf
ROOT
ATOM      1  C   UNL     1      -5.034  15.065 -11.774  1.00  0.00     0.000 C 
ENDROOT
BRANCH   1   2
ATOM      2  C   UNL     1      -6.504  15.478 -11.569  1.00  0.00     0.000 C 
BRANCH   2   3
ATOM      3  C   UNL     1      -7.363  15.284 -12.832  1.00  0.00     0.000 C 
BRANCH   3   4
ATOM      4  C   UNL     1      -8.589  16.222 -12.927  1.00  0.00     0.000 C 
BRANCH   4   5
ATOM      5  C   UNL     1      -9.910  15.564 -12.486  1.00  0.00     0.000 C 
BRANCH   5   6
ATOM      6  C   UNL     1      -9.754  14.198 -11.793  1.00  0.00     0.000 C 
BRANCH   6   7
ATOM      7  C   UNL     1     -10.501  14.051 -10.451  1.00  0.00     0.000 C 
BRANCH   7   8
ATOM      8  C   UNL     1     -10.774  15.369  -9.706  1.00  0.00     0.000 C 
BRANCH   8   9
ATOM      9  C   UNL     1      -9.621  15.786  -8.781  1.00  0.00     0.000 C 
BRANCH   9  10
ATOM     10  C   UNL     1     -10.149  16.570  -7.569  1.00  0.00     0.006 C 
BRANCH  10  11
ATOM     11  C   UNL     1     -11.678  16.508  -7.456  1.00  0.00     0.053 C 
BRANCH  11  12
ATOM     12  C   UNL     1     -12.119  16.186  -6.060  1.00  0.00     0.041 C 
ATOM     13  O   UNL     1     -11.615  16.795  -5.081  1.00  0.00    -0.550 OA
ATOM     14  O   UNL     1     -13.113  15.238  -5.845  1.00  0.00    -0.550 OA
ENDBRANCH  11  12
ENDBRANCH  10  11
ENDBRANCH   9  10
ENDBRANCH   8   9
ENDBRANCH   7   8
ENDBRANCH   6   7
ENDBRANCH   5   6
ENDBRANCH   4   5
ENDBRANCH   3   4
ENDBRANCH   2   3
ENDBRANCH   1   2
BRANCH   1  15
ATOM     15  C   UNL     1      -4.506  14.178 -10.630  1.00  0.00     0.000 C 
BRANCH  15  16
ATOM     16  C   UNL     1      -3.111  14.578 -10.107  1.00  0.00     0.000 C 
BRANCH  16  17
ATOM     17  C   UNL     1      -2.916  16.088  -9.850  1.00  0.00     0.000 C 
BRANCH  17  18
ATOM     18  C   UNL     1      -3.275  17.011 -11.034  1.00  0.00    -0.000 C 
BRANCH  18  19
ATOM     19  C   UNL     1      -4.057  18.280 -10.656  1.00  0.00    -0.000 C 
BRANCH  19  20
ATOM     20  C   UNL     1      -3.251  19.568 -10.896  1.00  0.00    -0.000 C 
BRANCH  20  21
ATOM     21  C   UNL     1      -3.960  20.809 -10.324  1.00  0.00    -0.000 C 
BRANCH  21  22
ATOM     22  C   UNL     1      -4.519  21.747 -11.410  1.00  0.00    -0.000 C 
BRANCH  22  23
ATOM     23  C   UNL     1      -6.041  21.596 -11.578  1.00  0.00    -0.000 C 
BRANCH  23  24
ATOM     24  C   UNL     1      -6.453  20.207 -12.099  1.00  0.00    -0.000 C 
BRANCH  24  25
ATOM     25  C   UNL     1      -7.179  20.211 -13.456  1.00  0.00    -0.003 C 
ATOM     26  C   UNL     1      -6.750  21.366 -14.361  1.00  0.00     0.004 C 
ENDBRANCH  24  25
ENDBRANCH  23  24
ENDBRANCH  22  23
ENDBRANCH  21  22
ENDBRANCH  20  21
ENDBRANCH  19  20
ENDBRANCH  18  19
ENDBRANCH  17  18
ENDBRANCH  16  17
ENDBRANCH  15  16
ENDBRANCH   1  15
TORSDOF 22
ENDMDL
MODEL 5
REMARK VINA RESULT:    15.557      2.938      5.118
REMARK INTER + INTRA:          35.000
REMARK INTER:                  33.215
REMARK INTRA:                   1.785
REMARK UNBOUND:                -0.566
REMARK SMILES CCCCCCCCCCCCCCCCCCCCCCCC(=O)[O-]
REMARK SMILES IDX 13 1 14 2 15 3 16 4 17 5 18 6 19 7 20 8 21 9 22 10 23 11
REMARK SMILES IDX 24 12 25 13 26 14 12 15 11 16 10 17 9 18 8 19 7 20 6 21 5 22
REMARK SMILES IDX 4 23 3 24 2 25 1 26
REMARK H PARENT
REMARK Flexibility Score: inf
ROOT
ATOM      1  C   UNL     1      -3.707  17.270 -10.748  1.00  0.00     0.000 C 
ENDROOT
BRANCH   1   2
ATOM      2  C   UNL     1      -3.091  18.651 -11.047  1.00  0.00     0.000 C 
BRANCH   2   3
ATOM      3  C   UNL     1      -4.119  19.795 -10.975  1.00  0.00     0.000 C 
BRANCH   3   4
ATOM      4  C   UNL     1      -5.578  19.337 -10.754  1.00  0.00     0.000 C 
BRANCH   4   5
ATOM      5  C   UNL     1      -6.629  20.365 -11.214  1.00  0.00     0.000 C 
BRANCH   5   6
ATOM      6  C   UNL     1      -6.074  21.523 -12.064  1.00  0.00     0.000 C 
BRANCH   6   7
ATOM      7  C   UNL     1      -4.954  22.349 -11.399  1.00  0.00     0.000 C 
BRANCH   7   8
ATOM      8  C   UNL     1      -4.841  23.806 -11.881  1.00  0.00     0.000 C 
BRANCH   8   9
ATOM      9  C   UNL     1      -3.690  24.572 -11.211  1.00  0.00     0.000 C 
BRANCH   9  10
ATOM     10  C   UNL     1      -3.695  26.049 -11.638  1.00  0.00     0.006 C 
BRANCH  10  11
ATOM     11  C   UNL     1      -4.433  26.943 -10.632  1.00  0.00     0.053 C 
BRANCH  11  12
ATOM     12  C   UNL     1      -5.592  27.653 -11.266  1.00  0.00     0.041 C 
ATOM     13  O   UNL     1      -6.750  27.166 -11.190  1.00  0.00    -0.550 OA
ATOM     14  O   UNL     1      -5.396  28.869 -11.909  1.00  0.00    -0.550 OA
ENDBRANCH  11  12
ENDBRANCH  10  11
ENDBRANCH   9  10
ENDBRANCH   8   9
ENDBRANCH   7   8
ENDBRANCH   6   7
ENDBRANCH   5   6
ENDBRANCH   4   5
ENDBRANCH   3   4
ENDBRANCH   2   3
ENDBRANCH   1   2
BRANCH   1  15
ATOM     15  C   UNL     1      -2.733  16.338 -10.003  1.00  0.00     0.000 C 
BRANCH  15  16
ATOM     16  C   UNL     1      -2.882  14.845 -10.361  1.00  0.00     0.000 C 
BRANCH  16  17
ATOM     17  C   UNL     1      -4.319  14.289 -10.267  1.00  0.00     0.000 C 
BRANCH  17  18
ATOM     18  C   UNL     1      -5.377  15.053 -11.090  1.00  0.00    -0.000 C 
BRANCH  18  19
ATOM     19  C   UNL     1      -6.036  16.239 -10.365  1.00  0.00    -0.000 C 
BRANCH  19  20
ATOM     20  C   UNL     1      -7.425  15.893  -9.801  1.00  0.00    -0.000 C 
BRANCH  20  21
ATOM     21  C   UNL     1      -7.865  16.880  -8.704  1.00  0.00    -0.000 C 
BRANCH  21  22
ATOM     22  C   UNL     1      -9.007  16.342  -7.823  1.00  0.00    -0.000 C 
BRANCH  22  23
ATOM     23  C   UNL     1     -10.326  16.207  -8.604  1.00  0.00    -0.000 C 
BRANCH  23  24
ATOM     24  C   UNL     1     -11.560  16.595  -7.770  1.00  0.00    -0.000 C 
BRANCH  24  25
ATOM     25  C   UNL     1     -11.494  16.194  -6.286  1.00  0.00    -0.003 C 
ATOM     26  C   UNL     1     -12.850  15.773  -5.718  1.00  0.00     0.004 C 
ENDBRANCH  24  25
ENDBRANCH  23  24
ENDBRANCH  22  23
ENDBRANCH  21  22
ENDBRANCH  20  21
ENDBRANCH  19  20
ENDBRANCH  18  19
ENDBRANCH  17  18
ENDBRANCH  16  17
ENDBRANCH  15  16
ENDBRANCH   1  15
TORSDOF 22
ENDMDL
MODEL 6
REMARK VINA RESULT:    15.989      3.298      7.797
REMARK INTER + INTRA:          35.987
REMARK INTER:                  36.343
REMARK INTRA:                  -0.355
REMARK UNBOUND:                -0.566
REMARK SMILES CCCCCCCCCCCCCCCCCCCCCCCC(=O)[O-]
REMARK SMILES IDX 13 1 14 2 15 3 16 4 17 5 18 6 19 7 20 8 21 9 22 10 23 11
REMARK SMILES IDX 24 12 25 13 26 14 12 15 11 16 10 17 9 18 8 19 7 20 6 21 5 22
REMARK SMILES IDX 4 23 3 24 2 25 1 26
REMARK H PARENT
REMARK Flexibility Score: inf
ROOT
ATOM      1  C   UNL     1      -7.027  17.304 -11.395  1.00  0.00     0.000 C 
ENDROOT
BRANCH   1   2
ATOM      2  C   UNL     1      -7.814  16.969 -12.677  1.00  0.00     0.000 C 
BRANCH   2   3
ATOM      3  C   UNL     1      -8.189  15.479 -12.780  1.00  0.00     0.000 C 
BRANCH   3   4
ATOM      4  C   UNL     1      -9.689  15.176 -12.567  1.00  0.00     0.000 C 
BRANCH   4   5
ATOM      5  C   UNL     1      -9.956  13.878 -11.782  1.00  0.00     0.000 C 
BRANCH   5   6
ATOM      6  C   UNL     1     -10.619  14.076 -10.407  1.00  0.00     0.000 C 
BRANCH   6   7
ATOM      7  C   UNL     1     -10.514  15.501  -9.824  1.00  0.00     0.000 C 
BRANCH   7   8
ATOM      8  C   UNL     1      -9.325  15.734  -8.875  1.00  0.00     0.000 C 
BRANCH   8   9
ATOM      9  C   UNL     1      -9.724  16.459  -7.581  1.00  0.00     0.000 C 
BRANCH   9  10
ATOM     10  C   UNL     1     -11.249  16.626  -7.495  1.00  0.00     0.006 C 
BRANCH  10  11
ATOM     11  C   UNL     1     -11.747  16.685  -6.045  1.00  0.00     0.053 C 
BRANCH  11  12
ATOM     12  C   UNL     1     -12.860  15.711  -5.799  1.00  0.00     0.041 C 
ATOM     13  O   UNL     1     -12.712  14.496  -6.093  1.00  0.00    -0.550 OA
ATOM     14  O   UNL     1     -14.045  16.139  -5.213  1.00  0.00    -0.550 OA
ENDBRANCH  11  12
ENDBRANCH  10  11
ENDBRANCH   9  10
ENDBRANCH   8   9
ENDBRANCH   7   8
ENDBRANCH   6   7
ENDBRANCH   5   6
ENDBRANCH   4   5
ENDBRANCH   3   4
ENDBRANCH   2   3
ENDBRANCH   1   2
BRANCH   1  15
ATOM     15  C   UNL     1      -6.407  16.055 -10.741  1.00  0.00     0.000 C 
BRANCH  15  16
ATOM     16  C   UNL     1      -5.167  15.502 -11.475  1.00  0.00     0.000 C 
BRANCH  16  17
ATOM     17  C   UNL     1      -4.763  14.063 -11.088  1.00  0.00     0.000 C 
BRANCH  17  18
ATOM     18  C   UNL     1      -3.611  13.954 -10.066  1.00  0.00    -0.000 C 
BRANCH  18  19
ATOM     19  C   UNL     1      -2.986  15.294  -9.644  1.00  0.00    -0.000 C 
BRANCH  19  20
ATOM     20  C   UNL     1      -2.971  16.328 -10.783  1.00  0.00    -0.000 C 
BRANCH  20  21
ATOM     21  C   UNL     1      -3.290  17.747 -10.279  1.00  0.00    -0.000 C 
BRANCH  21  22
ATOM     22  C   UNL     1      -3.265  18.809 -11.394  1.00  0.00    -0.000 C 
BRANCH  22  23
ATOM     23  C   UNL     1      -3.802  20.168 -10.910  1.00  0.00    -0.000 C 
BRANCH  23  24
ATOM     24  C   UNL     1      -5.331  20.183 -10.737  1.00  0.00    -0.000 C 
BRANCH  24  25
ATOM     25  C   UNL     1      -6.123  20.591 -11.992  1.00  0.00    -0.003 C 
ATOM     26  C   UNL     1      -6.432  22.088 -12.045  1.00  0.00     0.004 C 
ENDBRANCH  24  25
ENDBRANCH  23  24
ENDBRANCH  22  23
ENDBRANCH  21  22
ENDBRANCH  20  21
ENDBRANCH  19  20
ENDBRANCH  18  19
ENDBRANCH  17  18
ENDBRANCH  16  17
ENDBRANCH  15  16
ENDBRANCH   1  15
TORSDOF 22
ENDMDL
MODEL 7
REMARK VINA RESULT:    16.023      2.900      5.223
REMARK INTER + INTRA:          36.064
REMARK INTER:                  36.432
REMARK INTRA:                  -0.368
REMARK UNBOUND:                -0.566
REMARK SMILES CCCCCCCCCCCCCCCCCCCCCCCC(=O)[O-]
REMARK SMILES IDX 13 1 14 2 15 3 16 4 17 5 18 6 19 7 20 8 21 9 22 10 23 11
REMARK SMILES IDX 24 12 25 13 26 14 12 15 11 16 10 17 9 18 8 19 7 20 6 21 5 22
REMARK SMILES IDX 4 23 3 24 2 25 1 26
REMARK H PARENT
REMARK Flexibility Score: inf
ROOT
ATOM      1  C   UNL     1      -3.721  17.660 -10.820  1.00  0.00     0.000 C 
ENDROOT
BRANCH   1   2
ATOM      2  C   UNL     1      -2.989  19.015 -10.768  1.00  0.00     0.000 C 
BRANCH   2   3
ATOM      3  C   UNL     1      -3.951  20.217 -10.749  1.00  0.00     0.000 C 
BRANCH   3   4
ATOM      4  C   UNL     1      -5.446  19.848 -10.883  1.00  0.00     0.000 C 
BRANCH   4   5
ATOM      5  C   UNL     1      -6.314  20.974 -11.475  1.00  0.00     0.000 C 
BRANCH   5   6
ATOM      6  C   UNL     1      -6.781  20.739 -12.924  1.00  0.00     0.000 C 
BRANCH   6   7
ATOM      7  C   UNL     1      -6.561  21.924 -13.887  1.00  0.00     0.000 C 
BRANCH   7   8
ATOM      8  C   UNL     1      -6.736  21.596 -15.380  1.00  0.00     0.000 C 
BRANCH   8   9
ATOM      9  C   UNL     1      -6.083  20.266 -15.783  1.00  0.00     0.000 C 
BRANCH   9  10
ATOM     10  C   UNL     1      -5.653  20.292 -17.258  1.00  0.00     0.006 C 
BRANCH  10  11
ATOM     11  C   UNL     1      -6.523  19.380 -18.134  1.00  0.00     0.053 C 
BRANCH  11  12
ATOM     12  C   UNL     1      -6.050  17.958 -18.096  1.00  0.00     0.041 C 
ATOM     13  O   UNL     1      -4.843  17.699 -17.853  1.00  0.00    -0.550 OA
ATOM     14  O   UNL     1      -6.951  16.919 -18.294  1.00  0.00    -0.550 OA
ENDBRANCH  11  12
ENDBRANCH  10  11
ENDBRANCH   9  10
ENDBRANCH   8   9
ENDBRANCH   7   8
ENDBRANCH   6   7
ENDBRANCH   5   6
ENDBRANCH   4   5
ENDBRANCH   3   4
ENDBRANCH   2   3
ENDBRANCH   1   2
BRANCH   1  15
ATOM     15  C   UNL     1      -2.954  16.547 -10.080  1.00  0.00     0.000 C 
BRANCH  15  16
ATOM     16  C   UNL     1      -3.352  15.116 -10.496  1.00  0.00     0.000 C 
BRANCH  16  17
ATOM     17  C   UNL     1      -4.869  14.827 -10.482  1.00  0.00     0.000 C 
BRANCH  17  18
ATOM     18  C   UNL     1      -5.725  15.748 -11.377  1.00  0.00    -0.000 C 
BRANCH  18  19
ATOM     19  C   UNL     1      -6.628  16.736 -10.619  1.00  0.00    -0.000 C 
BRANCH  19  20
ATOM     20  C   UNL     1      -7.630  16.032  -9.688  1.00  0.00    -0.000 C 
BRANCH  20  21
ATOM     21  C   UNL     1      -7.857  16.817  -8.384  1.00  0.00    -0.000 C 
BRANCH  21  22
ATOM     22  C   UNL     1      -9.148  16.414  -7.648  1.00  0.00    -0.000 C 
BRANCH  22  23
ATOM     23  C   UNL     1     -10.312  16.154  -8.621  1.00  0.00    -0.000 C 
BRANCH  23  24
ATOM     24  C   UNL     1     -11.691  16.239  -7.944  1.00  0.00    -0.000 C 
BRANCH  24  25
ATOM     25  C   UNL     1     -11.656  16.373  -6.411  1.00  0.00    -0.003 C 
ATOM     26  C   UNL     1     -12.806  15.641  -5.719  1.00  0.00     0.004 C 
ENDBRANCH  24  25
ENDBRANCH  23  24
ENDBRANCH  22  23
ENDBRANCH  21  22
ENDBRANCH  20  21
ENDBRANCH  19  20
ENDBRANCH  18  19
ENDBRANCH  17  18
ENDBRANCH  16  17
ENDBRANCH  15  16
ENDBRANCH   1  15
TORSDOF 22
ENDMDL
MODEL 8
REMARK VINA RESULT:    16.068      1.277      1.941
REMARK INTER + INTRA:          36.167
REMARK INTER:                  36.791
REMARK INTRA:                  -0.623
REMARK UNBOUND:                -0.566
REMARK SMILES CCCCCCCCCCCCCCCCCCCCCCCC(=O)[O-]
REMARK SMILES IDX 13 1 14 2 15 3 16 4 17 5 18 6 19 7 20 8 21 9 22 10 23 11
REMARK SMILES IDX 24 12 25 13 26 14 12 15 11 16 10 17 9 18 8 19 7 20 6 21 5 22
REMARK SMILES IDX 4 23 3 24 2 25 1 26
REMARK H PARENT
REMARK Flexibility Score: inf
ROOT
ATOM      1  C   UNL     1      -6.996  16.806 -11.786  1.00  0.00     0.000 C 
ENDROOT
BRANCH   1   2
ATOM      2  C   UNL     1      -6.025  16.257 -10.723  1.00  0.00     0.000 C 
BRANCH   2   3
ATOM      3  C   UNL     1      -5.215  15.044 -11.218  1.00  0.00     0.000 C 
BRANCH   3   4
ATOM      4  C   UNL     1      -3.922  14.765 -10.419  1.00  0.00     0.000 C 
BRANCH   4   5
ATOM      5  C   UNL     1      -3.031  16.006 -10.223  1.00  0.00     0.000 C 
BRANCH   5   6
ATOM      6  C   UNL     1      -3.671  17.338 -10.658  1.00  0.00     0.000 C 
BRANCH   6   7
ATOM      7  C   UNL     1      -2.676  18.467 -10.996  1.00  0.00     0.000 C 
BRANCH   7   8
ATOM      8  C   UNL     1      -3.115  19.878 -10.566  1.00  0.00     0.000 C 
BRANCH   8   9
ATOM      9  C   UNL     1      -4.638  20.073 -10.613  1.00  0.00     0.000 C 
BRANCH   9  10
ATOM     10  C   UNL     1      -5.008  21.281 -11.487  1.00  0.00     0.006 C 
BRANCH  10  11
ATOM     11  C   UNL     1      -6.510  21.336 -11.797  1.00  0.00     0.053 C 
BRANCH  11  12
ATOM     12  C   UNL     1      -6.802  20.922 -13.208  1.00  0.00     0.041 C 
ATOM     13  O   UNL     1      -7.096  19.726 -13.468  1.00  0.00    -0.550 OA
ATOM     14  O   UNL     1      -6.785  21.865 -14.229  1.00  0.00    -0.550 OA
ENDBRANCH  11  12
ENDBRANCH  10  11
ENDBRANCH   9  10
ENDBRANCH   8   9
ENDBRANCH   7   8
ENDBRANCH   6   7
ENDBRANCH   5   6
ENDBRANCH   4   5
ENDBRANCH   3   4
ENDBRANCH   2   3
ENDBRANCH   1   2
BRANCH   1  15
ATOM     15  C   UNL     1      -7.617  15.690 -12.648  1.00  0.00     0.000 C 
BRANCH  15  16
ATOM     16  C   UNL     1      -9.151  15.573 -12.527  1.00  0.00     0.000 C 
BRANCH  16  17
ATOM     17  C   UNL     1      -9.653  14.369 -11.701  1.00  0.00     0.000 C 
BRANCH  17  18
ATOM     18  C   UNL     1     -10.825  14.669 -10.742  1.00  0.00    -0.000 C 
BRANCH  18  19
ATOM     19  C   UNL     1     -10.488  14.551  -9.246  1.00  0.00    -0.000 C 
BRANCH  19  20
ATOM     20  C   UNL     1      -9.965  15.869  -8.649  1.00  0.00    -0.000 C 
BRANCH  20  21
ATOM     21  C   UNL     1     -11.091  16.699  -8.005  1.00  0.00    -0.000 C 
BRANCH  21  22
ATOM     22  C   UNL     1     -12.053  15.857  -7.147  1.00  0.00    -0.000 C 
BRANCH  22  23
ATOM     23  C   UNL     1     -11.853  16.106  -5.641  1.00  0.00    -0.000 C 
BRANCH  23  24
ATOM     24  C   UNL     1     -11.667  17.595  -5.298  1.00  0.00    -0.000 C 
BRANCH  24  25
ATOM     25  C   UNL     1     -12.480  18.090  -4.089  1.00  0.00    -0.003 C 
ATOM     26  C   UNL     1     -12.317  19.588  -3.830  1.00  0.00     0.004 C 
ENDBRANCH  24  25
ENDBRANCH  23  24
ENDBRANCH  22  23
ENDBRANCH  21  22
ENDBRANCH  20  21
ENDBRANCH  19  20
ENDBRANCH  18  19
ENDBRANCH  17  18
ENDBRANCH  16  17
ENDBRANCH  15  16
ENDBRANCH   1  15
TORSDOF 22
ENDMDL
MODEL 9
REMARK VINA RESULT:    16.530      2.630      5.416
REMARK INTER + INTRA:          37.224
REMARK INTER:                  37.547
REMARK INTRA:                  -0.323
REMARK UNBOUND:                -0.566
REMARK SMILES CCCCCCCCCCCCCCCCCCCCCCCC(=O)[O-]
REMARK SMILES IDX 13 1 14 2 15 3 16 4 17 5 18 6 19 7 20 8 21 9 22 10 23 11
REMARK SMILES IDX 24 12 25 13 26 14 12 15 11 16 10 17 9 18 8 19 7 20 6 21 5 22
REMARK SMILES IDX 4 23 3 24 2 25 1 26
REMARK H PARENT
REMARK Flexibility Score: inf
ROOT
ATOM      1  C   UNL     1      -3.540  16.704 -10.777  1.00  0.00     0.000 C 
ENDROOT
BRANCH   1   2
ATOM      2  C   UNL     1      -2.962  18.132 -10.826  1.00  0.00     0.000 C 
BRANCH   2   3
ATOM      3  C   UNL     1      -4.050  19.222 -10.797  1.00  0.00     0.000 C 
BRANCH   3   4
ATOM      4  C   UNL     1      -5.499  18.684 -10.766  1.00  0.00     0.000 C 
BRANCH   4   5
ATOM      5  C   UNL     1      -6.566  19.760 -11.040  1.00  0.00     0.000 C 
BRANCH   5   6
ATOM      6  C   UNL     1      -6.548  20.344 -12.465  1.00  0.00     0.000 C 
BRANCH   6   7
ATOM      7  C   UNL     1      -6.231  21.851 -12.556  1.00  0.00     0.000 C 
BRANCH   7   8
ATOM      8  C   UNL     1      -5.419  22.421 -11.379  1.00  0.00     0.000 C 
BRANCH   8   9
ATOM      9  C   UNL     1      -4.597  23.661 -11.763  1.00  0.00     0.000 C 
BRANCH   9  10
ATOM     10  C   UNL     1      -5.169  24.924 -11.100  1.00  0.00     0.006 C 
BRANCH  10  11
ATOM     11  C   UNL     1      -4.200  26.111 -11.177  1.00  0.00     0.053 C 
BRANCH  11  12
ATOM     12  C   UNL     1      -4.858  27.393 -10.761  1.00  0.00     0.041 C 
ATOM     13  O   UNL     1      -4.660  27.860  -9.609  1.00  0.00    -0.550 OA
ATOM     14  O   UNL     1      -5.659  28.088 -11.659  1.00  0.00    -0.550 OA
ENDBRANCH  11  12
ENDBRANCH  10  11
ENDBRANCH   9  10
ENDBRANCH   8   9
ENDBRANCH   7   8
ENDBRANCH   6   7
ENDBRANCH   5   6
ENDBRANCH   4   5
ENDBRANCH   3   4
ENDBRANCH   2   3
ENDBRANCH   1   2
BRANCH   1  15
ATOM     15  C   UNL     1      -2.693  15.755  -9.908  1.00  0.00     0.000 C 
BRANCH  15  16
ATOM     16  C   UNL     1      -3.042  14.261 -10.074  1.00  0.00     0.000 C 
BRANCH  16  17
ATOM     17  C   UNL     1      -4.334  13.974 -10.869  1.00  0.00     0.000 C 
BRANCH  17  18
ATOM     18  C   UNL     1      -5.294  15.172 -11.022  1.00  0.00    -0.000 C 
BRANCH  18  19
ATOM     19  C   UNL     1      -6.178  15.141 -12.282  1.00  0.00    -0.000 C 
BRANCH  19  20
ATOM     20  C   UNL     1      -7.326  16.163 -12.227  1.00  0.00    -0.000 C 
BRANCH  20  21
ATOM     21  C   UNL     1      -8.639  15.587 -12.787  1.00  0.00    -0.000 C 
BRANCH  21  22
ATOM     22  C   UNL     1      -8.898  14.132 -12.356  1.00  0.00    -0.000 C 
BRANCH  22  23
ATOM     23  C   UNL     1     -10.309  13.943 -11.771  1.00  0.00    -0.000 C 
BRANCH  23  24
ATOM     24  C   UNL     1     -10.716  15.073 -10.809  1.00  0.00    -0.000 C 
BRANCH  24  25
ATOM     25  C   UNL     1     -10.246  14.890  -9.355  1.00  0.00    -0.003 C 
ATOM     26  C   UNL     1      -9.080  15.807  -8.983  1.00  0.00     0.004 C 
ENDBRANCH  24  25
ENDBRANCH  23  24
ENDBRANCH  22  23
ENDBRANCH  21  22
ENDBRANCH  20  21
ENDBRANCH  19  20
ENDBRANCH  18  19
ENDBRANCH  17  18
ENDBRANCH  16  17
ENDBRANCH  15  16
ENDBRANCH   1  15
TORSDOF 22
ENDMDL
