MODEL 1
REMARK VINA RESULT:    -7.064      0.000      0.000
REMARK INTER + INTRA:          -8.831
REMARK INTER:                  -8.509
REMARK INTRA:                  -0.322
REMARK UNBOUND:                -0.322
REMARK SMILES O=c1c(O)c(-c2ccc(O)c(O)c2)oc2cc(O)cc(O)c12
REMARK SMILES IDX 5 1 3 2 2 3 1 4 22 5 20 6 19 7 17 8 16 9 15 10 14 11 6 12
REMARK SMILES IDX 7 13 8 14 9 15 13 16 11 17 10 18 12 20 4 22 21 24 18 26
REMARK H PARENT 10 19 12 21 4 23 21 25 18 27
REMARK Flexibility Score: inf
ROOT
ATOM      1  C   UNL     1       3.772   0.071 -23.388  1.00  0.00     0.180 A 
ATOM      2  C   UNL     1       4.687  -0.992 -23.290  1.00  0.00     0.208 A 
ATOM      3  C   UNL     1       4.200  -2.309 -23.268  1.00  0.00     0.238 A 
ATOM      4  O   UNL     1       5.027  -3.258 -23.235  1.00  0.00    -0.285 OA
ATOM      5  C   UNL     1       2.806  -2.547 -23.327  1.00  0.00     0.111 A 
ATOM      6  C   UNL     1       2.201  -3.838 -23.272  1.00  0.00     0.134 A 
ATOM      7  C   UNL     1       0.821  -3.963 -23.471  1.00  0.00     0.093 A 
ATOM      8  C   UNL     1       0.015  -2.837 -23.658  1.00  0.00     0.123 A 
ATOM      9  C   UNL     1       0.589  -1.568 -23.654  1.00  0.00     0.094 A 
ATOM     10  C   UNL     1       1.968  -1.414 -23.495  1.00  0.00     0.146 A 
ATOM     11  O   UNL     1       2.475  -0.186 -23.508  1.00  0.00    -0.452 OA
ENDROOT
BRANCH   1  12
ATOM     12  C   UNL     1       4.206   1.486 -23.391  1.00  0.00     0.025 A 
ATOM     13  C   UNL     1       4.395   2.154 -22.171  1.00  0.00     0.016 A 
ATOM     14  C   UNL     1       4.825   3.483 -22.150  1.00  0.00     0.051 A 
ATOM     15  C   UNL     1       5.085   4.160 -23.348  1.00  0.00     0.157 A 
ATOM     16  C   UNL     1       4.488   2.164 -24.591  1.00  0.00     0.062 A 
ATOM     17  C   UNL     1       4.920   3.495 -24.574  1.00  0.00     0.158 A 
BRANCH  15  18
ATOM     18  O   UNL     1       5.512   5.487 -23.324  1.00  0.00    -0.504 OA
ATOM     19  H   UNL     1       6.006   5.900 -24.106  1.00  0.00     0.293 HD
ENDBRANCH  15  18
BRANCH  17  20
ATOM     20  O   UNL     1       5.185   4.137 -25.784  1.00  0.00    -0.504 OA
ATOM     21  H   UNL     1       4.791   5.042 -26.011  1.00  0.00     0.293 HD
ENDBRANCH  17  20
ENDBRANCH   1  12
BRANCH   2  22
ATOM     22  O   UNL     1       6.060  -0.736 -23.255  1.00  0.00    -0.502 OA
ATOM     23  H   UNL     1       6.441   0.154 -22.958  1.00  0.00     0.293 HD
ENDBRANCH   2  22
BRANCH   6  24
ATOM     24  O   UNL     1       2.901  -5.017 -22.999  1.00  0.00    -0.507 OA
ATOM     25  H   UNL     1       2.827  -5.867 -23.537  1.00  0.00     0.293 HD
ENDBRANCH   6  24
BRANCH   8  26
ATOM     26  O   UNL     1      -1.359  -2.968 -23.839  1.00  0.00    -0.508 OA
ATOM     27  H   UNL     1      -1.993  -3.052 -23.052  1.00  0.00     0.293 HD
ENDBRANCH   8  26
TORSDOF 6
ENDMDL
MODEL 2
REMARK VINA RESULT:    -6.943      2.007      2.396
REMARK INTER + INTRA:          -8.686
REMARK INTER:                  -8.369
REMARK INTRA:                  -0.317
REMARK UNBOUND:                -0.322
REMARK SMILES O=c1c(O)c(-c2ccc(O)c(O)c2)oc2cc(O)cc(O)c12
REMARK SMILES IDX 5 1 3 2 2 3 1 4 22 5 20 6 19 7 17 8 16 9 15 10 14 11 6 12
REMARK SMILES IDX 7 13 8 14 9 15 13 16 11 17 10 18 12 20 4 22 21 24 18 26
REMARK H PARENT 10 19 12 21 4 23 21 25 18 27
REMARK Flexibility Score: inf
ROOT
ATOM      1  C   UNL     1       4.391   1.250 -23.918  1.00  0.00     0.180 A 
ATOM      2  C   UNL     1       4.888   0.561 -25.039  1.00  0.00     0.208 A 
ATOM      3  C   UNL     1       4.711  -0.830 -25.116  1.00  0.00     0.238 A 
ATOM      4  O   UNL     1       5.110  -1.434 -26.147  1.00  0.00    -0.285 OA
ATOM      5  C   UNL     1       4.057  -1.517 -24.065  1.00  0.00     0.111 A 
ATOM      6  C   UNL     1       3.859  -2.930 -24.019  1.00  0.00     0.134 A 
ATOM      7  C   UNL     1       3.083  -3.486 -22.996  1.00  0.00     0.093 A 
ATOM      8  C   UNL     1       2.553  -2.687 -21.979  1.00  0.00     0.123 A 
ATOM      9  C   UNL     1       2.791  -1.315 -21.983  1.00  0.00     0.094 A 
ATOM     10  C   UNL     1       3.530  -0.726 -23.011  1.00  0.00     0.146 A 
ATOM     11  O   UNL     1       3.724   0.588 -22.981  1.00  0.00    -0.452 OA
ENDROOT
BRANCH   1  12
ATOM     12  C   UNL     1       4.560   2.712 -23.754  1.00  0.00     0.025 A 
ATOM     13  C   UNL     1       5.675   3.203 -23.058  1.00  0.00     0.016 A 
ATOM     14  C   UNL     1       5.867   4.579 -22.908  1.00  0.00     0.051 A 
ATOM     15  C   UNL     1       4.953   5.484 -23.464  1.00  0.00     0.157 A 
ATOM     16  C   UNL     1       3.656   3.623 -24.328  1.00  0.00     0.062 A 
ATOM     17  C   UNL     1       3.845   5.003 -24.182  1.00  0.00     0.158 A 
BRANCH  15  18
ATOM     18  O   UNL     1       5.145   6.856 -23.312  1.00  0.00    -0.504 OA
ATOM     19  H   UNL     1       5.681   7.235 -22.539  1.00  0.00     0.293 HD
ENDBRANCH  15  18
BRANCH  17  20
ATOM     20  O   UNL     1       2.926   5.877 -24.760  1.00  0.00    -0.504 OA
ATOM     21  H   UNL     1       2.637   5.794 -25.727  1.00  0.00     0.293 HD
ENDBRANCH  17  20
ENDBRANCH   1  12
BRANCH   2  22
ATOM     22  O   UNL     1       5.511   1.261 -26.075  1.00  0.00    -0.502 OA
ATOM     23  H   UNL     1       6.158   2.022 -25.906  1.00  0.00     0.293 HD
ENDBRANCH   2  22
BRANCH   6  24
ATOM     24  O   UNL     1       4.422  -3.826 -24.933  1.00  0.00    -0.507 OA
ATOM     25  H   UNL     1       4.410  -3.708 -25.935  1.00  0.00     0.293 HD
ENDBRANCH   6  24
BRANCH   8  26
ATOM     26  O   UNL     1       1.795  -3.250 -20.955  1.00  0.00    -0.508 OA
ATOM     27  H   UNL     1       1.835  -4.242 -20.749  1.00  0.00     0.293 HD
ENDBRANCH   8  26
TORSDOF 6
ENDMDL
MODEL 3
REMARK VINA RESULT:    -6.812      1.937      7.239
REMARK INTER + INTRA:          -8.528
REMARK INTER:                  -8.223
REMARK INTRA:                  -0.305
REMARK UNBOUND:                -0.322
REMARK SMILES O=c1c(O)c(-c2ccc(O)c(O)c2)oc2cc(O)cc(O)c12
REMARK SMILES IDX 5 1 3 2 2 3 1 4 22 5 20 6 19 7 17 8 16 9 15 10 14 11 6 12
REMARK SMILES IDX 7 13 8 14 9 15 13 16 11 17 10 18 12 20 4 22 21 24 18 26
REMARK H PARENT 10 19 12 21 4 23 21 25 18 27
REMARK Flexibility Score: inf
ROOT
ATOM      1  C   UNL     1       3.749   0.929 -24.270  1.00  0.00     0.180 A 
ATOM      2  C   UNL     1       3.159   1.416 -25.450  1.00  0.00     0.208 A 
ATOM      3  C   UNL     1       3.242   2.788 -25.737  1.00  0.00     0.238 A 
ATOM      4  O   UNL     1       2.760   3.209 -26.821  1.00  0.00    -0.285 OA
ATOM      5  C   UNL     1       3.897   3.659 -24.833  1.00  0.00     0.111 A 
ATOM      6  C   UNL     1       4.006   5.072 -25.003  1.00  0.00     0.134 A 
ATOM      7  C   UNL     1       4.789   5.817 -24.114  1.00  0.00     0.093 A 
ATOM      8  C   UNL     1       5.414   5.209 -23.022  1.00  0.00     0.123 A 
ATOM      9  C   UNL     1       5.265   3.839 -22.814  1.00  0.00     0.094 A 
ATOM     10  C   UNL     1       4.520   3.064 -23.705  1.00  0.00     0.146 A 
ATOM     11  O   UNL     1       4.413   1.760 -23.475  1.00  0.00    -0.452 OA
ENDROOT
BRANCH   1  12
ATOM     12  C   UNL     1       3.681  -0.499 -23.886  1.00  0.00     0.025 A 
ATOM     13  C   UNL     1       2.522  -0.994 -23.270  1.00  0.00     0.016 A 
ATOM     14  C   UNL     1       2.427  -2.343 -22.918  1.00  0.00     0.051 A 
ATOM     15  C   UNL     1       3.486  -3.219 -23.190  1.00  0.00     0.157 A 
ATOM     16  C   UNL     1       4.733  -1.386 -24.176  1.00  0.00     0.062 A 
ATOM     17  C   UNL     1       4.643  -2.738 -23.827  1.00  0.00     0.158 A 
BRANCH  15  18
ATOM     18  O   UNL     1       3.391  -4.565 -22.837  1.00  0.00    -0.504 OA
ATOM     19  H   UNL     1       3.686  -4.896 -21.926  1.00  0.00     0.293 HD
ENDBRANCH  15  18
BRANCH  17  20
ATOM     20  O   UNL     1       5.708  -3.588 -24.124  1.00  0.00    -0.504 OA
ATOM     21  H   UNL     1       5.675  -4.581 -23.928  1.00  0.00     0.293 HD
ENDBRANCH  17  20
ENDBRANCH   1  12
BRANCH   2  22
ATOM     22  O   UNL     1       2.537   0.536 -26.339  1.00  0.00    -0.502 OA
ATOM     23  H   UNL     1       2.001  -0.265 -26.026  1.00  0.00     0.293 HD
ENDBRANCH   2  22
BRANCH   6  24
ATOM     24  O   UNL     1       3.346   5.790 -26.006  1.00  0.00    -0.507 OA
ATOM     25  H   UNL     1       2.747   5.380 -26.707  1.00  0.00     0.293 HD
ENDBRANCH   6  24
BRANCH   8  26
ATOM     26  O   UNL     1       6.179   5.959 -22.132  1.00  0.00    -0.508 OA
ATOM     27  H   UNL     1       7.005   6.462 -22.436  1.00  0.00     0.293 HD
ENDBRANCH   8  26
TORSDOF 6
ENDMDL
MODEL 4
REMARK VINA RESULT:    -6.804      1.847      7.026
REMARK INTER + INTRA:          -8.519
REMARK INTER:                  -8.318
REMARK INTRA:                  -0.200
REMARK UNBOUND:                -0.322
REMARK SMILES O=c1c(O)c(-c2ccc(O)c(O)c2)oc2cc(O)cc(O)c12
REMARK SMILES IDX 5 1 3 2 2 3 1 4 22 5 20 6 19 7 17 8 16 9 15 10 14 11 6 12
REMARK SMILES IDX 7 13 8 14 9 15 13 16 11 17 10 18 12 20 4 22 21 24 18 26
REMARK H PARENT 10 19 12 21 4 23 21 25 18 27
REMARK Flexibility Score: inf
ROOT
ATOM      1  C   UNL     1       4.114   1.012 -23.486  1.00  0.00     0.180 A 
ATOM      2  C   UNL     1       4.283   1.861 -22.378  1.00  0.00     0.208 A 
ATOM      3  C   UNL     1       4.495   3.232 -22.598  1.00  0.00     0.238 A 
ATOM      4  O   UNL     1       4.591   3.996 -21.601  1.00  0.00    -0.285 OA
ATOM      5  C   UNL     1       4.551   3.734 -23.921  1.00  0.00     0.111 A 
ATOM      6  C   UNL     1       4.800   5.097 -24.261  1.00  0.00     0.134 A 
ATOM      7  C   UNL     1       4.703   5.505 -25.596  1.00  0.00     0.093 A 
ATOM      8  C   UNL     1       4.430   4.586 -26.612  1.00  0.00     0.123 A 
ATOM      9  C   UNL     1       4.245   3.242 -26.296  1.00  0.00     0.094 A 
ATOM     10  C   UNL     1       4.300   2.811 -24.969  1.00  0.00     0.146 A 
ATOM     11  O   UNL     1       4.106   1.522 -24.712  1.00  0.00    -0.452 OA
ENDROOT
BRANCH   1  12
ATOM     12  C   UNL     1       3.912  -0.447 -23.337  1.00  0.00     0.025 A 
ATOM     13  C   UNL     1       2.699  -0.928 -22.821  1.00  0.00     0.016 A 
ATOM     14  C   UNL     1       2.479  -2.301 -22.690  1.00  0.00     0.051 A 
ATOM     15  C   UNL     1       3.464  -3.215 -23.086  1.00  0.00     0.157 A 
ATOM     16  C   UNL     1       4.891  -1.368 -23.752  1.00  0.00     0.062 A 
ATOM     17  C   UNL     1       4.674  -2.745 -23.625  1.00  0.00     0.158 A 
BRANCH  15  18
ATOM     18  O   UNL     1       3.243  -4.585 -22.953  1.00  0.00    -0.504 OA
ATOM     19  H   UNL     1       4.005  -5.252 -22.988  1.00  0.00     0.293 HD
ENDBRANCH  15  18
BRANCH  17  20
ATOM     20  O   UNL     1       5.668  -3.630 -24.042  1.00  0.00    -0.504 OA
ATOM     21  H   UNL     1       6.217  -4.172 -23.386  1.00  0.00     0.293 HD
ENDBRANCH  17  20
ENDBRANCH   1  12
BRANCH   2  22
ATOM     22  O   UNL     1       4.202   1.349 -21.081  1.00  0.00    -0.502 OA
ATOM     23  H   UNL     1       3.514   0.656 -20.812  1.00  0.00     0.293 HD
ENDBRANCH   2  22
BRANCH   6  24
ATOM     24  O   UNL     1       5.170   6.077 -23.334  1.00  0.00    -0.507 OA
ATOM     25  H   UNL     1       5.373   7.039 -23.565  1.00  0.00     0.293 HD
ENDBRANCH   6  24
BRANCH   8  26
ATOM     26  O   UNL     1       4.352   4.996 -27.940  1.00  0.00    -0.508 OA
ATOM     27  H   UNL     1       3.465   5.044 -28.429  1.00  0.00     0.293 HD
ENDBRANCH   8  26
TORSDOF 6
ENDMDL
MODEL 5
REMARK VINA RESULT:    -6.774      1.477      7.051
REMARK INTER + INTRA:          -8.482
REMARK INTER:                  -8.161
REMARK INTRA:                  -0.321
REMARK UNBOUND:                -0.322
REMARK SMILES O=c1c(O)c(-c2ccc(O)c(O)c2)oc2cc(O)cc(O)c12
REMARK SMILES IDX 5 1 3 2 2 3 1 4 22 5 20 6 19 7 17 8 16 9 15 10 14 11 6 12
REMARK SMILES IDX 7 13 8 14 9 15 13 16 11 17 10 18 12 20 4 22 21 24 18 26
REMARK H PARENT 10 19 12 21 4 23 21 25 18 27
REMARK Flexibility Score: inf
ROOT
ATOM      1  C   UNL     1       3.105  -0.329 -24.396  1.00  0.00     0.180 A 
ATOM      2  C   UNL     1       3.438  -0.061 -25.736  1.00  0.00     0.208 A 
ATOM      3  C   UNL     1       4.070   1.154 -26.050  1.00  0.00     0.238 A 
ATOM      4  O   UNL     1       4.415   1.364 -27.243  1.00  0.00    -0.285 OA
ATOM      5  C   UNL     1       4.347   2.090 -25.025  1.00  0.00     0.111 A 
ATOM      6  C   UNL     1       4.947   3.368 -25.235  1.00  0.00     0.134 A 
ATOM      7  C   UNL     1       5.294   4.158 -24.133  1.00  0.00     0.093 A 
ATOM      8  C   UNL     1       5.001   3.745 -22.830  1.00  0.00     0.123 A 
ATOM      9  C   UNL     1       4.361   2.526 -22.619  1.00  0.00     0.094 A 
ATOM     10  C   UNL     1       4.037   1.700 -23.696  1.00  0.00     0.146 A 
ATOM     11  O   UNL     1       3.437   0.540 -23.449  1.00  0.00    -0.452 OA
ENDROOT
BRANCH   1  12
ATOM     12  C   UNL     1       2.415  -1.574 -23.990  1.00  0.00     0.025 A 
ATOM     13  C   UNL     1       1.014  -1.639 -24.054  1.00  0.00     0.016 A 
ATOM     14  C   UNL     1       0.343  -2.811 -23.695  1.00  0.00     0.051 A 
ATOM     15  C   UNL     1       1.063  -3.939 -23.282  1.00  0.00     0.157 A 
ATOM     16  C   UNL     1       3.135  -2.715 -23.594  1.00  0.00     0.062 A 
ATOM     17  C   UNL     1       2.466  -3.892 -23.236  1.00  0.00     0.158 A 
BRANCH  15  18
ATOM     18  O   UNL     1       0.390  -5.106 -22.923  1.00  0.00    -0.504 OA
ATOM     19  H   UNL     1      -0.014  -5.721 -23.620  1.00  0.00     0.293 HD
ENDBRANCH  15  18
BRANCH  17  20
ATOM     20  O   UNL     1       3.212  -5.002 -22.842  1.00  0.00    -0.504 OA
ATOM     21  H   UNL     1       3.113  -5.905 -23.292  1.00  0.00     0.293 HD
ENDBRANCH  17  20
ENDBRANCH   1  12
BRANCH   2  22
ATOM     22  O   UNL     1       3.176  -1.008 -26.728  1.00  0.00    -0.502 OA
ATOM     23  H   UNL     1       2.988  -1.981 -26.516  1.00  0.00     0.293 HD
ENDBRANCH   2  22
BRANCH   6  24
ATOM     24  O   UNL     1       5.197   3.914 -26.498  1.00  0.00    -0.507 OA
ATOM     25  H   UNL     1       5.974   3.662 -27.090  1.00  0.00     0.293 HD
ENDBRANCH   6  24
BRANCH   8  26
ATOM     26  O   UNL     1       5.334   4.544 -21.740  1.00  0.00    -0.508 OA
ATOM     27  H   UNL     1       5.090   4.278 -20.792  1.00  0.00     0.293 HD
ENDBRANCH   8  26
TORSDOF 6
ENDMDL
MODEL 6
REMARK VINA RESULT:    -6.719      1.661      7.062
REMARK INTER + INTRA:          -8.416
REMARK INTER:                  -8.118
REMARK INTRA:                  -0.298
REMARK UNBOUND:                -0.322
REMARK SMILES O=c1c(O)c(-c2ccc(O)c(O)c2)oc2cc(O)cc(O)c12
REMARK SMILES IDX 5 1 3 2 2 3 1 4 22 5 20 6 19 7 17 8 16 9 15 10 14 11 6 12
REMARK SMILES IDX 7 13 8 14 9 15 13 16 11 17 10 18 12 20 4 22 21 24 18 26
REMARK H PARENT 10 19 12 21 4 23 21 25 18 27
REMARK Flexibility Score: inf
ROOT
ATOM      1  C   UNL     1       4.086   0.857 -23.662  1.00  0.00     0.180 A 
ATOM      2  C   UNL     1       4.297   1.700 -22.556  1.00  0.00     0.208 A 
ATOM      3  C   UNL     1       4.545   3.064 -22.779  1.00  0.00     0.238 A 
ATOM      4  O   UNL     1       4.680   3.824 -21.784  1.00  0.00    -0.285 OA
ATOM      5  C   UNL     1       4.595   3.565 -24.102  1.00  0.00     0.111 A 
ATOM      6  C   UNL     1       4.878   4.921 -24.446  1.00  0.00     0.134 A 
ATOM      7  C   UNL     1       4.772   5.333 -25.779  1.00  0.00     0.093 A 
ATOM      8  C   UNL     1       4.457   4.422 -26.791  1.00  0.00     0.123 A 
ATOM      9  C   UNL     1       4.238   3.084 -26.473  1.00  0.00     0.094 A 
ATOM     10  C   UNL     1       4.301   2.651 -25.147  1.00  0.00     0.146 A 
ATOM     11  O   UNL     1       4.074   1.368 -24.887  1.00  0.00    -0.452 OA
ENDROOT
BRANCH   1  12
ATOM     12  C   UNL     1       3.845  -0.596 -23.509  1.00  0.00     0.025 A 
ATOM     13  C   UNL     1       4.916  -1.492 -23.642  1.00  0.00     0.016 A 
ATOM     14  C   UNL     1       4.716  -2.865 -23.482  1.00  0.00     0.051 A 
ATOM     15  C   UNL     1       3.443  -3.362 -23.172  1.00  0.00     0.157 A 
ATOM     16  C   UNL     1       2.573  -1.096 -23.178  1.00  0.00     0.062 A 
ATOM     17  C   UNL     1       2.368  -2.472 -23.014  1.00  0.00     0.158 A 
BRANCH  15  18
ATOM     18  O   UNL     1       3.245  -4.733 -23.014  1.00  0.00    -0.504 OA
ATOM     19  H   UNL     1       3.713  -5.256 -22.283  1.00  0.00     0.293 HD
ENDBRANCH  15  18
BRANCH  17  20
ATOM     20  O   UNL     1       1.092  -2.933 -22.691  1.00  0.00    -0.504 OA
ATOM     21  H   UNL     1       0.945  -3.794 -22.178  1.00  0.00     0.293 HD
ENDBRANCH  17  20
ENDBRANCH   1  12
BRANCH   2  22
ATOM     22  O   UNL     1       4.222   1.190 -21.258  1.00  0.00    -0.502 OA
ATOM     23  H   UNL     1       4.871   1.459 -20.529  1.00  0.00     0.293 HD
ENDBRANCH   2  22
BRANCH   6  24
ATOM     24  O   UNL     1       5.291   5.889 -23.525  1.00  0.00    -0.507 OA
ATOM     25  H   UNL     1       4.948   5.966 -22.579  1.00  0.00     0.293 HD
ENDBRANCH   6  24
BRANCH   8  26
ATOM     26  O   UNL     1       4.369   4.836 -28.118  1.00  0.00    -0.508 OA
ATOM     27  H   UNL     1       4.727   5.736 -28.417  1.00  0.00     0.293 HD
ENDBRANCH   8  26
TORSDOF 6
ENDMDL
MODEL 7
REMARK VINA RESULT:    -6.512      2.240      3.460
REMARK INTER + INTRA:          -8.167
REMARK INTER:                  -8.007
REMARK INTRA:                  -0.159
REMARK UNBOUND:                -0.322
REMARK SMILES O=c1c(O)c(-c2ccc(O)c(O)c2)oc2cc(O)cc(O)c12
REMARK SMILES IDX 5 1 3 2 2 3 1 4 22 5 20 6 19 7 17 8 16 9 15 10 14 11 6 12
REMARK SMILES IDX 7 13 8 14 9 15 13 16 11 17 10 18 12 20 4 22 21 24 18 26
REMARK H PARENT 10 19 12 21 4 23 21 25 18 27
REMARK Flexibility Score: inf
ROOT
ATOM      1  C   UNL     1       4.560   1.866 -23.344  1.00  0.00     0.180 A 
ATOM      2  C   UNL     1       4.004   1.060 -22.334  1.00  0.00     0.208 A 
ATOM      3  C   UNL     1       3.629  -0.258 -22.644  1.00  0.00     0.238 A 
ATOM      4  O   UNL     1       3.182  -0.991 -21.723  1.00  0.00    -0.285 OA
ATOM      5  C   UNL     1       3.800  -0.748 -23.961  1.00  0.00     0.111 A 
ATOM      6  C   UNL     1       3.418  -2.053 -24.397  1.00  0.00     0.134 A 
ATOM      7  C   UNL     1       3.754  -2.475 -25.688  1.00  0.00     0.093 A 
ATOM      8  C   UNL     1       4.399  -1.617 -26.582  1.00  0.00     0.123 A 
ATOM      9  C   UNL     1       4.722  -0.322 -26.186  1.00  0.00     0.094 A 
ATOM     10  C   UNL     1       4.433   0.117 -24.892  1.00  0.00     0.146 A 
ATOM     11  O   UNL     1       4.768   1.356 -24.552  1.00  0.00    -0.452 OA
ENDROOT
BRANCH   1  12
ATOM     12  C   UNL     1       4.955   3.271 -23.101  1.00  0.00     0.025 A 
ATOM     13  C   UNL     1       6.287   3.660 -23.311  1.00  0.00     0.016 A 
ATOM     14  C   UNL     1       6.678   4.986 -23.108  1.00  0.00     0.051 A 
ATOM     15  C   UNL     1       5.740   5.946 -22.706  1.00  0.00     0.157 A 
ATOM     16  C   UNL     1       4.012   4.242 -22.717  1.00  0.00     0.062 A 
ATOM     17  C   UNL     1       4.399   5.572 -22.514  1.00  0.00     0.158 A 
BRANCH  15  18
ATOM     18  O   UNL     1       6.133   7.268 -22.503  1.00  0.00    -0.504 OA
ATOM     19  H   UNL     1       6.840   7.512 -21.819  1.00  0.00     0.293 HD
ENDBRANCH  15  18
BRANCH  17  20
ATOM     20  O   UNL     1       3.439   6.506 -22.128  1.00  0.00    -0.504 OA
ATOM     21  H   UNL     1       3.620   7.502 -22.143  1.00  0.00     0.293 HD
ENDBRANCH  17  20
ENDBRANCH   1  12
BRANCH   2  22
ATOM     22  O   UNL     1       3.865   1.556 -21.036  1.00  0.00    -0.502 OA
ATOM     23  H   UNL     1       4.653   1.672 -20.410  1.00  0.00     0.293 HD
ENDBRANCH   2  22
BRANCH   6  24
ATOM     24  O   UNL     1       2.690  -2.954 -23.614  1.00  0.00    -0.507 OA
ATOM     25  H   UNL     1       2.970  -3.904 -23.421  1.00  0.00     0.293 HD
ENDBRANCH   6  24
BRANCH   8  26
ATOM     26  O   UNL     1       4.715  -2.040 -27.871  1.00  0.00    -0.508 OA
ATOM     27  H   UNL     1       4.181  -1.733 -28.676  1.00  0.00     0.293 HD
ENDBRANCH   8  26
TORSDOF 6
ENDMDL
MODEL 8
REMARK VINA RESULT:    -6.245      2.099      2.757
REMARK INTER + INTRA:          -7.846
REMARK INTER:                  -7.648
REMARK INTRA:                  -0.198
REMARK UNBOUND:                -0.322
REMARK SMILES O=c1c(O)c(-c2ccc(O)c(O)c2)oc2cc(O)cc(O)c12
REMARK SMILES IDX 5 1 3 2 2 3 1 4 22 5 20 6 19 7 17 8 16 9 15 10 14 11 6 12
REMARK SMILES IDX 7 13 8 14 9 15 13 16 11 17 10 18 12 20 4 22 21 24 18 26
REMARK H PARENT 10 19 12 21 4 23 21 25 18 27
REMARK Flexibility Score: inf
ROOT
ATOM      1  C   UNL     1       2.837   0.058 -25.331  1.00  0.00     0.180 A 
ATOM      2  C   UNL     1       4.055  -0.615 -25.127  1.00  0.00     0.208 A 
ATOM      3  C   UNL     1       4.041  -1.870 -24.495  1.00  0.00     0.238 A 
ATOM      4  O   UNL     1       5.128  -2.491 -24.364  1.00  0.00    -0.285 OA
ATOM      5  C   UNL     1       2.815  -2.428 -24.062  1.00  0.00     0.111 A 
ATOM      6  C   UNL     1       2.688  -3.673 -23.376  1.00  0.00     0.134 A 
ATOM      7  C   UNL     1       1.414  -4.189 -23.111  1.00  0.00     0.093 A 
ATOM      8  C   UNL     1       0.263  -3.474 -23.449  1.00  0.00     0.123 A 
ATOM      9  C   UNL     1       0.377  -2.230 -24.065  1.00  0.00     0.094 A 
ATOM     10  C   UNL     1       1.633  -1.706 -24.375  1.00  0.00     0.146 A 
ATOM     11  O   UNL     1       1.697  -0.521 -24.973  1.00  0.00    -0.452 OA
ENDROOT
BRANCH   1  12
ATOM     12  C   UNL     1       2.772   1.394 -25.966  1.00  0.00     0.025 A 
ATOM     13  C   UNL     1       2.084   1.549 -27.179  1.00  0.00     0.016 A 
ATOM     14  C   UNL     1       1.992   2.804 -27.786  1.00  0.00     0.051 A 
ATOM     15  C   UNL     1       2.576   3.925 -27.181  1.00  0.00     0.157 A 
ATOM     16  C   UNL     1       3.339   2.525 -25.352  1.00  0.00     0.062 A 
ATOM     17  C   UNL     1       3.248   3.785 -25.955  1.00  0.00     0.158 A 
BRANCH  15  18
ATOM     18  O   UNL     1       2.484   5.177 -27.789  1.00  0.00    -0.504 OA
ATOM     19  H   UNL     1       1.675   5.772 -27.658  1.00  0.00     0.293 HD
ENDBRANCH  15  18
BRANCH  17  20
ATOM     20  O   UNL     1       3.826   4.883 -25.320  1.00  0.00    -0.504 OA
ATOM     21  H   UNL     1       3.823   5.808 -25.734  1.00  0.00     0.293 HD
ENDBRANCH  17  20
ENDBRANCH   1  12
BRANCH   2  22
ATOM     22  O   UNL     1       5.251  -0.057 -25.582  1.00  0.00    -0.502 OA
ATOM     23  H   UNL     1       6.124  -0.154 -25.078  1.00  0.00     0.293 HD
ENDBRANCH   2  22
BRANCH   6  24
ATOM     24  O   UNL     1       3.774  -4.422 -22.912  1.00  0.00    -0.507 OA
ATOM     25  H   UNL     1       3.737  -5.070 -22.139  1.00  0.00     0.293 HD
ENDBRANCH   6  24
BRANCH   8  26
ATOM     26  O   UNL     1      -1.001  -3.987 -23.167  1.00  0.00    -0.508 OA
ATOM     27  H   UNL     1      -1.618  -3.541 -22.498  1.00  0.00     0.293 HD
ENDBRANCH   8  26
TORSDOF 6
ENDMDL
MODEL 9
REMARK VINA RESULT:    -6.117      1.994      3.526
REMARK INTER + INTRA:          -7.691
REMARK INTER:                  -7.392
REMARK INTRA:                  -0.300
REMARK UNBOUND:                -0.322
REMARK SMILES O=c1c(O)c(-c2ccc(O)c(O)c2)oc2cc(O)cc(O)c12
REMARK SMILES IDX 5 1 3 2 2 3 1 4 22 5 20 6 19 7 17 8 16 9 15 10 14 11 6 12
REMARK SMILES IDX 7 13 8 14 9 15 13 16 11 17 10 18 12 20 4 22 21 24 18 26
REMARK H PARENT 10 19 12 21 4 23 21 25 18 27
REMARK Flexibility Score: inf
ROOT
ATOM      1  C   UNL     1       3.981   2.314 -24.112  1.00  0.00     0.180 A 
ATOM      2  C   UNL     1       3.454   2.201 -25.411  1.00  0.00     0.208 A 
ATOM      3  C   UNL     1       2.919   0.969 -25.823  1.00  0.00     0.238 A 
ATOM      4  O   UNL     1       2.399   0.889 -26.968  1.00  0.00    -0.285 OA
ATOM      5  C   UNL     1       2.932  -0.136 -24.940  1.00  0.00     0.111 A 
ATOM      6  C   UNL     1       2.453  -1.441 -25.266  1.00  0.00     0.134 A 
ATOM      7  C   UNL     1       2.395  -2.424 -24.272  1.00  0.00     0.093 A 
ATOM      8  C   UNL     1       2.860  -2.169 -22.978  1.00  0.00     0.123 A 
ATOM      9  C   UNL     1       3.384  -0.917 -22.667  1.00  0.00     0.094 A 
ATOM     10  C   UNL     1       3.422   0.095 -23.628  1.00  0.00     0.146 A 
ATOM     11  O   UNL     1       3.920   1.278 -23.285  1.00  0.00    -0.452 OA
ENDROOT
BRANCH   1  12
ATOM     12  C   UNL     1       4.586   3.571 -23.615  1.00  0.00     0.025 A 
ATOM     13  C   UNL     1       5.977   3.741 -23.681  1.00  0.00     0.016 A 
ATOM     14  C   UNL     1       6.567   4.927 -23.236  1.00  0.00     0.051 A 
ATOM     15  C   UNL     1       5.773   5.965 -22.732  1.00  0.00     0.157 A 
ATOM     16  C   UNL     1       3.791   4.623 -23.127  1.00  0.00     0.062 A 
ATOM     17  C   UNL     1       4.378   5.813 -22.682  1.00  0.00     0.158 A 
BRANCH  15  18
ATOM     18  O   UNL     1       6.365   7.147 -22.287  1.00  0.00    -0.504 OA
ATOM     19  H   UNL     1       6.001   7.655 -21.490  1.00  0.00     0.293 HD
ENDBRANCH  15  18
BRANCH  17  20
ATOM     20  O   UNL     1       3.559   6.834 -22.199  1.00  0.00    -0.504 OA
ATOM     21  H   UNL     1       2.815   6.658 -21.534  1.00  0.00     0.293 HD
ENDBRANCH  17  20
ENDBRANCH   1  12
BRANCH   2  22
ATOM     22  O   UNL     1       3.431   3.311 -26.260  1.00  0.00    -0.502 OA
ATOM     23  H   UNL     1       2.578   3.651 -26.687  1.00  0.00     0.293 HD
ENDBRANCH   2  22
BRANCH   6  24
ATOM     24  O   UNL     1       2.052  -1.826 -26.549  1.00  0.00    -0.507 OA
ATOM     25  H   UNL     1       1.978  -2.782 -26.864  1.00  0.00     0.293 HD
ENDBRANCH   6  24
BRANCH   8  26
ATOM     26  O   UNL     1       2.813  -3.158 -21.999  1.00  0.00    -0.508 OA
ATOM     27  H   UNL     1       2.247  -3.991 -22.112  1.00  0.00     0.293 HD
ENDBRANCH   8  26
TORSDOF 6
ENDMDL
