MODEL 1
REMARK VINA RESULT:    -3.484      0.000      0.000
REMARK INTER + INTRA:          -3.585
REMARK INTER:                  -3.585
REMARK INTRA:                   0.000
REMARK UNBOUND:                 0.000
REMARK SMILES CC1(C)[C@H]2CC[C@](C)(C2)[C@H]1O
REMARK SMILES IDX 1 1 2 2 4 3 5 4 6 5 7 6 9 7 10 8 8 9 3 10 11 11
REMARK H PARENT 11 12
REMARK Flexibility Score: inf
ROOT
ATOM      1  C   UNL     1     165.039 171.998 171.079  1.00  0.00     0.014 C 
ATOM      2  C   UNL     1     163.595 172.451 170.756  1.00  0.00    -0.006 C 
ATOM      3  C   UNL     1     162.865 171.356 169.904  1.00  0.00    -0.002 C 
ATOM      4  C   UNL     1     161.354 171.652 169.793  1.00  0.00     0.005 C 
ATOM      5  C   UNL     1     161.318 172.919 168.924  1.00  0.00     0.010 C 
ATOM      6  C   UNL     1     162.808 173.121 168.553  1.00  0.00    -0.006 C 
ATOM      7  C   UNL     1     163.300 171.692 168.487  1.00  0.00     0.013 C 
ATOM      8  C   UNL     1     163.600 173.667 169.769  1.00  0.00     0.126 C 
ATOM      9  C   UNL     1     163.023 173.915 167.261  1.00  0.00     0.014 C 
ATOM     10  C   UNL     1     162.891 172.749 172.106  1.00  0.00     0.014 C 
ENDROOT
BRANCH   8  11
ATOM     11  O   UNL     1     162.996 174.824 170.293  1.00  0.00    -0.392 OA
ATOM     12  H   UNL     1     162.110 174.545 170.641  1.00  0.00     0.211 HD
ENDBRANCH   8  11
TORSDOF 1
ENDMDL
MODEL 2
REMARK VINA RESULT:    -3.481     14.405     15.506
REMARK INTER + INTRA:          -3.583
REMARK INTER:                  -3.583
REMARK INTRA:                   0.000
REMARK UNBOUND:                 0.000
REMARK SMILES CC1(C)[C@H]2CC[C@](C)(C2)[C@H]1O
REMARK SMILES IDX 1 1 2 2 4 3 5 4 6 5 7 6 9 7 10 8 8 9 3 10 11 11
REMARK H PARENT 11 12
REMARK Flexibility Score: inf
ROOT
ATOM      1  C   UNL     1     166.212 159.241 171.140  1.00  0.00     0.014 C 
ATOM      2  C   UNL     1     167.643 158.761 170.798  1.00  0.00    -0.006 C 
ATOM      3  C   UNL     1     168.387 159.848 169.947  1.00  0.00    -0.002 C 
ATOM      4  C   UNL     1     169.890 159.522 169.818  1.00  0.00     0.005 C 
ATOM      5  C   UNL     1     169.891 158.263 168.939  1.00  0.00     0.010 C 
ATOM      6  C   UNL     1     168.394 158.094 168.582  1.00  0.00    -0.006 C 
ATOM      7  C   UNL     1     167.931 159.533 168.533  1.00  0.00     0.013 C 
ATOM      8  C   UNL     1     167.603 157.554 169.802  1.00  0.00     0.126 C 
ATOM      9  C   UNL     1     168.150 157.315 167.286  1.00  0.00     0.014 C 
ATOM     10  C   UNL     1     168.355 158.438 172.138  1.00  0.00     0.014 C 
ENDROOT
BRANCH   8  11
ATOM     11  O   UNL     1     168.188 156.380 170.310  1.00  0.00    -0.392 OA
ATOM     12  H   UNL     1     168.664 156.642 171.141  1.00  0.00     0.211 HD
ENDBRANCH   8  11
TORSDOF 1
ENDMDL
MODEL 3
REMARK VINA RESULT:    -3.343     15.960     17.394
REMARK INTER + INTRA:          -3.441
REMARK INTER:                  -3.441
REMARK INTRA:                   0.000
REMARK UNBOUND:                 0.000
REMARK SMILES CC1(C)[C@H]2CC[C@](C)(C2)[C@H]1O
REMARK SMILES IDX 1 1 2 2 4 3 5 4 6 5 7 6 9 7 10 8 8 9 3 10 11 11
REMARK H PARENT 11 12
REMARK Flexibility Score: inf
ROOT
ATOM      1  C   UNL     1     170.734 156.755 167.738  1.00  0.00     0.014 C 
ATOM      2  C   UNL     1     171.928 157.446 168.439  1.00  0.00    -0.006 C 
ATOM      3  C   UNL     1     172.064 156.926 169.912  1.00  0.00    -0.002 C 
ATOM      4  C   UNL     1     173.392 157.389 170.547  1.00  0.00     0.005 C 
ATOM      5  C   UNL     1     173.195 158.906 170.681  1.00  0.00     0.010 C 
ATOM      6  C   UNL     1     171.733 159.103 170.210  1.00  0.00    -0.006 C 
ATOM      7  C   UNL     1     171.091 157.813 170.670  1.00  0.00     0.013 C 
ATOM      8  C   UNL     1     171.636 158.967 168.669  1.00  0.00     0.126 C 
ATOM      9  C   UNL     1     171.067 160.365 170.768  1.00  0.00     0.014 C 
ATOM     10  C   UNL     1     173.189 157.179 167.576  1.00  0.00     0.014 C 
ENDROOT
BRANCH   8  11
ATOM     11  O   UNL     1     172.547 159.823 168.023  1.00  0.00    -0.392 OA
ATOM     12  H   UNL     1     173.421 159.694 168.475  1.00  0.00     0.211 HD
ENDBRANCH   8  11
TORSDOF 1
ENDMDL
MODEL 4
REMARK VINA RESULT:    -3.334      3.643      5.125
REMARK INTER + INTRA:          -3.431
REMARK INTER:                  -3.431
REMARK INTRA:                   0.000
REMARK UNBOUND:                 0.000
REMARK SMILES CC1(C)[C@H]2CC[C@](C)(C2)[C@H]1O
REMARK SMILES IDX 1 1 2 2 4 3 5 4 6 5 7 6 9 7 10 8 8 9 3 10 11 11
REMARK H PARENT 11 12
REMARK Flexibility Score: inf
ROOT
ATOM      1  C   UNL     1     160.386 174.464 167.648  1.00  0.00     0.014 C 
ATOM      2  C   UNL     1     159.201 173.781 168.371  1.00  0.00    -0.006 C 
ATOM      3  C   UNL     1     159.083 174.319 169.840  1.00  0.00    -0.002 C 
ATOM      4  C   UNL     1     157.762 173.863 170.496  1.00  0.00     0.005 C 
ATOM      5  C   UNL     1     157.962 172.347 170.645  1.00  0.00     0.010 C 
ATOM      6  C   UNL     1     159.418 172.145 170.160  1.00  0.00    -0.006 C 
ATOM      7  C   UNL     1     160.065 173.441 170.596  1.00  0.00     0.013 C 
ATOM      8  C   UNL     1     159.497 172.263 168.616  1.00  0.00     0.126 C 
ATOM      9  C   UNL     1     160.092 170.891 170.724  1.00  0.00     0.014 C 
ATOM     10  C   UNL     1     157.930 174.037 167.520  1.00  0.00     0.014 C 
ENDROOT
BRANCH   8  11
ATOM     11  O   UNL     1     158.578 171.399 167.991  1.00  0.00    -0.392 OA
ATOM     12  H   UNL     1     159.117 170.726 167.500  1.00  0.00     0.211 HD
ENDBRANCH   8  11
TORSDOF 1
ENDMDL
MODEL 5
REMARK VINA RESULT:    -3.236      3.269      4.669
REMARK INTER + INTRA:          -3.330
REMARK INTER:                  -3.330
REMARK INTRA:                   0.000
REMARK UNBOUND:                 0.000
REMARK SMILES CC1(C)[C@H]2CC[C@](C)(C2)[C@H]1O
REMARK SMILES IDX 1 1 2 2 4 3 5 4 6 5 7 6 9 7 10 8 8 9 3 10 11 11
REMARK H PARENT 11 12
REMARK Flexibility Score: inf
ROOT
ATOM      1  C   UNL     1     157.841 172.002 171.215  1.00  0.00     0.014 C 
ATOM      2  C   UNL     1     159.013 172.219 170.228  1.00  0.00    -0.006 C 
ATOM      3  C   UNL     1     159.674 173.620 170.476  1.00  0.00    -0.002 C 
ATOM      4  C   UNL     1     161.000 173.755 169.698  1.00  0.00     0.005 C 
ATOM      5  C   UNL     1     160.535 173.791 168.235  1.00  0.00     0.010 C 
ATOM      6  C   UNL     1     158.992 173.786 168.367  1.00  0.00    -0.006 C 
ATOM      7  C   UNL     1     158.797 174.552 169.657  1.00  0.00     0.013 C 
ATOM      8  C   UNL     1     158.486 172.375 168.762  1.00  0.00     0.126 C 
ATOM      9  C   UNL     1     158.265 174.395 167.164  1.00  0.00     0.014 C 
ATOM     10  C   UNL     1     159.998 171.035 170.412  1.00  0.00     0.014 C 
ENDROOT
BRANCH   8  11
ATOM     11  O   UNL     1     158.970 171.393 167.879  1.00  0.00    -0.392 OA
ATOM     12  H   UNL     1     158.244 170.724 167.779  1.00  0.00     0.211 HD
ENDBRANCH   8  11
TORSDOF 1
ENDMDL
MODEL 6
REMARK VINA RESULT:    -3.209     14.671     15.740
REMARK INTER + INTRA:          -3.303
REMARK INTER:                  -3.303
REMARK INTRA:                   0.000
REMARK UNBOUND:                 0.000
REMARK SMILES CC1(C)[C@H]2CC[C@](C)(C2)[C@H]1O
REMARK SMILES IDX 1 1 2 2 4 3 5 4 6 5 7 6 9 7 10 8 8 9 3 10 11 11
REMARK H PARENT 11 12
REMARK Flexibility Score: inf
ROOT
ATOM      1  C   UNL     1     170.748 157.694 171.623  1.00  0.00     0.014 C 
ATOM      2  C   UNL     1     170.143 158.654 170.571  1.00  0.00    -0.006 C 
ATOM      3  C   UNL     1     168.585 158.727 170.741  1.00  0.00    -0.002 C 
ATOM      4  C   UNL     1     167.986 159.869 169.892  1.00  0.00     0.005 C 
ATOM      5  C   UNL     1     168.204 159.374 168.454  1.00  0.00     0.010 C 
ATOM      6  C   UNL     1     168.798 157.961 168.665  1.00  0.00    -0.006 C 
ATOM      7  C   UNL     1     168.106 157.529 169.939  1.00  0.00     0.013 C 
ATOM      8  C   UNL     1     170.274 158.056 169.130  1.00  0.00     0.126 C 
ATOM      9  C   UNL     1     168.577 157.012 167.483  1.00  0.00     0.014 C 
ATOM     10  C   UNL     1     170.844 160.027 170.741  1.00  0.00     0.014 C 
ENDROOT
BRANCH   8  11
ATOM     11  O   UNL     1     171.034 158.853 168.254  1.00  0.00    -0.392 OA
ATOM     12  H   UNL     1     171.917 158.983 168.688  1.00  0.00     0.211 HD
ENDBRANCH   8  11
TORSDOF 1
ENDMDL
MODEL 7
REMARK VINA RESULT:    -3.206      1.656      2.724
REMARK INTER + INTRA:          -3.300
REMARK INTER:                  -3.300
REMARK INTRA:                   0.000
REMARK UNBOUND:                 0.000
REMARK SMILES CC1(C)[C@H]2CC[C@](C)(C2)[C@H]1O
REMARK SMILES IDX 1 1 2 2 4 3 5 4 6 5 7 6 9 7 10 8 8 9 3 10 11 11
REMARK H PARENT 11 12
REMARK Flexibility Score: inf
ROOT
ATOM      1  C   UNL     1     160.576 173.583 171.556  1.00  0.00     0.014 C 
ATOM      2  C   UNL     1     161.171 172.625 170.496  1.00  0.00    -0.006 C 
ATOM      3  C   UNL     1     162.736 172.616 170.596  1.00  0.00    -0.002 C 
ATOM      4  C   UNL     1     163.342 171.481 169.743  1.00  0.00     0.005 C 
ATOM      5  C   UNL     1     163.040 171.936 168.307  1.00  0.00     0.010 C 
ATOM      6  C   UNL     1     162.399 173.330 168.518  1.00  0.00    -0.006 C 
ATOM      7  C   UNL     1     163.130 173.816 169.750  1.00  0.00     0.013 C 
ATOM      8  C   UNL     1     160.951 173.186 169.051  1.00  0.00     0.126 C 
ATOM      9  C   UNL     1     162.529 174.260 167.308  1.00  0.00     0.014 C 
ATOM     10  C   UNL     1     160.534 171.229 170.725  1.00  0.00     0.014 C 
ENDROOT
BRANCH   8  11
ATOM     11  O   UNL     1     160.185 172.342 168.227  1.00  0.00    -0.392 OA
ATOM     12  H   UNL     1     160.037 171.506 168.742  1.00  0.00     0.211 HD
ENDBRANCH   8  11
TORSDOF 1
ENDMDL
MODEL 8
REMARK VINA RESULT:    -3.196      1.117      3.314
REMARK INTER + INTRA:          -3.289
REMARK INTER:                  -3.289
REMARK INTRA:                   0.000
REMARK UNBOUND:                 0.000
REMARK SMILES CC1(C)[C@H]2CC[C@](C)(C2)[C@H]1O
REMARK SMILES IDX 1 1 2 2 4 3 5 4 6 5 7 6 9 7 10 8 8 9 3 10 11 11
REMARK H PARENT 11 12
REMARK Flexibility Score: inf
ROOT
ATOM      1  C   UNL     1     161.186 173.331 168.634  1.00  0.00     0.014 C 
ATOM      2  C   UNL     1     162.420 172.591 169.204  1.00  0.00    -0.006 C 
ATOM      3  C   UNL     1     161.961 171.430 170.153  1.00  0.00    -0.002 C 
ATOM      4  C   UNL     1     163.145 170.511 170.523  1.00  0.00     0.005 C 
ATOM      5  C   UNL     1     164.019 171.419 171.401  1.00  0.00     0.010 C 
ATOM      6  C   UNL     1     163.166 172.706 171.517  1.00  0.00    -0.006 C 
ATOM      7  C   UNL     1     161.762 172.144 171.480  1.00  0.00     0.013 C 
ATOM      8  C   UNL     1     163.214 173.509 170.191  1.00  0.00     0.126 C 
ATOM      9  C   UNL     1     163.470 173.542 172.764  1.00  0.00     0.014 C 
ATOM     10  C   UNL     1     163.262 172.100 167.997  1.00  0.00     0.014 C 
ENDROOT
BRANCH   8  11
ATOM     11  O   UNL     1     164.541 173.756 169.792  1.00  0.00    -0.392 OA
ATOM     12  H   UNL     1     164.937 172.872 169.576  1.00  0.00     0.211 HD
ENDBRANCH   8  11
TORSDOF 1
ENDMDL
MODEL 9
REMARK VINA RESULT:    -3.191     14.532     15.698
REMARK INTER + INTRA:          -3.284
REMARK INTER:                  -3.284
REMARK INTRA:                   0.000
REMARK UNBOUND:                 0.000
REMARK SMILES CC1(C)[C@H]2CC[C@](C)(C2)[C@H]1O
REMARK SMILES IDX 1 1 2 2 4 3 5 4 6 5 7 6 9 7 10 8 8 9 3 10 11 11
REMARK H PARENT 11 12
REMARK Flexibility Score: inf
ROOT
ATOM      1  C   UNL     1     167.616 159.251 167.461  1.00  0.00     0.014 C 
ATOM      2  C   UNL     1     168.450 158.406 168.453  1.00  0.00    -0.006 C 
ATOM      3  C   UNL     1     167.672 158.237 169.805  1.00  0.00    -0.002 C 
ATOM      4  C   UNL     1     168.349 157.186 170.710  1.00  0.00     0.005 C 
ATOM      5  C   UNL     1     169.669 157.870 171.096  1.00  0.00     0.010 C 
ATOM      6  C   UNL     1     169.529 159.272 170.454  1.00  0.00    -0.006 C 
ATOM      7  C   UNL     1     168.037 159.504 170.559  1.00  0.00     0.013 C 
ATOM      8  C   UNL     1     169.724 159.188 168.919  1.00  0.00     0.126 C 
ATOM      9  C   UNL     1     170.377 160.352 171.133  1.00  0.00     0.014 C 
ATOM     10  C   UNL     1     168.769 157.056 167.757  1.00  0.00     0.014 C 
ENDROOT
BRANCH   8  11
ATOM     11  O   UNL     1     170.933 158.547 168.593  1.00  0.00    -0.392 OA
ATOM     12  H   UNL     1     171.249 158.959 167.747  1.00  0.00     0.211 HD
ENDBRANCH   8  11
TORSDOF 1
ENDMDL
