MODEL 1
REMARK VINA RESULT:    -4.323      0.000      0.000
REMARK INTER + INTRA:          -6.489
REMARK INTER:                  -5.840
REMARK INTRA:                  -0.649
REMARK UNBOUND:                -0.649
REMARK SMILES CC(=O)CCC=C(C)CCC=C(C)C
REMARK SMILES IDX 7 1 6 2 8 3 9 4 10 5 11 6 13 7 12 8 14 9 5 10 4 11 2 12 3 13
REMARK SMILES IDX 1 14
REMARK H PARENT
REMARK Flexibility Score: inf
ROOT
ATOM      1  C   UNL     1      80.271  14.802   3.599  1.00  0.00    -0.077 C 
ATOM      2  C   UNL     1      79.605  14.819   2.422  1.00  0.00    -0.028 C 
ATOM      3  C   UNL     1      81.455  13.880   3.737  1.00  0.00     0.039 C 
ENDROOT
BRANCH   1   4
ATOM      4  C   UNL     1      79.920  15.713   4.759  1.00  0.00     0.034 C 
BRANCH   4   5
ATOM      5  C   UNL     1      79.012  14.989   5.759  1.00  0.00     0.032 C 
BRANCH   5   6
ATOM      6  C   UNL     1      79.819  14.213   6.770  1.00  0.00    -0.028 C 
ATOM      7  C   UNL     1      79.970  16.183   8.297  1.00  0.00     0.039 C 
ATOM      8  C   UNL     1      80.260  14.747   7.929  1.00  0.00    -0.080 C 
ATOM      9  C   UNL     1      81.059  13.882   8.868  1.00  0.00     0.039 C 
ENDBRANCH   5   6
ENDBRANCH   4   5
ENDBRANCH   1   4
BRANCH   2  10
ATOM     10  C   UNL     1      78.395  15.672   2.129  1.00  0.00     0.035 C 
BRANCH  10  11
ATOM     11  C   UNL     1      78.605  16.494   0.854  1.00  0.00     0.079 C 
BRANCH  11  12
ATOM     12  C   UNL     1      78.728  17.958   1.177  1.00  0.00     0.130 C 
ATOM     13  O   UNL     1      77.793  18.710   0.948  1.00  0.00    -0.300 OA
ATOM     14  C   UNL     1      79.998  18.505   1.757  1.00  0.00     0.087 C 
ENDBRANCH  11  12
ENDBRANCH  10  11
ENDBRANCH   2  10
TORSDOF 6
ENDMDL
MODEL 2
REMARK VINA RESULT:    -4.251      2.261      6.205
REMARK INTER + INTRA:          -6.391
REMARK INTER:                  -5.890
REMARK INTRA:                  -0.501
REMARK UNBOUND:                -0.649
REMARK SMILES CC(=O)CCC=C(C)CCC=C(C)C
REMARK SMILES IDX 7 1 6 2 8 3 9 4 10 5 11 6 13 7 12 8 14 9 5 10 4 11 2 12 3 13
REMARK SMILES IDX 1 14
REMARK H PARENT
REMARK Flexibility Score: inf
ROOT
ATOM      1  C   UNL     1      80.255  14.471   4.217  1.00  0.00    -0.077 C 
ATOM      2  C   UNL     1      80.319  14.132   5.525  1.00  0.00    -0.028 C 
ATOM      3  C   UNL     1      81.267  13.875   3.274  1.00  0.00     0.039 C 
ENDROOT
BRANCH   1   4
ATOM      4  C   UNL     1      79.173  15.371   3.650  1.00  0.00     0.034 C 
BRANCH   4   5
ATOM      5  C   UNL     1      79.350  15.541   2.138  1.00  0.00     0.032 C 
BRANCH   5   6
ATOM      6  C   UNL     1      78.376  16.552   1.583  1.00  0.00    -0.028 C 
ATOM      7  C   UNL     1      80.055  18.393   1.749  1.00  0.00     0.039 C 
ATOM      8  C   UNL     1      78.688  17.853   1.402  1.00  0.00    -0.080 C 
ATOM      9  C   UNL     1      77.639  18.778   0.841  1.00  0.00     0.039 C 
ENDBRANCH   5   6
ENDBRANCH   4   5
ENDBRANCH   1   4
BRANCH   2  10
ATOM     10  C   UNL     1      79.393  14.652   6.597  1.00  0.00     0.035 C 
BRANCH  10  11
ATOM     11  C   UNL     1      80.003  14.448   7.987  1.00  0.00     0.079 C 
BRANCH  11  12
ATOM     12  C   UNL     1      80.397  15.767   8.594  1.00  0.00     0.130 C 
ATOM     13  O   UNL     1      80.082  16.808   8.038  1.00  0.00    -0.300 OA
ATOM     14  C   UNL     1      81.193  15.812   9.863  1.00  0.00     0.087 C 
ENDBRANCH  11  12
ENDBRANCH  10  11
ENDBRANCH   2  10
TORSDOF 6
ENDMDL
MODEL 3
REMARK VINA RESULT:    -4.003      1.796      2.598
REMARK INTER + INTRA:          -6.055
REMARK INTER:                  -5.251
REMARK INTRA:                  -0.805
REMARK UNBOUND:                -0.649
REMARK SMILES CC(=O)CCC=C(C)CCC=C(C)C
REMARK SMILES IDX 7 1 6 2 8 3 9 4 10 5 11 6 13 7 12 8 14 9 5 10 4 11 2 12 3 13
REMARK SMILES IDX 1 14
REMARK H PARENT
REMARK Flexibility Score: inf
ROOT
ATOM      1  C   UNL     1      79.590  16.387   4.573  1.00  0.00    -0.077 C 
ATOM      2  C   UNL     1      79.642  16.783   3.280  1.00  0.00    -0.028 C 
ATOM      3  C   UNL     1      79.422  17.439   5.637  1.00  0.00     0.039 C 
ENDROOT
BRANCH   1   4
ATOM      4  C   UNL     1      79.628  14.929   4.991  1.00  0.00     0.034 C 
BRANCH   4   5
ATOM      5  C   UNL     1      79.041  14.755   6.396  1.00  0.00     0.032 C 
BRANCH   5   6
ATOM      6  C   UNL     1      80.020  14.068   7.316  1.00  0.00    -0.028 C 
ATOM      7  C   UNL     1      80.169  16.071   8.800  1.00  0.00     0.039 C 
ATOM      8  C   UNL     1      80.539  14.658   8.414  1.00  0.00    -0.080 C 
ATOM      9  C   UNL     1      81.509  13.881   9.264  1.00  0.00     0.039 C 
ENDBRANCH   5   6
ENDBRANCH   4   5
ENDBRANCH   1   4
BRANCH   2  10
ATOM     10  C   UNL     1      79.822  15.858   2.102  1.00  0.00     0.035 C 
BRANCH  10  11
ATOM     11  C   UNL     1      78.663  16.009   1.111  1.00  0.00     0.079 C 
BRANCH  11  12
ATOM     12  C   UNL     1      77.889  14.723   0.997  1.00  0.00     0.130 C 
ATOM     13  O   UNL     1      77.924  14.087  -0.045  1.00  0.00    -0.300 OA
ATOM     14  C   UNL     1      77.058  14.231   2.143  1.00  0.00     0.087 C 
ENDBRANCH  11  12
ENDBRANCH  10  11
ENDBRANCH   2  10
TORSDOF 6
ENDMDL
MODEL 4
REMARK VINA RESULT:    -3.925      2.674      6.546
REMARK INTER + INTRA:          -5.951
REMARK INTER:                  -5.342
REMARK INTRA:                  -0.609
REMARK UNBOUND:                -0.649
REMARK SMILES CC(=O)CCC=C(C)CCC=C(C)C
REMARK SMILES IDX 7 1 6 2 8 3 9 4 10 5 11 6 13 7 12 8 14 9 5 10 4 11 2 12 3 13
REMARK SMILES IDX 1 14
REMARK H PARENT
REMARK Flexibility Score: inf
ROOT
ATOM      1  C   UNL     1      80.093  14.499   5.115  1.00  0.00    -0.077 C 
ATOM      2  C   UNL     1      80.308  13.901   6.309  1.00  0.00    -0.028 C 
ATOM      3  C   UNL     1      80.696  13.875   3.884  1.00  0.00     0.039 C 
ENDROOT
BRANCH   1   4
ATOM      4  C   UNL     1      79.219  15.729   4.953  1.00  0.00     0.034 C 
BRANCH   4   5
ATOM      5  C   UNL     1      78.260  15.559   3.770  1.00  0.00     0.032 C 
BRANCH   5   6
ATOM      6  C   UNL     1      78.145  16.834   2.972  1.00  0.00    -0.028 C 
ATOM      7  C   UNL     1      78.994  15.722   0.903  1.00  0.00     0.039 C 
ATOM      8  C   UNL     1      78.476  16.919   1.666  1.00  0.00    -0.080 C 
ATOM      9  C   UNL     1      78.321  18.242   0.963  1.00  0.00     0.039 C 
ENDBRANCH   5   6
ENDBRANCH   4   5
ENDBRANCH   1   4
BRANCH   2  10
ATOM     10  C   UNL     1      79.788  14.407   7.632  1.00  0.00     0.035 C 
BRANCH  10  11
ATOM     11  C   UNL     1      80.830  14.205   8.738  1.00  0.00     0.079 C 
BRANCH  11  12
ATOM     12  C   UNL     1      81.040  15.479   9.510  1.00  0.00     0.130 C 
ATOM     13  O   UNL     1      80.443  16.493   9.182  1.00  0.00    -0.300 OA
ATOM     14  C   UNL     1      81.996  15.519  10.664  1.00  0.00     0.087 C 
ENDBRANCH  11  12
ENDBRANCH  10  11
ENDBRANCH   2  10
TORSDOF 6
ENDMDL
MODEL 5
REMARK VINA RESULT:    -3.740      2.609      6.004
REMARK INTER + INTRA:          -5.701
REMARK INTER:                  -5.180
REMARK INTRA:                  -0.521
REMARK UNBOUND:                -0.649
REMARK SMILES CC(=O)CCC=C(C)CCC=C(C)C
REMARK SMILES IDX 7 1 6 2 8 3 9 4 10 5 11 6 13 7 12 8 14 9 5 10 4 11 2 12 3 13
REMARK SMILES IDX 1 14
REMARK H PARENT
REMARK Flexibility Score: inf
ROOT
ATOM      1  C   UNL     1      78.296  14.043   2.996  1.00  0.00    -0.077 C 
ATOM      2  C   UNL     1      78.376  14.181   4.340  1.00  0.00    -0.028 C 
ATOM      3  C   UNL     1      76.930  14.027   2.360  1.00  0.00     0.039 C 
ENDROOT
BRANCH   1   4
ATOM      4  C   UNL     1      79.517  13.970   2.100  1.00  0.00     0.034 C 
BRANCH   4   5
ATOM      5  C   UNL     1      80.062  15.373   1.813  1.00  0.00     0.032 C 
BRANCH   5   6
ATOM      6  C   UNL     1      78.988  16.273   1.254  1.00  0.00    -0.028 C 
ATOM      7  C   UNL     1      80.120  18.319   2.133  1.00  0.00     0.039 C 
ATOM      8  C   UNL     1      79.006  17.616   1.393  1.00  0.00    -0.080 C 
ATOM      9  C   UNL     1      77.883  18.422   0.794  1.00  0.00     0.039 C 
ENDBRANCH   5   6
ENDBRANCH   4   5
ENDBRANCH   1   4
BRANCH   2  10
ATOM     10  C   UNL     1      79.662  14.200   5.128  1.00  0.00     0.035 C 
BRANCH  10  11
ATOM     11  C   UNL     1      79.728  15.438   6.030  1.00  0.00     0.079 C 
BRANCH  11  12
ATOM     12  C   UNL     1      80.053  15.048   7.446  1.00  0.00     0.130 C 
ATOM     13  O   UNL     1      80.255  13.875   7.721  1.00  0.00    -0.300 OA
ATOM     14  C   UNL     1      80.106  16.086   8.526  1.00  0.00     0.087 C 
ENDBRANCH  11  12
ENDBRANCH  10  11
ENDBRANCH   2  10
TORSDOF 6
ENDMDL
MODEL 6
REMARK VINA RESULT:    -3.640      1.199      2.012
REMARK INTER + INTRA:          -5.565
REMARK INTER:                  -5.485
REMARK INTRA:                  -0.081
REMARK UNBOUND:                -0.649
REMARK SMILES CC(=O)CCC=C(C)CCC=C(C)C
REMARK SMILES IDX 7 1 6 2 8 3 9 4 10 5 11 6 13 7 12 8 14 9 5 10 4 11 2 12 3 13
REMARK SMILES IDX 1 14
REMARK H PARENT
REMARK Flexibility Score: inf
ROOT
ATOM      1  C   UNL     1      79.126  14.980   3.548  1.00  0.00    -0.077 C 
ATOM      2  C   UNL     1      78.958  16.201   2.991  1.00  0.00    -0.028 C 
ATOM      3  C   UNL     1      78.080  13.926   3.290  1.00  0.00     0.039 C 
ENDROOT
BRANCH   1   4
ATOM      4  C   UNL     1      80.348  14.606   4.364  1.00  0.00     0.034 C 
BRANCH   4   5
ATOM      5  C   UNL     1      79.936  14.014   5.716  1.00  0.00     0.032 C 
BRANCH   5   6
ATOM      6  C   UNL     1      79.659  15.099   6.727  1.00  0.00    -0.028 C 
ATOM      7  C   UNL     1      80.901  13.875   8.515  1.00  0.00     0.039 C 
ATOM      8  C   UNL     1      80.094  15.046   8.004  1.00  0.00    -0.080 C 
ATOM      9  C   UNL     1      79.762  16.185   8.932  1.00  0.00     0.039 C 
ENDBRANCH   5   6
ENDBRANCH   4   5
ENDBRANCH   1   4
BRANCH   2  10
ATOM     10  C   UNL     1      79.902  17.365   3.165  1.00  0.00     0.035 C 
BRANCH  10  11
ATOM     11  C   UNL     1      79.916  18.246   1.911  1.00  0.00     0.079 C 
BRANCH  11  12
ATOM     12  C   UNL     1      78.758  17.909   1.011  1.00  0.00     0.130 C 
ATOM     13  O   UNL     1      78.812  16.916   0.301  1.00  0.00    -0.300 OA
ATOM     14  C   UNL     1      77.551  18.796   0.962  1.00  0.00     0.087 C 
ENDBRANCH  11  12
ENDBRANCH  10  11
ENDBRANCH   2  10
TORSDOF 6
ENDMDL
MODEL 7
REMARK VINA RESULT:    -3.036      3.534      7.372
REMARK INTER + INTRA:          -4.750
REMARK INTER:                  -4.122
REMARK INTRA:                  -0.628
REMARK UNBOUND:                -0.649
REMARK SMILES CC(=O)CCC=C(C)CCC=C(C)C
REMARK SMILES IDX 7 1 6 2 8 3 9 4 10 5 11 6 13 7 12 8 14 9 5 10 4 11 2 12 3 13
REMARK SMILES IDX 1 14
REMARK H PARENT
REMARK Flexibility Score: inf
ROOT
ATOM      1  C   UNL     1      79.929  15.511   7.354  1.00  0.00    -0.077 C 
ATOM      2  C   UNL     1      80.526  15.440   8.566  1.00  0.00    -0.028 C 
ATOM      3  C   UNL     1      79.660  16.873   6.768  1.00  0.00     0.039 C 
ENDROOT
BRANCH   1   4
ATOM      4  C   UNL     1      79.578  14.285   6.534  1.00  0.00     0.034 C 
BRANCH   4   5
ATOM      5  C   UNL     1      80.099  14.427   5.099  1.00  0.00     0.032 C 
BRANCH   5   6
ATOM      6  C   UNL     1      78.985  14.271   4.094  1.00  0.00    -0.028 C 
ATOM      7  C   UNL     1      79.679  16.333   2.869  1.00  0.00     0.039 C 
ATOM      8  C   UNL     1      78.786  15.133   3.074  1.00  0.00    -0.080 C 
ATOM      9  C   UNL     1      77.642  14.882   2.127  1.00  0.00     0.039 C 
ENDBRANCH   5   6
ENDBRANCH   4   5
ENDBRANCH   1   4
BRANCH   2  10
ATOM     10  C   UNL     1      80.849  14.158   9.293  1.00  0.00     0.035 C 
BRANCH  10  11
ATOM     11  C   UNL     1      82.310  14.149   9.755  1.00  0.00     0.079 C 
BRANCH  11  12
ATOM     12  C   UNL     1      82.439  14.750  11.128  1.00  0.00     0.130 C 
ATOM     13  O   UNL     1      82.575  15.958  11.250  1.00  0.00    -0.300 OA
ATOM     14  C   UNL     1      82.425  13.876  12.345  1.00  0.00     0.087 C 
ENDBRANCH  11  12
ENDBRANCH  10  11
ENDBRANCH   2  10
TORSDOF 6
ENDMDL
MODEL 8
REMARK VINA RESULT:    -2.948      2.637      6.513
REMARK INTER + INTRA:          -4.631
REMARK INTER:                  -4.898
REMARK INTRA:                   0.267
REMARK UNBOUND:                -0.649
REMARK SMILES CC(=O)CCC=C(C)CCC=C(C)C
REMARK SMILES IDX 7 1 6 2 8 3 9 4 10 5 11 6 13 7 12 8 14 9 5 10 4 11 2 12 3 13
REMARK SMILES IDX 1 14
REMARK H PARENT
REMARK Flexibility Score: inf
ROOT
ATOM      1  C   UNL     1      79.748  15.398   5.182  1.00  0.00    -0.077 C 
ATOM      2  C   UNL     1      79.755  15.355   6.534  1.00  0.00    -0.028 C 
ATOM      3  C   UNL     1      79.740  16.746   4.510  1.00  0.00     0.039 C 
ENDROOT
BRANCH   1   4
ATOM      4  C   UNL     1      79.814  14.155   4.317  1.00  0.00     0.034 C 
BRANCH   4   5
ATOM      5  C   UNL     1      80.504  14.460   2.983  1.00  0.00     0.032 C 
BRANCH   5   6
ATOM      6  C   UNL     1      79.628  14.081   1.814  1.00  0.00    -0.028 C 
ATOM      7  C   UNL     1      79.194  16.474   1.248  1.00  0.00     0.039 C 
ATOM      8  C   UNL     1      79.027  14.991   1.017  1.00  0.00    -0.080 C 
ATOM      9  C   UNL     1      78.173  14.503  -0.124  1.00  0.00     0.039 C 
ENDBRANCH   5   6
ENDBRANCH   4   5
ENDBRANCH   1   4
BRANCH   2  10
ATOM     10  C   UNL     1      79.748  14.090   7.356  1.00  0.00     0.035 C 
BRANCH  10  11
ATOM     11  C   UNL     1      80.811  14.152   8.458  1.00  0.00     0.079 C 
BRANCH  11  12
ATOM     12  C   UNL     1      80.669  15.414   9.265  1.00  0.00     0.130 C 
ATOM     13  O   UNL     1      79.745  16.179   9.035  1.00  0.00    -0.300 OA
ATOM     14  C   UNL     1      81.667  15.750  10.331  1.00  0.00     0.087 C 
ENDBRANCH  11  12
ENDBRANCH  10  11
ENDBRANCH   2  10
TORSDOF 6
ENDMDL
