MODEL 1
REMARK VINA RESULT:    -4.830      0.000      0.000
REMARK INTER + INTRA:          -8.464
REMARK INTER:                  -7.371
REMARK INTRA:                  -1.093
REMARK UNBOUND:                -1.093
REMARK SMILES CCCCCCCCCCC(=O)[O-]
REMARK SMILES IDX 7 1 8 2 9 3 10 4 11 5 12 6 13 7 6 8 5 9 4 10 3 11 2 12 1 13
REMARK H PARENT
REMARK Flexibility Score: inf
ROOT
ATOM      1  C   UNL     1       6.856  53.919  23.281  1.00  0.00     0.000 C 
ENDROOT
BRANCH   1   2
ATOM      2  C   UNL     1       6.219  55.262  22.903  1.00  0.00     0.000 C 
BRANCH   2   3
ATOM      3  C   UNL     1       6.824  55.812  21.606  1.00  0.00     0.006 C 
BRANCH   3   4
ATOM      4  C   UNL     1       7.706  54.763  20.924  1.00  0.00     0.053 C 
BRANCH   4   5
ATOM      5  C   UNL     1       7.048  54.252  19.681  1.00  0.00     0.041 C 
ATOM      6  O   UNL     1       6.498  53.119  19.675  1.00  0.00    -0.550 OA
ATOM      7  O   UNL     1       6.996  55.049  18.545  1.00  0.00    -0.550 OA
ENDBRANCH   4   5
ENDBRANCH   3   4
ENDBRANCH   2   3
ENDBRANCH   1   2
BRANCH   1   8
ATOM      8  C   UNL     1       7.408  53.955  24.711  1.00  0.00     0.000 C 
BRANCH   8   9
ATOM      9  C   UNL     1       8.647  54.853  24.801  1.00  0.00    -0.000 C 
BRANCH   9  10
ATOM     10  C   UNL     1       9.935  54.031  24.670  1.00  0.00    -0.000 C 
BRANCH  10  11
ATOM     11  C   UNL     1      10.442  54.030  23.221  1.00  0.00    -0.000 C 
BRANCH  11  12
ATOM     12  C   UNL     1      10.460  52.623  22.603  1.00  0.00    -0.003 C 
ATOM     13  C   UNL     1       9.992  51.543  23.579  1.00  0.00     0.004 C 
ENDBRANCH  11  12
ENDBRANCH  10  11
ENDBRANCH   9  10
ENDBRANCH   8   9
ENDBRANCH   1   8
TORSDOF 9
ENDMDL
MODEL 2
REMARK VINA RESULT:    -4.809      2.206      3.312
REMARK INTER + INTRA:          -8.432
REMARK INTER:                  -7.495
REMARK INTRA:                  -0.937
REMARK UNBOUND:                -1.093
REMARK SMILES CCCCCCCCCCC(=O)[O-]
REMARK SMILES IDX 7 1 8 2 9 3 10 4 11 5 12 6 13 7 6 8 5 9 4 10 3 11 2 12 1 13
REMARK H PARENT
REMARK Flexibility Score: inf
ROOT
ATOM      1  C   UNL     1       8.965  54.485  22.443  1.00  0.00     0.000 C 
ENDROOT
BRANCH   1   2
ATOM      2  C   UNL     1       8.030  54.421  21.229  1.00  0.00     0.000 C 
BRANCH   2   3
ATOM      3  C   UNL     1       7.494  55.813  20.873  1.00  0.00     0.006 C 
BRANCH   3   4
ATOM      4  C   UNL     1       7.193  56.624  22.136  1.00  0.00     0.053 C 
BRANCH   4   5
ATOM      5  C   UNL     1       5.728  56.596  22.440  1.00  0.00     0.041 C 
ATOM      6  O   UNL     1       5.198  55.556  22.912  1.00  0.00    -0.550 OA
ATOM      7  O   UNL     1       4.957  57.737  22.250  1.00  0.00    -0.550 OA
ENDBRANCH   4   5
ENDBRANCH   3   4
ENDBRANCH   2   3
ENDBRANCH   1   2
BRANCH   1   8
ATOM      8  C   UNL     1       9.209  53.088  23.024  1.00  0.00     0.000 C 
BRANCH   8   9
ATOM      9  C   UNL     1       8.139  52.726  24.060  1.00  0.00    -0.000 C 
BRANCH   9  10
ATOM     10  C   UNL     1       7.617  53.978  24.775  1.00  0.00    -0.000 C 
BRANCH  10  11
ATOM     11  C   UNL     1       8.360  54.205  26.100  1.00  0.00    -0.000 C 
BRANCH  11  12
ATOM     12  C   UNL     1       9.477  55.253  25.978  1.00  0.00    -0.003 C 
ATOM     13  C   UNL     1      10.875  54.642  26.082  1.00  0.00     0.004 C 
ENDBRANCH  11  12
ENDBRANCH  10  11
ENDBRANCH   9  10
ENDBRANCH   8   9
ENDBRANCH   1   8
TORSDOF 9
ENDMDL
MODEL 3
REMARK VINA RESULT:    -4.800      3.421      5.372
REMARK INTER + INTRA:          -8.419
REMARK INTER:                  -7.439
REMARK INTRA:                  -0.979
REMARK UNBOUND:                -1.093
REMARK SMILES CCCCCCCCCCC(=O)[O-]
REMARK SMILES IDX 7 1 8 2 9 3 10 4 11 5 12 6 13 7 6 8 5 9 4 10 3 11 2 12 1 13
REMARK H PARENT
REMARK Flexibility Score: inf
ROOT
ATOM      1  C   UNL     1       7.887  52.869  23.601  1.00  0.00     0.000 C 
ENDROOT
BRANCH   1   2
ATOM      2  C   UNL     1       9.334  53.235  23.250  1.00  0.00     0.000 C 
BRANCH   2   3
ATOM      3  C   UNL     1       9.741  54.560  23.907  1.00  0.00     0.006 C 
BRANCH   3   4
ATOM      4  C   UNL     1      10.763  54.328  25.023  1.00  0.00     0.053 C 
BRANCH   4   5
ATOM      5  C   UNL     1      10.184  54.701  26.351  1.00  0.00     0.041 C 
ATOM      6  O   UNL     1       8.963  54.993  26.451  1.00  0.00    -0.550 OA
ATOM      7  O   UNL     1      10.981  54.676  27.489  1.00  0.00    -0.550 OA
ENDBRANCH   4   5
ENDBRANCH   3   4
ENDBRANCH   2   3
ENDBRANCH   1   2
BRANCH   1   8
ATOM      8  C   UNL     1       7.052  54.125  23.875  1.00  0.00     0.000 C 
BRANCH   8   9
ATOM      9  C   UNL     1       6.128  54.441  22.693  1.00  0.00    -0.000 C 
BRANCH   9  10
ATOM     10  C   UNL     1       6.386  55.854  22.153  1.00  0.00    -0.000 C 
BRANCH  10  11
ATOM     11  C   UNL     1       7.425  55.828  21.023  1.00  0.00    -0.000 C 
BRANCH  11  12
ATOM     12  C   UNL     1       7.429  54.498  20.255  1.00  0.00    -0.003 C 
ATOM     13  C   UNL     1       6.897  54.636  18.828  1.00  0.00     0.004 C 
ENDBRANCH  11  12
ENDBRANCH  10  11
ENDBRANCH   9  10
ENDBRANCH   8   9
ENDBRANCH   1   8
TORSDOF 9
ENDMDL
MODEL 4
REMARK VINA RESULT:    -4.742      1.132      2.053
REMARK INTER + INTRA:          -8.329
REMARK INTER:                  -7.327
REMARK INTRA:                  -1.003
REMARK UNBOUND:                -1.093
REMARK SMILES CCCCCCCCCCC(=O)[O-]
REMARK SMILES IDX 7 1 8 2 9 3 10 4 11 5 12 6 13 7 6 8 5 9 4 10 3 11 2 12 1 13
REMARK H PARENT
REMARK Flexibility Score: inf
ROOT
ATOM      1  C   UNL     1       6.361  54.889  23.293  1.00  0.00     0.000 C 
ENDROOT
BRANCH   1   2
ATOM      2  C   UNL     1       7.274  56.008  22.777  1.00  0.00     0.000 C 
BRANCH   2   3
ATOM      3  C   UNL     1       8.055  55.552  21.539  1.00  0.00     0.006 C 
BRANCH   3   4
ATOM      4  C   UNL     1       7.285  55.875  20.255  1.00  0.00     0.053 C 
BRANCH   4   5
ATOM      5  C   UNL     1       7.153  54.653  19.402  1.00  0.00     0.041 C 
ATOM      6  O   UNL     1       6.388  54.658  18.401  1.00  0.00    -0.550 OA
ATOM      7  O   UNL     1       7.913  53.525  19.682  1.00  0.00    -0.550 OA
ENDBRANCH   4   5
ENDBRANCH   3   4
ENDBRANCH   2   3
ENDBRANCH   1   2
BRANCH   1   8
ATOM      8  C   UNL     1       6.998  53.512  23.073  1.00  0.00     0.000 C 
BRANCH   8   9
ATOM      9  C   UNL     1       7.892  53.122  24.256  1.00  0.00    -0.000 C 
BRANCH   9  10
ATOM     10  C   UNL     1       9.293  52.718  23.780  1.00  0.00    -0.000 C 
BRANCH  10  11
ATOM     11  C   UNL     1      10.288  53.874  23.955  1.00  0.00    -0.000 C 
BRANCH  11  12
ATOM     12  C   UNL     1       9.977  54.739  25.187  1.00  0.00    -0.003 C 
ATOM     13  C   UNL     1      11.053  54.637  26.268  1.00  0.00     0.004 C 
ENDBRANCH  11  12
ENDBRANCH  10  11
ENDBRANCH   9  10
ENDBRANCH   8   9
ENDBRANCH   1   8
TORSDOF 9
ENDMDL
MODEL 5
REMARK VINA RESULT:    -4.575      2.990      5.213
REMARK INTER + INTRA:          -8.075
REMARK INTER:                  -7.093
REMARK INTRA:                  -0.982
REMARK UNBOUND:                -1.093
REMARK SMILES CCCCCCCCCCC(=O)[O-]
REMARK SMILES IDX 7 1 8 2 9 3 10 4 11 5 12 6 13 7 6 8 5 9 4 10 3 11 2 12 1 13
REMARK H PARENT
REMARK Flexibility Score: inf
ROOT
ATOM      1  C   UNL     1       6.716  53.705  23.776  1.00  0.00     0.000 C 
ENDROOT
BRANCH   1   2
ATOM      2  C   UNL     1       7.588  53.217  24.939  1.00  0.00     0.000 C 
BRANCH   2   3
ATOM      3  C   UNL     1       8.062  54.393  25.802  1.00  0.00     0.006 C 
BRANCH   3   4
ATOM      4  C   UNL     1       9.111  55.229  25.062  1.00  0.00     0.053 C 
BRANCH   4   5
ATOM      5  C   UNL     1      10.381  54.455  24.903  1.00  0.00     0.041 C 
ATOM      6  O   UNL     1      10.674  53.938  23.793  1.00  0.00    -0.550 OA
ATOM      7  O   UNL     1      11.268  54.349  25.968  1.00  0.00    -0.550 OA
ENDBRANCH   4   5
ENDBRANCH   3   4
ENDBRANCH   2   3
ENDBRANCH   1   2
BRANCH   1   8
ATOM      8  C   UNL     1       7.347  53.347  22.426  1.00  0.00     0.000 C 
BRANCH   8   9
ATOM      9  C   UNL     1       7.031  54.412  21.370  1.00  0.00    -0.000 C 
BRANCH   9  10
ATOM     10  C   UNL     1       8.058  55.551  21.409  1.00  0.00    -0.000 C 
BRANCH  10  11
ATOM     11  C   UNL     1       7.361  56.916  21.506  1.00  0.00    -0.000 C 
BRANCH  11  12
ATOM     12  C   UNL     1       6.388  56.999  22.693  1.00  0.00    -0.003 C 
ATOM     13  C   UNL     1       4.995  57.478  22.283  1.00  0.00     0.004 C 
ENDBRANCH  11  12
ENDBRANCH  10  11
ENDBRANCH   9  10
ENDBRANCH   8   9
ENDBRANCH   1   8
TORSDOF 9
ENDMDL
MODEL 6
REMARK VINA RESULT:    -4.496      2.141      4.481
REMARK INTER + INTRA:          -7.955
REMARK INTER:                  -7.053
REMARK INTRA:                  -0.901
REMARK UNBOUND:                -1.093
REMARK SMILES CCCCCCCCCCC(=O)[O-]
REMARK SMILES IDX 7 1 8 2 9 3 10 4 11 5 12 6 13 7 6 8 5 9 4 10 3 11 2 12 1 13
REMARK H PARENT
REMARK Flexibility Score: inf
ROOT
ATOM      1  C   UNL     1       8.000  54.269  25.688  1.00  0.00     0.000 C 
ENDROOT
BRANCH   1   2
ATOM      2  C   UNL     1       9.245  55.001  25.169  1.00  0.00     0.000 C 
BRANCH   2   3
ATOM      3  C   UNL     1      10.397  54.019  24.924  1.00  0.00     0.006 C 
BRANCH   3   4
ATOM      4  C   UNL     1      10.713  53.907  23.430  1.00  0.00     0.053 C 
BRANCH   4   5
ATOM      5  C   UNL     1      10.298  52.568  22.905  1.00  0.00     0.041 C 
ATOM      6  O   UNL     1       9.995  52.429  21.691  1.00  0.00    -0.550 OA
ATOM      7  O   UNL     1      10.296  51.463  23.747  1.00  0.00    -0.550 OA
ENDBRANCH   4   5
ENDBRANCH   3   4
ENDBRANCH   2   3
ENDBRANCH   1   2
BRANCH   1   8
ATOM      8  C   UNL     1       7.372  53.405  24.589  1.00  0.00     0.000 C 
BRANCH   8   9
ATOM      9  C   UNL     1       6.464  54.243  23.681  1.00  0.00    -0.000 C 
BRANCH   9  10
ATOM     10  C   UNL     1       6.834  54.055  22.204  1.00  0.00    -0.000 C 
BRANCH  10  11
ATOM     11  C   UNL     1       7.773  55.172  21.727  1.00  0.00    -0.000 C 
BRANCH  11  12
ATOM     12  C   UNL     1       7.482  56.518  22.408  1.00  0.00    -0.003 C 
ATOM     13  C   UNL     1       6.091  57.061  22.076  1.00  0.00     0.004 C 
ENDBRANCH  11  12
ENDBRANCH  10  11
ENDBRANCH   9  10
ENDBRANCH   8   9
ENDBRANCH   1   8
TORSDOF 9
ENDMDL
MODEL 7
REMARK VINA RESULT:    -4.440      0.734      1.738
REMARK INTER + INTRA:          -7.868
REMARK INTER:                  -7.065
REMARK INTRA:                  -0.804
REMARK UNBOUND:                -1.093
REMARK SMILES CCCCCCCCCCC(=O)[O-]
REMARK SMILES IDX 7 1 8 2 9 3 10 4 11 5 12 6 13 7 6 8 5 9 4 10 3 11 2 12 1 13
REMARK H PARENT
REMARK Flexibility Score: inf
ROOT
ATOM      1  C   UNL     1       5.837  55.839  22.822  1.00  0.00     0.000 C 
ENDROOT
BRANCH   1   2
ATOM      2  C   UNL     1       7.180  56.479  22.449  1.00  0.00     0.000 C 
BRANCH   2   3
ATOM      3  C   UNL     1       7.448  56.356  20.944  1.00  0.00     0.006 C 
BRANCH   3   4
ATOM      4  C   UNL     1       7.903  54.940  20.581  1.00  0.00     0.053 C 
BRANCH   4   5
ATOM      5  C   UNL     1       7.077  54.395  19.460  1.00  0.00     0.041 C 
ATOM      6  O   UNL     1       6.991  55.023  18.372  1.00  0.00    -0.550 OA
ATOM      7  O   UNL     1       6.442  53.167  19.598  1.00  0.00    -0.550 OA
ENDBRANCH   4   5
ENDBRANCH   3   4
ENDBRANCH   2   3
ENDBRANCH   1   2
BRANCH   1   8
ATOM      8  C   UNL     1       6.004  54.344  23.122  1.00  0.00     0.000 C 
BRANCH   8   9
ATOM      9  C   UNL     1       6.803  54.127  24.412  1.00  0.00    -0.000 C 
BRANCH   9  10
ATOM     10  C   UNL     1       8.100  53.358  24.134  1.00  0.00    -0.000 C 
BRANCH  10  11
ATOM     11  C   UNL     1       9.328  54.251  24.368  1.00  0.00    -0.000 C 
BRANCH  11  12
ATOM     12  C   UNL     1      10.501  53.896  23.441  1.00  0.00    -0.003 C 
ATOM     13  C   UNL     1      10.267  52.601  22.660  1.00  0.00     0.004 C 
ENDBRANCH  11  12
ENDBRANCH  10  11
ENDBRANCH   9  10
ENDBRANCH   8   9
ENDBRANCH   1   8
TORSDOF 9
ENDMDL
MODEL 8
REMARK VINA RESULT:    -4.437      1.602      2.710
REMARK INTER + INTRA:          -7.864
REMARK INTER:                  -6.989
REMARK INTRA:                  -0.874
REMARK UNBOUND:                -1.093
REMARK SMILES CCCCCCCCCCC(=O)[O-]
REMARK SMILES IDX 7 1 8 2 9 3 10 4 11 5 12 6 13 7 6 8 5 9 4 10 3 11 2 12 1 13
REMARK H PARENT
REMARK Flexibility Score: inf
ROOT
ATOM      1  C   UNL     1       7.201  53.218  23.270  1.00  0.00     0.000 C 
ENDROOT
BRANCH   1   2
ATOM      2  C   UNL     1       6.271  54.282  23.864  1.00  0.00     0.000 C 
BRANCH   2   3
ATOM      3  C   UNL     1       6.057  55.438  22.879  1.00  0.00     0.006 C 
BRANCH   3   4
ATOM      4  C   UNL     1       7.371  56.175  22.604  1.00  0.00     0.053 C 
BRANCH   4   5
ATOM      5  C   UNL     1       7.603  56.304  21.132  1.00  0.00     0.041 C 
ATOM      6  O   UNL     1       7.864  57.427  20.627  1.00  0.00    -0.550 OA
ATOM      7  O   UNL     1       7.580  55.174  20.324  1.00  0.00    -0.550 OA
ENDBRANCH   4   5
ENDBRANCH   3   4
ENDBRANCH   2   3
ENDBRANCH   1   2
BRANCH   1   8
ATOM      8  C   UNL     1       8.198  52.711  24.319  1.00  0.00     0.000 C 
BRANCH   8   9
ATOM      9  C   UNL     1       9.606  52.586  23.726  1.00  0.00    -0.000 C 
BRANCH   9  10
ATOM     10  C   UNL     1      10.277  53.960  23.604  1.00  0.00    -0.000 C 
BRANCH  10  11
ATOM     11  C   UNL     1       9.918  54.855  24.799  1.00  0.00    -0.000 C 
BRANCH  11  12
ATOM     12  C   UNL     1      10.888  54.684  25.977  1.00  0.00    -0.003 C 
ATOM     13  C   UNL     1      10.182  54.711  27.334  1.00  0.00     0.004 C 
ENDBRANCH  11  12
ENDBRANCH  10  11
ENDBRANCH   9  10
ENDBRANCH   8   9
ENDBRANCH   1   8
TORSDOF 9
ENDMDL
MODEL 9
REMARK VINA RESULT:    -4.252      3.494      4.382
REMARK INTER + INTRA:          -7.582
REMARK INTER:                  -7.131
REMARK INTRA:                  -0.451
REMARK UNBOUND:                -1.093
REMARK SMILES CCCCCCCCCCC(=O)[O-]
REMARK SMILES IDX 7 1 8 2 9 3 10 4 11 5 12 6 13 7 6 8 5 9 4 10 3 11 2 12 1 13
REMARK H PARENT
REMARK Flexibility Score: inf
ROOT
ATOM      1  C   UNL     1       7.009  55.685  22.661  1.00  0.00     0.000 C 
ENDROOT
BRANCH   1   2
ATOM      2  C   UNL     1       6.443  57.000  22.111  1.00  0.00     0.000 C 
BRANCH   2   3
ATOM      3  C   UNL     1       5.015  57.238  22.616  1.00  0.00     0.006 C 
BRANCH   3   4
ATOM      4  C   UNL     1       4.285  58.258  21.737  1.00  0.00     0.053 C 
BRANCH   4   5
ATOM      5  C   UNL     1       2.987  58.657  22.365  1.00  0.00     0.041 C 
ATOM      6  O   UNL     1       2.973  59.443  23.348  1.00  0.00    -0.550 OA
ATOM      7  O   UNL     1       1.788  58.199  21.831  1.00  0.00    -0.550 OA
ENDBRANCH   4   5
ENDBRANCH   3   4
ENDBRANCH   2   3
ENDBRANCH   1   2
BRANCH   1   8
ATOM      8  C   UNL     1       8.340  55.333  21.986  1.00  0.00     0.000 C 
BRANCH   8   9
ATOM      9  C   UNL     1       8.820  53.940  22.408  1.00  0.00    -0.000 C 
BRANCH   9  10
ATOM     10  C   UNL     1      10.257  53.989  22.943  1.00  0.00    -0.000 C 
BRANCH  10  11
ATOM     11  C   UNL     1      10.282  53.803  24.467  1.00  0.00    -0.000 C 
BRANCH  11  12
ATOM     12  C   UNL     1       9.948  55.096  25.225  1.00  0.00    -0.003 C 
ATOM     13  C   UNL     1       8.957  54.872  26.368  1.00  0.00     0.004 C 
ENDBRANCH  11  12
ENDBRANCH  10  11
ENDBRANCH   9  10
ENDBRANCH   8   9
ENDBRANCH   1   8
TORSDOF 9
ENDMDL
