MODEL 1
REMARK VINA RESULT:    -2.448      0.000      0.000
REMARK INTER + INTRA:          -2.448
REMARK INTER:                  -2.448
REMARK INTRA:                   0.000
REMARK UNBOUND:                 0.000
REMARK SMILES CC(=O)[O-]
REMARK SMILES IDX 1 1 2 2 3 3 4 4
REMARK H PARENT
REMARK Flexibility Score: inf
ROOT
ATOM      1  C   UNL     1       9.883  -7.698 -43.495  1.00  0.00     0.063 C 
ATOM      2  C   UNL     1      10.970  -8.582 -44.006  1.00  0.00     0.038 C 
ATOM      3  O   UNL     1      11.639  -8.241 -45.017  1.00  0.00    -0.550 OA
ATOM      4  O   UNL     1      11.211  -9.810 -43.402  1.00  0.00    -0.550 OA
ENDROOT
TORSDOF 0
ENDMDL
MODEL 2
REMARK VINA RESULT:    -2.376      0.642      1.675
REMARK INTER + INTRA:          -2.376
REMARK INTER:                  -2.376
REMARK INTRA:                   0.000
REMARK UNBOUND:                 0.000
REMARK SMILES CC(=O)[O-]
REMARK SMILES IDX 1 1 2 2 3 3 4 4
REMARK H PARENT
REMARK Flexibility Score: inf
ROOT
ATOM      1  C   UNL     1      10.220  -7.967 -43.872  1.00  0.00     0.063 C 
ATOM      2  C   UNL     1      11.288  -8.992 -44.053  1.00  0.00     0.038 C 
ATOM      3  O   UNL     1      11.161 -10.135 -43.540  1.00  0.00    -0.550 OA
ATOM      4  O   UNL     1      12.451  -8.672 -44.742  1.00  0.00    -0.550 OA
ENDROOT
TORSDOF 0
ENDMDL
MODEL 3
REMARK VINA RESULT:    -2.302      1.705      2.191
REMARK INTER + INTRA:          -2.302
REMARK INTER:                  -2.302
REMARK INTRA:                   0.000
REMARK UNBOUND:                 0.000
REMARK SMILES CC(=O)[O-]
REMARK SMILES IDX 1 1 2 2 3 3 4 4
REMARK H PARENT
REMARK Flexibility Score: inf
ROOT
ATOM      1  C   UNL     1      11.872  -8.607 -44.622  1.00  0.00     0.063 C 
ATOM      2  C   UNL     1      10.427  -8.573 -44.256  1.00  0.00     0.038 C 
ATOM      3  O   UNL     1       9.663  -9.507 -44.613  1.00  0.00    -0.550 OA
ATOM      4  O   UNL     1       9.909  -7.484 -43.566  1.00  0.00    -0.550 OA
ENDROOT
TORSDOF 0
ENDMDL
MODEL 4
REMARK VINA RESULT:    -2.187      1.390      1.806
REMARK INTER + INTRA:          -2.187
REMARK INTER:                  -2.187
REMARK INTRA:                   0.000
REMARK UNBOUND:                 0.000
REMARK SMILES CC(=O)[O-]
REMARK SMILES IDX 1 1 2 2 3 3 4 4
REMARK H PARENT
REMARK Flexibility Score: inf
ROOT
ATOM      1  C   UNL     1      10.153 -10.000 -44.673  1.00  0.00     0.063 C 
ATOM      2  C   UNL     1      10.822  -8.690 -44.429  1.00  0.00     0.038 C 
ATOM      3  O   UNL     1      12.017  -8.515 -44.787  1.00  0.00    -0.550 OA
ATOM      4  O   UNL     1      10.148  -7.678 -43.757  1.00  0.00    -0.550 OA
ENDROOT
TORSDOF 0
ENDMDL
MODEL 5
REMARK VINA RESULT:    -2.080     14.003     14.672
REMARK INTER + INTRA:          -2.080
REMARK INTER:                  -2.080
REMARK INTRA:                   0.000
REMARK UNBOUND:                 0.000
REMARK SMILES CC(=O)[O-]
REMARK SMILES IDX 1 1 2 2 3 3 4 4
REMARK H PARENT
REMARK Flexibility Score: inf
ROOT
ATOM      1  C   UNL     1       5.343 -17.114 -34.739  1.00  0.00     0.063 C 
ATOM      2  C   UNL     1       5.169 -16.648 -33.333  1.00  0.00     0.038 C 
ATOM      3  O   UNL     1       4.939 -17.479 -32.416  1.00  0.00    -0.550 OA
ATOM      4  O   UNL     1       5.206 -15.291 -33.040  1.00  0.00    -0.550 OA
ENDROOT
TORSDOF 0
ENDMDL
MODEL 6
REMARK VINA RESULT:    -1.994     15.775     16.269
REMARK INTER + INTRA:          -1.994
REMARK INTER:                  -1.994
REMARK INTRA:                   0.000
REMARK UNBOUND:                 0.000
REMARK SMILES CC(=O)[O-]
REMARK SMILES IDX 1 1 2 2 3 3 4 4
REMARK H PARENT
REMARK Flexibility Score: inf
ROOT
ATOM      1  C   UNL     1       7.788 -22.174 -35.666  1.00  0.00     0.063 C 
ATOM      2  C   UNL     1       9.136 -22.001 -35.052  1.00  0.00     0.038 C 
ATOM      3  O   UNL     1       9.695 -20.873 -35.063  1.00  0.00    -0.550 OA
ATOM      4  O   UNL     1       9.803 -23.095 -34.516  1.00  0.00    -0.550 OA
ENDROOT
TORSDOF 0
ENDMDL
MODEL 7
REMARK VINA RESULT:    -1.925     13.873     14.347
REMARK INTER + INTRA:          -1.925
REMARK INTER:                  -1.925
REMARK INTRA:                   0.000
REMARK UNBOUND:                 0.000
REMARK SMILES CC(=O)[O-]
REMARK SMILES IDX 1 1 2 2 3 3 4 4
REMARK H PARENT
REMARK Flexibility Score: inf
ROOT
ATOM      1  C   UNL     1       4.877 -17.377 -32.490  1.00  0.00     0.063 C 
ATOM      2  C   UNL     1       5.274 -16.411 -33.554  1.00  0.00     0.038 C 
ATOM      3  O   UNL     1       5.370 -15.184 -33.291  1.00  0.00    -0.550 OA
ATOM      4  O   UNL     1       5.486 -16.856 -34.853  1.00  0.00    -0.550 OA
ENDROOT
TORSDOF 0
ENDMDL
MODEL 8
REMARK VINA RESULT:    -1.836      3.226      3.356
REMARK INTER + INTRA:          -1.836
REMARK INTER:                  -1.836
REMARK INTRA:                   0.000
REMARK UNBOUND:                 0.000
REMARK SMILES CC(=O)[O-]
REMARK SMILES IDX 1 1 2 2 3 3 4 4
REMARK H PARENT
REMARK Flexibility Score: inf
ROOT
ATOM      1  C   UNL     1       7.900 -10.813 -45.888  1.00  0.00     0.063 C 
ATOM      2  C   UNL     1       9.303 -10.762 -45.388  1.00  0.00     0.038 C 
ATOM      3  O   UNL     1       9.710  -9.756 -44.750  1.00  0.00    -0.550 OA
ATOM      4  O   UNL     1      10.182 -11.799 -45.673  1.00  0.00    -0.550 OA
ENDROOT
TORSDOF 0
ENDMDL
MODEL 9
REMARK VINA RESULT:    -1.758      3.443      4.037
REMARK INTER + INTRA:          -1.758
REMARK INTER:                  -1.758
REMARK INTRA:                   0.000
REMARK UNBOUND:                 0.000
REMARK SMILES CC(=O)[O-]
REMARK SMILES IDX 1 1 2 2 3 3 4 4
REMARK H PARENT
REMARK Flexibility Score: inf
ROOT
ATOM      1  C   UNL     1      14.437 -11.889 -43.371  1.00  0.00     0.063 C 
ATOM      2  C   UNL     1      13.000 -11.523 -43.534  1.00  0.00     0.038 C 
ATOM      3  O   UNL     1      12.680 -10.488 -44.175  1.00  0.00    -0.550 OA
ATOM      4  O   UNL     1      12.013 -12.293 -42.931  1.00  0.00    -0.550 OA
ENDROOT
TORSDOF 0
ENDMDL
