MODEL 1
REMARK VINA RESULT:    -2.513      0.000      0.000
REMARK INTER + INTRA:          -2.513
REMARK INTER:                  -2.513
REMARK INTRA:                   0.000
REMARK UNBOUND:                 0.000
REMARK SMILES CC(=O)[O-]
REMARK SMILES IDX 1 1 2 2 3 3 4 4
REMARK H PARENT
REMARK Flexibility Score: inf
ROOT
ATOM      1  C   UNL     1       9.333   6.792  79.039  1.00  0.00     0.063 C 
ATOM      2  C   UNL     1       8.777   5.521  79.584  1.00  0.00     0.038 C 
ATOM      3  O   UNL     1       7.541   5.412  79.797  1.00  0.00    -0.550 OA
ATOM      4  O   UNL     1       9.627   4.472  79.910  1.00  0.00    -0.550 OA
ENDROOT
TORSDOF 0
ENDMDL
MODEL 2
REMARK VINA RESULT:    -2.499      0.108      1.623
REMARK INTER + INTRA:          -2.499
REMARK INTER:                  -2.499
REMARK INTRA:                   0.000
REMARK UNBOUND:                 0.000
REMARK SMILES CC(=O)[O-]
REMARK SMILES IDX 1 1 2 2 3 3 4 4
REMARK H PARENT
REMARK Flexibility Score: inf
ROOT
ATOM      1  C   UNL     1       9.363   6.808  79.012  1.00  0.00     0.063 C 
ATOM      2  C   UNL     1       8.785   5.564  79.594  1.00  0.00     0.038 C 
ATOM      3  O   UNL     1       9.533   4.590  79.872  1.00  0.00    -0.550 OA
ATOM      4  O   UNL     1       7.413   5.454  79.781  1.00  0.00    -0.550 OA
ENDROOT
TORSDOF 0
ENDMDL
MODEL 3
REMARK VINA RESULT:    -2.424      1.421      1.767
REMARK INTER + INTRA:          -2.424
REMARK INTER:                  -2.424
REMARK INTRA:                   0.000
REMARK UNBOUND:                 0.000
REMARK SMILES CC(=O)[O-]
REMARK SMILES IDX 1 1 2 2 3 3 4 4
REMARK H PARENT
REMARK Flexibility Score: inf
ROOT
ATOM      1  C   UNL     1       9.586   4.501  79.942  1.00  0.00     0.063 C 
ATOM      2  C   UNL     1       8.666   5.598  79.526  1.00  0.00     0.038 C 
ATOM      3  O   UNL     1       7.438   5.530  79.799  1.00  0.00    -0.550 OA
ATOM      4  O   UNL     1       9.150   6.672  78.790  1.00  0.00    -0.550 OA
ENDROOT
TORSDOF 0
ENDMDL
MODEL 4
REMARK VINA RESULT:    -2.395      1.776      1.889
REMARK INTER + INTRA:          -2.395
REMARK INTER:                  -2.395
REMARK INTRA:                   0.000
REMARK UNBOUND:                 0.000
REMARK SMILES CC(=O)[O-]
REMARK SMILES IDX 1 1 2 2 3 3 4 4
REMARK H PARENT
REMARK Flexibility Score: inf
ROOT
ATOM      1  C   UNL     1       7.140   6.842  79.994  1.00  0.00     0.063 C 
ATOM      2  C   UNL     1       8.398   6.146  79.601  1.00  0.00     0.038 C 
ATOM      3  O   UNL     1       8.600   4.956  79.959  1.00  0.00    -0.550 OA
ATOM      4  O   UNL     1       9.375   6.825  78.885  1.00  0.00    -0.550 OA
ENDROOT
TORSDOF 0
ENDMDL
MODEL 5
REMARK VINA RESULT:    -2.389      1.680      1.758
REMARK INTER + INTRA:          -2.389
REMARK INTER:                  -2.389
REMARK INTRA:                   0.000
REMARK UNBOUND:                 0.000
REMARK SMILES CC(=O)[O-]
REMARK SMILES IDX 1 1 2 2 3 3 4 4
REMARK H PARENT
REMARK Flexibility Score: inf
ROOT
ATOM      1  C   UNL     1       7.345   6.773  79.990  1.00  0.00     0.063 C 
ATOM      2  C   UNL     1       8.631   6.154  79.561  1.00  0.00     0.038 C 
ATOM      3  O   UNL     1       9.439   6.805  78.847  1.00  0.00    -0.550 OA
ATOM      4  O   UNL     1       8.920   4.839  79.902  1.00  0.00    -0.550 OA
ENDROOT
TORSDOF 0
ENDMDL
MODEL 6
REMARK VINA RESULT:    -2.294      2.066      2.557
REMARK INTER + INTRA:          -2.294
REMARK INTER:                  -2.294
REMARK INTRA:                   0.000
REMARK UNBOUND:                 0.000
REMARK SMILES CC(=O)[O-]
REMARK SMILES IDX 1 1 2 2 3 3 4 4
REMARK H PARENT
REMARK Flexibility Score: inf
ROOT
ATOM      1  C   UNL     1       8.624   5.363  79.674  1.00  0.00     0.063 C 
ATOM      2  C   UNL     1       8.224   6.798  79.642  1.00  0.00     0.038 C 
ATOM      3  O   UNL     1       8.846   7.612  78.910  1.00  0.00    -0.550 OA
ATOM      4  O   UNL     1       7.196   7.253  80.459  1.00  0.00    -0.550 OA
ENDROOT
TORSDOF 0
ENDMDL
MODEL 7
REMARK VINA RESULT:    -2.293      1.195      1.977
REMARK INTER + INTRA:          -2.293
REMARK INTER:                  -2.293
REMARK INTRA:                   0.000
REMARK UNBOUND:                 0.000
REMARK SMILES CC(=O)[O-]
REMARK SMILES IDX 1 1 2 2 3 3 4 4
REMARK H PARENT
REMARK Flexibility Score: inf
ROOT
ATOM      1  C   UNL     1       9.277   7.613  79.241  1.00  0.00     0.063 C 
ATOM      2  C   UNL     1       8.334   6.536  79.654  1.00  0.00     0.038 C 
ATOM      3  O   UNL     1       8.676   5.327  79.562  1.00  0.00    -0.550 OA
ATOM      4  O   UNL     1       7.057   6.858  80.093  1.00  0.00    -0.550 OA
ENDROOT
TORSDOF 0
ENDMDL
MODEL 8
REMARK VINA RESULT:    -2.235      2.279      2.990
REMARK INTER + INTRA:          -2.235
REMARK INTER:                  -2.235
REMARK INTRA:                   0.000
REMARK UNBOUND:                 0.000
REMARK SMILES CC(=O)[O-]
REMARK SMILES IDX 1 1 2 2 3 3 4 4
REMARK H PARENT
REMARK Flexibility Score: inf
ROOT
ATOM      1  C   UNL     1       9.793   9.057  79.954  1.00  0.00     0.063 C 
ATOM      2  C   UNL     1       9.226   7.852  79.286  1.00  0.00     0.038 C 
ATOM      3  O   UNL     1       9.985   6.916  78.920  1.00  0.00    -0.550 OA
ATOM      4  O   UNL     1       7.865   7.780  79.017  1.00  0.00    -0.550 OA
ENDROOT
TORSDOF 0
ENDMDL
MODEL 9
REMARK VINA RESULT:    -2.212      2.193      2.453
REMARK INTER + INTRA:          -2.212
REMARK INTER:                  -2.212
REMARK INTRA:                   0.000
REMARK UNBOUND:                 0.000
REMARK SMILES CC(=O)[O-]
REMARK SMILES IDX 1 1 2 2 3 3 4 4
REMARK H PARENT
REMARK Flexibility Score: inf
ROOT
ATOM      1  C   UNL     1       7.384   8.338  80.686  1.00  0.00     0.063 C 
ATOM      2  C   UNL     1       7.884   7.240  79.811  1.00  0.00     0.038 C 
ATOM      3  O   UNL     1       7.463   6.064  79.969  1.00  0.00    -0.550 OA
ATOM      4  O   UNL     1       8.855   7.501  78.852  1.00  0.00    -0.550 OA
ENDROOT
TORSDOF 0
ENDMDL
