MODEL 1
REMARK VINA RESULT:    -5.277      0.000      0.000
REMARK INTER + INTRA:          -5.626
REMARK INTER:                  -5.586
REMARK INTRA:                  -0.040
REMARK UNBOUND:                -0.040
REMARK SMILES COc1ccc2ccc(=O)oc2c1
REMARK SMILES IDX 3 1 13 2 12 3 6 4 5 5 4 6 7 7 8 8 9 9 10 10 11 11 2 12 1 13
REMARK H PARENT
REMARK Flexibility Score: inf
ROOT
ATOM      1  C   UNL     1      -6.248 -11.396  28.429  1.00  0.00     0.122 A 
ATOM      2  C   UNL     1      -6.287 -10.636  29.606  1.00  0.00     0.094 A 
ATOM      3  C   UNL     1      -7.332  -9.735  29.837  1.00  0.00     0.142 A 
ATOM      4  C   UNL     1      -8.358  -9.589  28.877  1.00  0.00     0.018 A 
ATOM      5  C   UNL     1      -8.323 -10.347  27.699  1.00  0.00     0.016 A 
ATOM      6  C   UNL     1      -7.275 -11.245  27.476  1.00  0.00     0.047 A 
ATOM      7  C   UNL     1      -9.389  -8.681  29.134  1.00  0.00     0.019 A 
ATOM      8  C   UNL     1      -9.376  -7.952  30.322  1.00  0.00     0.094 A 
ATOM      9  C   UNL     1      -8.327  -8.148  31.228  1.00  0.00     0.336 A 
ATOM     10  O   UNL     1      -8.298  -7.498  32.306  1.00  0.00    -0.246 OA
ATOM     11  O   UNL     1      -7.359  -9.018  30.958  1.00  0.00    -0.423 OA
ENDROOT
BRANCH   1  12
ATOM     12  O   UNL     1      -5.178 -12.285  28.248  1.00  0.00    -0.497 OA
ATOM     13  C   UNL     1      -4.548 -13.009  29.300  1.00  0.00     0.278 C 
ENDBRANCH   1  12
TORSDOF 1
ENDMDL
MODEL 2
REMARK VINA RESULT:    -4.804      1.705      2.149
REMARK INTER + INTRA:          -5.125
REMARK INTER:                  -5.088
REMARK INTRA:                  -0.036
REMARK UNBOUND:                -0.040
REMARK SMILES COc1ccc2ccc(=O)oc2c1
REMARK SMILES IDX 3 1 13 2 12 3 6 4 5 5 4 6 7 7 8 8 9 9 10 10 11 11 2 12 1 13
REMARK H PARENT
REMARK Flexibility Score: inf
ROOT
ATOM      1  C   UNL     1      -7.822 -10.341  27.501  1.00  0.00     0.122 A 
ATOM      2  C   UNL     1      -7.003 -10.057  28.603  1.00  0.00     0.094 A 
ATOM      3  C   UNL     1      -7.498  -9.321  29.685  1.00  0.00     0.142 A 
ATOM      4  C   UNL     1      -8.832  -8.860  29.669  1.00  0.00     0.018 A 
ATOM      5  C   UNL     1      -9.654  -9.142  28.571  1.00  0.00     0.016 A 
ATOM      6  C   UNL     1      -9.153  -9.878  27.493  1.00  0.00     0.047 A 
ATOM      7  C   UNL     1      -9.298  -8.127  30.765  1.00  0.00     0.019 A 
ATOM      8  C   UNL     1      -8.439  -7.874  31.833  1.00  0.00     0.094 A 
ATOM      9  C   UNL     1      -7.128  -8.362  31.780  1.00  0.00     0.336 A 
ATOM     10  O   UNL     1      -6.337  -8.143  32.735  1.00  0.00    -0.246 OA
ATOM     11  O   UNL     1      -6.711  -9.057  30.726  1.00  0.00    -0.423 OA
ENDROOT
BRANCH   1  12
ATOM     12  O   UNL     1      -7.277 -11.083  26.443  1.00  0.00    -0.497 OA
ATOM     13  C   UNL     1      -6.124 -10.698  25.702  1.00  0.00     0.278 C 
ENDBRANCH   1  12
TORSDOF 1
ENDMDL
MODEL 3
REMARK VINA RESULT:    -4.765      1.956      4.299
REMARK INTER + INTRA:          -5.084
REMARK INTER:                  -5.046
REMARK INTRA:                  -0.038
REMARK UNBOUND:                -0.040
REMARK SMILES COc1ccc2ccc(=O)oc2c1
REMARK SMILES IDX 3 1 13 2 12 3 6 4 5 5 4 6 7 7 8 8 9 9 10 10 11 11 2 12 1 13
REMARK H PARENT
REMARK Flexibility Score: inf
ROOT
ATOM      1  C   UNL     1      -7.175  -8.272  31.667  1.00  0.00     0.122 A 
ATOM      2  C   UNL     1      -6.690  -9.039  30.599  1.00  0.00     0.094 A 
ATOM      3  C   UNL     1      -7.517  -9.354  29.516  1.00  0.00     0.142 A 
ATOM      4  C   UNL     1      -8.852  -8.894  29.496  1.00  0.00     0.018 A 
ATOM      5  C   UNL     1      -9.341  -8.127  30.560  1.00  0.00     0.016 A 
ATOM      6  C   UNL     1      -8.509  -7.816  31.640  1.00  0.00     0.047 A 
ATOM      7  C   UNL     1      -9.655  -9.225  28.400  1.00  0.00     0.019 A 
ATOM      8  C   UNL     1      -9.119  -9.992  27.366  1.00  0.00     0.094 A 
ATOM      9  C   UNL     1      -7.787 -10.412  27.454  1.00  0.00     0.336 A 
ATOM     10  O   UNL     1      -7.285 -11.106  26.531  1.00  0.00    -0.246 OA
ATOM     11  O   UNL     1      -7.045 -10.084  28.508  1.00  0.00    -0.423 OA
ENDROOT
BRANCH   1  12
ATOM     12  O   UNL     1      -6.304  -7.985  32.728  1.00  0.00    -0.497 OA
ATOM     13  C   UNL     1      -4.978  -7.491  32.568  1.00  0.00     0.278 C 
ENDBRANCH   1  12
TORSDOF 1
ENDMDL
MODEL 4
REMARK VINA RESULT:    -4.675      1.842      2.830
REMARK INTER + INTRA:          -4.988
REMARK INTER:                  -4.946
REMARK INTRA:                  -0.042
REMARK UNBOUND:                -0.040
REMARK SMILES COc1ccc2ccc(=O)oc2c1
REMARK SMILES IDX 3 1 13 2 12 3 6 4 5 5 4 6 7 7 8 8 9 9 10 10 11 11 2 12 1 13
REMARK H PARENT
REMARK Flexibility Score: inf
ROOT
ATOM      1  C   UNL     1      -5.299 -10.803  30.468  1.00  0.00     0.122 A 
ATOM      2  C   UNL     1      -6.311 -10.771  29.498  1.00  0.00     0.094 A 
ATOM      3  C   UNL     1      -7.371  -9.865  29.607  1.00  0.00     0.142 A 
ATOM      4  C   UNL     1      -7.424  -8.975  30.702  1.00  0.00     0.018 A 
ATOM      5  C   UNL     1      -6.415  -9.003  31.673  1.00  0.00     0.016 A 
ATOM      6  C   UNL     1      -5.358  -9.911  31.557  1.00  0.00     0.047 A 
ATOM      7  C   UNL     1      -8.496  -8.081  30.784  1.00  0.00     0.019 A 
ATOM      8  C   UNL     1      -9.474  -8.094  29.791  1.00  0.00     0.094 A 
ATOM      9  C   UNL     1      -9.357  -9.005  28.734  1.00  0.00     0.336 A 
ATOM     10  O   UNL     1     -10.231  -9.032  27.828  1.00  0.00    -0.246 OA
ATOM     11  O   UNL     1      -8.327  -9.844  28.681  1.00  0.00    -0.423 OA
ENDROOT
BRANCH   1  12
ATOM     12  O   UNL     1      -4.258 -11.730  30.311  1.00  0.00    -0.497 OA
ATOM     13  C   UNL     1      -4.334 -12.893  29.492  1.00  0.00     0.278 C 
ENDBRANCH   1  12
TORSDOF 1
ENDMDL
MODEL 5
REMARK VINA RESULT:    -4.639     15.016     16.746
REMARK INTER + INTRA:          -4.950
REMARK INTER:                  -4.919
REMARK INTRA:                  -0.031
REMARK UNBOUND:                -0.040
REMARK SMILES COc1ccc2ccc(=O)oc2c1
REMARK SMILES IDX 3 1 13 2 12 3 6 4 5 5 4 6 7 7 8 8 9 9 10 10 11 11 2 12 1 13
REMARK H PARENT
REMARK Flexibility Score: inf
ROOT
ATOM      1  C   UNL     1     -18.009 -17.449  17.483  1.00  0.00     0.122 A 
ATOM      2  C   UNL     1     -16.949 -17.040  18.304  1.00  0.00     0.094 A 
ATOM      3  C   UNL     1     -16.433 -17.900  19.280  1.00  0.00     0.142 A 
ATOM      4  C   UNL     1     -16.984 -19.190  19.440  1.00  0.00     0.018 A 
ATOM      5  C   UNL     1     -18.043 -19.603  18.621  1.00  0.00     0.016 A 
ATOM      6  C   UNL     1     -18.553 -18.739  17.648  1.00  0.00     0.047 A 
ATOM      7  C   UNL     1     -16.448 -20.027  20.423  1.00  0.00     0.019 A 
ATOM      8  C   UNL     1     -15.394 -19.568  21.212  1.00  0.00     0.094 A 
ATOM      9  C   UNL     1     -14.899 -18.276  20.997  1.00  0.00     0.336 A 
ATOM     10  O   UNL     1     -13.948 -17.843  21.700  1.00  0.00    -0.246 OA
ATOM     11  O   UNL     1     -15.427 -17.501  20.054  1.00  0.00    -0.423 OA
ENDROOT
BRANCH   1  12
ATOM     12  O   UNL     1     -18.488 -16.548  16.520  1.00  0.00    -0.497 OA
ATOM     13  C   UNL     1     -18.502 -16.802  15.119  1.00  0.00     0.278 C 
ENDBRANCH   1  12
TORSDOF 1
ENDMDL
MODEL 6
REMARK VINA RESULT:    -4.628     14.429     16.063
REMARK INTER + INTRA:          -4.938
REMARK INTER:                  -4.903
REMARK INTRA:                  -0.035
REMARK UNBOUND:                -0.040
REMARK SMILES COc1ccc2ccc(=O)oc2c1
REMARK SMILES IDX 3 1 13 2 12 3 6 4 5 5 4 6 7 7 8 8 9 9 10 10 11 11 2 12 1 13
REMARK H PARENT
REMARK Flexibility Score: inf
ROOT
ATOM      1  C   UNL     1     -15.103 -18.463  21.114  1.00  0.00     0.122 A 
ATOM      2  C   UNL     1     -15.222 -17.537  20.068  1.00  0.00     0.094 A 
ATOM      3  C   UNL     1     -16.172 -17.722  19.059  1.00  0.00     0.142 A 
ATOM      4  C   UNL     1     -17.021 -18.850  19.093  1.00  0.00     0.018 A 
ATOM      5  C   UNL     1     -16.906 -19.778  20.135  1.00  0.00     0.016 A 
ATOM      6  C   UNL     1     -15.954 -19.586  21.141  1.00  0.00     0.047 A 
ATOM      7  C   UNL     1     -17.961 -19.009  18.070  1.00  0.00     0.019 A 
ATOM      8  C   UNL     1     -18.034 -18.056  17.055  1.00  0.00     0.094 A 
ATOM      9  C   UNL     1     -17.160 -16.963  17.086  1.00  0.00     0.336 A 
ATOM     10  O   UNL     1     -17.211 -16.093  16.177  1.00  0.00    -0.246 OA
ATOM     11  O   UNL     1     -16.276 -16.836  18.071  1.00  0.00    -0.423 OA
ENDROOT
BRANCH   1  12
ATOM     12  O   UNL     1     -14.134 -18.229  22.101  1.00  0.00    -0.497 OA
ATOM     13  C   UNL     1     -12.730 -18.226  21.863  1.00  0.00     0.278 C 
ENDBRANCH   1  12
TORSDOF 1
ENDMDL
MODEL 7
REMARK VINA RESULT:    -4.571     14.350     16.081
REMARK INTER + INTRA:          -4.878
REMARK INTER:                  -4.835
REMARK INTRA:                  -0.043
REMARK UNBOUND:                -0.040
REMARK SMILES COc1ccc2ccc(=O)oc2c1
REMARK SMILES IDX 3 1 13 2 12 3 6 4 5 5 4 6 7 7 8 8 9 9 10 10 11 11 2 12 1 13
REMARK H PARENT
REMARK Flexibility Score: inf
ROOT
ATOM      1  C   UNL     1     -17.355 -18.678  18.514  1.00  0.00     0.122 A 
ATOM      2  C   UNL     1     -17.133 -19.553  19.586  1.00  0.00     0.094 A 
ATOM      3  C   UNL     1     -16.088 -19.323  20.487  1.00  0.00     0.142 A 
ATOM      4  C   UNL     1     -15.249 -18.200  20.316  1.00  0.00     0.018 A 
ATOM      5  C   UNL     1     -15.467 -17.323  19.246  1.00  0.00     0.016 A 
ATOM      6  C   UNL     1     -16.513 -17.559  18.350  1.00  0.00     0.047 A 
ATOM      7  C   UNL     1     -14.212 -17.996  21.232  1.00  0.00     0.019 A 
ATOM      8  C   UNL     1     -14.038 -18.899  22.280  1.00  0.00     0.094 A 
ATOM      9  C   UNL     1     -14.909 -19.990  22.387  1.00  0.00     0.336 A 
ATOM     10  O   UNL     1     -14.767 -20.817  23.326  1.00  0.00    -0.246 OA
ATOM     11  O   UNL     1     -15.887 -20.160  21.502  1.00  0.00    -0.423 OA
ENDROOT
BRANCH   1  12
ATOM     12  O   UNL     1     -18.417 -18.955  17.640  1.00  0.00    -0.497 OA
ATOM     13  C   UNL     1     -19.352 -20.013  17.822  1.00  0.00     0.278 C 
ENDBRANCH   1  12
TORSDOF 1
ENDMDL
MODEL 8
REMARK VINA RESULT:    -4.468     13.887     15.678
REMARK INTER + INTRA:          -4.769
REMARK INTER:                  -4.729
REMARK INTRA:                  -0.040
REMARK UNBOUND:                -0.040
REMARK SMILES COc1ccc2ccc(=O)oc2c1
REMARK SMILES IDX 3 1 13 2 12 3 6 4 5 5 4 6 7 7 8 8 9 9 10 10 11 11 2 12 1 13
REMARK H PARENT
REMARK Flexibility Score: inf
ROOT
ATOM      1  C   UNL     1     -16.963 -17.827  18.288  1.00  0.00     0.122 A 
ATOM      2  C   UNL     1     -15.790 -17.430  18.944  1.00  0.00     0.094 A 
ATOM      3  C   UNL     1     -15.287 -18.176  20.015  1.00  0.00     0.142 A 
ATOM      4  C   UNL     1     -15.965 -19.340  20.439  1.00  0.00     0.018 A 
ATOM      5  C   UNL     1     -17.138 -19.740  19.786  1.00  0.00     0.016 A 
ATOM      6  C   UNL     1     -17.634 -18.990  18.717  1.00  0.00     0.047 A 
ATOM      7  C   UNL     1     -15.439 -20.065  21.513  1.00  0.00     0.019 A 
ATOM      8  C   UNL     1     -14.269 -19.623  22.128  1.00  0.00     0.094 A 
ATOM      9  C   UNL     1     -13.650 -18.460  21.654  1.00  0.00     0.336 A 
ATOM     10  O   UNL     1     -12.593 -18.045  22.197  1.00  0.00    -0.246 OA
ATOM     11  O   UNL     1     -14.172 -17.789  20.631  1.00  0.00    -0.423 OA
ENDROOT
BRANCH   1  12
ATOM     12  O   UNL     1     -17.424 -17.043  17.220  1.00  0.00    -0.497 OA
ATOM     13  C   UNL     1     -16.578 -16.345  16.312  1.00  0.00     0.278 C 
ENDBRANCH   1  12
TORSDOF 1
ENDMDL
MODEL 9
REMARK VINA RESULT:    -4.345      9.067     11.715
REMARK INTER + INTRA:          -4.640
REMARK INTER:                  -4.609
REMARK INTRA:                  -0.030
REMARK UNBOUND:                -0.040
REMARK SMILES COc1ccc2ccc(=O)oc2c1
REMARK SMILES IDX 3 1 13 2 12 3 6 4 5 5 4 6 7 7 8 8 9 9 10 10 11 11 2 12 1 13
REMARK H PARENT
REMARK Flexibility Score: inf
ROOT
ATOM      1  C   UNL     1      -9.072 -13.576  20.515  1.00  0.00     0.122 A 
ATOM      2  C   UNL     1      -7.690 -13.813  20.487  1.00  0.00     0.094 A 
ATOM      3  C   UNL     1      -6.968 -13.668  19.298  1.00  0.00     0.142 A 
ATOM      4  C   UNL     1      -7.634 -13.280  18.115  1.00  0.00     0.018 A 
ATOM      5  C   UNL     1      -9.014 -13.042  18.138  1.00  0.00     0.016 A 
ATOM      6  C   UNL     1      -9.730 -13.188  19.330  1.00  0.00     0.047 A 
ATOM      7  C   UNL     1      -6.886 -13.144  16.942  1.00  0.00     0.019 A 
ATOM      8  C   UNL     1      -5.515 -13.393  16.973  1.00  0.00     0.094 A 
ATOM      9  C   UNL     1      -4.922 -13.775  18.182  1.00  0.00     0.336 A 
ATOM     10  O   UNL     1      -3.684 -14.004  18.229  1.00  0.00    -0.246 OA
ATOM     11  O   UNL     1      -5.657 -13.896  19.283  1.00  0.00    -0.423 OA
ENDROOT
BRANCH   1  12
ATOM     12  O   UNL     1      -9.748 -13.735  21.733  1.00  0.00    -0.497 OA
ATOM     13  C   UNL     1     -10.336 -12.669  22.471  1.00  0.00     0.278 C 
ENDBRANCH   1  12
TORSDOF 1
ENDMDL
