MODEL 1
REMARK VINA RESULT:    -2.946      0.000      0.000
REMARK INTER + INTRA:          -3.204
REMARK INTER:                  -3.204
REMARK INTRA:                   0.000
REMARK UNBOUND:                 0.000
REMARK SMILES [NH3+]CC(=O)[O-]
REMARK SMILES IDX 2 1 1 2 3 6 4 7 5 8
REMARK H PARENT 1 3 1 4 1 5
REMARK Flexibility Score: inf
ROOT
ATOM      1  C   UNL     1     -45.758  17.485 -24.291  1.00  0.00     0.312 C 
ENDROOT
BRANCH   1   2
ATOM      2  N   UNL     1     -44.318  17.573 -24.059  1.00  0.00    -0.353 N 
ATOM      3  H   UNL     1     -43.950  16.649 -23.733  1.00  0.00     0.344 HD
ATOM      4  H   UNL     1     -43.843  17.829 -24.955  1.00  0.00     0.344 HD
ATOM      5  H   UNL     1     -44.113  18.309 -23.344  1.00  0.00     0.344 HD
ENDBRANCH   1   2
BRANCH   1   6
ATOM      6  C   UNL     1     -46.325  16.264 -23.634  1.00  0.00     0.096 C 
ATOM      7  O   UNL     1     -45.584  15.278 -23.383  1.00  0.00    -0.544 OA
ATOM      8  O   UNL     1     -47.682  16.197 -23.345  1.00  0.00    -0.544 OA
ENDBRANCH   1   6
TORSDOF 2
ENDMDL
MODEL 2
REMARK VINA RESULT:    -2.692      9.763     10.026
REMARK INTER + INTRA:          -2.928
REMARK INTER:                  -2.928
REMARK INTRA:                   0.000
REMARK UNBOUND:                 0.000
REMARK SMILES [NH3+]CC(=O)[O-]
REMARK SMILES IDX 2 1 1 2 3 6 4 7 5 8
REMARK H PARENT 1 3 1 4 1 5
REMARK Flexibility Score: inf
ROOT
ATOM      1  C   UNL     1     -38.510  22.661 -28.370  1.00  0.00     0.312 C 
ENDROOT
BRANCH   1   2
ATOM      2  N   UNL     1     -39.481  23.505 -27.676  1.00  0.00    -0.353 N 
ATOM      3  H   UNL     1     -40.344  22.956 -27.460  1.00  0.00     0.344 HD
ATOM      4  H   UNL     1     -39.060  23.841 -26.779  1.00  0.00     0.344 HD
ATOM      5  H   UNL     1     -39.726  24.332 -28.268  1.00  0.00     0.344 HD
ENDBRANCH   1   2
BRANCH   1   6
ATOM      6  C   UNL     1     -39.158  21.400 -28.853  1.00  0.00     0.096 C 
ATOM      7  O   UNL     1     -40.298  21.438 -29.387  1.00  0.00    -0.544 OA
ATOM      8  O   UNL     1     -38.526  20.178 -28.667  1.00  0.00    -0.544 OA
ENDBRANCH   1   6
TORSDOF 2
ENDMDL
MODEL 3
REMARK VINA RESULT:    -2.610     10.059     10.281
REMARK INTER + INTRA:          -2.839
REMARK INTER:                  -2.839
REMARK INTRA:                   0.000
REMARK UNBOUND:                 0.000
REMARK SMILES [NH3+]CC(=O)[O-]
REMARK SMILES IDX 2 1 1 2 3 6 4 7 5 8
REMARK H PARENT 1 3 1 4 1 5
REMARK Flexibility Score: inf
ROOT
ATOM      1  C   UNL     1     -46.703   9.300 -29.475  1.00  0.00     0.312 C 
ENDROOT
BRANCH   1   2
ATOM      2  N   UNL     1     -47.502  10.504 -29.253  1.00  0.00    -0.353 N 
ATOM      3  H   UNL     1     -48.355  10.270 -28.694  1.00  0.00     0.344 HD
ATOM      4  H   UNL     1     -46.929  11.200 -28.722  1.00  0.00     0.344 HD
ATOM      5  H   UNL     1     -47.783  10.923 -30.170  1.00  0.00     0.344 HD
ENDBRANCH   1   2
BRANCH   1   6
ATOM      6  C   UNL     1     -47.478   8.292 -30.267  1.00  0.00     0.096 C 
ATOM      7  O   UNL     1     -47.703   8.486 -31.491  1.00  0.00    -0.544 OA
ATOM      8  O   UNL     1     -47.994   7.164 -29.642  1.00  0.00    -0.544 OA
ENDBRANCH   1   6
TORSDOF 2
ENDMDL
MODEL 4
REMARK VINA RESULT:    -2.602      9.008      9.265
REMARK INTER + INTRA:          -2.830
REMARK INTER:                  -2.830
REMARK INTRA:                   0.000
REMARK UNBOUND:                 0.000
REMARK SMILES [NH3+]CC(=O)[O-]
REMARK SMILES IDX 2 1 1 2 3 6 4 7 5 8
REMARK H PARENT 1 3 1 4 1 5
REMARK Flexibility Score: inf
ROOT
ATOM      1  C   UNL     1     -52.605  18.408 -31.278  1.00  0.00     0.312 C 
ENDROOT
BRANCH   1   2
ATOM      2  N   UNL     1     -52.262  19.793 -31.596  1.00  0.00    -0.353 N 
ATOM      3  H   UNL     1     -51.313  19.836 -32.035  1.00  0.00     0.344 HD
ATOM      4  H   UNL     1     -52.965  20.173 -32.270  1.00  0.00     0.344 HD
ATOM      5  H   UNL     1     -52.277  20.376 -30.726  1.00  0.00     0.344 HD
ENDBRANCH   1   2
BRANCH   1   6
ATOM      6  C   UNL     1     -51.746  17.895 -30.163  1.00  0.00     0.096 C 
ATOM      7  O   UNL     1     -50.743  17.178 -30.415  1.00  0.00    -0.544 OA
ATOM      8  O   UNL     1     -52.085  18.166 -28.844  1.00  0.00    -0.544 OA
ENDBRANCH   1   6
TORSDOF 2
ENDMDL
MODEL 5
REMARK VINA RESULT:    -2.585      7.990      8.440
REMARK INTER + INTRA:          -2.812
REMARK INTER:                  -2.812
REMARK INTRA:                   0.000
REMARK UNBOUND:                 0.000
REMARK SMILES [NH3+]CC(=O)[O-]
REMARK SMILES IDX 2 1 1 2 3 6 4 7 5 8
REMARK H PARENT 1 3 1 4 1 5
REMARK Flexibility Score: inf
ROOT
ATOM      1  C   UNL     1     -39.597  20.847 -28.964  1.00  0.00     0.312 C 
ENDROOT
BRANCH   1   2
ATOM      2  N   UNL     1     -40.745  21.737 -29.134  1.00  0.00    -0.353 N 
ATOM      3  H   UNL     1     -40.654  22.565 -28.502  1.00  0.00     0.344 HD
ATOM      4  H   UNL     1     -40.776  22.069 -30.125  1.00  0.00     0.344 HD
ATOM      5  H   UNL     1     -41.632  21.224 -28.920  1.00  0.00     0.344 HD
ENDBRANCH   1   2
BRANCH   1   6
ATOM      6  C   UNL     1     -40.051  19.450 -28.671  1.00  0.00     0.096 C 
ATOM      7  O   UNL     1     -39.642  18.491 -29.376  1.00  0.00    -0.544 OA
ATOM      8  O   UNL     1     -40.965  19.216 -27.652  1.00  0.00    -0.544 OA
ENDBRANCH   1   6
TORSDOF 2
ENDMDL
MODEL 6
REMARK VINA RESULT:    -2.584     10.735     11.078
REMARK INTER + INTRA:          -2.810
REMARK INTER:                  -2.810
REMARK INTRA:                   0.000
REMARK UNBOUND:                 0.000
REMARK SMILES [NH3+]CC(=O)[O-]
REMARK SMILES IDX 2 1 1 2 3 6 4 7 5 8
REMARK H PARENT 1 3 1 4 1 5
REMARK Flexibility Score: inf
ROOT
ATOM      1  C   UNL     1     -35.910  17.008 -30.254  1.00  0.00     0.312 C 
ENDROOT
BRANCH   1   2
ATOM      2  N   UNL     1     -35.742  15.631 -30.715  1.00  0.00    -0.353 N 
ATOM      3  H   UNL     1     -36.175  14.969 -30.030  1.00  0.00     0.344 HD
ATOM      4  H   UNL     1     -36.218  15.521 -31.639  1.00  0.00     0.344 HD
ATOM      5  H   UNL     1     -34.725  15.411 -30.827  1.00  0.00     0.344 HD
ENDBRANCH   1   2
BRANCH   1   6
ATOM      6  C   UNL     1     -37.323  17.251 -29.821  1.00  0.00     0.096 C 
ATOM      7  O   UNL     1     -37.561  17.779 -28.703  1.00  0.00    -0.544 OA
ATOM      8  O   UNL     1     -38.377  16.849 -30.630  1.00  0.00    -0.544 OA
ENDBRANCH   1   6
TORSDOF 2
ENDMDL
MODEL 7
REMARK VINA RESULT:    -2.557     11.261     11.602
REMARK INTER + INTRA:          -2.782
REMARK INTER:                  -2.782
REMARK INTRA:                   0.000
REMARK UNBOUND:                 0.000
REMARK SMILES [NH3+]CC(=O)[O-]
REMARK SMILES IDX 2 1 1 2 3 6 4 7 5 8
REMARK H PARENT 1 3 1 4 1 5
REMARK Flexibility Score: inf
ROOT
ATOM      1  C   UNL     1     -38.810  22.462 -28.410  1.00  0.00     0.312 C 
ENDROOT
BRANCH   1   2
ATOM      2  N   UNL     1     -39.419  23.548 -27.645  1.00  0.00    -0.353 N 
ATOM      3  H   UNL     1     -39.553  24.386 -28.256  1.00  0.00     0.344 HD
ATOM      4  H   UNL     1     -40.352  23.234 -27.292  1.00  0.00     0.344 HD
ATOM      5  H   UNL     1     -38.813  23.797 -26.829  1.00  0.00     0.344 HD
ENDBRANCH   1   2
BRANCH   1   6
ATOM      6  C   UNL     1     -37.355  22.734 -28.645  1.00  0.00     0.096 C 
ATOM      7  O   UNL     1     -36.661  23.280 -27.749  1.00  0.00    -0.544 OA
ATOM      8  O   UNL     1     -36.781  22.429 -29.872  1.00  0.00    -0.544 OA
ENDBRANCH   1   6
TORSDOF 2
ENDMDL
MODEL 8
REMARK VINA RESULT:    -2.508      8.745      8.940
REMARK INTER + INTRA:          -2.728
REMARK INTER:                  -2.728
REMARK INTRA:                   0.000
REMARK UNBOUND:                 0.000
REMARK SMILES [NH3+]CC(=O)[O-]
REMARK SMILES IDX 2 1 1 2 3 6 4 7 5 8
REMARK H PARENT 1 3 1 4 1 5
REMARK Flexibility Score: inf
ROOT
ATOM      1  C   UNL     1     -47.951   9.373 -29.684  1.00  0.00     0.312 C 
ENDROOT
BRANCH   1   2
ATOM      2  N   UNL     1     -46.572   9.852 -29.613  1.00  0.00    -0.353 N 
ATOM      3  H   UNL     1     -46.000   9.210 -29.017  1.00  0.00     0.344 HD
ATOM      4  H   UNL     1     -46.167   9.870 -30.577  1.00  0.00     0.344 HD
ATOM      5  H   UNL     1     -46.548  10.820 -29.216  1.00  0.00     0.344 HD
ENDBRANCH   1   2
BRANCH   1   6
ATOM      6  C   UNL     1     -48.906  10.452 -29.276  1.00  0.00     0.096 C 
ATOM      7  O   UNL     1     -49.940  10.674 -29.959  1.00  0.00    -0.544 OA
ATOM      8  O   UNL     1     -48.628  11.245 -28.170  1.00  0.00    -0.544 OA
ENDBRANCH   1   6
TORSDOF 2
ENDMDL
MODEL 9
REMARK VINA RESULT:    -2.487      8.731      9.101
REMARK INTER + INTRA:          -2.705
REMARK INTER:                  -2.705
REMARK INTRA:                   0.000
REMARK UNBOUND:                 0.000
REMARK SMILES [NH3+]CC(=O)[O-]
REMARK SMILES IDX 2 1 1 2 3 6 4 7 5 8
REMARK H PARENT 1 3 1 4 1 5
REMARK Flexibility Score: inf
ROOT
ATOM      1  C   UNL     1     -39.859  19.449 -28.583  1.00  0.00     0.312 C 
ENDROOT
BRANCH   1   2
ATOM      2  N   UNL     1     -41.074  19.352 -27.777  1.00  0.00    -0.353 N 
ATOM      3  H   UNL     1     -41.561  18.447 -27.970  1.00  0.00     0.344 HD
ATOM      4  H   UNL     1     -40.816  19.389 -26.764  1.00  0.00     0.344 HD
ATOM      5  H   UNL     1     -41.714  20.152 -27.993  1.00  0.00     0.344 HD
ENDBRANCH   1   2
BRANCH   1   6
ATOM      6  C   UNL     1     -39.592  20.873 -28.966  1.00  0.00     0.096 C 
ATOM      7  O   UNL     1     -38.455  21.378 -28.774  1.00  0.00    -0.544 OA
ATOM      8  O   UNL     1     -40.614  21.655 -29.489  1.00  0.00    -0.544 OA
ENDBRANCH   1   6
TORSDOF 2
ENDMDL
