MODEL 1
REMARK VINA RESULT:    -3.302      0.000      0.000
REMARK INTER + INTRA:          -6.947
REMARK INTER:                  -5.232
REMARK INTRA:                  -1.715
REMARK UNBOUND:                -1.715
REMARK SMILES CCCCCCCCCCCC(=O)[O-]
REMARK SMILES IDX 7 1 8 2 9 3 10 4 11 5 12 6 13 7 14 8 6 9 5 10 4 11 3 12 2 13
REMARK SMILES IDX 1 14
REMARK H PARENT
REMARK Flexibility Score: inf
ROOT
ATOM      1  C   UNL     1       2.116   9.980  38.339  1.00  0.00     0.000 C 
ENDROOT
BRANCH   1   2
ATOM      2  C   UNL     1       1.539  10.125  39.757  1.00  0.00     0.000 C 
BRANCH   2   3
ATOM      3  C   UNL     1       1.386   8.775  40.481  1.00  0.00     0.000 C 
BRANCH   3   4
ATOM      4  C   UNL     1       0.039   8.577  41.208  1.00  0.00     0.006 C 
BRANCH   4   5
ATOM      5  C   UNL     1      -0.682   7.263  40.868  1.00  0.00     0.053 C 
BRANCH   5   6
ATOM      6  C   UNL     1      -2.152   7.342  41.142  1.00  0.00     0.041 C 
ATOM      7  O   UNL     1      -2.979   7.225  40.198  1.00  0.00    -0.550 OA
ATOM      8  O   UNL     1      -2.611   7.510  42.441  1.00  0.00    -0.550 OA
ENDBRANCH   5   6
ENDBRANCH   4   5
ENDBRANCH   3   4
ENDBRANCH   2   3
ENDBRANCH   1   2
BRANCH   1   9
ATOM      9  C   UNL     1       2.380   8.515  37.958  1.00  0.00     0.000 C 
BRANCH   9  10
ATOM     10  C   UNL     1       1.463   8.027  36.822  1.00  0.00    -0.000 C 
BRANCH  10  11
ATOM     11  C   UNL     1       0.382   7.049  37.328  1.00  0.00    -0.000 C 
BRANCH  11  12
ATOM     12  C   UNL     1      -1.053   7.585  37.175  1.00  0.00    -0.000 C 
BRANCH  12  13
ATOM     13  C   UNL     1      -1.102   9.104  36.960  1.00  0.00    -0.003 C 
ATOM     14  C   UNL     1      -1.796   9.802  38.128  1.00  0.00     0.004 C 
ENDBRANCH  12  13
ENDBRANCH  11  12
ENDBRANCH  10  11
ENDBRANCH   9  10
ENDBRANCH   1   9
TORSDOF 10
ENDMDL
MODEL 2
REMARK VINA RESULT:    -3.219      2.363      4.396
REMARK INTER + INTRA:          -6.816
REMARK INTER:                  -5.421
REMARK INTRA:                  -1.396
REMARK UNBOUND:                -1.715
REMARK SMILES CCCCCCCCCCCC(=O)[O-]
REMARK SMILES IDX 7 1 8 2 9 3 10 4 11 5 12 6 13 7 14 8 6 9 5 10 4 11 3 12 2 13
REMARK SMILES IDX 1 14
REMARK H PARENT
REMARK Flexibility Score: inf
ROOT
ATOM      1  C   UNL     1       0.493   7.334  41.604  1.00  0.00     0.000 C 
ENDROOT
BRANCH   1   2
ATOM      2  C   UNL     1       1.098   7.901  40.309  1.00  0.00     0.000 C 
BRANCH   2   3
ATOM      3  C   UNL     1       1.120   9.440  40.283  1.00  0.00     0.000 C 
BRANCH   3   4
ATOM      4  C   UNL     1       0.686  10.074  38.945  1.00  0.00     0.006 C 
BRANCH   4   5
ATOM      5  C   UNL     1      -0.823  10.006  38.666  1.00  0.00     0.053 C 
BRANCH   5   6
ATOM      6  C   UNL     1      -1.125   9.334  37.362  1.00  0.00     0.041 C 
ATOM      7  O   UNL     1      -0.994   8.086  37.249  1.00  0.00    -0.550 OA
ATOM      8  O   UNL     1      -1.583  10.079  36.284  1.00  0.00    -0.550 OA
ENDBRANCH   5   6
ENDBRANCH   4   5
ENDBRANCH   3   4
ENDBRANCH   2   3
ENDBRANCH   1   2
BRANCH   1   9
ATOM      9  C   UNL     1      -0.751   8.112  42.063  1.00  0.00     0.000 C 
BRANCH   9  10
ATOM     10  C   UNL     1      -2.057   7.340  41.807  1.00  0.00    -0.000 C 
BRANCH  10  11
ATOM     11  C   UNL     1      -2.605   7.581  40.385  1.00  0.00    -0.000 C 
BRANCH  11  12
ATOM     12  C   UNL     1      -3.009   6.288  39.654  1.00  0.00    -0.000 C 
BRANCH  12  13
ATOM     13  C   UNL     1      -2.105   5.098  40.003  1.00  0.00    -0.003 C 
ATOM     14  C   UNL     1      -0.952   4.974  39.009  1.00  0.00     0.004 C 
ENDBRANCH  12  13
ENDBRANCH  11  12
ENDBRANCH  10  11
ENDBRANCH   9  10
ENDBRANCH   1   9
TORSDOF 10
ENDMDL
MODEL 3
REMARK VINA RESULT:    -3.192      2.764      4.766
REMARK INTER + INTRA:          -6.773
REMARK INTER:                  -5.363
REMARK INTRA:                  -1.410
REMARK UNBOUND:                -1.715
REMARK SMILES CCCCCCCCCCCC(=O)[O-]
REMARK SMILES IDX 7 1 8 2 9 3 10 4 11 5 12 6 13 7 14 8 6 9 5 10 4 11 3 12 2 13
REMARK SMILES IDX 1 14
REMARK H PARENT
REMARK Flexibility Score: inf
ROOT
ATOM      1  C   UNL     1      -0.993   9.654  39.040  1.00  0.00     0.000 C 
ENDROOT
BRANCH   1   2
ATOM      2  C   UNL     1      -1.763   9.725  37.711  1.00  0.00     0.000 C 
BRANCH   2   3
ATOM      3  C   UNL     1      -1.035   9.010  36.558  1.00  0.00     0.000 C 
BRANCH   3   4
ATOM      4  C   UNL     1       0.409   9.492  36.304  1.00  0.00     0.006 C 
BRANCH   4   5
ATOM      5  C   UNL     1       1.475   8.390  36.396  1.00  0.00     0.053 C 
BRANCH   5   6
ATOM      6  C   UNL     1       2.222   8.437  37.693  1.00  0.00     0.041 C 
ATOM      7  O   UNL     1       2.440   7.376  38.336  1.00  0.00    -0.550 OA
ATOM      8  O   UNL     1       2.706   9.645  38.175  1.00  0.00    -0.550 OA
ENDBRANCH   5   6
ENDBRANCH   4   5
ENDBRANCH   3   4
ENDBRANCH   2   3
ENDBRANCH   1   2
BRANCH   1   9
ATOM      9  C   UNL     1      -1.074   8.265  39.693  1.00  0.00     0.000 C 
BRANCH   9  10
ATOM     10  C   UNL     1      -2.518   7.858  40.035  1.00  0.00    -0.000 C 
BRANCH  10  11
ATOM     11  C   UNL     1      -2.835   6.414  39.592  1.00  0.00    -0.000 C 
BRANCH  11  12
ATOM     12  C   UNL     1      -1.622   5.671  39.006  1.00  0.00    -0.000 C 
BRANCH  12  13
ATOM     13  C   UNL     1      -1.799   5.314  37.524  1.00  0.00    -0.003 C 
ATOM     14  C   UNL     1      -0.449   5.218  36.816  1.00  0.00     0.004 C 
ENDBRANCH  12  13
ENDBRANCH  11  12
ENDBRANCH  10  11
ENDBRANCH   9  10
ENDBRANCH   1   9
TORSDOF 10
ENDMDL
MODEL 4
REMARK VINA RESULT:    -3.177      2.763      4.403
REMARK INTER + INTRA:          -6.749
REMARK INTER:                  -5.130
REMARK INTRA:                  -1.619
REMARK UNBOUND:                -1.715
REMARK SMILES CCCCCCCCCCCC(=O)[O-]
REMARK SMILES IDX 7 1 8 2 9 3 10 4 11 5 12 6 13 7 14 8 6 9 5 10 4 11 3 12 2 13
REMARK SMILES IDX 1 14
REMARK H PARENT
REMARK Flexibility Score: inf
ROOT
ATOM      1  C   UNL     1       1.134   9.820  39.749  1.00  0.00     0.000 C 
ENDROOT
BRANCH   1   2
ATOM      2  C   UNL     1      -0.152  10.123  38.962  1.00  0.00     0.000 C 
BRANCH   2   3
ATOM      3  C   UNL     1      -0.054   9.723  37.478  1.00  0.00     0.000 C 
BRANCH   3   4
ATOM      4  C   UNL     1      -0.879   8.480  37.085  1.00  0.00     0.006 C 
BRANCH   4   5
ATOM      5  C   UNL     1      -0.088   7.162  37.085  1.00  0.00     0.053 C 
BRANCH   5   6
ATOM      6  C   UNL     1       1.256   7.313  36.443  1.00  0.00     0.041 C 
ATOM      7  O   UNL     1       1.344   7.579  35.215  1.00  0.00    -0.550 OA
ATOM      8  O   UNL     1       2.410   7.196  37.206  1.00  0.00    -0.550 OA
ENDBRANCH   5   6
ENDBRANCH   4   5
ENDBRANCH   3   4
ENDBRANCH   2   3
ENDBRANCH   1   2
BRANCH   1   9
ATOM      9  C   UNL     1       0.885   8.897  40.952  1.00  0.00     0.000 C 
BRANCH   9  10
ATOM     10  C   UNL     1       0.804   7.414  40.551  1.00  0.00    -0.000 C 
BRANCH  10  11
ATOM     11  C   UNL     1      -0.445   6.722  41.136  1.00  0.00    -0.000 C 
BRANCH  11  12
ATOM     12  C   UNL     1      -1.643   7.670  41.323  1.00  0.00    -0.000 C 
BRANCH  12  13
ATOM     13  C   UNL     1      -2.659   7.580  40.176  1.00  0.00    -0.003 C 
ATOM     14  C   UNL     1      -2.730   6.163  39.613  1.00  0.00     0.004 C 
ENDBRANCH  12  13
ENDBRANCH  11  12
ENDBRANCH  10  11
ENDBRANCH   9  10
ENDBRANCH   1   9
TORSDOF 10
ENDMDL
MODEL 5
REMARK VINA RESULT:    -3.176      1.555      2.648
REMARK INTER + INTRA:          -6.748
REMARK INTER:                  -5.233
REMARK INTRA:                  -1.515
REMARK UNBOUND:                -1.715
REMARK SMILES CCCCCCCCCCCC(=O)[O-]
REMARK SMILES IDX 7 1 8 2 9 3 10 4 11 5 12 6 13 7 14 8 6 9 5 10 4 11 3 12 2 13
REMARK SMILES IDX 1 14
REMARK H PARENT
REMARK Flexibility Score: inf
ROOT
ATOM      1  C   UNL     1       0.860  10.086  39.025  1.00  0.00     0.000 C 
ENDROOT
BRANCH   1   2
ATOM      2  C   UNL     1      -0.241   9.996  37.954  1.00  0.00     0.000 C 
BRANCH   2   3
ATOM      3  C   UNL     1      -1.535   9.349  38.480  1.00  0.00     0.000 C 
BRANCH   3   4
ATOM      4  C   UNL     1      -1.356   8.462  39.729  1.00  0.00     0.006 C 
BRANCH   4   5
ATOM      5  C   UNL     1      -2.639   7.762  40.204  1.00  0.00     0.053 C 
BRANCH   5   6
ATOM      6  C   UNL     1      -2.582   6.281  39.996  1.00  0.00     0.041 C 
ATOM      7  O   UNL     1      -1.660   5.603  40.523  1.00  0.00    -0.550 OA
ATOM      8  O   UNL     1      -3.565   5.643  39.251  1.00  0.00    -0.550 OA
ENDBRANCH   5   6
ENDBRANCH   4   5
ENDBRANCH   3   4
ENDBRANCH   2   3
ENDBRANCH   1   2
BRANCH   1   9
ATOM      9  C   UNL     1       2.234   9.648  38.495  1.00  0.00     0.000 C 
BRANCH   9  10
ATOM     10  C   UNL     1       2.147   8.415  37.578  1.00  0.00    -0.000 C 
BRANCH  10  11
ATOM     11  C   UNL     1       2.305   7.096  38.363  1.00  0.00    -0.000 C 
BRANCH  11  12
ATOM     12  C   UNL     1       1.063   6.190  38.300  1.00  0.00    -0.000 C 
BRANCH  12  13
ATOM     13  C   UNL     1       0.240   6.394  37.020  1.00  0.00    -0.003 C 
ATOM     14  C   UNL     1      -0.874   5.355  36.912  1.00  0.00     0.004 C 
ENDBRANCH  12  13
ENDBRANCH  11  12
ENDBRANCH  10  11
ENDBRANCH   9  10
ENDBRANCH   1   9
TORSDOF 10
ENDMDL
MODEL 6
REMARK VINA RESULT:    -3.131      3.031      5.166
REMARK INTER + INTRA:          -6.676
REMARK INTER:                  -5.128
REMARK INTRA:                  -1.548
REMARK UNBOUND:                -1.715
REMARK SMILES CCCCCCCCCCCC(=O)[O-]
REMARK SMILES IDX 7 1 8 2 9 3 10 4 11 5 12 6 13 7 14 8 6 9 5 10 4 11 3 12 2 13
REMARK SMILES IDX 1 14
REMARK H PARENT
REMARK Flexibility Score: inf
ROOT
ATOM      1  C   UNL     1      -2.764   6.412  39.791  1.00  0.00     0.000 C 
ENDROOT
BRANCH   1   2
ATOM      2  C   UNL     1      -2.079   5.884  38.519  1.00  0.00     0.000 C 
BRANCH   2   3
ATOM      3  C   UNL     1      -0.797   5.085  38.818  1.00  0.00     0.000 C 
BRANCH   3   4
ATOM      4  C   UNL     1       0.493   5.679  38.216  1.00  0.00     0.006 C 
BRANCH   4   5
ATOM      5  C   UNL     1       0.278   6.517  36.946  1.00  0.00     0.053 C 
BRANCH   5   6
ATOM      6  C   UNL     1       1.555   6.738  36.195  1.00  0.00     0.041 C 
ATOM      7  O   UNL     1       1.525   7.143  35.003  1.00  0.00    -0.550 OA
ATOM      8  O   UNL     1       2.776   6.532  36.822  1.00  0.00    -0.550 OA
ENDBRANCH   5   6
ENDBRANCH   4   5
ENDBRANCH   3   4
ENDBRANCH   2   3
ENDBRANCH   1   2
BRANCH   1   9
ATOM      9  C   UNL     1      -2.324   7.842  40.145  1.00  0.00     0.000 C 
BRANCH   9  10
ATOM     10  C   UNL     1      -1.917   8.658  38.905  1.00  0.00    -0.000 C 
BRANCH  10  11
ATOM     11  C   UNL     1      -0.617   9.455  39.136  1.00  0.00    -0.000 C 
BRANCH  11  12
ATOM     12  C   UNL     1       0.229   8.927  40.309  1.00  0.00    -0.000 C 
BRANCH  12  13
ATOM     13  C   UNL     1       1.676   8.614  39.907  1.00  0.00    -0.003 C 
ATOM     14  C   UNL     1       2.133   9.507  38.756  1.00  0.00     0.004 C 
ENDBRANCH  12  13
ENDBRANCH  11  12
ENDBRANCH  10  11
ENDBRANCH   9  10
ENDBRANCH   1   9
TORSDOF 10
ENDMDL
MODEL 7
REMARK VINA RESULT:    -3.129      2.877      4.487
REMARK INTER + INTRA:          -6.674
REMARK INTER:                  -5.320
REMARK INTRA:                  -1.353
REMARK UNBOUND:                -1.715
REMARK SMILES CCCCCCCCCCCC(=O)[O-]
REMARK SMILES IDX 7 1 8 2 9 3 10 4 11 5 12 6 13 7 14 8 6 9 5 10 4 11 3 12 2 13
REMARK SMILES IDX 1 14
REMARK H PARENT
REMARK Flexibility Score: inf
ROOT
ATOM      1  C   UNL     1      -0.710   9.454  39.236  1.00  0.00     0.000 C 
ENDROOT
BRANCH   1   2
ATOM      2  C   UNL     1       0.129   8.979  40.434  1.00  0.00     0.000 C 
BRANCH   2   3
ATOM      3  C   UNL     1       1.505   8.427  40.018  1.00  0.00     0.000 C 
BRANCH   3   4
ATOM      4  C   UNL     1       1.458   7.154  39.147  1.00  0.00     0.006 C 
BRANCH   4   5
ATOM      5  C   UNL     1       2.318   7.219  37.875  1.00  0.00     0.053 C 
BRANCH   5   6
ATOM      6  C   UNL     1       1.892   8.328  36.964  1.00  0.00     0.041 C 
ATOM      7  O   UNL     1       0.844   8.214  36.275  1.00  0.00    -0.550 OA
ATOM      8  O   UNL     1       2.631   9.502  36.902  1.00  0.00    -0.550 OA
ENDBRANCH   5   6
ENDBRANCH   4   5
ENDBRANCH   3   4
ENDBRANCH   2   3
ENDBRANCH   1   2
BRANCH   1   9
ATOM      9  C   UNL     1      -1.860   8.490  38.903  1.00  0.00     0.000 C 
BRANCH   9  10
ATOM     10  C   UNL     1      -2.530   7.915  40.163  1.00  0.00    -0.000 C 
BRANCH  10  11
ATOM     11  C   UNL     1      -2.312   6.393  40.293  1.00  0.00    -0.000 C 
BRANCH  11  12
ATOM     12  C   UNL     1      -2.631   5.614  39.004  1.00  0.00    -0.000 C 
BRANCH  12  13
ATOM     13  C   UNL     1      -1.421   4.848  38.455  1.00  0.00    -0.003 C 
ATOM     14  C   UNL     1      -1.072   5.311  37.042  1.00  0.00     0.004 C 
ENDBRANCH  12  13
ENDBRANCH  11  12
ENDBRANCH  10  11
ENDBRANCH   9  10
ENDBRANCH   1   9
TORSDOF 10
ENDMDL
MODEL 8
REMARK VINA RESULT:    -3.098      3.572      5.027
REMARK INTER + INTRA:          -6.625
REMARK INTER:                  -5.410
REMARK INTRA:                  -1.215
REMARK UNBOUND:                -1.715
REMARK SMILES CCCCCCCCCCCC(=O)[O-]
REMARK SMILES IDX 7 1 8 2 9 3 10 4 11 5 12 6 13 7 14 8 6 9 5 10 4 11 3 12 2 13
REMARK SMILES IDX 1 14
REMARK H PARENT
REMARK Flexibility Score: inf
ROOT
ATOM      1  C   UNL     1       0.554   9.446  39.610  1.00  0.00     0.000 C 
ENDROOT
BRANCH   1   2
ATOM      2  C   UNL     1       1.934   9.894  39.097  1.00  0.00     0.000 C 
BRANCH   2   3
ATOM      3  C   UNL     1       2.028   9.900  37.561  1.00  0.00     0.000 C 
BRANCH   3   4
ATOM      4  C   UNL     1       2.014   8.504  36.904  1.00  0.00     0.006 C 
BRANCH   4   5
ATOM      5  C   UNL     1       0.891   8.292  35.877  1.00  0.00     0.053 C 
BRANCH   5   6
ATOM      6  C   UNL     1       1.293   8.737  34.505  1.00  0.00     0.041 C 
ATOM      7  O   UNL     1       1.698   7.894  33.660  1.00  0.00    -0.550 OA
ATOM      8  O   UNL     1       1.187  10.074  34.146  1.00  0.00    -0.550 OA
ENDBRANCH   5   6
ENDBRANCH   4   5
ENDBRANCH   3   4
ENDBRANCH   2   3
ENDBRANCH   1   2
BRANCH   1   9
ATOM      9  C   UNL     1      -0.602  10.109  38.844  1.00  0.00     0.000 C 
BRANCH   9  10
ATOM     10  C   UNL     1      -1.685   9.100  38.422  1.00  0.00    -0.000 C 
BRANCH  10  11
ATOM     11  C   UNL     1      -2.171   8.241  39.608  1.00  0.00    -0.000 C 
BRANCH  11  12
ATOM     12  C   UNL     1      -2.201   6.733  39.303  1.00  0.00    -0.000 C 
BRANCH  12  13
ATOM     13  C   UNL     1      -1.004   6.270  38.462  1.00  0.00    -0.003 C 
ATOM     14  C   UNL     1      -1.465   5.530  37.209  1.00  0.00     0.004 C 
ENDBRANCH  12  13
ENDBRANCH  11  12
ENDBRANCH  10  11
ENDBRANCH   9  10
ENDBRANCH   1   9
TORSDOF 10
ENDMDL
MODEL 9
REMARK VINA RESULT:    -3.082      2.910      4.539
REMARK INTER + INTRA:          -6.598
REMARK INTER:                  -5.353
REMARK INTRA:                  -1.245
REMARK UNBOUND:                -1.715
REMARK SMILES CCCCCCCCCCCC(=O)[O-]
REMARK SMILES IDX 7 1 8 2 9 3 10 4 11 5 12 6 13 7 14 8 6 9 5 10 4 11 3 12 2 13
REMARK SMILES IDX 1 14
REMARK H PARENT
REMARK Flexibility Score: inf
ROOT
ATOM      1  C   UNL     1      -1.411   8.674  39.280  1.00  0.00     0.000 C 
ENDROOT
BRANCH   1   2
ATOM      2  C   UNL     1      -2.602   7.825  39.755  1.00  0.00     0.000 C 
BRANCH   2   3
ATOM      3  C   UNL     1      -2.381   6.316  39.547  1.00  0.00     0.000 C 
BRANCH   3   4
ATOM      4  C   UNL     1      -1.180   5.953  38.649  1.00  0.00     0.006 C 
BRANCH   4   5
ATOM      5  C   UNL     1      -1.547   5.629  37.193  1.00  0.00     0.053 C 
BRANCH   5   6
ATOM      6  C   UNL     1      -0.445   4.904  36.484  1.00  0.00     0.041 C 
ATOM      7  O   UNL     1       0.527   5.545  36.003  1.00  0.00    -0.550 OA
ATOM      8  O   UNL     1      -0.473   3.520  36.383  1.00  0.00    -0.550 OA
ENDBRANCH   5   6
ENDBRANCH   4   5
ENDBRANCH   3   4
ENDBRANCH   2   3
ENDBRANCH   1   2
BRANCH   1   9
ATOM      9  C   UNL     1      -1.818   9.729  38.239  1.00  0.00     0.000 C 
BRANCH   9  10
ATOM     10  C   UNL     1      -1.114   9.524  36.886  1.00  0.00    -0.000 C 
BRANCH  10  11
ATOM     11  C   UNL     1       0.311   8.957  37.053  1.00  0.00    -0.000 C 
BRANCH  11  12
ATOM     12  C   UNL     1       1.371  10.033  37.349  1.00  0.00    -0.000 C 
BRANCH  12  13
ATOM     13  C   UNL     1       2.325   9.635  38.483  1.00  0.00    -0.003 C 
ATOM     14  C   UNL     1       2.247   8.137  38.767  1.00  0.00     0.004 C 
ENDBRANCH  12  13
ENDBRANCH  11  12
ENDBRANCH  10  11
ENDBRANCH   9  10
ENDBRANCH   1   9
TORSDOF 10
ENDMDL
