MODEL 1
REMARK VINA RESULT:    -3.088      0.000      0.000
REMARK INTER + INTRA:          -4.332
REMARK INTER:                  -4.171
REMARK INTRA:                  -0.161
REMARK UNBOUND:                -0.161
REMARK SMILES [NH3+]CCCC[C@@H]([NH3+])C(=O)[O-]
REMARK SMILES IDX 4 1 3 2 2 3 1 4 5 8 6 9 7 10 8 14 9 15 10 16
REMARK H PARENT 1 5 1 6 1 7 7 11 7 12 7 13
REMARK Flexibility Score: inf
ROOT
ATOM      1  C   UNL     1       0.136   6.049   3.053  1.00  0.00     0.012 C 
ENDROOT
BRANCH   1   2
ATOM      2  C   UNL     1      -1.204   6.661   2.625  1.00  0.00     0.061 C 
BRANCH   2   3
ATOM      3  C   UNL     1      -1.077   8.141   2.226  1.00  0.00     0.258 C 
BRANCH   3   4
ATOM      4  N   UNL     1      -2.218   8.601   1.434  1.00  0.00    -0.358 N 
ATOM      5  H   UNL     1      -2.331   8.009   0.579  1.00  0.00     0.344 HD
ATOM      6  H   UNL     1      -3.085   8.524   2.011  1.00  0.00     0.344 HD
ATOM      7  H   UNL     1      -2.092   9.602   1.161  1.00  0.00     0.344 HD
ENDBRANCH   3   4
ENDBRANCH   2   3
ENDBRANCH   1   2
BRANCH   1   8
ATOM      8  C   UNL     1       1.279   6.536   2.149  1.00  0.00     0.072 C 
BRANCH   8   9
ATOM      9  C   UNL     1       2.523   6.968   2.957  1.00  0.00     0.227 C 
BRANCH   9  10
ATOM     10  N   UNL     1       3.468   5.852   3.079  1.00  0.00    -0.350 N 
ATOM     11  H   UNL     1       3.250   5.293   3.936  1.00  0.00     0.345 HD
ATOM     12  H   UNL     1       3.383   5.222   2.248  1.00  0.00     0.345 HD
ATOM     13  H   UNL     1       4.452   6.206   3.140  1.00  0.00     0.345 HD
ENDBRANCH   9  10
BRANCH   9  14
ATOM     14  C   UNL     1       3.200   8.155   2.323  1.00  0.00     0.099 C 
ATOM     15  O   UNL     1       2.555   8.932   1.569  1.00  0.00    -0.544 OA
ATOM     16  O   UNL     1       4.543   8.405   2.578  1.00  0.00    -0.544 OA
ENDBRANCH   9  14
ENDBRANCH   8   9
ENDBRANCH   1   8
TORSDOF 7
ENDMDL
MODEL 2
REMARK VINA RESULT:    -3.085      1.556      1.980
REMARK INTER + INTRA:          -4.329
REMARK INTER:                  -3.842
REMARK INTRA:                  -0.487
REMARK UNBOUND:                -0.161
REMARK SMILES [NH3+]CCCC[C@@H]([NH3+])C(=O)[O-]
REMARK SMILES IDX 4 1 3 2 2 3 1 4 5 8 6 9 7 10 8 14 9 15 10 16
REMARK H PARENT 1 5 1 6 1 7 7 11 7 12 7 13
REMARK Flexibility Score: inf
ROOT
ATOM      1  C   UNL     1       0.595   4.811   3.825  1.00  0.00     0.012 C 
ENDROOT
BRANCH   1   2
ATOM      2  C   UNL     1      -0.711   5.589   4.030  1.00  0.00     0.061 C 
BRANCH   2   3
ATOM      3  C   UNL     1      -1.671   5.456   2.835  1.00  0.00     0.258 C 
BRANCH   3   4
ATOM      4  N   UNL     1      -2.142   6.756   2.356  1.00  0.00    -0.358 N 
ATOM      5  H   UNL     1      -1.352   7.441   2.322  1.00  0.00     0.344 HD
ATOM      6  H   UNL     1      -2.530   6.643   1.393  1.00  0.00     0.344 HD
ATOM      7  H   UNL     1      -2.902   7.119   2.976  1.00  0.00     0.344 HD
ENDBRANCH   3   4
ENDBRANCH   2   3
ENDBRANCH   1   2
BRANCH   1   8
ATOM      8  C   UNL     1       1.406   5.394   2.657  1.00  0.00     0.072 C 
BRANCH   8   9
ATOM      9  C   UNL     1       2.165   6.680   3.054  1.00  0.00     0.227 C 
BRANCH   9  10
ATOM     10  N   UNL     1       3.612   6.437   3.075  1.00  0.00    -0.350 N 
ATOM     11  H   UNL     1       3.800   5.408   3.059  1.00  0.00     0.345 HD
ATOM     12  H   UNL     1       4.055   6.863   2.228  1.00  0.00     0.345 HD
ATOM     13  H   UNL     1       4.045   6.853   3.932  1.00  0.00     0.345 HD
ENDBRANCH   9  10
BRANCH   9  14
ATOM     14  C   UNL     1       1.842   7.815   2.118  1.00  0.00     0.099 C 
ATOM     15  O   UNL     1       2.760   8.544   1.657  1.00  0.00    -0.544 OA
ATOM     16  O   UNL     1       0.525   8.056   1.748  1.00  0.00    -0.544 OA
ENDBRANCH   9  14
ENDBRANCH   8   9
ENDBRANCH   1   8
TORSDOF 7
ENDMDL
MODEL 3
REMARK VINA RESULT:    -3.083     11.027     12.245
REMARK INTER + INTRA:          -4.326
REMARK INTER:                  -4.164
REMARK INTRA:                  -0.161
REMARK UNBOUND:                -0.161
REMARK SMILES [NH3+]CCCC[C@@H]([NH3+])C(=O)[O-]
REMARK SMILES IDX 4 1 3 2 2 3 1 4 5 8 6 9 7 10 8 14 9 15 10 16
REMARK H PARENT 1 5 1 6 1 7 7 11 7 12 7 13
REMARK Flexibility Score: inf
ROOT
ATOM      1  C   UNL     1       4.667   9.353  -9.884  1.00  0.00     0.012 C 
ENDROOT
BRANCH   1   2
ATOM      2  C   UNL     1       6.176   9.195  -9.657  1.00  0.00     0.061 C 
BRANCH   2   3
ATOM      3  C   UNL     1       6.684  10.021  -8.463  1.00  0.00     0.258 C 
BRANCH   3   4
ATOM      4  N   UNL     1       7.603   9.261  -7.615  1.00  0.00    -0.358 N 
ATOM      5  H   UNL     1       7.670   8.270  -7.946  1.00  0.00     0.344 HD
ATOM      6  H   UNL     1       8.551   9.696  -7.665  1.00  0.00     0.344 HD
ATOM      7  H   UNL     1       7.283   9.284  -6.620  1.00  0.00     0.344 HD
ENDBRANCH   3   4
ENDBRANCH   2   3
ENDBRANCH   1   2
BRANCH   1   8
ATOM      8  C   UNL     1       3.923   9.515  -8.549  1.00  0.00     0.072 C 
BRANCH   8   9
ATOM      9  C   UNL     1       2.846  10.620  -8.608  1.00  0.00     0.227 C 
BRANCH   9  10
ATOM     10  N   UNL     1       1.504  10.027  -8.650  1.00  0.00    -0.350 N 
ATOM     11  H   UNL     1       1.062  10.212  -9.580  1.00  0.00     0.345 HD
ATOM     12  H   UNL     1       1.569   8.991  -8.520  1.00  0.00     0.345 HD
ATOM     13  H   UNL     1       0.898  10.428  -7.895  1.00  0.00     0.345 HD
ENDBRANCH   9  10
BRANCH   9  14
ATOM     14  C   UNL     1       2.962  11.559  -7.436  1.00  0.00     0.099 C 
ATOM     15  O   UNL     1       3.686  12.587  -7.510  1.00  0.00    -0.544 OA
ATOM     16  O   UNL     1       2.260  11.298  -6.266  1.00  0.00    -0.544 OA
ENDBRANCH   9  14
ENDBRANCH   8   9
ENDBRANCH   1   8
TORSDOF 7
ENDMDL
MODEL 4
REMARK VINA RESULT:    -2.984      2.395      4.195
REMARK INTER + INTRA:          -4.192
REMARK INTER:                  -3.663
REMARK INTRA:                  -0.529
REMARK UNBOUND:                -0.161
REMARK SMILES [NH3+]CCCC[C@@H]([NH3+])C(=O)[O-]
REMARK SMILES IDX 4 1 3 2 2 3 1 4 5 8 6 9 7 10 8 14 9 15 10 16
REMARK H PARENT 1 5 1 6 1 7 7 11 7 12 7 13
REMARK Flexibility Score: inf
ROOT
ATOM      1  C   UNL     1       2.752   5.274   4.202  1.00  0.00     0.012 C 
ENDROOT
BRANCH   1   2
ATOM      2  C   UNL     1       4.157   5.702   3.760  1.00  0.00     0.061 C 
BRANCH   2   3
ATOM      3  C   UNL     1       4.363   7.224   3.836  1.00  0.00     0.258 C 
BRANCH   3   4
ATOM      4  N   UNL     1       4.376   7.848   2.513  1.00  0.00    -0.358 N 
ATOM      5  H   UNL     1       3.852   8.754   2.530  1.00  0.00     0.344 HD
ATOM      6  H   UNL     1       5.366   8.039   2.237  1.00  0.00     0.344 HD
ATOM      7  H   UNL     1       3.956   7.206   1.803  1.00  0.00     0.344 HD
ENDBRANCH   3   4
ENDBRANCH   2   3
ENDBRANCH   1   2
BRANCH   1   8
ATOM      8  C   UNL     1       1.840   5.036   2.988  1.00  0.00     0.072 C 
BRANCH   8   9
ATOM      9  C   UNL     1       0.546   5.877   3.052  1.00  0.00     0.227 C 
BRANCH   9  10
ATOM     10  N   UNL     1       0.308   6.347   4.422  1.00  0.00    -0.350 N 
ATOM     11  H   UNL     1       0.569   5.599   5.105  1.00  0.00     0.345 HD
ATOM     12  H   UNL     1       0.899   7.188   4.617  1.00  0.00     0.345 HD
ATOM     13  H   UNL     1      -0.700   6.600   4.556  1.00  0.00     0.345 HD
ENDBRANCH   9  10
BRANCH   9  14
ATOM     14  C   UNL     1       0.608   7.047   2.105  1.00  0.00     0.099 C 
ATOM     15  O   UNL     1       1.654   7.277   1.441  1.00  0.00    -0.544 OA
ATOM     16  O   UNL     1      -0.497   7.875   1.952  1.00  0.00    -0.544 OA
ENDBRANCH   9  14
ENDBRANCH   8   9
ENDBRANCH   1   8
TORSDOF 7
ENDMDL
MODEL 5
REMARK VINA RESULT:    -2.968     11.572     12.323
REMARK INTER + INTRA:          -4.171
REMARK INTER:                  -3.782
REMARK INTRA:                  -0.389
REMARK UNBOUND:                -0.161
REMARK SMILES [NH3+]CCCC[C@@H]([NH3+])C(=O)[O-]
REMARK SMILES IDX 4 1 3 2 2 3 1 4 5 8 6 9 7 10 8 14 9 15 10 16
REMARK H PARENT 1 5 1 6 1 7 7 11 7 12 7 13
REMARK Flexibility Score: inf
ROOT
ATOM      1  C   UNL     1       5.553  11.642  -8.221  1.00  0.00     0.012 C 
ENDROOT
BRANCH   1   2
ATOM      2  C   UNL     1       4.252  11.291  -8.956  1.00  0.00     0.061 C 
BRANCH   2   3
ATOM      3  C   UNL     1       3.452  10.187  -8.245  1.00  0.00     0.258 C 
BRANCH   3   4
ATOM      4  N   UNL     1       3.934   8.848  -8.585  1.00  0.00    -0.358 N 
ATOM      5  H   UNL     1       3.827   8.203  -7.769  1.00  0.00     0.344 HD
ATOM      6  H   UNL     1       3.371   8.476  -9.382  1.00  0.00     0.344 HD
ATOM      7  H   UNL     1       4.936   8.887  -8.881  1.00  0.00     0.344 HD
ENDBRANCH   3   4
ENDBRANCH   2   3
ENDBRANCH   1   2
BRANCH   1   8
ATOM      8  C   UNL     1       6.778  11.358  -9.104  1.00  0.00     0.072 C 
BRANCH   8   9
ATOM      9  C   UNL     1       7.961  10.779  -8.296  1.00  0.00     0.227 C 
BRANCH   9  10
ATOM     10  N   UNL     1       8.089  11.469  -7.007  1.00  0.00    -0.350 N 
ATOM     11  H   UNL     1       7.276  11.228  -6.393  1.00  0.00     0.345 HD
ATOM     12  H   UNL     1       8.964  11.160  -6.524  1.00  0.00     0.345 HD
ATOM     13  H   UNL     1       8.122  12.506  -7.143  1.00  0.00     0.345 HD
ENDBRANCH   9  10
BRANCH   9  14
ATOM     14  C   UNL     1       7.799   9.298  -8.078  1.00  0.00     0.099 C 
ATOM     15  O   UNL     1       7.147   8.598  -8.899  1.00  0.00    -0.544 OA
ATOM     16  O   UNL     1       8.381   8.692  -6.971  1.00  0.00    -0.544 OA
ENDBRANCH   9  14
ENDBRANCH   8   9
ENDBRANCH   1   8
TORSDOF 7
ENDMDL
MODEL 6
REMARK VINA RESULT:    -2.914      1.891      2.104
REMARK INTER + INTRA:          -4.098
REMARK INTER:                  -3.927
REMARK INTRA:                  -0.171
REMARK UNBOUND:                -0.161
REMARK SMILES [NH3+]CCCC[C@@H]([NH3+])C(=O)[O-]
REMARK SMILES IDX 4 1 3 2 2 3 1 4 5 8 6 9 7 10 8 14 9 15 10 16
REMARK H PARENT 1 5 1 6 1 7 7 11 7 12 7 13
REMARK Flexibility Score: inf
ROOT
ATOM      1  C   UNL     1      -0.431   7.318   2.290  1.00  0.00     0.012 C 
ENDROOT
BRANCH   1   2
ATOM      2  C   UNL     1      -1.551   6.703   3.140  1.00  0.00     0.061 C 
BRANCH   2   3
ATOM      3  C   UNL     1      -1.676   5.183   2.941  1.00  0.00     0.258 C 
BRANCH   3   4
ATOM      4  N   UNL     1      -2.130   4.501   4.153  1.00  0.00    -0.358 N 
ATOM      5  H   UNL     1      -2.882   5.056   4.624  1.00  0.00     0.344 HD
ATOM      6  H   UNL     1      -2.517   3.567   3.893  1.00  0.00     0.344 HD
ATOM      7  H   UNL     1      -1.330   4.355   4.810  1.00  0.00     0.344 HD
ENDBRANCH   3   4
ENDBRANCH   2   3
ENDBRANCH   1   2
BRANCH   1   8
ATOM      8  C   UNL     1       0.697   7.865   3.178  1.00  0.00     0.072 C 
BRANCH   8   9
ATOM      9  C   UNL     1       2.068   7.240   2.835  1.00  0.00     0.227 C 
BRANCH   9  10
ATOM     10  N   UNL     1       1.900   6.106   1.919  1.00  0.00    -0.350 N 
ATOM     11  H   UNL     1       0.939   6.121   1.507  1.00  0.00     0.345 HD
ATOM     12  H   UNL     1       2.592   6.176   1.137  1.00  0.00     0.345 HD
ATOM     13  H   UNL     1       2.044   5.199   2.422  1.00  0.00     0.345 HD
ENDBRANCH   9  10
BRANCH   9  14
ATOM     14  C   UNL     1       2.997   8.261   2.233  1.00  0.00     0.099 C 
ATOM     15  O   UNL     1       2.546   9.188   1.509  1.00  0.00    -0.544 OA
ATOM     16  O   UNL     1       4.362   8.189   2.483  1.00  0.00    -0.544 OA
ENDBRANCH   9  14
ENDBRANCH   8   9
ENDBRANCH   1   8
TORSDOF 7
ENDMDL
MODEL 7
REMARK VINA RESULT:    -2.850      2.235      3.652
REMARK INTER + INTRA:          -4.012
REMARK INTER:                  -3.495
REMARK INTRA:                  -0.517
REMARK UNBOUND:                -0.161
REMARK SMILES [NH3+]CCCC[C@@H]([NH3+])C(=O)[O-]
REMARK SMILES IDX 4 1 3 2 2 3 1 4 5 8 6 9 7 10 8 14 9 15 10 16
REMARK H PARENT 1 5 1 6 1 7 7 11 7 12 7 13
REMARK Flexibility Score: inf
ROOT
ATOM      1  C   UNL     1       1.329   5.107   3.174  1.00  0.00     0.012 C 
ENDROOT
BRANCH   1   2
ATOM      2  C   UNL     1       2.423   4.108   2.772  1.00  0.00     0.061 C 
BRANCH   2   3
ATOM      3  C   UNL     1       3.657   4.184   3.688  1.00  0.00     0.258 C 
BRANCH   3   4
ATOM      4  N   UNL     1       4.708   5.035   3.130  1.00  0.00    -0.358 N 
ATOM      5  H   UNL     1       5.649   4.722   3.465  1.00  0.00     0.344 HD
ATOM      6  H   UNL     1       4.684   4.966   2.088  1.00  0.00     0.344 HD
ATOM      7  H   UNL     1       4.548   6.033   3.397  1.00  0.00     0.344 HD
ENDBRANCH   3   4
ENDBRANCH   2   3
ENDBRANCH   1   2
BRANCH   1   8
ATOM      8  C   UNL     1       1.314   6.317   2.228  1.00  0.00     0.072 C 
BRANCH   8   9
ATOM      9  C   UNL     1       1.706   7.628   2.946  1.00  0.00     0.227 C 
BRANCH   9  10
ATOM     10  N   UNL     1       2.096   7.355   4.334  1.00  0.00    -0.350 N 
ATOM     11  H   UNL     1       2.627   8.170   4.720  1.00  0.00     0.345 HD
ATOM     12  H   UNL     1       1.242   7.214   4.922  1.00  0.00     0.345 HD
ATOM     13  H   UNL     1       2.694   6.498   4.389  1.00  0.00     0.345 HD
ENDBRANCH   9  10
BRANCH   9  14
ATOM     14  C   UNL     1       2.822   8.333   2.222  1.00  0.00     0.099 C 
ATOM     15  O   UNL     1       2.573   9.283   1.432  1.00  0.00    -0.544 OA
ATOM     16  O   UNL     1       4.140   7.944   2.431  1.00  0.00    -0.544 OA
ENDBRANCH   9  14
ENDBRANCH   8   9
ENDBRANCH   1   8
TORSDOF 7
ENDMDL
MODEL 8
REMARK VINA RESULT:    -2.806      2.089      4.051
REMARK INTER + INTRA:          -3.952
REMARK INTER:                  -3.404
REMARK INTRA:                  -0.548
REMARK UNBOUND:                -0.161
REMARK SMILES [NH3+]CCCC[C@@H]([NH3+])C(=O)[O-]
REMARK SMILES IDX 4 1 3 2 2 3 1 4 5 8 6 9 7 10 8 14 9 15 10 16
REMARK H PARENT 1 5 1 6 1 7 7 11 7 12 7 13
REMARK Flexibility Score: inf
ROOT
ATOM      1  C   UNL     1       0.757   5.075   4.589  1.00  0.00     0.012 C 
ENDROOT
BRANCH   1   2
ATOM      2  C   UNL     1       0.903   4.082   3.428  1.00  0.00     0.061 C 
BRANCH   2   3
ATOM      3  C   UNL     1       2.366   3.894   2.991  1.00  0.00     0.258 C 
BRANCH   3   4
ATOM      4  N   UNL     1       3.107   5.156   2.985  1.00  0.00    -0.358 N 
ATOM      5  H   UNL     1       3.136   5.559   2.020  1.00  0.00     0.344 HD
ATOM      6  H   UNL     1       2.627   5.835   3.617  1.00  0.00     0.344 HD
ATOM      7  H   UNL     1       4.079   5.009   3.340  1.00  0.00     0.344 HD
ENDBRANCH   3   4
ENDBRANCH   2   3
ENDBRANCH   1   2
BRANCH   1   8
ATOM      8  C   UNL     1      -0.173   6.237   4.206  1.00  0.00     0.072 C 
BRANCH   8   9
ATOM      9  C   UNL     1      -0.481   6.266   2.693  1.00  0.00     0.227 C 
BRANCH   9  10
ATOM     10  N   UNL     1      -1.929   6.352   2.465  1.00  0.00    -0.350 N 
ATOM     11  H   UNL     1      -2.438   6.265   3.375  1.00  0.00     0.345 HD
ATOM     12  H   UNL     1      -2.168   7.280   2.045  1.00  0.00     0.345 HD
ATOM     13  H   UNL     1      -2.247   5.593   1.818  1.00  0.00     0.345 HD
ENDBRANCH   9  10
BRANCH   9  14
ATOM     14  C   UNL     1       0.219   7.415   2.016  1.00  0.00     0.099 C 
ATOM     15  O   UNL     1      -0.357   8.528   1.885  1.00  0.00    -0.544 OA
ATOM     16  O   UNL     1       1.515   7.254   1.540  1.00  0.00    -0.544 OA
ENDBRANCH   9  14
ENDBRANCH   8   9
ENDBRANCH   1   8
TORSDOF 7
ENDMDL
MODEL 9
REMARK VINA RESULT:    -2.754      3.265      5.061
REMARK INTER + INTRA:          -3.881
REMARK INTER:                  -3.718
REMARK INTRA:                  -0.163
REMARK UNBOUND:                -0.161
REMARK SMILES [NH3+]CCCC[C@@H]([NH3+])C(=O)[O-]
REMARK SMILES IDX 4 1 3 2 2 3 1 4 5 8 6 9 7 10 8 14 9 15 10 16
REMARK H PARENT 1 5 1 6 1 7 7 11 7 12 7 13
REMARK Flexibility Score: inf
ROOT
ATOM      1  C   UNL     1       0.524   8.743   3.472  1.00  0.00     0.012 C 
ENDROOT
BRANCH   1   2
ATOM      2  C   UNL     1       1.221   8.174   2.229  1.00  0.00     0.061 C 
BRANCH   2   3
ATOM      3  C   UNL     1       2.537   8.900   1.905  1.00  0.00     0.258 C 
BRANCH   3   4
ATOM      4  N   UNL     1       3.711   8.091   2.232  1.00  0.00    -0.358 N 
ATOM      5  H   UNL     1       4.588   8.594   1.964  1.00  0.00     0.344 HD
ATOM      6  H   UNL     1       3.727   7.915   3.261  1.00  0.00     0.344 HD
ATOM      7  H   UNL     1       3.665   7.169   1.741  1.00  0.00     0.344 HD
ENDBRANCH   3   4
ENDBRANCH   2   3
ENDBRANCH   1   2
BRANCH   1   8
ATOM      8  C   UNL     1      -0.789   9.445   3.094  1.00  0.00     0.072 C 
BRANCH   8   9
ATOM      9  C   UNL     1      -1.429   8.847   1.822  1.00  0.00     0.227 C 
BRANCH   9  10
ATOM     10  N   UNL     1      -2.494   7.901   2.179  1.00  0.00    -0.350 N 
ATOM     11  H   UNL     1      -2.195   7.322   2.997  1.00  0.00     0.345 HD
ATOM     12  H   UNL     1      -3.358   8.425   2.448  1.00  0.00     0.345 HD
ATOM     13  H   UNL     1      -2.714   7.270   1.372  1.00  0.00     0.345 HD
ENDBRANCH   9  10
BRANCH   9  14
ATOM     14  C   UNL     1      -1.974   9.927   0.925  1.00  0.00     0.099 C 
ATOM     15  O   UNL     1      -2.106  11.106   1.351  1.00  0.00    -0.544 OA
ATOM     16  O   UNL     1      -2.326   9.629  -0.386  1.00  0.00    -0.544 OA
ENDBRANCH   9  14
ENDBRANCH   8   9
ENDBRANCH   1   8
TORSDOF 7
ENDMDL
