MODEL 1
REMARK VINA RESULT:    -3.630      0.000      0.000
REMARK INTER + INTRA:          -4.675
REMARK INTER:                  -5.115
REMARK INTRA:                   0.440
REMARK UNBOUND:                 0.440
REMARK SMILES CC1=CCC(=C(C)C)C(=O)CC(C)=CCC1
REMARK SMILES IDX 12 1 14 2 13 3 15 4 16 5 2 6 1 7 3 8 11 10 9 11 10 12 5 13
REMARK SMILES IDX 6 14 7 15 8 16 4 17
REMARK H PARENT
REMARK Flexibility Score: 60.00
ROOT
ATOM      1  C   UNL     1      16.348  11.905  25.098  1.00  0.00    -0.070 C 
ATOM      2  C   UNL     1      16.768  10.868  24.337  1.00  0.00    -0.027 C 
ATOM      3  C   UNL     1      16.116  13.233  24.423  1.00  0.00     0.039 C 
ENDROOT
BRANCH   2   4
ATOM      4  C   UNL     1      16.992   9.457  24.833  1.00  0.00     0.032 C 
BRANCH   4   5
ATOM      5  C   UNL     1      15.751   8.578  24.618  1.00  0.00     0.034 C 
BRANCH   5   6
ATOM      6  C   UNL     1      15.344   7.786  25.852  1.00  0.00    -0.077 C 
ATOM      7  C   UNL     1      16.030   6.473  26.132  1.00  0.00     0.039 C 
ATOM      8  C   UNL     1      14.406   8.209  26.731  1.00  0.00    -0.023 CG0
ATOM      9  G   UNL     1      13.567   9.457  26.585  1.00  0.00     0.000 G0
ENDBRANCH   5   6
ENDBRANCH   4   5
ENDBRANCH   2   4
BRANCH   1  10
ATOM     10  C   UNL     1      16.106  11.788  26.592  1.00  0.00     0.111 C 
BRANCH  10  11
ATOM     11  C   UNL     1      14.636  11.788  26.903  1.00  0.00     0.163 C 
ATOM     12  O   UNL     1      13.946  12.808  26.633  1.00  0.00    -0.294 OA
BRANCH  11  13
ATOM     13  C   UNL     1      13.974  10.601  27.502  1.00  0.00    -0.002 C 
ATOM     14  C   UNL     1      13.750  10.543  28.843  1.00  0.00    -0.069 C 
ATOM     15  C   UNL     1      13.126   9.321  29.478  1.00  0.00     0.039 C 
ATOM     16  C   UNL     1      14.077  11.715  29.742  1.00  0.00     0.039 C 
BRANCH  13  17
ATOM     17  C   UNL     1      13.551   9.449  26.595  1.00  0.00     0.066 CG0
ATOM     18  G   UNL     1      14.399   8.209  26.752  1.00  0.00     0.000 G0
ENDBRANCH  13  17
ENDBRANCH  11  13
ENDBRANCH  10  11
ENDBRANCH   1  10
TORSDOF 0
ENDMDL
MODEL 2
REMARK VINA RESULT:    -3.602      2.348      4.505
REMARK INTER + INTRA:          -4.636
REMARK INTER:                  -4.941
REMARK INTRA:                   0.304
REMARK UNBOUND:                 0.440
REMARK SMILES CC1=CCC(=C(C)C)C(=O)CC(C)=CCC1
REMARK SMILES IDX 12 1 14 2 13 3 15 4 16 5 2 6 1 7 3 8 11 10 9 11 10 12 5 13
REMARK SMILES IDX 6 14 7 15 8 16 4 17
REMARK H PARENT
REMARK Flexibility Score: 60.00
ROOT
ATOM      1  C   UNL     1      16.108   9.478  25.971  1.00  0.00    -0.070 C 
ATOM      2  C   UNL     1      14.995   8.746  26.211  1.00  0.00    -0.027 C 
ATOM      3  C   UNL     1      17.291   8.786  25.344  1.00  0.00     0.039 C 
ENDROOT
BRANCH   2   4
ATOM      4  C   UNL     1      13.701   9.287  26.776  1.00  0.00     0.032 C 
BRANCH   4   5
ATOM      5  C   UNL     1      12.892  10.043  25.712  1.00  0.00     0.034 C 
BRANCH   5   6
ATOM      6  C   UNL     1      12.344  11.377  26.198  1.00  0.00    -0.077 C 
ATOM      7  C   UNL     1      11.296  11.382  27.281  1.00  0.00     0.039 C 
ATOM      8  C   UNL     1      12.764  12.572  25.721  1.00  0.00    -0.023 CG0
ATOM      9  G   UNL     1      13.751  12.769  24.594  1.00  0.00     0.000 G0
ENDBRANCH   5   6
ENDBRANCH   4   5
ENDBRANCH   2   4
BRANCH   1  10
ATOM     10  C   UNL     1      16.213  10.954  26.308  1.00  0.00     0.111 C 
BRANCH  10  11
ATOM     11  C   UNL     1      16.093  11.800  25.071  1.00  0.00     0.163 C 
ATOM     12  O   UNL     1      16.755  11.491  24.044  1.00  0.00    -0.294 OA
BRANCH  11  13
ATOM     13  C   UNL     1      15.192  12.980  25.028  1.00  0.00    -0.002 C 
ATOM     14  C   UNL     1      15.654  14.210  25.383  1.00  0.00    -0.069 C 
ATOM     15  C   UNL     1      14.739  15.413  25.397  1.00  0.00     0.039 C 
ATOM     16  C   UNL     1      17.109  14.427  25.737  1.00  0.00     0.039 C 
BRANCH  13  17
ATOM     17  C   UNL     1      13.746  12.794  24.581  1.00  0.00     0.066 CG0
ATOM     18  G   UNL     1      12.782  12.567  25.722  1.00  0.00     0.000 G0
ENDBRANCH  13  17
ENDBRANCH  11  13
ENDBRANCH  10  11
ENDBRANCH   1  10
TORSDOF 0
ENDMDL
MODEL 3
REMARK VINA RESULT:    -3.476     10.920     12.071
REMARK INTER + INTRA:          -4.458
REMARK INTER:                  -4.754
REMARK INTRA:                   0.295
REMARK UNBOUND:                 0.440
REMARK SMILES CC1=CCC(=C(C)C)C(=O)CC(C)=CCC1
REMARK SMILES IDX 12 1 14 2 13 3 15 4 16 5 2 6 1 7 3 8 11 10 9 11 10 12 5 13
REMARK SMILES IDX 6 14 7 15 8 16 4 17
REMARK H PARENT
REMARK Flexibility Score: 60.00
ROOT
ATOM      1  C   UNL     1      17.544   0.490  21.342  1.00  0.00    -0.070 C 
ATOM      2  C   UNL     1      16.764  -0.222  22.189  1.00  0.00    -0.027 C 
ATOM      3  C   UNL     1      18.716   1.242  21.919  1.00  0.00     0.039 C 
ENDROOT
BRANCH   2   4
ATOM      4  C   UNL     1      15.589  -1.080  21.778  1.00  0.00     0.032 C 
BRANCH   4   5
ATOM      5  C   UNL     1      14.302  -0.252  21.648  1.00  0.00     0.034 C 
BRANCH   5   6
ATOM      6  C   UNL     1      13.605  -0.419  20.305  1.00  0.00    -0.077 C 
ATOM      7  C   UNL     1      12.953  -1.740  19.984  1.00  0.00     0.039 C 
ATOM      8  C   UNL     1      13.519   0.568  19.384  1.00  0.00    -0.023 CG0
ATOM      9  G   UNL     1      14.163   1.930  19.495  1.00  0.00     0.000 G0
ENDBRANCH   5   6
ENDBRANCH   4   5
ENDBRANCH   2   4
BRANCH   1  10
ATOM     10  C   UNL     1      17.288   0.563  19.848  1.00  0.00     0.111 C 
BRANCH  10  11
ATOM     11  C   UNL     1      16.765   1.916  19.455  1.00  0.00     0.163 C 
ATOM     12  O   UNL     1      17.431   2.946  19.749  1.00  0.00    -0.294 OA
BRANCH  11  13
ATOM     13  C   UNL     1      15.489   2.064  18.710  1.00  0.00    -0.002 C 
ATOM     14  C   UNL     1      15.500   2.301  17.370  1.00  0.00    -0.069 C 
ATOM     15  C   UNL     1      14.214   2.507  16.603  1.00  0.00     0.039 C 
ATOM     16  C   UNL     1      16.797   2.326  16.590  1.00  0.00     0.039 C 
BRANCH  13  17
ATOM     17  C   UNL     1      14.169   1.946  19.465  1.00  0.00     0.066 CG0
ATOM     18  G   UNL     1      13.544   0.573  19.386  1.00  0.00     0.000 G0
ENDBRANCH  13  17
ENDBRANCH  11  13
ENDBRANCH  10  11
ENDBRANCH   1  10
TORSDOF 0
ENDMDL
MODEL 4
REMARK VINA RESULT:    -3.357      1.563      2.106
REMARK INTER + INTRA:          -4.291
REMARK INTER:                  -4.922
REMARK INTRA:                   0.631
REMARK UNBOUND:                 0.440
REMARK SMILES CC1=CCC(=C(C)C)C(=O)CC(C)=CCC1
REMARK SMILES IDX 12 1 14 2 13 3 15 4 16 5 2 6 1 7 3 8 11 10 9 11 10 12 5 13
REMARK SMILES IDX 6 14 7 15 8 16 4 17
REMARK H PARENT
REMARK Flexibility Score: 60.00
ROOT
ATOM      1  C   UNL     1      15.938  11.422  25.576  1.00  0.00    -0.070 C 
ATOM      2  C   UNL     1      16.732  10.567  24.890  1.00  0.00    -0.027 C 
ATOM      3  C   UNL     1      15.369  12.608  24.839  1.00  0.00     0.039 C 
ENDROOT
BRANCH   2   4
ATOM      4  C   UNL     1      17.336   9.300  25.451  1.00  0.00     0.032 C 
BRANCH   4   5
ATOM      5  C   UNL     1      16.705   8.047  24.826  1.00  0.00     0.034 C 
BRANCH   5   6
ATOM      6  C   UNL     1      15.678   7.371  25.723  1.00  0.00    -0.077 C 
ATOM      7  C   UNL     1      16.088   6.147  26.502  1.00  0.00     0.039 C 
ATOM      8  C   UNL     1      14.412   7.823  25.877  1.00  0.00    -0.023 CG0
ATOM      9  G   UNL     1      13.800   8.987  25.133  1.00  0.00     0.000 G0
ENDBRANCH   5   6
ENDBRANCH   4   5
ENDBRANCH   2   4
BRANCH   1  10
ATOM     10  C   UNL     1      15.602  11.240  27.044  1.00  0.00     0.111 C 
BRANCH  10  11
ATOM     11  C   UNL     1      14.320  10.474  27.214  1.00  0.00     0.163 C 
ATOM     12  O   UNL     1      13.972  10.098  28.366  1.00  0.00    -0.294 OA
BRANCH  11  13
ATOM     13  C   UNL     1      13.443  10.170  26.054  1.00  0.00    -0.002 C 
ATOM     14  C   UNL     1      12.350  10.940  25.799  1.00  0.00    -0.069 C 
ATOM     15  C   UNL     1      11.417  10.616  24.655  1.00  0.00     0.039 C 
ATOM     16  C   UNL     1      12.052  12.173  26.624  1.00  0.00     0.039 C 
BRANCH  13  17
ATOM     17  C   UNL     1      13.784   8.986  25.155  1.00  0.00     0.066 CG0
ATOM     18  G   UNL     1      14.415   7.827  25.891  1.00  0.00     0.000 G0
ENDBRANCH  13  17
ENDBRANCH  11  13
ENDBRANCH  10  11
ENDBRANCH   1  10
TORSDOF 0
ENDMDL
MODEL 5
REMARK VINA RESULT:    -3.323      2.115      3.349
REMARK INTER + INTRA:          -4.244
REMARK INTER:                  -4.586
REMARK INTRA:                   0.342
REMARK UNBOUND:                 0.440
REMARK SMILES CC1=CCC(=C(C)C)C(=O)CC(C)=CCC1
REMARK SMILES IDX 12 1 14 2 13 3 15 4 16 5 2 6 1 7 3 8 11 10 9 11 10 12 5 13
REMARK SMILES IDX 6 14 7 15 8 16 4 17
REMARK H PARENT
REMARK Flexibility Score: 60.00
ROOT
ATOM      1  C   UNL     1      15.055  14.547  24.834  1.00  0.00    -0.070 C 
ATOM      2  C   UNL     1      16.309  14.185  25.192  1.00  0.00    -0.027 C 
ATOM      3  C   UNL     1      14.647  15.985  25.032  1.00  0.00     0.039 C 
ENDROOT
BRANCH   2   4
ATOM      4  C   UNL     1      16.904  12.808  25.010  1.00  0.00     0.032 C 
BRANCH   4   5
ATOM      5  C   UNL     1      16.645  11.914  26.232  1.00  0.00     0.034 C 
BRANCH   5   6
ATOM      6  C   UNL     1      16.039  10.563  25.880  1.00  0.00    -0.077 C 
ATOM      7  C   UNL     1      16.915   9.517  25.239  1.00  0.00     0.039 C 
ATOM      8  C   UNL     1      14.749  10.238  26.130  1.00  0.00    -0.023 CG0
ATOM      9  G   UNL     1      13.705  11.170  26.701  1.00  0.00     0.000 G0
ENDBRANCH   5   6
ENDBRANCH   4   5
ENDBRANCH   2   4
BRANCH   1  10
ATOM     10  C   UNL     1      14.050  13.572  24.250  1.00  0.00     0.111 C 
BRANCH  10  11
ATOM     11  C   UNL     1      13.006  13.198  25.265  1.00  0.00     0.163 C 
ATOM     12  O   UNL     1      12.291  14.100  25.778  1.00  0.00    -0.294 OA
BRANCH  11  13
ATOM     13  C   UNL     1      12.788  11.783  25.661  1.00  0.00    -0.002 C 
ATOM     14  C   UNL     1      11.782  11.060  25.097  1.00  0.00    -0.069 C 
ATOM     15  C   UNL     1      11.510   9.636  25.525  1.00  0.00     0.039 C 
ATOM     16  C   UNL     1      10.927  11.639  23.991  1.00  0.00     0.039 C 
BRANCH  13  17
ATOM     17  C   UNL     1      13.703  11.154  26.706  1.00  0.00     0.066 CG0
ATOM     18  G   UNL     1      14.757  10.244  26.121  1.00  0.00     0.000 G0
ENDBRANCH  13  17
ENDBRANCH  11  13
ENDBRANCH  10  11
ENDBRANCH   1  10
TORSDOF 0
ENDMDL
MODEL 6
REMARK VINA RESULT:    -3.318      1.850      4.338
REMARK INTER + INTRA:          -4.237
REMARK INTER:                  -4.680
REMARK INTRA:                   0.443
REMARK UNBOUND:                 0.440
REMARK SMILES CC1=CCC(=C(C)C)C(=O)CC(C)=CCC1
REMARK SMILES IDX 12 1 14 2 13 3 15 4 16 5 2 6 1 7 3 8 11 10 9 11 10 12 5 13
REMARK SMILES IDX 6 14 7 15 8 16 4 17
REMARK H PARENT
REMARK Flexibility Score: 60.00
ROOT
ATOM      1  C   UNL     1      16.741  13.847  26.586  1.00  0.00    -0.070 C 
ATOM      2  C   UNL     1      16.182  14.041  27.803  1.00  0.00    -0.027 C 
ATOM      3  C   UNL     1      16.921  15.046  25.689  1.00  0.00     0.039 C 
ENDROOT
BRANCH   2   4
ATOM      4  C   UNL     1      15.983  12.969  28.850  1.00  0.00     0.032 C 
BRANCH   4   5
ATOM      5  C   UNL     1      14.497  12.785  29.195  1.00  0.00     0.034 C 
BRANCH   5   6
ATOM      6  C   UNL     1      13.583  12.809  27.979  1.00  0.00    -0.077 C 
ATOM      7  C   UNL     1      12.624  13.960  27.812  1.00  0.00     0.039 C 
ATOM      8  C   UNL     1      13.597  11.855  27.019  1.00  0.00    -0.023 CG0
ATOM      9  G   UNL     1      14.433  10.597  27.045  1.00  0.00     0.000 G0
ENDBRANCH   5   6
ENDBRANCH   4   5
ENDBRANCH   2   4
BRANCH   1  10
ATOM     10  C   UNL     1      17.187  12.484  26.090  1.00  0.00     0.111 C 
BRANCH  10  11
ATOM     11  C   UNL     1      16.065  11.771  25.389  1.00  0.00     0.163 C 
ATOM     12  O   UNL     1      15.615  12.237  24.308  1.00  0.00    -0.294 OA
BRANCH  11  13
ATOM     13  C   UNL     1      15.490  10.515  25.935  1.00  0.00    -0.002 C 
ATOM     14  C   UNL     1      15.901   9.307  25.458  1.00  0.00    -0.069 C 
ATOM     15  C   UNL     1      15.290   8.021  25.963  1.00  0.00     0.039 C 
ATOM     16  C   UNL     1      17.013   9.207  24.437  1.00  0.00     0.039 C 
BRANCH  13  17
ATOM     17  C   UNL     1      14.435  10.596  27.033  1.00  0.00     0.066 CG0
ATOM     18  G   UNL     1      13.619  11.867  26.999  1.00  0.00     0.000 G0
ENDBRANCH  13  17
ENDBRANCH  11  13
ENDBRANCH  10  11
ENDBRANCH   1  10
TORSDOF 0
ENDMDL
MODEL 7
REMARK VINA RESULT:    -3.256      9.363     11.478
REMARK INTER + INTRA:          -4.149
REMARK INTER:                  -4.623
REMARK INTRA:                   0.475
REMARK UNBOUND:                 0.440
REMARK SMILES CC1=CCC(=C(C)C)C(=O)CC(C)=CCC1
REMARK SMILES IDX 12 1 14 2 13 3 15 4 16 5 2 6 1 7 3 8 11 10 9 11 10 12 5 13
REMARK SMILES IDX 6 14 7 15 8 16 4 17
REMARK H PARENT
REMARK Flexibility Score: 60.00
ROOT
ATOM      1  C   UNL     1      15.544   5.260  17.595  1.00  0.00    -0.070 C 
ATOM      2  C   UNL     1      15.051   6.290  18.321  1.00  0.00    -0.027 C 
ATOM      3  C   UNL     1      16.805   4.590  18.078  1.00  0.00     0.039 C 
ENDROOT
BRANCH   2   4
ATOM      4  C   UNL     1      13.771   7.036  18.020  1.00  0.00     0.032 C 
BRANCH   4   5
ATOM      5  C   UNL     1      12.740   6.867  19.146  1.00  0.00     0.034 C 
BRANCH   5   6
ATOM      6  C   UNL     1      12.537   5.420  19.574  1.00  0.00    -0.077 C 
ATOM      7  C   UNL     1      12.988   4.998  20.949  1.00  0.00     0.039 C 
ATOM      8  C   UNL     1      11.952   4.488  18.787  1.00  0.00    -0.023 CG0
ATOM      9  G   UNL     1      11.500   4.701  17.362  1.00  0.00     0.000 G0
ENDBRANCH   5   6
ENDBRANCH   4   5
ENDBRANCH   2   4
BRANCH   1  10
ATOM     10  C   UNL     1      14.885   4.758  16.323  1.00  0.00     0.111 C 
BRANCH  10  11
ATOM     11  C   UNL     1      13.815   3.749  16.631  1.00  0.00     0.163 C 
ATOM     12  O   UNL     1      14.130   2.664  17.191  1.00  0.00    -0.294 OA
BRANCH  11  13
ATOM     13  C   UNL     1      12.390   4.013  16.307  1.00  0.00    -0.002 C 
ATOM     14  C   UNL     1      11.883   3.659  15.095  1.00  0.00    -0.069 C 
ATOM     15  C   UNL     1      10.450   3.967  14.727  1.00  0.00     0.039 C 
ATOM     16  C   UNL     1      12.724   2.906  14.086  1.00  0.00     0.039 C 
BRANCH  13  17
ATOM     17  C   UNL     1      11.503   4.685  17.351  1.00  0.00     0.066 CG0
ATOM     18  G   UNL     1      11.969   4.471  18.772  1.00  0.00     0.000 G0
ENDBRANCH  13  17
ENDBRANCH  11  13
ENDBRANCH  10  11
ENDBRANCH   1  10
TORSDOF 0
ENDMDL
MODEL 8
REMARK VINA RESULT:    -3.217      2.225      4.148
REMARK INTER + INTRA:          -4.093
REMARK INTER:                  -4.443
REMARK INTRA:                   0.349
REMARK UNBOUND:                 0.440
REMARK SMILES CC1=CCC(=C(C)C)C(=O)CC(C)=CCC1
REMARK SMILES IDX 12 1 14 2 13 3 15 4 16 5 2 6 1 7 3 8 11 10 9 11 10 12 5 13
REMARK SMILES IDX 6 14 7 15 8 16 4 17
REMARK H PARENT
REMARK Flexibility Score: 60.00
ROOT
ATOM      1  C   UNL     1      16.403  10.549  25.187  1.00  0.00    -0.070 C 
ATOM      2  C   UNL     1      16.731  11.737  24.627  1.00  0.00    -0.027 C 
ATOM      3  C   UNL     1      16.833   9.288  24.481  1.00  0.00     0.039 C 
ENDROOT
BRANCH   2   4
ATOM      4  C   UNL     1      16.436  13.093  25.225  1.00  0.00     0.032 C 
BRANCH   4   5
ATOM      5  C   UNL     1      15.126  13.680  24.677  1.00  0.00     0.034 C 
BRANCH   5   6
ATOM      6  C   UNL     1      14.249  14.314  25.746  1.00  0.00    -0.077 C 
ATOM      7  C   UNL     1      14.623  15.673  26.282  1.00  0.00     0.039 C 
ATOM      8  C   UNL     1      13.131  13.729  26.235  1.00  0.00    -0.023 CG0
ATOM      9  G   UNL     1      12.634  12.349  25.874  1.00  0.00     0.000 G0
ENDBRANCH   5   6
ENDBRANCH   4   5
ENDBRANCH   2   4
BRANCH   1  10
ATOM     10  C   UNL     1      15.624  10.435  26.484  1.00  0.00     0.111 C 
BRANCH  10  11
ATOM     11  C   UNL     1      14.154  10.269  26.219  1.00  0.00     0.163 C 
ATOM     12  O   UNL     1      13.756   9.288  25.533  1.00  0.00    -0.294 OA
BRANCH  11  13
ATOM     13  C   UNL     1      13.158  11.225  26.766  1.00  0.00    -0.002 C 
ATOM     14  C   UNL     1      12.727  11.108  28.051  1.00  0.00    -0.069 C 
ATOM     15  C   UNL     1      11.675  12.038  28.610  1.00  0.00     0.039 C 
ATOM     16  C   UNL     1      13.314  10.069  28.982  1.00  0.00     0.039 C 
BRANCH  13  17
ATOM     17  C   UNL     1      12.627  12.339  25.869  1.00  0.00     0.066 CG0
ATOM     18  G   UNL     1      13.129  13.713  26.244  1.00  0.00     0.000 G0
ENDBRANCH  13  17
ENDBRANCH  11  13
ENDBRANCH  10  11
ENDBRANCH   1  10
TORSDOF 0
ENDMDL
MODEL 9
REMARK VINA RESULT:    -3.107      8.706     10.596
REMARK INTER + INTRA:          -3.938
REMARK INTER:                  -4.398
REMARK INTRA:                   0.459
REMARK UNBOUND:                 0.440
REMARK SMILES CC1=CCC(=C(C)C)C(=O)CC(C)=CCC1
REMARK SMILES IDX 12 1 14 2 13 3 15 4 16 5 2 6 1 7 3 8 11 10 9 11 10 12 5 13
REMARK SMILES IDX 6 14 7 15 8 16 4 17
REMARK H PARENT
REMARK Flexibility Score: 60.00
ROOT
ATOM      1  C   UNL     1      15.318   3.565  16.171  1.00  0.00    -0.070 C 
ATOM      2  C   UNL     1      16.186   2.848  16.922  1.00  0.00    -0.027 C 
ATOM      3  C   UNL     1      14.918   3.011  14.827  1.00  0.00     0.039 C 
ENDROOT
BRANCH   2   4
ATOM      4  C   UNL     1      16.648   3.221  18.313  1.00  0.00     0.032 C 
BRANCH   4   5
ATOM      5  C   UNL     1      16.223   2.171  19.350  1.00  0.00     0.034 C 
BRANCH   5   6
ATOM      6  C   UNL     1      14.747   1.809  19.279  1.00  0.00    -0.077 C 
ATOM      7  C   UNL     1      14.360   0.407  18.880  1.00  0.00     0.039 C 
ATOM      8  C   UNL     1      13.753   2.678  19.577  1.00  0.00    -0.023 CG0
ATOM      9  G   UNL     1      13.938   4.135  19.928  1.00  0.00     0.000 G0
ENDBRANCH   5   6
ENDBRANCH   4   5
ENDBRANCH   2   4
BRANCH   1  10
ATOM     10  C   UNL     1      14.739   4.893  16.620  1.00  0.00     0.111 C 
BRANCH  10  11
ATOM     11  C   UNL     1      13.490   4.691  17.433  1.00  0.00     0.163 C 
ATOM     12  O   UNL     1      12.487   4.146  16.899  1.00  0.00    -0.294 OA
BRANCH  11  13
ATOM     13  C   UNL     1      13.423   5.101  18.858  1.00  0.00    -0.002 C 
ATOM     14  C   UNL     1      12.920   6.319  19.200  1.00  0.00    -0.069 C 
ATOM     15  C   UNL     1      12.892   6.775  20.640  1.00  0.00     0.039 C 
ATOM     16  C   UNL     1      12.331   7.243  18.156  1.00  0.00     0.039 C 
BRANCH  13  17
ATOM     17  C   UNL     1      13.925   4.141  19.932  1.00  0.00     0.066 CG0
ATOM     18  G   UNL     1      13.763   2.684  19.567  1.00  0.00     0.000 G0
ENDBRANCH  13  17
ENDBRANCH  11  13
ENDBRANCH  10  11
ENDBRANCH   1  10
TORSDOF 0
ENDMDL
