MODEL 1
REMARK VINA RESULT:    -2.741      0.000      0.000
REMARK INTER + INTRA:          -3.789
REMARK INTER:                  -3.622
REMARK INTRA:                  -0.167
REMARK UNBOUND:                -0.167
REMARK SMILES C=CCC[C@H](O)CCC
REMARK SMILES IDX 4 1 5 2 7 3 8 4 9 5 6 6 3 8 2 9 1 10
REMARK H PARENT 6 7
REMARK Flexibility Score: inf
ROOT
ATOM      1  C   UNL     1     -35.079  34.638 -11.427  1.00  0.00     0.036 C 
ENDROOT
BRANCH   1   2
ATOM      2  C   UNL     1     -36.514  34.700 -10.866  1.00  0.00     0.114 C 
BRANCH   2   3
ATOM      3  C   UNL     1     -36.908  33.489  -9.988  1.00  0.00     0.031 C 
BRANCH   3   4
ATOM      4  C   UNL     1     -38.296  32.916 -10.317  1.00  0.00    -0.001 C 
ATOM      5  C   UNL     1     -38.405  32.555 -11.795  1.00  0.00     0.004 C 
ENDBRANCH   3   4
ENDBRANCH   2   3
BRANCH   2   6
ATOM      6  O   UNL     1     -36.658  35.890 -10.132  1.00  0.00    -0.393 OA
ATOM      7  H   UNL     1     -37.482  36.335 -10.461  1.00  0.00     0.210 HD
ENDBRANCH   2   6
ENDBRANCH   1   2
BRANCH   1   8
ATOM      8  C   UNL     1     -34.522  36.017 -11.812  1.00  0.00     0.029 C 
BRANCH   8   9
ATOM      9  C   UNL     1     -33.020  36.041 -11.727  1.00  0.00    -0.035 C 
ATOM     10  C   UNL     1     -32.276  35.005 -12.125  1.00  0.00     0.004 C 
ENDBRANCH   8   9
ENDBRANCH   1   8
TORSDOF 6
ENDMDL
MODEL 2
REMARK VINA RESULT:    -2.697     19.689     21.332
REMARK INTER + INTRA:          -3.731
REMARK INTER:                  -3.626
REMARK INTRA:                  -0.105
REMARK UNBOUND:                -0.167
REMARK SMILES C=CCC[C@H](O)CCC
REMARK SMILES IDX 4 1 5 2 7 3 8 4 9 5 6 6 3 8 2 9 1 10
REMARK H PARENT 6 7
REMARK Flexibility Score: inf
ROOT
ATOM      1  C   UNL     1     -37.648  22.962   5.599  1.00  0.00     0.036 C 
ENDROOT
BRANCH   1   2
ATOM      2  C   UNL     1     -38.147  23.203   7.038  1.00  0.00     0.114 C 
BRANCH   2   3
ATOM      3  C   UNL     1     -37.417  22.363   8.114  1.00  0.00     0.031 C 
BRANCH   3   4
ATOM      4  C   UNL     1     -37.639  20.849   7.968  1.00  0.00    -0.001 C 
ATOM      5  C   UNL     1     -39.119  20.497   8.085  1.00  0.00     0.004 C 
ENDBRANCH   3   4
ENDBRANCH   2   3
BRANCH   2   6
ATOM      6  O   UNL     1     -38.022  24.570   7.333  1.00  0.00    -0.393 OA
ATOM      7  H   UNL     1     -38.751  24.797   7.968  1.00  0.00     0.210 HD
ENDBRANCH   2   6
ENDBRANCH   1   2
BRANCH   1   8
ATOM      8  C   UNL     1     -38.791  22.774   4.589  1.00  0.00     0.029 C 
BRANCH   8   9
ATOM      9  C   UNL     1     -39.030  24.031   3.797  1.00  0.00    -0.035 C 
ATOM     10  C   UNL     1     -39.125  25.227   4.387  1.00  0.00     0.004 C 
ENDBRANCH   8   9
ENDBRANCH   1   8
TORSDOF 6
ENDMDL
MODEL 3
REMARK VINA RESULT:    -2.348      2.228      3.071
REMARK INTER + INTRA:          -3.270
REMARK INTER:                  -2.940
REMARK INTRA:                  -0.330
REMARK UNBOUND:                -0.167
REMARK SMILES C=CCC[C@H](O)CCC
REMARK SMILES IDX 4 1 5 2 7 3 8 4 9 5 6 6 3 8 2 9 1 10
REMARK H PARENT 6 7
REMARK Flexibility Score: inf
ROOT
ATOM      1  C   UNL     1     -36.778  33.140 -10.128  1.00  0.00     0.036 C 
ENDROOT
BRANCH   1   2
ATOM      2  C   UNL     1     -38.246  33.541  -9.876  1.00  0.00     0.114 C 
BRANCH   2   3
ATOM      3  C   UNL     1     -38.812  34.559 -10.894  1.00  0.00     0.031 C 
BRANCH   3   4
ATOM      4  C   UNL     1     -39.125  35.933 -10.280  1.00  0.00    -0.001 C 
ATOM      5  C   UNL     1     -38.846  35.942  -8.781  1.00  0.00     0.004 C 
ENDBRANCH   3   4
ENDBRANCH   2   3
BRANCH   2   6
ATOM      6  O   UNL     1     -39.035  32.378  -9.874  1.00  0.00    -0.393 OA
ATOM      7  H   UNL     1     -39.304  32.213  -8.933  1.00  0.00     0.210 HD
ENDBRANCH   2   6
ENDBRANCH   1   2
BRANCH   1   8
ATOM      8  C   UNL     1     -35.867  34.343 -10.419  1.00  0.00     0.029 C 
BRANCH   8   9
ATOM      9  C   UNL     1     -35.365  34.315 -11.837  1.00  0.00    -0.035 C 
ATOM     10  C   UNL     1     -34.063  34.420 -12.125  1.00  0.00     0.004 C 
ENDBRANCH   8   9
ENDBRANCH   1   8
TORSDOF 6
ENDMDL
MODEL 4
REMARK VINA RESULT:    -1.928     20.062     21.768
REMARK INTER + INTRA:          -2.715
REMARK INTER:                  -2.685
REMARK INTRA:                  -0.030
REMARK UNBOUND:                -0.167
REMARK SMILES C=CCC[C@H](O)CCC
REMARK SMILES IDX 4 1 5 2 7 3 8 4 9 5 6 6 3 8 2 9 1 10
REMARK H PARENT 6 7
REMARK Flexibility Score: inf
ROOT
ATOM      1  C   UNL     1     -38.213  20.988   5.776  1.00  0.00     0.036 C 
ENDROOT
BRANCH   1   2
ATOM      2  C   UNL     1     -38.220  21.202   7.303  1.00  0.00     0.114 C 
BRANCH   2   3
ATOM      3  C   UNL     1     -38.583  22.641   7.743  1.00  0.00     0.031 C 
BRANCH   3   4
ATOM      4  C   UNL     1     -37.451  23.656   7.521  1.00  0.00    -0.001 C 
ATOM      5  C   UNL     1     -36.093  22.962   7.467  1.00  0.00     0.004 C 
ENDBRANCH   3   4
ENDBRANCH   2   3
BRANCH   2   6
ATOM      6  O   UNL     1     -39.115  20.286   7.882  1.00  0.00    -0.393 OA
ATOM      7  H   UNL     1     -39.586  19.831   7.136  1.00  0.00     0.210 HD
ENDBRANCH   2   6
ENDBRANCH   1   2
BRANCH   1   8
ATOM      8  C   UNL     1     -39.123  21.972   5.025  1.00  0.00     0.029 C 
BRANCH   8   9
ATOM      9  C   UNL     1     -38.316  23.022   4.311  1.00  0.00    -0.035 C 
ATOM     10  C   UNL     1     -38.845  24.199   3.961  1.00  0.00     0.004 C 
ENDBRANCH   8   9
ENDBRANCH   1   8
TORSDOF 6
ENDMDL
MODEL 5
REMARK VINA RESULT:    -1.542     19.343     21.096
REMARK INTER + INTRA:          -2.205
REMARK INTER:                  -2.036
REMARK INTRA:                  -0.170
REMARK UNBOUND:                -0.167
REMARK SMILES C=CCC[C@H](O)CCC
REMARK SMILES IDX 4 1 5 2 7 3 8 4 9 5 6 6 3 8 2 9 1 10
REMARK H PARENT 6 7
REMARK Flexibility Score: inf
ROOT
ATOM      1  C   UNL     1     -38.021  22.259   5.392  1.00  0.00     0.036 C 
ENDROOT
BRANCH   1   2
ATOM      2  C   UNL     1     -38.676  23.207   4.367  1.00  0.00     0.114 C 
BRANCH   2   3
ATOM      3  C   UNL     1     -39.125  24.567   4.953  1.00  0.00     0.031 C 
BRANCH   3   4
ATOM      4  C   UNL     1     -39.124  24.605   6.490  1.00  0.00    -0.001 C 
ATOM      5  C   UNL     1     -39.099  26.040   7.004  1.00  0.00     0.004 C 
ENDBRANCH   3   4
ENDBRANCH   2   3
BRANCH   2   6
ATOM      6  O   UNL     1     -37.775  23.417   3.309  1.00  0.00    -0.393 OA
ATOM      7  H   UNL     1     -38.273  23.894   2.595  1.00  0.00     0.210 HD
ENDBRANCH   2   6
ENDBRANCH   1   2
BRANCH   1   8
ATOM      8  C   UNL     1     -39.026  21.313   6.066  1.00  0.00     0.029 C 
BRANCH   8   9
ATOM      9  C   UNL     1     -38.626  21.015   7.485  1.00  0.00    -0.035 C 
ATOM     10  C   UNL     1     -37.703  21.741   8.123  1.00  0.00     0.004 C 
ENDBRANCH   8   9
ENDBRANCH   1   8
TORSDOF 6
ENDMDL
MODEL 6
REMARK VINA RESULT:    -1.396     19.794     21.560
REMARK INTER + INTRA:          -2.011
REMARK INTER:                  -1.945
REMARK INTRA:                  -0.066
REMARK UNBOUND:                -0.167
REMARK SMILES C=CCC[C@H](O)CCC
REMARK SMILES IDX 4 1 5 2 7 3 8 4 9 5 6 6 3 8 2 9 1 10
REMARK H PARENT 6 7
REMARK Flexibility Score: inf
ROOT
ATOM      1  C   UNL     1     -38.041  22.153   7.876  1.00  0.00     0.036 C 
ENDROOT
BRANCH   1   2
ATOM      2  C   UNL     1     -37.201  23.135   7.035  1.00  0.00     0.114 C 
BRANCH   2   3
ATOM      3  C   UNL     1     -37.667  24.608   7.121  1.00  0.00     0.031 C 
BRANCH   3   4
ATOM      4  C   UNL     1     -39.103  24.830   6.618  1.00  0.00    -0.001 C 
ATOM      5  C   UNL     1     -39.125  25.084   5.114  1.00  0.00     0.004 C 
ENDBRANCH   3   4
ENDBRANCH   2   3
BRANCH   2   6
ATOM      6  O   UNL     1     -35.858  23.035   7.435  1.00  0.00    -0.393 OA
ATOM      7  H   UNL     1     -35.832  22.414   8.209  1.00  0.00     0.210 HD
ENDBRANCH   2   6
ENDBRANCH   1   2
BRANCH   1   8
ATOM      8  C   UNL     1     -38.681  21.036   7.038  1.00  0.00     0.029 C 
BRANCH   8   9
ATOM      9  C   UNL     1     -38.331  21.180   5.582  1.00  0.00    -0.035 C 
ATOM     10  C   UNL     1     -39.122  21.839   4.729  1.00  0.00     0.004 C 
ENDBRANCH   8   9
ENDBRANCH   1   8
TORSDOF 6
ENDMDL
MODEL 7
REMARK VINA RESULT:    -0.577     20.262     21.681
REMARK INTER + INTRA:          -0.929
REMARK INTER:                  -1.082
REMARK INTRA:                   0.153
REMARK UNBOUND:                -0.167
REMARK SMILES C=CCC[C@H](O)CCC
REMARK SMILES IDX 4 1 5 2 7 3 8 4 9 5 6 6 3 8 2 9 1 10
REMARK H PARENT 6 7
REMARK Flexibility Score: inf
ROOT
ATOM      1  C   UNL     1     -38.289  22.982   5.223  1.00  0.00     0.036 C 
ENDROOT
BRANCH   1   2
ATOM      2  C   UNL     1     -38.727  24.058   6.237  1.00  0.00     0.114 C 
BRANCH   2   3
ATOM      3  C   UNL     1     -37.654  24.411   7.295  1.00  0.00     0.031 C 
BRANCH   3   4
ATOM      4  C   UNL     1     -36.976  23.180   7.918  1.00  0.00    -0.001 C 
ATOM      5  C   UNL     1     -35.585  22.963   7.333  1.00  0.00     0.004 C 
ENDBRANCH   3   4
ENDBRANCH   2   3
BRANCH   2   6
ATOM      6  O   UNL     1     -39.101  25.214   5.532  1.00  0.00    -0.393 OA
ATOM      7  H   UNL     1     -39.890  24.973   4.979  1.00  0.00     0.210 HD
ENDBRANCH   2   6
ENDBRANCH   1   2
BRANCH   1   8
ATOM      8  C   UNL     1     -39.070  21.666   5.365  1.00  0.00     0.029 C 
BRANCH   8   9
ATOM      9  C   UNL     1     -39.125  21.218   6.801  1.00  0.00    -0.035 C 
ATOM     10  C   UNL     1     -38.418  20.172   7.239  1.00  0.00     0.004 C 
ENDBRANCH   8   9
ENDBRANCH   1   8
TORSDOF 6
ENDMDL
