MODEL 1
REMARK VINA RESULT:    -6.953      0.000      0.000
REMARK INTER + INTRA:         -10.160
REMARK INTER:                  -9.392
REMARK INTRA:                  -0.768
REMARK UNBOUND:                -0.768
REMARK SMILES CC[C@@H](CC[C@@H](C)[C@@H]1CC[C@H]2[C@@H]3CC(=O)C4=CC(=O)CC[C@@]4(C)[C@@H]3CC[C@]21C)C(C)C
REMARK SMILES IDX 4 1 3 2 2 3 1 4 29 5 30 6 31 7 5 8 6 9 7 10 8 11 9 12 27 13
REMARK SMILES IDX 10 14 11 15 26 16 28 17 12 18 25 19 24 20 13 21 22 22 14 23
REMARK SMILES IDX 16 24 21 25 23 26 15 27 17 28 20 29 18 30 19 31
REMARK H PARENT
REMARK Flexibility Score: inf
ROOT
ATOM      1  C   UNL     1      -1.828   5.528  69.057  1.00  0.00     0.004 C 
ENDROOT
BRANCH   1   2
ATOM      2  C   UNL     1      -0.298   5.222  69.064  1.00  0.00    -0.009 C 
BRANCH   2   3
ATOM      3  C   UNL     1       0.046   4.191  70.179  1.00  0.00     0.000 C 
ATOM      4  C   UNL     1      -1.115   3.948  71.148  1.00  0.00     0.004 C 
ENDBRANCH   2   3
BRANCH   2   5
ATOM      5  C   UNL     1       0.587   6.513  69.150  1.00  0.00    -0.014 C 
ATOM      6  C   UNL     1       0.008   7.677  68.328  1.00  0.00     0.007 C 
ATOM      7  C   UNL     1       2.059   6.274  68.773  1.00  0.00     0.007 C 
ENDBRANCH   2   5
ENDBRANCH   1   2
BRANCH   1   8
ATOM      8  C   UNL     1      -2.667   4.432  68.365  1.00  0.00     0.004 C 
BRANCH   8   9
ATOM      9  C   UNL     1      -3.289   4.828  67.000  1.00  0.00    -0.011 C 
ATOM     10  C   UNL     1      -3.582   6.344  66.933  1.00  0.00     0.008 C 
BRANCH   9  11
ATOM     11  C   UNL     1      -2.506   4.200  65.772  1.00  0.00    -0.002 C 
ATOM     12  C   UNL     1      -1.640   2.988  66.161  1.00  0.00     0.005 C 
ATOM     13  C   UNL     1      -1.515   5.133  64.983  1.00  0.00    -0.026 C 
ATOM     14  C   UNL     1      -0.199   3.490  66.262  1.00  0.00     0.005 C 
ATOM     15  C   UNL     1      -0.172   4.936  65.728  1.00  0.00    -0.001 C 
ATOM     16  C   UNL     1      -1.410   4.620  63.509  1.00  0.00     0.007 C 
ATOM     17  C   UNL     1      -1.976   6.614  64.954  1.00  0.00     0.012 C 
ATOM     18  C   UNL     1       1.131   5.259  64.933  1.00  0.00     0.004 C 
ATOM     19  C   UNL     1      -0.165   5.110  62.755  1.00  0.00     0.005 C 
ATOM     20  C   UNL     1       1.137   4.702  63.483  1.00  0.00     0.003 C 
ATOM     21  C   UNL     1       1.455   6.769  64.948  1.00  0.00     0.085 C 
ATOM     22  C   UNL     1       2.508   5.007  62.697  1.00  0.00    -0.000 C 
ATOM     23  C   UNL     1       2.786   7.027  64.325  1.00  0.00     0.159 C 
ATOM     24  C   UNL     1       3.406   6.004  63.455  1.00  0.00     0.005 C 
ATOM     25  C   UNL     1       3.279   3.657  62.538  1.00  0.00     0.020 C 
ATOM     26  C   UNL     1       2.262   5.614  61.284  1.00  0.00     0.017 C 
ATOM     27  O   UNL     1       3.375   8.118  64.559  1.00  0.00    -0.295 OA
ATOM     28  C   UNL     1       4.749   5.974  63.343  1.00  0.00     0.055 C 
ATOM     29  C   UNL     1       4.683   3.816  61.931  1.00  0.00     0.081 C 
ATOM     30  C   UNL     1       5.450   4.893  62.631  1.00  0.00     0.156 C 
ATOM     31  O   UNL     1       6.706   4.853  62.637  1.00  0.00    -0.295 OA
ENDBRANCH   9  11
ENDBRANCH   8   9
ENDBRANCH   1   8
TORSDOF 6
ENDMDL
MODEL 2
REMARK VINA RESULT:    -6.950      3.105      6.393
REMARK INTER + INTRA:         -10.155
REMARK INTER:                  -8.385
REMARK INTRA:                  -1.770
REMARK UNBOUND:                -0.768
REMARK SMILES CC[C@@H](CC[C@@H](C)[C@@H]1CC[C@H]2[C@@H]3CC(=O)C4=CC(=O)CC[C@@]4(C)[C@@H]3CC[C@]21C)C(C)C
REMARK SMILES IDX 4 1 3 2 2 3 1 4 29 5 30 6 31 7 5 8 6 9 7 10 8 11 9 12 27 13
REMARK SMILES IDX 10 14 11 15 26 16 28 17 12 18 25 19 24 20 13 21 22 22 14 23
REMARK SMILES IDX 16 24 21 25 23 26 15 27 17 28 20 29 18 30 19 31
REMARK H PARENT
REMARK Flexibility Score: inf
ROOT
ATOM      1  C   UNL     1      -2.438   5.098  63.825  1.00  0.00     0.004 C 
ENDROOT
BRANCH   1   2
ATOM      2  C   UNL     1      -3.385   4.046  64.482  1.00  0.00    -0.009 C 
BRANCH   2   3
ATOM      3  C   UNL     1      -4.823   4.167  63.895  1.00  0.00     0.000 C 
ATOM      4  C   UNL     1      -5.080   3.193  62.740  1.00  0.00     0.004 C 
ENDBRANCH   2   3
BRANCH   2   5
ATOM      5  C   UNL     1      -3.374   4.102  66.049  1.00  0.00    -0.014 C 
ATOM      6  C   UNL     1      -3.201   5.534  66.584  1.00  0.00     0.007 C 
ATOM      7  C   UNL     1      -2.335   3.165  66.689  1.00  0.00     0.007 C 
ENDBRANCH   2   5
ENDBRANCH   1   2
BRANCH   1   8
ATOM      8  C   UNL     1      -1.224   4.464  63.111  1.00  0.00     0.004 C 
BRANCH   8   9
ATOM      9  C   UNL     1       0.108   5.249  63.234  1.00  0.00    -0.011 C 
ATOM     10  C   UNL     1       0.884   5.257  61.897  1.00  0.00     0.008 C 
BRANCH   9  11
ATOM     11  C   UNL     1      -0.079   6.649  63.956  1.00  0.00    -0.002 C 
ATOM     12  C   UNL     1       0.505   7.827  63.155  1.00  0.00     0.005 C 
ATOM     13  C   UNL     1       0.548   6.821  65.389  1.00  0.00    -0.026 C 
ATOM     14  C   UNL     1       1.853   8.169  63.793  1.00  0.00     0.005 C 
ATOM     15  C   UNL     1       1.973   7.349  65.093  1.00  0.00    -0.001 C 
ATOM     16  C   UNL     1      -0.285   7.887  66.175  1.00  0.00     0.007 C 
ATOM     17  C   UNL     1       0.551   5.503  66.206  1.00  0.00     0.012 C 
ATOM     18  C   UNL     1       2.686   8.136  66.236  1.00  0.00     0.004 C 
ATOM     19  C   UNL     1       0.448   8.503  67.376  1.00  0.00     0.005 C 
ATOM     20  C   UNL     1       1.776   9.172  66.949  1.00  0.00     0.003 C 
ATOM     21  C   UNL     1       3.353   7.189  67.257  1.00  0.00     0.085 C 
ATOM     22  C   UNL     1       2.543  10.003  68.094  1.00  0.00    -0.000 C 
ATOM     23  C   UNL     1       4.164   7.964  68.242  1.00  0.00     0.159 C 
ATOM     24  C   UNL     1       3.932   9.415  68.411  1.00  0.00     0.005 C 
ATOM     25  C   UNL     1       2.724  11.469  67.581  1.00  0.00     0.020 C 
ATOM     26  C   UNL     1       1.756  10.035  69.437  1.00  0.00     0.017 C 
ATOM     27  O   UNL     1       5.051   7.369  68.915  1.00  0.00    -0.295 OA
ATOM     28  C   UNL     1       4.947  10.189  68.845  1.00  0.00     0.055 C 
ATOM     29  C   UNL     1       3.575  12.347  68.512  1.00  0.00     0.081 C 
ATOM     30  C   UNL     1       4.848  11.656  68.885  1.00  0.00     0.156 C 
ATOM     31  O   UNL     1       5.853  12.341  69.203  1.00  0.00    -0.295 OA
ENDBRANCH   9  11
ENDBRANCH   8   9
ENDBRANCH   1   8
TORSDOF 6
ENDMDL
MODEL 3
REMARK VINA RESULT:    -6.730      2.857      6.396
REMARK INTER + INTRA:          -9.858
REMARK INTER:                  -8.405
REMARK INTRA:                  -1.452
REMARK UNBOUND:                -0.768
REMARK SMILES CC[C@@H](CC[C@@H](C)[C@@H]1CC[C@H]2[C@@H]3CC(=O)C4=CC(=O)CC[C@@]4(C)[C@@H]3CC[C@]21C)C(C)C
REMARK SMILES IDX 4 1 3 2 2 3 1 4 29 5 30 6 31 7 5 8 6 9 7 10 8 11 9 12 27 13
REMARK SMILES IDX 10 14 11 15 26 16 28 17 12 18 25 19 24 20 13 21 22 22 14 23
REMARK SMILES IDX 16 24 21 25 23 26 15 27 17 28 20 29 18 30 19 31
REMARK H PARENT
REMARK Flexibility Score: inf
ROOT
ATOM      1  C   UNL     1       0.816   5.127  61.691  1.00  0.00     0.004 C 
ENDROOT
BRANCH   1   2
ATOM      2  C   UNL     1       2.370   5.127  61.550  1.00  0.00    -0.009 C 
BRANCH   2   3
ATOM      3  C   UNL     1       3.034   4.544  62.833  1.00  0.00     0.000 C 
ATOM      4  C   UNL     1       3.742   3.208  62.585  1.00  0.00     0.004 C 
ENDBRANCH   2   3
BRANCH   2   5
ATOM      5  C   UNL     1       2.954   6.530  61.162  1.00  0.00    -0.014 C 
ATOM      6  C   UNL     1       3.953   7.058  62.205  1.00  0.00     0.007 C 
ATOM      7  C   UNL     1       1.873   7.586  60.875  1.00  0.00     0.007 C 
ENDBRANCH   2   5
ENDBRANCH   1   2
BRANCH   1   8
ATOM      8  C   UNL     1       0.334   4.870  63.136  1.00  0.00     0.004 C 
BRANCH   8   9
ATOM      9  C   UNL     1      -1.021   5.522  63.514  1.00  0.00    -0.011 C 
ATOM     10  C   UNL     1      -2.125   4.458  63.706  1.00  0.00     0.008 C 
BRANCH   9  11
ATOM     11  C   UNL     1      -0.872   6.608  64.660  1.00  0.00    -0.002 C 
ATOM     12  C   UNL     1      -0.856   8.052  64.129  1.00  0.00     0.005 C 
ATOM     13  C   UNL     1       0.403   6.530  65.579  1.00  0.00    -0.026 C 
ATOM     14  C   UNL     1       0.607   8.501  64.115  1.00  0.00     0.005 C 
ATOM     15  C   UNL     1       1.432   7.415  64.833  1.00  0.00    -0.001 C 
ATOM     16  C   UNL     1       0.054   7.144  66.975  1.00  0.00     0.007 C 
ATOM     17  C   UNL     1       0.902   5.077  65.794  1.00  0.00     0.012 C 
ATOM     18  C   UNL     1       2.597   8.011  65.682  1.00  0.00     0.004 C 
ATOM     19  C   UNL     1       1.275   7.568  67.803  1.00  0.00     0.005 C 
ATOM     20  C   UNL     1       2.145   8.599  67.047  1.00  0.00     0.003 C 
ATOM     21  C   UNL     1       3.749   6.998  65.869  1.00  0.00     0.085 C 
ATOM     22  C   UNL     1       3.356   9.247  67.885  1.00  0.00    -0.000 C 
ATOM     23  C   UNL     1       4.915   7.646  66.540  1.00  0.00     0.159 C 
ATOM     24  C   UNL     1       4.732   8.914  67.277  1.00  0.00     0.005 C 
ATOM     25  C   UNL     1       3.165  10.799  67.878  1.00  0.00     0.020 C 
ATOM     26  C   UNL     1       3.390   8.753  69.362  1.00  0.00     0.017 C 
ATOM     27  O   UNL     1       6.051   7.103  66.458  1.00  0.00    -0.295 OA
ATOM     28  C   UNL     1       5.783   9.750  67.403  1.00  0.00     0.055 C 
ATOM     29  C   UNL     1       4.333  11.566  68.520  1.00  0.00     0.081 C 
ATOM     30  C   UNL     1       5.645  11.097  67.978  1.00  0.00     0.156 C 
ATOM     31  O   UNL     1       6.631  11.877  67.985  1.00  0.00    -0.295 OA
ENDBRANCH   9  11
ENDBRANCH   8   9
ENDBRANCH   1   8
TORSDOF 6
ENDMDL
MODEL 4
REMARK VINA RESULT:    -6.707     12.510     16.374
REMARK INTER + INTRA:          -9.827
REMARK INTER:                  -8.334
REMARK INTRA:                  -1.493
REMARK UNBOUND:                -0.768
REMARK SMILES CC[C@@H](CC[C@@H](C)[C@@H]1CC[C@H]2[C@@H]3CC(=O)C4=CC(=O)CC[C@@]4(C)[C@@H]3CC[C@]21C)C(C)C
REMARK SMILES IDX 4 1 3 2 2 3 1 4 29 5 30 6 31 7 5 8 6 9 7 10 8 11 9 12 27 13
REMARK SMILES IDX 10 14 11 15 26 16 28 17 12 18 25 19 24 20 13 21 22 22 14 23
REMARK SMILES IDX 16 24 21 25 23 26 15 27 17 28 20 29 18 30 19 31
REMARK H PARENT
REMARK Flexibility Score: inf
ROOT
ATOM      1  C   UNL     1       8.101  18.911  74.303  1.00  0.00     0.004 C 
ENDROOT
BRANCH   1   2
ATOM      2  C   UNL     1       9.276  19.028  73.283  1.00  0.00    -0.009 C 
BRANCH   2   3
ATOM      3  C   UNL     1       8.931  18.273  71.965  1.00  0.00     0.000 C 
ATOM      4  C   UNL     1       8.481  19.209  70.839  1.00  0.00     0.004 C 
ENDBRANCH   2   3
BRANCH   2   5
ATOM      5  C   UNL     1      10.657  18.586  73.880  1.00  0.00    -0.014 C 
ATOM      6  C   UNL     1      11.355  17.521  73.017  1.00  0.00     0.007 C 
ATOM      7  C   UNL     1      10.571  18.115  75.342  1.00  0.00     0.007 C 
ENDBRANCH   2   5
ENDBRANCH   1   2
BRANCH   1   8
ATOM      8  C   UNL     1       7.185  20.154  74.324  1.00  0.00     0.004 C 
BRANCH   8   9
ATOM      9  C   UNL     1       5.747  19.932  73.788  1.00  0.00    -0.011 C 
ATOM     10  C   UNL     1       5.516  20.691  72.462  1.00  0.00     0.008 C 
BRANCH   9  11
ATOM     11  C   UNL     1       5.317  18.405  73.818  1.00  0.00    -0.002 C 
ATOM     12  C   UNL     1       5.307  17.751  72.424  1.00  0.00     0.005 C 
ATOM     13  C   UNL     1       3.901  18.056  74.408  1.00  0.00    -0.026 C 
ATOM     14  C   UNL     1       3.847  17.702  71.971  1.00  0.00     0.005 C 
ATOM     15  C   UNL     1       2.974  18.123  73.169  1.00  0.00    -0.001 C 
ATOM     16  C   UNL     1       3.944  16.604  74.989  1.00  0.00     0.007 C 
ATOM     17  C   UNL     1       3.466  19.024  75.539  1.00  0.00     0.012 C 
ATOM     18  C   UNL     1       1.635  17.326  73.246  1.00  0.00     0.004 C 
ATOM     19  C   UNL     1       2.566  15.953  75.167  1.00  0.00     0.005 C 
ATOM     20  C   UNL     1       1.787  15.896  73.832  1.00  0.00     0.003 C 
ATOM     21  C   UNL     1       0.537  18.117  73.991  1.00  0.00     0.085 C 
ATOM     22  C   UNL     1       0.402  15.077  73.860  1.00  0.00    -0.000 C 
ATOM     23  C   UNL     1      -0.773  17.406  73.905  1.00  0.00     0.159 C 
ATOM     24  C   UNL     1      -0.813  15.971  73.546  1.00  0.00     0.005 C 
ATOM     25  C   UNL     1       0.490  13.952  72.778  1.00  0.00     0.020 C 
ATOM     26  C   UNL     1       0.126  14.420  75.245  1.00  0.00     0.017 C 
ATOM     27  O   UNL     1      -1.837  18.045  74.130  1.00  0.00    -0.295 OA
ATOM     28  C   UNL     1      -1.920  15.480  72.955  1.00  0.00     0.055 C 
ATOM     29  C   UNL     1      -0.823  13.175  72.588  1.00  0.00     0.081 C 
ATOM     30  C   UNL     1      -1.979  14.110  72.423  1.00  0.00     0.156 C 
ATOM     31  O   UNL     1      -2.998  13.728  71.792  1.00  0.00    -0.295 OA
ENDBRANCH   9  11
ENDBRANCH   8   9
ENDBRANCH   1   8
TORSDOF 6
ENDMDL
MODEL 5
REMARK VINA RESULT:    -6.705      4.169      7.101
REMARK INTER + INTRA:          -9.825
REMARK INTER:                  -8.065
REMARK INTRA:                  -1.759
REMARK UNBOUND:                -0.768
REMARK SMILES CC[C@@H](CC[C@@H](C)[C@@H]1CC[C@H]2[C@@H]3CC(=O)C4=CC(=O)CC[C@@]4(C)[C@@H]3CC[C@]21C)C(C)C
REMARK SMILES IDX 4 1 3 2 2 3 1 4 29 5 30 6 31 7 5 8 6 9 7 10 8 11 9 12 27 13
REMARK SMILES IDX 10 14 11 15 26 16 28 17 12 18 25 19 24 20 13 21 22 22 14 23
REMARK SMILES IDX 16 24 21 25 23 26 15 27 17 28 20 29 18 30 19 31
REMARK H PARENT
REMARK Flexibility Score: inf
ROOT
ATOM      1  C   UNL     1       0.438   4.337  65.806  1.00  0.00     0.004 C 
ENDROOT
BRANCH   1   2
ATOM      2  C   UNL     1      -0.175   4.632  64.401  1.00  0.00    -0.009 C 
BRANCH   2   3
ATOM      3  C   UNL     1       0.743   5.602  63.599  1.00  0.00     0.000 C 
ATOM      4  C   UNL     1       0.936   5.173  62.141  1.00  0.00     0.004 C 
ENDBRANCH   2   3
BRANCH   2   5
ATOM      5  C   UNL     1      -1.658   5.134  64.470  1.00  0.00    -0.014 C 
ATOM      6  C   UNL     1      -2.575   4.393  63.481  1.00  0.00     0.007 C 
ATOM      7  C   UNL     1      -1.801   6.655  64.291  1.00  0.00     0.007 C 
ENDBRANCH   2   5
ENDBRANCH   1   2
BRANCH   1   8
ATOM      8  C   UNL     1      -0.558   4.556  66.965  1.00  0.00     0.004 C 
BRANCH   8   9
ATOM      9  C   UNL     1      -0.242   5.753  67.899  1.00  0.00    -0.011 C 
ATOM     10  C   UNL     1      -0.801   5.522  69.321  1.00  0.00     0.008 C 
BRANCH   9  11
ATOM     11  C   UNL     1       1.270   6.220  67.796  1.00  0.00    -0.002 C 
ATOM     12  C   UNL     1       2.049   6.049  69.113  1.00  0.00     0.005 C 
ATOM     13  C   UNL     1       1.548   7.714  67.386  1.00  0.00    -0.026 C 
ATOM     14  C   UNL     1       2.122   7.431  69.765  1.00  0.00     0.005 C 
ATOM     15  C   UNL     1       1.583   8.454  68.746  1.00  0.00    -0.001 C 
ATOM     16  C   UNL     1       2.941   7.789  66.679  1.00  0.00     0.007 C 
ATOM     17  C   UNL     1       0.476   8.281  66.419  1.00  0.00     0.012 C 
ATOM     18  C   UNL     1       2.354   9.810  68.792  1.00  0.00     0.004 C 
ATOM     19  C   UNL     1       3.558   9.194  66.643  1.00  0.00     0.005 C 
ATOM     20  C   UNL     1       3.727   9.778  68.065  1.00  0.00     0.003 C 
ATOM     21  C   UNL     1       1.486  10.983  68.285  1.00  0.00     0.085 C 
ATOM     22  C   UNL     1       4.524  11.172  68.163  1.00  0.00    -0.000 C 
ATOM     23  C   UNL     1       2.187  12.284  68.494  1.00  0.00     0.159 C 
ATOM     24  C   UNL     1       3.647  12.308  68.726  1.00  0.00     0.005 C 
ATOM     25  C   UNL     1       5.744  10.960  69.118  1.00  0.00     0.020 C 
ATOM     26  C   UNL     1       5.048  11.658  66.780  1.00  0.00     0.017 C 
ATOM     27  O   UNL     1       1.517  13.353  68.481  1.00  0.00    -0.295 OA
ATOM     28  C   UNL     1       4.177  13.332  69.424  1.00  0.00     0.055 C 
ATOM     29  C   UNL     1       6.519  12.251  69.425  1.00  0.00     0.081 C 
ATOM     30  C   UNL     1       5.590  13.349  69.836  1.00  0.00     0.156 C 
ATOM     31  O   UNL     1       6.016  14.276  70.570  1.00  0.00    -0.295 OA
ENDBRANCH   9  11
ENDBRANCH   8   9
ENDBRANCH   1   8
TORSDOF 6
ENDMDL
MODEL 6
REMARK VINA RESULT:    -6.696      5.600      8.433
REMARK INTER + INTRA:          -9.813
REMARK INTER:                  -8.194
REMARK INTRA:                  -1.619
REMARK UNBOUND:                -0.768
REMARK SMILES CC[C@@H](CC[C@@H](C)[C@@H]1CC[C@H]2[C@@H]3CC(=O)C4=CC(=O)CC[C@@]4(C)[C@@H]3CC[C@]21C)C(C)C
REMARK SMILES IDX 4 1 3 2 2 3 1 4 29 5 30 6 31 7 5 8 6 9 7 10 8 11 9 12 27 13
REMARK SMILES IDX 10 14 11 15 26 16 28 17 12 18 25 19 24 20 13 21 22 22 14 23
REMARK SMILES IDX 16 24 21 25 23 26 15 27 17 28 20 29 18 30 19 31
REMARK H PARENT
REMARK Flexibility Score: inf
ROOT
ATOM      1  C   UNL     1       1.251   4.954  64.505  1.00  0.00     0.004 C 
ENDROOT
BRANCH   1   2
ATOM      2  C   UNL     1       0.525   5.376  63.190  1.00  0.00    -0.009 C 
BRANCH   2   3
ATOM      3  C   UNL     1      -0.888   4.726  63.115  1.00  0.00     0.000 C 
ATOM      4  C   UNL     1      -1.459   4.375  64.492  1.00  0.00     0.004 C 
ENDBRANCH   2   3
BRANCH   2   5
ATOM      5  C   UNL     1       1.377   5.102  61.902  1.00  0.00    -0.014 C 
ATOM      6  C   UNL     1       2.702   4.388  62.217  1.00  0.00     0.007 C 
ATOM      7  C   UNL     1       1.638   6.362  61.059  1.00  0.00     0.007 C 
ENDBRANCH   2   5
ENDBRANCH   1   2
BRANCH   1   8
ATOM      8  C   UNL     1       1.709   6.154  65.362  1.00  0.00     0.004 C 
BRANCH   8   9
ATOM      9  C   UNL     1       0.631   7.239  65.623  1.00  0.00    -0.011 C 
ATOM     10  C   UNL     1      -0.111   6.989  66.955  1.00  0.00     0.008 C 
BRANCH   9  11
ATOM     11  C   UNL     1       1.177   8.708  65.378  1.00  0.00    -0.002 C 
ATOM     12  C   UNL     1       1.212   9.563  66.657  1.00  0.00     0.005 C 
ATOM     13  C   UNL     1       0.409   9.610  64.342  1.00  0.00    -0.026 C 
ATOM     14  C   UNL     1      -0.013  10.479  66.608  1.00  0.00     0.005 C 
ATOM     15  C   UNL     1      -0.651  10.326  65.214  1.00  0.00    -0.001 C 
ATOM     16  C   UNL     1       1.415  10.642  63.734  1.00  0.00     0.007 C 
ATOM     17  C   UNL     1      -0.217   8.794  63.181  1.00  0.00     0.012 C 
ATOM     18  C   UNL     1      -1.225  11.670  64.665  1.00  0.00     0.004 C 
ATOM     19  C   UNL     1       0.751  11.865  63.084  1.00  0.00     0.005 C 
ATOM     20  C   UNL     1      -0.146  12.626  64.089  1.00  0.00     0.003 C 
ATOM     21  C   UNL     1      -2.361  11.437  63.645  1.00  0.00     0.085 C 
ATOM     22  C   UNL     1      -0.754  14.023  63.570  1.00  0.00    -0.000 C 
ATOM     23  C   UNL     1      -2.999  12.731  63.265  1.00  0.00     0.159 C 
ATOM     24  C   UNL     1      -2.294  14.006  63.517  1.00  0.00     0.005 C 
ATOM     25  C   UNL     1      -0.298  15.140  64.564  1.00  0.00     0.020 C 
ATOM     26  C   UNL     1      -0.263  14.392  62.140  1.00  0.00     0.017 C 
ATOM     27  O   UNL     1      -4.146  12.721  62.738  1.00  0.00    -0.295 OA
ATOM     28  C   UNL     1      -3.021  15.128  63.690  1.00  0.00     0.055 C 
ATOM     29  C   UNL     1      -0.927  16.514  64.277  1.00  0.00     0.081 C 
ATOM     30  C   UNL     1      -2.408  16.399  64.105  1.00  0.00     0.156 C 
ATOM     31  O   UNL     1      -3.138  17.394  64.350  1.00  0.00    -0.295 OA
ENDBRANCH   9  11
ENDBRANCH   8   9
ENDBRANCH   1   8
TORSDOF 6
ENDMDL
MODEL 7
REMARK VINA RESULT:    -6.613      3.137      6.015
REMARK INTER + INTRA:          -9.700
REMARK INTER:                  -8.177
REMARK INTRA:                  -1.523
REMARK UNBOUND:                -0.768
REMARK SMILES CC[C@@H](CC[C@@H](C)[C@@H]1CC[C@H]2[C@@H]3CC(=O)C4=CC(=O)CC[C@@]4(C)[C@@H]3CC[C@]21C)C(C)C
REMARK SMILES IDX 4 1 3 2 2 3 1 4 29 5 30 6 31 7 5 8 6 9 7 10 8 11 9 12 27 13
REMARK SMILES IDX 10 14 11 15 26 16 28 17 12 18 25 19 24 20 13 21 22 22 14 23
REMARK SMILES IDX 16 24 21 25 23 26 15 27 17 28 20 29 18 30 19 31
REMARK H PARENT
REMARK Flexibility Score: inf
ROOT
ATOM      1  C   UNL     1      -0.086   5.141  63.134  1.00  0.00     0.004 C 
ENDROOT
BRANCH   1   2
ATOM      2  C   UNL     1      -1.185   4.361  63.921  1.00  0.00    -0.009 C 
BRANCH   2   3
ATOM      3  C   UNL     1      -2.549   5.108  63.835  1.00  0.00     0.000 C 
ATOM      4  C   UNL     1      -3.713   4.185  63.461  1.00  0.00     0.004 C 
ENDBRANCH   2   3
BRANCH   2   5
ATOM      5  C   UNL     1      -0.773   4.039  65.399  1.00  0.00    -0.014 C 
ATOM      6  C   UNL     1      -1.258   5.111  66.390  1.00  0.00     0.007 C 
ATOM      7  C   UNL     1       0.735   3.794  65.576  1.00  0.00     0.007 C 
ENDBRANCH   2   5
ENDBRANCH   1   2
BRANCH   1   8
ATOM      8  C   UNL     1      -0.219   6.674  63.255  1.00  0.00     0.004 C 
BRANCH   8   9
ATOM      9  C   UNL     1       1.118   7.460  63.292  1.00  0.00    -0.011 C 
ATOM     10  C   UNL     1       0.950   8.828  63.991  1.00  0.00     0.008 C 
BRANCH   9  11
ATOM     11  C   UNL     1       2.335   6.562  63.771  1.00  0.00    -0.002 C 
ATOM     12  C   UNL     1       2.779   6.861  65.214  1.00  0.00     0.005 C 
ATOM     13  C   UNL     1       3.671   6.640  62.943  1.00  0.00    -0.026 C 
ATOM     14  C   UNL     1       4.029   7.738  65.118  1.00  0.00     0.005 C 
ATOM     15  C   UNL     1       4.453   7.782  63.637  1.00  0.00    -0.001 C 
ATOM     16  C   UNL     1       4.431   5.281  63.088  1.00  0.00     0.007 C 
ATOM     17  C   UNL     1       3.429   6.907  61.434  1.00  0.00     0.012 C 
ATOM     18  C   UNL     1       6.003   7.788  63.456  1.00  0.00     0.004 C 
ATOM     19  C   UNL     1       5.926   5.351  62.746  1.00  0.00     0.005 C 
ATOM     20  C   UNL     1       6.661   6.391  63.625  1.00  0.00     0.003 C 
ATOM     21  C   UNL     1       6.424   8.441  62.121  1.00  0.00     0.085 C 
ATOM     22  C   UNL     1       8.263   6.429  63.478  1.00  0.00    -0.000 C 
ATOM     23  C   UNL     1       7.908   8.583  62.050  1.00  0.00     0.159 C 
ATOM     24  C   UNL     1       8.770   7.784  62.947  1.00  0.00     0.005 C 
ATOM     25  C   UNL     1       8.879   6.182  64.894  1.00  0.00     0.020 C 
ATOM     26  C   UNL     1       8.798   5.339  62.502  1.00  0.00     0.017 C 
ATOM     27  O   UNL     1       8.410   9.396  61.226  1.00  0.00    -0.295 OA
ATOM     28  C   UNL     1       9.987   8.262  63.275  1.00  0.00     0.055 C 
ATOM     29  C   UNL     1      10.408   6.336  64.937  1.00  0.00     0.081 C 
ATOM     30  C   UNL     1      10.837   7.612  64.284  1.00  0.00     0.156 C 
ATOM     31  O   UNL     1      11.920   8.148  64.629  1.00  0.00    -0.295 OA
ENDBRANCH   9  11
ENDBRANCH   8   9
ENDBRANCH   1   8
TORSDOF 6
ENDMDL
MODEL 8
REMARK VINA RESULT:    -6.600      6.140      9.602
REMARK INTER + INTRA:          -9.683
REMARK INTER:                  -8.409
REMARK INTRA:                  -1.274
REMARK UNBOUND:                -0.768
REMARK SMILES CC[C@@H](CC[C@@H](C)[C@@H]1CC[C@H]2[C@@H]3CC(=O)C4=CC(=O)CC[C@@]4(C)[C@@H]3CC[C@]21C)C(C)C
REMARK SMILES IDX 4 1 3 2 2 3 1 4 29 5 30 6 31 7 5 8 6 9 7 10 8 11 9 12 27 13
REMARK SMILES IDX 10 14 11 15 26 16 28 17 12 18 25 19 24 20 13 21 22 22 14 23
REMARK SMILES IDX 16 24 21 25 23 26 15 27 17 28 20 29 18 30 19 31
REMARK H PARENT
REMARK Flexibility Score: inf
ROOT
ATOM      1  C   UNL     1       2.593   6.680  61.014  1.00  0.00     0.004 C 
ENDROOT
BRANCH   1   2
ATOM      2  C   UNL     1       2.165   5.271  61.531  1.00  0.00    -0.009 C 
BRANCH   2   3
ATOM      3  C   UNL     1       0.681   5.292  62.004  1.00  0.00     0.000 C 
ATOM      4  C   UNL     1       0.533   5.109  63.518  1.00  0.00     0.004 C 
ENDBRANCH   2   3
BRANCH   2   5
ATOM      5  C   UNL     1       3.132   4.697  62.624  1.00  0.00    -0.014 C 
ATOM      6  C   UNL     1       4.315   5.636  62.912  1.00  0.00     0.007 C 
ATOM      7  C   UNL     1       3.640   3.280  62.309  1.00  0.00     0.007 C 
ENDBRANCH   2   5
ENDBRANCH   1   2
BRANCH   1   8
ATOM      8  C   UNL     1       1.414   7.671  60.895  1.00  0.00     0.004 C 
BRANCH   8   9
ATOM      9  C   UNL     1       1.548   8.971  61.729  1.00  0.00    -0.011 C 
ATOM     10  C   UNL     1       3.022   9.419  61.844  1.00  0.00     0.008 C 
BRANCH   9  11
ATOM     11  C   UNL     1       0.500  10.080  61.295  1.00  0.00    -0.002 C 
ATOM     12  C   UNL     1       1.159  11.411  60.889  1.00  0.00     0.005 C 
ATOM     13  C   UNL     1      -0.591  10.506  62.346  1.00  0.00    -0.026 C 
ATOM     14  C   UNL     1       1.010  12.358  62.081  1.00  0.00     0.005 C 
ATOM     15  C   UNL     1       0.083  11.675  63.105  1.00  0.00    -0.001 C 
ATOM     16  C   UNL     1      -1.860  11.004  61.578  1.00  0.00     0.007 C 
ATOM     17  C   UNL     1      -1.011   9.342  63.282  1.00  0.00     0.012 C 
ATOM     18  C   UNL     1      -0.860  12.684  63.829  1.00  0.00     0.004 C 
ATOM     19  C   UNL     1      -2.807  11.873  62.416  1.00  0.00     0.005 C 
ATOM     20  C   UNL     1      -2.086  13.120  62.980  1.00  0.00     0.003 C 
ATOM     21  C   UNL     1      -1.302  12.166  65.215  1.00  0.00     0.085 C 
ATOM     22  C   UNL     1      -3.021  14.194  63.729  1.00  0.00    -0.000 C 
ATOM     23  C   UNL     1      -2.065  13.217  65.951  1.00  0.00     0.159 C 
ATOM     24  C   UNL     1      -2.646  14.361  65.215  1.00  0.00     0.005 C 
ATOM     25  C   UNL     1      -2.839  15.570  63.008  1.00  0.00     0.020 C 
ATOM     26  C   UNL     1      -4.527  13.803  63.691  1.00  0.00     0.017 C 
ATOM     27  O   UNL     1      -2.196  13.122  67.203  1.00  0.00    -0.295 OA
ATOM     28  C   UNL     1      -2.838  15.524  65.868  1.00  0.00     0.055 C 
ATOM     29  C   UNL     1      -3.563  16.732  63.707  1.00  0.00     0.081 C 
ATOM     30  C   UNL     1      -3.257  16.751  65.172  1.00  0.00     0.156 C 
ATOM     31  O   UNL     1      -3.328  17.835  65.804  1.00  0.00    -0.295 OA
ENDBRANCH   9  11
ENDBRANCH   8   9
ENDBRANCH   1   8
TORSDOF 6
ENDMDL
MODEL 9
REMARK VINA RESULT:    -6.579      5.124      8.186
REMARK INTER + INTRA:          -9.655
REMARK INTER:                  -8.285
REMARK INTRA:                  -1.370
REMARK UNBOUND:                -0.768
REMARK SMILES CC[C@@H](CC[C@@H](C)[C@@H]1CC[C@H]2[C@@H]3CC(=O)C4=CC(=O)CC[C@@]4(C)[C@@H]3CC[C@]21C)C(C)C
REMARK SMILES IDX 4 1 3 2 2 3 1 4 29 5 30 6 31 7 5 8 6 9 7 10 8 11 9 12 27 13
REMARK SMILES IDX 10 14 11 15 26 16 28 17 12 18 25 19 24 20 13 21 22 22 14 23
REMARK SMILES IDX 16 24 21 25 23 26 15 27 17 28 20 29 18 30 19 31
REMARK H PARENT
REMARK Flexibility Score: inf
ROOT
ATOM      1  C   UNL     1       2.004   5.322  61.532  1.00  0.00     0.004 C 
ENDROOT
BRANCH   1   2
ATOM      2  C   UNL     1       3.467   4.790  61.639  1.00  0.00    -0.009 C 
BRANCH   2   3
ATOM      3  C   UNL     1       3.511   3.481  62.481  1.00  0.00     0.000 C 
ATOM      4  C   UNL     1       4.938   3.002  62.768  1.00  0.00     0.004 C 
ENDBRANCH   2   3
BRANCH   2   5
ATOM      5  C   UNL     1       4.478   5.869  62.160  1.00  0.00    -0.014 C 
ATOM      6  C   UNL     1       4.092   6.414  63.545  1.00  0.00     0.007 C 
ATOM      7  C   UNL     1       4.701   7.028  61.174  1.00  0.00     0.007 C 
ENDBRANCH   2   5
ENDBRANCH   1   2
BRANCH   1   8
ATOM      8  C   UNL     1       1.156   5.032  62.789  1.00  0.00     0.004 C 
BRANCH   8   9
ATOM      9  C   UNL     1       0.115   6.121  63.157  1.00  0.00    -0.011 C 
ATOM     10  C   UNL     1      -1.104   5.513  63.887  1.00  0.00     0.008 C 
BRANCH   9  11
ATOM     11  C   UNL     1       0.782   7.396  63.827  1.00  0.00    -0.002 C 
ATOM     12  C   UNL     1       0.163   7.758  65.189  1.00  0.00     0.005 C 
ATOM     13  C   UNL     1       0.742   8.748  63.023  1.00  0.00    -0.026 C 
ATOM     14  C   UNL     1      -0.792   8.928  64.942  1.00  0.00     0.005 C 
ATOM     15  C   UNL     1      -0.583   9.400  63.490  1.00  0.00    -0.001 C 
ATOM     16  C   UNL     1       1.968   9.621  63.450  1.00  0.00     0.007 C 
ATOM     17  C   UNL     1       0.802   8.537  61.488  1.00  0.00     0.012 C 
ATOM     18  C   UNL     1      -0.699  10.948  63.339  1.00  0.00     0.004 C 
ATOM     19  C   UNL     1       1.825  11.115  63.128  1.00  0.00     0.005 C 
ATOM     20  C   UNL     1       0.568  11.722  63.794  1.00  0.00     0.003 C 
ATOM     21  C   UNL     1      -1.114  11.357  61.908  1.00  0.00     0.085 C 
ATOM     22  C   UNL     1       0.409  13.319  63.671  1.00  0.00    -0.000 C 
ATOM     23  C   UNL     1      -1.378  12.824  61.836  1.00  0.00     0.159 C 
ATOM     24  C   UNL     1      -0.857  13.722  62.890  1.00  0.00     0.005 C 
ATOM     25  C   UNL     1       0.312  13.902  65.118  1.00  0.00     0.020 C 
ATOM     26  C   UNL     1       1.613  13.984  62.942  1.00  0.00     0.017 C 
ATOM     27  O   UNL     1      -2.058  13.282  60.876  1.00  0.00    -0.295 OA
ATOM     28  C   UNL     1      -1.504  14.878  63.137  1.00  0.00     0.055 C 
ATOM     29  C   UNL     1       0.009  15.409  65.157  1.00  0.00     0.081 C 
ATOM     30  C   UNL     1      -1.148  15.746  64.271  1.00  0.00     0.156 C 
ATOM     31  O   UNL     1      -1.842  16.764  64.521  1.00  0.00    -0.295 OA
ENDBRANCH   9  11
ENDBRANCH   8   9
ENDBRANCH   1   8
TORSDOF 6
ENDMDL
