MODEL 1
REMARK VINA RESULT:    -4.174      0.000      0.000
REMARK INTER + INTRA:          -9.603
REMARK INTER:                  -7.589
REMARK INTRA:                  -2.014
REMARK UNBOUND:                -2.014
REMARK SMILES CCCCCCCCCCCCCCCC(=O)[O-]
REMARK SMILES IDX 9 1 10 2 11 3 12 4 13 5 14 6 15 7 16 8 17 9 18 10 8 11 7 12
REMARK SMILES IDX 6 13 5 14 4 15 3 16 2 17 1 18
REMARK H PARENT
REMARK Flexibility Score: inf
ROOT
ATOM      1  C   UNL     1      13.826   6.506  43.309  1.00  0.00     0.000 C 
ENDROOT
BRANCH   1   2
ATOM      2  C   UNL     1      14.514   6.028  44.598  1.00  0.00     0.000 C 
BRANCH   2   3
ATOM      3  C   UNL     1      16.013   5.755  44.406  1.00  0.00     0.000 C 
BRANCH   3   4
ATOM      4  C   UNL     1      16.803   7.068  44.321  1.00  0.00     0.000 C 
BRANCH   4   5
ATOM      5  C   UNL     1      18.155   6.851  43.625  1.00  0.00     0.000 C 
BRANCH   5   6
ATOM      6  C   UNL     1      18.332   7.743  42.385  1.00  0.00     0.006 C 
BRANCH   6   7
ATOM      7  C   UNL     1      17.638   9.102  42.531  1.00  0.00     0.053 C 
BRANCH   7   8
ATOM      8  C   UNL     1      16.856   9.424  41.298  1.00  0.00     0.041 C 
ATOM      9  O   UNL     1      17.192   8.932  40.187  1.00  0.00    -0.550 OA
ATOM     10  O   UNL     1      15.725  10.228  41.380  1.00  0.00    -0.550 OA
ENDBRANCH   7   8
ENDBRANCH   6   7
ENDBRANCH   5   6
ENDBRANCH   4   5
ENDBRANCH   3   4
ENDBRANCH   2   3
ENDBRANCH   1   2
BRANCH   1  11
ATOM     11  C   UNL     1      14.097   5.573  42.115  1.00  0.00     0.000 C 
BRANCH  11  12
ATOM     12  C   UNL     1      14.919   6.252  41.009  1.00  0.00    -0.000 C 
BRANCH  12  13
ATOM     13  C   UNL     1      16.201   5.476  40.656  1.00  0.00    -0.000 C 
BRANCH  13  14
ATOM     14  C   UNL     1      16.067   3.967  40.955  1.00  0.00    -0.000 C 
BRANCH  14  15
ATOM     15  C   UNL     1      17.336   3.343  41.560  1.00  0.00    -0.000 C 
BRANCH  15  16
ATOM     16  C   UNL     1      17.905   2.200  40.703  1.00  0.00    -0.000 C 
BRANCH  16  17
ATOM     17  C   UNL     1      19.328   2.491  40.204  1.00  0.00    -0.003 C 
ATOM     18  C   UNL     1      20.254   2.994  41.312  1.00  0.00     0.004 C 
ENDBRANCH  16  17
ENDBRANCH  15  16
ENDBRANCH  14  15
ENDBRANCH  13  14
ENDBRANCH  12  13
ENDBRANCH  11  12
ENDBRANCH   1  11
TORSDOF 14
ENDMDL
MODEL 2
REMARK VINA RESULT:    -4.141      3.812      6.066
REMARK INTER + INTRA:          -9.544
REMARK INTER:                  -8.172
REMARK INTRA:                  -1.372
REMARK UNBOUND:                -2.014
REMARK SMILES CCCCCCCCCCCCCCCC(=O)[O-]
REMARK SMILES IDX 9 1 10 2 11 3 12 4 13 5 14 6 15 7 16 8 17 9 18 10 8 11 7 12
REMARK SMILES IDX 6 13 5 14 4 15 3 16 2 17 1 18
REMARK H PARENT
REMARK Flexibility Score: inf
ROOT
ATOM      1  C   UNL     1      18.580   2.900  41.451  1.00  0.00     0.000 C 
ENDROOT
BRANCH   1   2
ATOM      2  C   UNL     1      19.960   2.818  40.779  1.00  0.00     0.000 C 
BRANCH   2   3
ATOM      3  C   UNL     1      21.108   3.166  41.738  1.00  0.00     0.000 C 
BRANCH   3   4
ATOM      4  C   UNL     1      21.134   4.670  42.040  1.00  0.00     0.000 C 
BRANCH   4   5
ATOM      5  C   UNL     1      22.299   5.023  42.979  1.00  0.00     0.000 C 
BRANCH   5   6
ATOM      6  C   UNL     1      22.196   6.450  43.539  1.00  0.00     0.006 C 
BRANCH   6   7
ATOM      7  C   UNL     1      23.365   6.807  44.465  1.00  0.00     0.053 C 
BRANCH   7   8
ATOM      8  C   UNL     1      22.961   6.653  45.897  1.00  0.00     0.041 C 
ATOM      9  O   UNL     1      21.837   7.066  46.287  1.00  0.00    -0.550 OA
ATOM     10  O   UNL     1      23.806   6.009  46.793  1.00  0.00    -0.550 OA
ENDBRANCH   7   8
ENDBRANCH   6   7
ENDBRANCH   5   6
ENDBRANCH   4   5
ENDBRANCH   3   4
ENDBRANCH   2   3
ENDBRANCH   1   2
BRANCH   1  11
ATOM     11  C   UNL     1      17.472   3.327  40.472  1.00  0.00     0.000 C 
BRANCH  11  12
ATOM     12  C   UNL     1      16.722   4.583  40.939  1.00  0.00    -0.000 C 
BRANCH  12  13
ATOM     13  C   UNL     1      16.667   4.710  42.473  1.00  0.00    -0.000 C 
BRANCH  13  14
ATOM     14  C   UNL     1      16.858   6.168  42.942  1.00  0.00    -0.000 C 
BRANCH  14  15
ATOM     15  C   UNL     1      18.208   6.778  42.526  1.00  0.00    -0.000 C 
BRANCH  15  16
ATOM     16  C   UNL     1      18.193   8.315  42.526  1.00  0.00    -0.000 C 
BRANCH  16  17
ATOM     17  C   UNL     1      17.242   8.894  41.466  1.00  0.00    -0.003 C 
ATOM     18  C   UNL     1      17.529   8.365  40.060  1.00  0.00     0.004 C 
ENDBRANCH  16  17
ENDBRANCH  15  16
ENDBRANCH  14  15
ENDBRANCH  13  14
ENDBRANCH  12  13
ENDBRANCH  11  12
ENDBRANCH   1  11
TORSDOF 14
ENDMDL
MODEL 3
REMARK VINA RESULT:    -4.136      3.107      4.785
REMARK INTER + INTRA:          -9.535
REMARK INTER:                  -8.141
REMARK INTRA:                  -1.394
REMARK UNBOUND:                -2.014
REMARK SMILES CCCCCCCCCCCCCCCC(=O)[O-]
REMARK SMILES IDX 9 1 10 2 11 3 12 4 13 5 14 6 15 7 16 8 17 9 18 10 8 11 7 12
REMARK SMILES IDX 6 13 5 14 4 15 3 16 2 17 1 18
REMARK H PARENT
REMARK Flexibility Score: inf
ROOT
ATOM      1  C   UNL     1      11.649   0.398  40.925  1.00  0.00     0.000 C 
ENDROOT
BRANCH   1   2
ATOM      2  C   UNL     1      11.176   1.681  41.628  1.00  0.00     0.000 C 
BRANCH   2   3
ATOM      3  C   UNL     1      11.688   2.957  40.944  1.00  0.00     0.000 C 
BRANCH   3   4
ATOM      4  C   UNL     1      12.895   3.535  41.694  1.00  0.00     0.000 C 
BRANCH   4   5
ATOM      5  C   UNL     1      12.848   5.071  41.710  1.00  0.00     0.000 C 
BRANCH   5   6
ATOM      6  C   UNL     1      14.231   5.703  41.937  1.00  0.00     0.006 C 
BRANCH   6   7
ATOM      7  C   UNL     1      15.218   5.387  40.807  1.00  0.00     0.053 C 
BRANCH   7   8
ATOM      8  C   UNL     1      16.421   6.271  40.902  1.00  0.00     0.041 C 
ATOM      9  O   UNL     1      16.602   7.188  40.057  1.00  0.00    -0.550 OA
ATOM     10  O   UNL     1      17.317   6.117  41.953  1.00  0.00    -0.550 OA
ENDBRANCH   7   8
ENDBRANCH   6   7
ENDBRANCH   5   6
ENDBRANCH   4   5
ENDBRANCH   3   4
ENDBRANCH   2   3
ENDBRANCH   1   2
BRANCH   1  11
ATOM     11  C   UNL     1      12.843  -0.259  41.639  1.00  0.00     0.000 C 
BRANCH  11  12
ATOM     12  C   UNL     1      13.862  -0.858  40.657  1.00  0.00    -0.000 C 
BRANCH  12  13
ATOM     13  C   UNL     1      15.286  -0.315  40.869  1.00  0.00    -0.000 C 
BRANCH  13  14
ATOM     14  C   UNL     1      15.313   1.227  40.949  1.00  0.00    -0.000 C 
BRANCH  14  15
ATOM     15  C   UNL     1      16.669   1.841  40.559  1.00  0.00    -0.000 C 
BRANCH  15  16
ATOM     16  C   UNL     1      17.379   2.519  41.742  1.00  0.00    -0.000 C 
BRANCH  16  17
ATOM     17  C   UNL     1      18.832   2.899  41.418  1.00  0.00    -0.003 C 
ATOM     18  C   UNL     1      19.288   2.385  40.051  1.00  0.00     0.004 C 
ENDBRANCH  16  17
ENDBRANCH  15  16
ENDBRANCH  14  15
ENDBRANCH  13  14
ENDBRANCH  12  13
ENDBRANCH  11  12
ENDBRANCH   1  11
TORSDOF 14
ENDMDL
MODEL 4
REMARK VINA RESULT:    -4.119      5.345      7.364
REMARK INTER + INTRA:          -9.505
REMARK INTER:                  -8.540
REMARK INTRA:                  -0.965
REMARK UNBOUND:                -2.014
REMARK SMILES CCCCCCCCCCCCCCCC(=O)[O-]
REMARK SMILES IDX 9 1 10 2 11 3 12 4 13 5 14 6 15 7 16 8 17 9 18 10 8 11 7 12
REMARK SMILES IDX 6 13 5 14 4 15 3 16 2 17 1 18
REMARK H PARENT
REMARK Flexibility Score: inf
ROOT
ATOM      1  C   UNL     1      12.278   3.750  42.048  1.00  0.00     0.000 C 
ENDROOT
BRANCH   1   2
ATOM      2  C   UNL     1      11.353   3.434  40.861  1.00  0.00     0.000 C 
BRANCH   2   3
ATOM      3  C   UNL     1      11.332   1.940  40.507  1.00  0.00     0.000 C 
BRANCH   3   4
ATOM      4  C   UNL     1      11.423   1.074  41.770  1.00  0.00     0.000 C 
BRANCH   4   5
ATOM      5  C   UNL     1      11.964  -0.326  41.440  1.00  0.00     0.000 C 
BRANCH   5   6
ATOM      6  C   UNL     1      12.369  -0.470  39.964  1.00  0.00     0.006 C 
BRANCH   6   7
ATOM      7  C   UNL     1      13.832  -0.893  39.791  1.00  0.00     0.053 C 
BRANCH   7   8
ATOM      8  C   UNL     1      14.018  -2.317  40.211  1.00  0.00     0.041 C 
ATOM      9  O   UNL     1      13.348  -3.232  39.662  1.00  0.00    -0.550 OA
ATOM     10  O   UNL     1      14.966  -2.641  41.174  1.00  0.00    -0.550 OA
ENDBRANCH   7   8
ENDBRANCH   6   7
ENDBRANCH   5   6
ENDBRANCH   4   5
ENDBRANCH   3   4
ENDBRANCH   2   3
ENDBRANCH   1   2
BRANCH   1  11
ATOM     11  C   UNL     1      12.980   5.111  41.903  1.00  0.00     0.000 C 
BRANCH  11  12
ATOM     12  C   UNL     1      14.251   5.033  41.044  1.00  0.00    -0.000 C 
BRANCH  12  13
ATOM     13  C   UNL     1      15.542   5.105  41.880  1.00  0.00    -0.000 C 
BRANCH  13  14
ATOM     14  C   UNL     1      16.803   4.865  41.022  1.00  0.00    -0.000 C 
BRANCH  14  15
ATOM     15  C   UNL     1      16.838   3.482  40.351  1.00  0.00    -0.000 C 
BRANCH  15  16
ATOM     16  C   UNL     1      17.760   2.489  41.078  1.00  0.00    -0.000 C 
BRANCH  16  17
ATOM     17  C   UNL     1      19.146   2.386  40.423  1.00  0.00    -0.003 C 
ATOM     18  C   UNL     1      20.228   3.134  41.204  1.00  0.00     0.004 C 
ENDBRANCH  16  17
ENDBRANCH  15  16
ENDBRANCH  14  15
ENDBRANCH  13  14
ENDBRANCH  12  13
ENDBRANCH  11  12
ENDBRANCH   1  11
TORSDOF 14
ENDMDL
MODEL 5
REMARK VINA RESULT:    -4.013      6.173      8.725
REMARK INTER + INTRA:          -9.312
REMARK INTER:                  -8.030
REMARK INTRA:                  -1.282
REMARK UNBOUND:                -2.014
REMARK SMILES CCCCCCCCCCCCCCCC(=O)[O-]
REMARK SMILES IDX 9 1 10 2 11 3 12 4 13 5 14 6 15 7 16 8 17 9 18 10 8 11 7 12
REMARK SMILES IDX 6 13 5 14 4 15 3 16 2 17 1 18
REMARK H PARENT
REMARK Flexibility Score: inf
ROOT
ATOM      1  C   UNL     1      15.542   1.326  40.870  1.00  0.00     0.000 C 
ENDROOT
BRANCH   1   2
ATOM      2  C   UNL     1      15.344  -0.194  40.989  1.00  0.00     0.000 C 
BRANCH   2   3
ATOM      3  C   UNL     1      13.893  -0.626  40.728  1.00  0.00     0.000 C 
BRANCH   3   4
ATOM      4  C   UNL     1      12.916   0.512  41.050  1.00  0.00     0.000 C 
BRANCH   4   5
ATOM      5  C   UNL     1      11.641  -0.030  41.716  1.00  0.00     0.000 C 
BRANCH   5   6
ATOM      6  C   UNL     1      10.454  -0.110  40.743  1.00  0.00     0.006 C 
BRANCH   6   7
ATOM      7  C   UNL     1       9.632  -1.392  40.918  1.00  0.00     0.053 C 
BRANCH   7   8
ATOM      8  C   UNL     1       8.680  -1.250  42.063  1.00  0.00     0.041 C 
ATOM      9  O   UNL     1       8.703  -2.078  43.013  1.00  0.00    -0.550 OA
ATOM     10  O   UNL     1       7.801  -0.175  42.109  1.00  0.00    -0.550 OA
ENDBRANCH   7   8
ENDBRANCH   6   7
ENDBRANCH   5   6
ENDBRANCH   4   5
ENDBRANCH   3   4
ENDBRANCH   2   3
ENDBRANCH   1   2
BRANCH   1  11
ATOM     11  C   UNL     1      17.017   1.715  40.668  1.00  0.00     0.000 C 
BRANCH  11  12
ATOM     12  C   UNL     1      17.196   3.206  40.344  1.00  0.00    -0.000 C 
BRANCH  12  13
ATOM     13  C   UNL     1      17.447   4.063  41.599  1.00  0.00    -0.000 C 
BRANCH  13  14
ATOM     14  C   UNL     1      16.144   4.687  42.145  1.00  0.00    -0.000 C 
BRANCH  14  15
ATOM     15  C   UNL     1      15.151   5.101  41.045  1.00  0.00    -0.000 C 
BRANCH  15  16
ATOM     16  C   UNL     1      13.733   5.348  41.586  1.00  0.00    -0.000 C 
BRANCH  16  17
ATOM     17  C   UNL     1      12.812   4.132  41.396  1.00  0.00    -0.003 C 
ATOM     18  C   UNL     1      11.785   3.985  42.519  1.00  0.00     0.004 C 
ENDBRANCH  16  17
ENDBRANCH  15  16
ENDBRANCH  14  15
ENDBRANCH  13  14
ENDBRANCH  12  13
ENDBRANCH  11  12
ENDBRANCH   1  11
TORSDOF 14
ENDMDL
MODEL 6
REMARK VINA RESULT:    -3.953      4.349      5.727
REMARK INTER + INTRA:          -9.203
REMARK INTER:                  -8.195
REMARK INTRA:                  -1.007
REMARK UNBOUND:                -2.014
REMARK SMILES CCCCCCCCCCCCCCCC(=O)[O-]
REMARK SMILES IDX 9 1 10 2 11 3 12 4 13 5 14 6 15 7 16 8 17 9 18 10 8 11 7 12
REMARK SMILES IDX 6 13 5 14 4 15 3 16 2 17 1 18
REMARK H PARENT
REMARK Flexibility Score: inf
ROOT
ATOM      1  C   UNL     1      12.455   3.961  41.809  1.00  0.00     0.000 C 
ENDROOT
BRANCH   1   2
ATOM      2  C   UNL     1      12.554   4.958  40.643  1.00  0.00     0.000 C 
BRANCH   2   3
ATOM      3  C   UNL     1      13.574   6.076  40.903  1.00  0.00     0.000 C 
BRANCH   3   4
ATOM      4  C   UNL     1      14.698   5.590  41.827  1.00  0.00     0.000 C 
BRANCH   4   5
ATOM      5  C   UNL     1      16.066   6.091  41.339  1.00  0.00     0.000 C 
BRANCH   5   6
ATOM      6  C   UNL     1      17.014   4.944  40.955  1.00  0.00     0.006 C 
BRANCH   6   7
ATOM      7  C   UNL     1      16.733   3.657  41.740  1.00  0.00     0.053 C 
BRANCH   7   8
ATOM      8  C   UNL     1      17.687   2.579  41.334  1.00  0.00     0.041 C 
ATOM      9  O   UNL     1      17.276   1.579  40.688  1.00  0.00    -0.550 OA
ATOM     10  O   UNL     1      19.040   2.701  41.624  1.00  0.00    -0.550 OA
ENDBRANCH   7   8
ENDBRANCH   6   7
ENDBRANCH   5   6
ENDBRANCH   4   5
ENDBRANCH   3   4
ENDBRANCH   2   3
ENDBRANCH   1   2
BRANCH   1  11
ATOM     11  C   UNL     1      11.228   3.040  41.695  1.00  0.00     0.000 C 
BRANCH  11  12
ATOM     12  C   UNL     1      11.508   1.783  40.857  1.00  0.00    -0.000 C 
BRANCH  12  13
ATOM     13  C   UNL     1      11.191   0.479  41.613  1.00  0.00    -0.000 C 
BRANCH  13  14
ATOM     14  C   UNL     1      12.401  -0.479  41.651  1.00  0.00    -0.000 C 
BRANCH  14  15
ATOM     15  C   UNL     1      13.530  -0.084  40.683  1.00  0.00    -0.000 C 
BRANCH  15  16
ATOM     16  C   UNL     1      14.801  -0.928  40.875  1.00  0.00    -0.000 C 
BRANCH  16  17
ATOM     17  C   UNL     1      14.489  -2.413  41.119  1.00  0.00    -0.003 C 
ATOM     18  C   UNL     1      13.884  -3.101  39.894  1.00  0.00     0.004 C 
ENDBRANCH  16  17
ENDBRANCH  15  16
ENDBRANCH  14  15
ENDBRANCH  13  14
ENDBRANCH  12  13
ENDBRANCH  11  12
ENDBRANCH   1  11
TORSDOF 14
ENDMDL
MODEL 7
REMARK VINA RESULT:    -3.927      4.349      6.336
REMARK INTER + INTRA:          -9.156
REMARK INTER:                  -7.863
REMARK INTRA:                  -1.293
REMARK UNBOUND:                -2.014
REMARK SMILES CCCCCCCCCCCCCCCC(=O)[O-]
REMARK SMILES IDX 9 1 10 2 11 3 12 4 13 5 14 6 15 7 16 8 17 9 18 10 8 11 7 12
REMARK SMILES IDX 6 13 5 14 4 15 3 16 2 17 1 18
REMARK H PARENT
REMARK Flexibility Score: inf
ROOT
ATOM      1  C   UNL     1      13.666   6.203  40.640  1.00  0.00     0.000 C 
ENDROOT
BRANCH   1   2
ATOM      2  C   UNL     1      12.396   5.339  40.580  1.00  0.00     0.000 C 
BRANCH   2   3
ATOM      3  C   UNL     1      12.561   3.990  41.295  1.00  0.00     0.000 C 
BRANCH   3   4
ATOM      4  C   UNL     1      11.198   3.411  41.697  1.00  0.00     0.000 C 
BRANCH   4   5
ATOM      5  C   UNL     1      11.230   1.875  41.691  1.00  0.00     0.000 C 
BRANCH   5   6
ATOM      6  C   UNL     1      12.645   1.313  41.478  1.00  0.00     0.006 C 
BRANCH   6   7
ATOM      7  C   UNL     1      12.690  -0.218  41.549  1.00  0.00     0.053 C 
BRANCH   7   8
ATOM      8  C   UNL     1      14.050  -0.717  41.176  1.00  0.00     0.041 C 
ATOM      9  O   UNL     1      15.014   0.087  41.071  1.00  0.00    -0.550 OA
ATOM     10  O   UNL     1      14.266  -2.078  40.992  1.00  0.00    -0.550 OA
ENDBRANCH   7   8
ENDBRANCH   6   7
ENDBRANCH   5   6
ENDBRANCH   4   5
ENDBRANCH   3   4
ENDBRANCH   2   3
ENDBRANCH   1   2
BRANCH   1  11
ATOM     11  C   UNL     1      14.563   5.851  41.839  1.00  0.00     0.000 C 
BRANCH  11  12
ATOM     12  C   UNL     1      15.981   6.428  41.706  1.00  0.00    -0.000 C 
BRANCH  12  13
ATOM     13  C   UNL     1      17.076   5.351  41.819  1.00  0.00    -0.000 C 
BRANCH  13  14
ATOM     14  C   UNL     1      16.500   3.923  41.712  1.00  0.00    -0.000 C 
BRANCH  14  15
ATOM     15  C   UNL     1      16.888   3.198  40.412  1.00  0.00    -0.000 C 
BRANCH  15  16
ATOM     16  C   UNL     1      17.932   2.092  40.637  1.00  0.00    -0.000 C 
BRANCH  16  17
ATOM     17  C   UNL     1      19.338   2.508  40.175  1.00  0.00    -0.003 C 
ATOM     18  C   UNL     1      20.232   2.959  41.330  1.00  0.00     0.004 C 
ENDBRANCH  16  17
ENDBRANCH  15  16
ENDBRANCH  14  15
ENDBRANCH  13  14
ENDBRANCH  12  13
ENDBRANCH  11  12
ENDBRANCH   1  11
TORSDOF 14
ENDMDL
MODEL 8
REMARK VINA RESULT:    -3.924      4.238      5.146
REMARK INTER + INTRA:          -9.149
REMARK INTER:                  -7.759
REMARK INTRA:                  -1.390
REMARK UNBOUND:                -2.014
REMARK SMILES CCCCCCCCCCCCCCCC(=O)[O-]
REMARK SMILES IDX 9 1 10 2 11 3 12 4 13 5 14 6 15 7 16 8 17 9 18 10 8 11 7 12
REMARK SMILES IDX 6 13 5 14 4 15 3 16 2 17 1 18
REMARK H PARENT
REMARK Flexibility Score: inf
ROOT
ATOM      1  C   UNL     1      17.559   7.788  43.173  1.00  0.00     0.000 C 
ENDROOT
BRANCH   1   2
ATOM      2  C   UNL     1      18.898   7.548  42.457  1.00  0.00     0.000 C 
BRANCH   2   3
ATOM      3  C   UNL     1      19.837   6.624  43.247  1.00  0.00     0.000 C 
BRANCH   3   4
ATOM      4  C   UNL     1      21.116   6.332  42.452  1.00  0.00     0.000 C 
BRANCH   4   5
ATOM      5  C   UNL     1      22.251   5.878  43.384  1.00  0.00     0.000 C 
BRANCH   5   6
ATOM      6  C   UNL     1      22.369   6.753  44.642  1.00  0.00     0.006 C 
BRANCH   6   7
ATOM      7  C   UNL     1      23.546   6.346  45.537  1.00  0.00     0.053 C 
BRANCH   7   8
ATOM      8  C   UNL     1      24.393   7.536  45.857  1.00  0.00     0.041 C 
ATOM      9  O   UNL     1      23.860   8.604  46.260  1.00  0.00    -0.550 OA
ATOM     10  O   UNL     1      25.777   7.452  45.759  1.00  0.00    -0.550 OA
ENDBRANCH   7   8
ENDBRANCH   6   7
ENDBRANCH   5   6
ENDBRANCH   4   5
ENDBRANCH   3   4
ENDBRANCH   2   3
ENDBRANCH   1   2
BRANCH   1  11
ATOM     11  C   UNL     1      16.382   7.084  42.475  1.00  0.00     0.000 C 
BRANCH  11  12
ATOM     12  C   UNL     1      16.709   6.678  41.029  1.00  0.00    -0.000 C 
BRANCH  12  13
ATOM     13  C   UNL     1      16.419   5.193  40.746  1.00  0.00    -0.000 C 
BRANCH  13  14
ATOM     14  C   UNL     1      16.575   4.320  42.009  1.00  0.00    -0.000 C 
BRANCH  14  15
ATOM     15  C   UNL     1      17.535   3.132  41.823  1.00  0.00    -0.000 C 
BRANCH  15  16
ATOM     16  C   UNL     1      17.907   2.892  40.350  1.00  0.00    -0.000 C 
BRANCH  16  17
ATOM     17  C   UNL     1      19.363   2.433  40.178  1.00  0.00    -0.003 C 
ATOM     18  C   UNL     1      20.281   2.945  41.288  1.00  0.00     0.004 C 
ENDBRANCH  16  17
ENDBRANCH  15  16
ENDBRANCH  14  15
ENDBRANCH  13  14
ENDBRANCH  12  13
ENDBRANCH  11  12
ENDBRANCH   1  11
TORSDOF 14
ENDMDL
MODEL 9
REMARK VINA RESULT:    -3.855      4.579      7.274
REMARK INTER + INTRA:          -9.024
REMARK INTER:                  -7.770
REMARK INTRA:                  -1.253
REMARK UNBOUND:                -2.014
REMARK SMILES CCCCCCCCCCCCCCCC(=O)[O-]
REMARK SMILES IDX 9 1 10 2 11 3 12 4 13 5 14 6 15 7 16 8 17 9 18 10 8 11 7 12
REMARK SMILES IDX 6 13 5 14 4 15 3 16 2 17 1 18
REMARK H PARENT
REMARK Flexibility Score: inf
ROOT
ATOM      1  C   UNL     1      17.147   2.363  41.618  1.00  0.00     0.000 C 
ENDROOT
BRANCH   1   2
ATOM      2  C   UNL     1      16.553   1.384  40.592  1.00  0.00     0.000 C 
BRANCH   2   3
ATOM      3  C   UNL     1      15.191   0.824  41.026  1.00  0.00     0.000 C 
BRANCH   3   4
ATOM      4  C   UNL     1      15.170  -0.708  40.928  1.00  0.00     0.000 C 
BRANCH   4   5
ATOM      5  C   UNL     1      13.783  -1.263  41.285  1.00  0.00     0.000 C 
BRANCH   5   6
ATOM      6  C   UNL     1      12.639  -0.402  40.725  1.00  0.00     0.006 C 
BRANCH   6   7
ATOM      7  C   UNL     1      11.523  -0.163  41.750  1.00  0.00     0.053 C 
BRANCH   7   8
ATOM      8  C   UNL     1      10.716   1.037  41.371  1.00  0.00     0.041 C 
ATOM      9  O   UNL     1      11.247   1.983  40.729  1.00  0.00    -0.550 OA
ATOM     10  O   UNL     1       9.362   1.093  41.681  1.00  0.00    -0.550 OA
ENDBRANCH   7   8
ENDBRANCH   6   7
ENDBRANCH   5   6
ENDBRANCH   4   5
ENDBRANCH   3   4
ENDBRANCH   2   3
ENDBRANCH   1   2
BRANCH   1  11
ATOM     11  C   UNL     1      17.712   3.635  40.961  1.00  0.00     0.000 C 
BRANCH  11  12
ATOM     12  C   UNL     1      16.626   4.682  40.668  1.00  0.00    -0.000 C 
BRANCH  12  13
ATOM     13  C   UNL     1      15.467   4.639  41.681  1.00  0.00    -0.000 C 
BRANCH  13  14
ATOM     14  C   UNL     1      15.238   6.007  42.359  1.00  0.00    -0.000 C 
BRANCH  14  15
ATOM     15  C   UNL     1      16.351   6.401  43.344  1.00  0.00    -0.000 C 
BRANCH  15  16
ATOM     16  C   UNL     1      16.869   7.831  43.117  1.00  0.00    -0.000 C 
BRANCH  16  17
ATOM     17  C   UNL     1      18.099   7.871  42.196  1.00  0.00    -0.003 C 
ATOM     18  C   UNL     1      19.142   6.812  42.554  1.00  0.00     0.004 C 
ENDBRANCH  16  17
ENDBRANCH  15  16
ENDBRANCH  14  15
ENDBRANCH  13  14
ENDBRANCH  12  13
ENDBRANCH  11  12
ENDBRANCH   1  11
TORSDOF 14
ENDMDL
