MODEL 1
REMARK VINA RESULT:    -5.824      0.000      0.000
REMARK INTER + INTRA:          -8.081
REMARK INTER:                  -7.696
REMARK INTRA:                  -0.385
REMARK UNBOUND:                -0.385
REMARK SMILES CCCCC=CC=CCO
REMARK SMILES IDX 5 1 6 2 4 3 3 4 2 5 1 6 7 7 8 8 9 9 10 10
REMARK H PARENT 10 11
REMARK Flexibility Score: inf
ROOT
ATOM      1  C   UNL     1      20.236  20.482   4.421  1.00  0.00    -0.027 C 
ATOM      2  C   UNL     1      20.223  19.887   5.617  1.00  0.00    -0.005 C 
ENDROOT
BRANCH   1   3
ATOM      3  C   UNL     1      19.114  21.377   3.975  1.00  0.00     0.027 C 
BRANCH   3   4
ATOM      4  C   UNL     1      18.109  20.616   3.102  1.00  0.00     0.004 C 
BRANCH   4   5
ATOM      5  C   UNL     1      18.831  19.726   2.084  1.00  0.00    -0.003 C 
ATOM      6  C   UNL     1      18.195  18.340   2.015  1.00  0.00     0.004 C 
ENDBRANCH   4   5
ENDBRANCH   3   4
ENDBRANCH   1   3
BRANCH   2   7
ATOM      7  C   UNL     1      21.340  19.021   6.041  1.00  0.00    -0.002 C 
ATOM      8  C   UNL     1      21.527  17.772   5.592  1.00  0.00     0.001 C 
BRANCH   8   9
ATOM      9  C   UNL     1      20.626  17.086   4.604  1.00  0.00     0.183 C 
BRANCH   9  10
ATOM     10  O   UNL     1      21.120  17.232   3.300  1.00  0.00    -0.392 OA
ATOM     11  H   UNL     1      21.323  16.317   2.970  1.00  0.00     0.210 HD
ENDBRANCH   9  10
ENDBRANCH   8   9
ENDBRANCH   2   7
TORSDOF 6
ENDMDL
MODEL 2
REMARK VINA RESULT:    -5.764      1.498      2.831
REMARK INTER + INTRA:          -8.002
REMARK INTER:                  -7.680
REMARK INTRA:                  -0.322
REMARK UNBOUND:                -0.385
REMARK SMILES CCCCC=CC=CCO
REMARK SMILES IDX 5 1 6 2 4 3 3 4 2 5 1 6 7 7 8 8 9 9 10 10
REMARK H PARENT 10 11
REMARK Flexibility Score: inf
ROOT
ATOM      1  C   UNL     1      20.033  17.588   3.286  1.00  0.00    -0.027 C 
ATOM      2  C   UNL     1      20.201  17.252   4.568  1.00  0.00    -0.005 C 
ENDROOT
BRANCH   1   3
ATOM      3  C   UNL     1      18.828  17.142   2.507  1.00  0.00     0.027 C 
BRANCH   3   4
ATOM      4  C   UNL     1      18.177  18.318   1.769  1.00  0.00     0.004 C 
BRANCH   4   5
ATOM      5  C   UNL     1      18.864  19.640   2.130  1.00  0.00    -0.003 C 
ATOM      6  C   UNL     1      17.935  20.542   2.938  1.00  0.00     0.004 C 
ENDBRANCH   4   5
ENDBRANCH   3   4
ENDBRANCH   1   3
BRANCH   2   7
ATOM      7  C   UNL     1      21.386  17.710   5.319  1.00  0.00    -0.002 C 
ATOM      8  C   UNL     1      21.456  18.888   5.954  1.00  0.00     0.001 C 
BRANCH   8   9
ATOM      9  C   UNL     1      20.344  19.899   5.984  1.00  0.00     0.183 C 
BRANCH   9  10
ATOM     10  O   UNL     1      20.475  20.809   4.925  1.00  0.00    -0.392 OA
ATOM     11  H   UNL     1      19.581  20.875   4.495  1.00  0.00     0.210 HD
ENDBRANCH   9  10
ENDBRANCH   8   9
ENDBRANCH   2   7
TORSDOF 6
ENDMDL
MODEL 3
REMARK VINA RESULT:    -5.666      1.523      2.444
REMARK INTER + INTRA:          -7.873
REMARK INTER:                  -7.563
REMARK INTRA:                  -0.310
REMARK UNBOUND:                -0.385
REMARK SMILES CCCCC=CC=CCO
REMARK SMILES IDX 5 1 6 2 4 3 3 4 2 5 1 6 7 7 8 8 9 9 10 10
REMARK H PARENT 10 11
REMARK Flexibility Score: inf
ROOT
ATOM      1  C   UNL     1      18.897  19.960   3.302  1.00  0.00    -0.027 C 
ATOM      2  C   UNL     1      19.913  20.533   3.952  1.00  0.00    -0.005 C 
ENDROOT
BRANCH   1   3
ATOM      3  C   UNL     1      18.875  19.866   1.803  1.00  0.00     0.027 C 
BRANCH   3   4
ATOM      4  C   UNL     1      18.351  18.501   1.339  1.00  0.00     0.004 C 
BRANCH   4   5
ATOM      5  C   UNL     1      18.414  17.474   2.475  1.00  0.00    -0.003 C 
ATOM      6  C   UNL     1      17.441  16.324   2.234  1.00  0.00     0.004 C 
ENDBRANCH   4   5
ENDBRANCH   3   4
ENDBRANCH   1   3
BRANCH   2   7
ATOM      7  C   UNL     1      19.922  20.605   5.427  1.00  0.00    -0.002 C 
ATOM      8  C   UNL     1      20.612  19.764   6.210  1.00  0.00     0.001 C 
BRANCH   8   9
ATOM      9  C   UNL     1      21.463  18.637   5.695  1.00  0.00     0.183 C 
BRANCH   9  10
ATOM     10  O   UNL     1      22.418  18.263   6.651  1.00  0.00    -0.392 OA
ATOM     11  H   UNL     1      22.128  18.663   7.513  1.00  0.00     0.210 HD
ENDBRANCH   9  10
ENDBRANCH   8   9
ENDBRANCH   2   7
TORSDOF 6
ENDMDL
MODEL 4
REMARK VINA RESULT:    -5.595      1.459      3.829
REMARK INTER + INTRA:          -7.779
REMARK INTER:                  -7.371
REMARK INTRA:                  -0.408
REMARK UNBOUND:                -0.385
REMARK SMILES CCCCC=CC=CCO
REMARK SMILES IDX 5 1 6 2 4 3 3 4 2 5 1 6 7 7 8 8 9 9 10 10
REMARK H PARENT 10 11
REMARK Flexibility Score: inf
ROOT
ATOM      1  C   UNL     1      19.015  20.493   3.683  1.00  0.00    -0.027 C 
ATOM      2  C   UNL     1      19.516  19.831   2.636  1.00  0.00    -0.005 C 
ENDROOT
BRANCH   1   3
ATOM      3  C   UNL     1      19.891  20.962   4.810  1.00  0.00     0.027 C 
BRANCH   3   4
ATOM      4  C   UNL     1      19.968  19.914   5.926  1.00  0.00     0.004 C 
BRANCH   4   5
ATOM      5  C   UNL     1      21.263  19.099   5.825  1.00  0.00    -0.003 C 
ATOM      6  C   UNL     1      20.987  17.687   5.316  1.00  0.00     0.004 C 
ENDBRANCH   4   5
ENDBRANCH   3   4
ENDBRANCH   1   3
BRANCH   2   7
ATOM      7  C   UNL     1      18.641  19.389   1.532  1.00  0.00    -0.002 C 
ATOM      8  C   UNL     1      18.129  18.155   1.436  1.00  0.00     0.001 C 
BRANCH   8   9
ATOM      9  C   UNL     1      18.378  17.057   2.433  1.00  0.00     0.183 C 
BRANCH   9  10
ATOM     10  O   UNL     1      17.497  15.987   2.219  1.00  0.00    -0.392 OA
ATOM     11  H   UNL     1      16.658  16.378   1.859  1.00  0.00     0.210 HD
ENDBRANCH   9  10
ENDBRANCH   8   9
ENDBRANCH   2   7
TORSDOF 6
ENDMDL
MODEL 5
REMARK VINA RESULT:    -5.308      1.646      4.289
REMARK INTER + INTRA:          -7.399
REMARK INTER:                  -7.208
REMARK INTRA:                  -0.192
REMARK UNBOUND:                -0.385
REMARK SMILES CCCCC=CC=CCO
REMARK SMILES IDX 5 1 6 2 4 3 3 4 2 5 1 6 7 7 8 8 9 9 10 10
REMARK H PARENT 10 11
REMARK Flexibility Score: inf
ROOT
ATOM      1  C   UNL     1      20.089  17.383   4.666  1.00  0.00    -0.027 C 
ATOM      2  C   UNL     1      20.117  17.360   3.330  1.00  0.00    -0.005 C 
ENDROOT
BRANCH   1   3
ATOM      3  C   UNL     1      21.338  17.578   5.476  1.00  0.00     0.027 C 
BRANCH   3   4
ATOM      4  C   UNL     1      21.495  19.040   5.913  1.00  0.00     0.004 C 
BRANCH   4   5
ATOM      5  C   UNL     1      20.131  19.733   6.007  1.00  0.00    -0.003 C 
ATOM      6  C   UNL     1      19.997  20.832   4.956  1.00  0.00     0.004 C 
ENDBRANCH   4   5
ENDBRANCH   3   4
ENDBRANCH   1   3
BRANCH   2   7
ATOM      7  C   UNL     1      18.877  17.180   2.551  1.00  0.00    -0.002 C 
ATOM      8  C   UNL     1      18.309  18.149   1.819  1.00  0.00     0.001 C 
BRANCH   8   9
ATOM      9  C   UNL     1      18.854  19.544   1.697  1.00  0.00     0.183 C 
BRANCH   9  10
ATOM     10  O   UNL     1      18.114  20.434   2.488  1.00  0.00    -0.392 OA
ATOM     11  H   UNL     1      18.494  21.338   2.329  1.00  0.00     0.210 HD
ENDBRANCH   9  10
ENDBRANCH   8   9
ENDBRANCH   2   7
TORSDOF 6
ENDMDL
MODEL 6
REMARK VINA RESULT:    -4.829     13.548     15.144
REMARK INTER + INTRA:          -6.766
REMARK INTER:                  -6.509
REMARK INTRA:                  -0.257
REMARK UNBOUND:                -0.385
REMARK SMILES CCCCC=CC=CCO
REMARK SMILES IDX 5 1 6 2 4 3 3 4 2 5 1 6 7 7 8 8 9 9 10 10
REMARK H PARENT 10 11
REMARK Flexibility Score: inf
ROOT
ATOM      1  C   UNL     1      25.237   9.430  13.415  1.00  0.00    -0.027 C 
ATOM      2  C   UNL     1      24.776   9.600  14.658  1.00  0.00    -0.005 C 
ENDROOT
BRANCH   1   3
ATOM      3  C   UNL     1      25.544   8.064  12.870  1.00  0.00     0.027 C 
BRANCH   3   4
ATOM      4  C   UNL     1      25.837   8.120  11.365  1.00  0.00     0.004 C 
BRANCH   4   5
ATOM      5  C   UNL     1      26.000   9.569  10.891  1.00  0.00    -0.003 C 
ATOM      6  C   UNL     1      26.444   9.625   9.432  1.00  0.00     0.004 C 
ENDBRANCH   4   5
ENDBRANCH   3   4
ENDBRANCH   1   3
BRANCH   2   7
ATOM      7  C   UNL     1      24.468  10.949  15.171  1.00  0.00    -0.002 C 
ATOM      8  C   UNL     1      24.810  11.376  16.395  1.00  0.00     0.001 C 
BRANCH   8   9
ATOM      9  C   UNL     1      25.544  10.542  17.406  1.00  0.00     0.183 C 
BRANCH   9  10
ATOM     10  O   UNL     1      26.189  11.359  18.346  1.00  0.00    -0.392 OA
ATOM     11  H   UNL     1      27.162  11.294  18.158  1.00  0.00     0.210 HD
ENDBRANCH   9  10
ENDBRANCH   8   9
ENDBRANCH   2   7
TORSDOF 6
ENDMDL
MODEL 7
REMARK VINA RESULT:    -4.754     10.886     13.519
REMARK INTER + INTRA:          -6.667
REMARK INTER:                  -6.203
REMARK INTRA:                  -0.465
REMARK UNBOUND:                -0.385
REMARK SMILES CCCCC=CC=CCO
REMARK SMILES IDX 5 1 6 2 4 3 3 4 2 5 1 6 7 7 8 8 9 9 10 10
REMARK H PARENT 10 11
REMARK Flexibility Score: inf
ROOT
ATOM      1  C   UNL     1      24.899   9.488  13.831  1.00  0.00    -0.027 C 
ATOM      2  C   UNL     1      25.319  10.465  13.023  1.00  0.00    -0.005 C 
ENDROOT
BRANCH   1   3
ATOM      3  C   UNL     1      24.765   9.695  15.313  1.00  0.00     0.027 C 
BRANCH   3   4
ATOM      4  C   UNL     1      24.391  11.146  15.640  1.00  0.00     0.004 C 
BRANCH   4   5
ATOM      5  C   UNL     1      22.869  11.326  15.669  1.00  0.00    -0.003 C 
ATOM      6  C   UNL     1      22.411  12.325  14.611  1.00  0.00     0.004 C 
ENDBRANCH   4   5
ENDBRANCH   3   4
ENDBRANCH   1   3
BRANCH   2   7
ATOM      7  C   UNL     1      25.432  10.246  11.568  1.00  0.00    -0.002 C 
ATOM      8  C   UNL     1      24.683  10.883  10.658  1.00  0.00     0.001 C 
BRANCH   8   9
ATOM      9  C   UNL     1      23.628  11.900  10.995  1.00  0.00     0.183 C 
BRANCH   9  10
ATOM     10  O   UNL     1      23.946  13.145  10.434  1.00  0.00    -0.392 OA
ATOM     11  H   UNL     1      23.825  13.053   9.452  1.00  0.00     0.210 HD
ENDBRANCH   9  10
ENDBRANCH   8   9
ENDBRANCH   2   7
TORSDOF 6
ENDMDL
MODEL 8
REMARK VINA RESULT:    -4.723     12.611     14.452
REMARK INTER + INTRA:          -6.626
REMARK INTER:                  -6.371
REMARK INTRA:                  -0.255
REMARK UNBOUND:                -0.385
REMARK SMILES CCCCC=CC=CCO
REMARK SMILES IDX 5 1 6 2 4 3 3 4 2 5 1 6 7 7 8 8 9 9 10 10
REMARK H PARENT 10 11
REMARK Flexibility Score: inf
ROOT
ATOM      1  C   UNL     1      25.115   8.271  13.752  1.00  0.00    -0.027 C 
ATOM      2  C   UNL     1      25.557   8.790  12.603  1.00  0.00    -0.005 C 
ENDROOT
BRANCH   1   3
ATOM      3  C   UNL     1      24.786   9.139  14.933  1.00  0.00     0.027 C 
BRANCH   3   4
ATOM      4  C   UNL     1      24.651  10.610  14.521  1.00  0.00     0.004 C 
BRANCH   4   5
ATOM      5  C   UNL     1      23.984  11.432  15.630  1.00  0.00    -0.003 C 
ATOM      6  C   UNL     1      22.474  11.216  15.643  1.00  0.00     0.004 C 
ENDBRANCH   4   5
ENDBRANCH   3   4
ENDBRANCH   1   3
BRANCH   2   7
ATOM      7  C   UNL     1      25.863   7.921  11.450  1.00  0.00    -0.002 C 
ATOM      8  C   UNL     1      25.979   8.367  10.191  1.00  0.00     0.001 C 
BRANCH   8   9
ATOM      9  C   UNL     1      25.809   9.804   9.785  1.00  0.00     0.183 C 
BRANCH   9  10
ATOM     10  O   UNL     1      26.636  10.110   8.694  1.00  0.00    -0.392 OA
ATOM     11  H   UNL     1      26.065  10.577   8.028  1.00  0.00     0.210 HD
ENDBRANCH   9  10
ENDBRANCH   8   9
ENDBRANCH   2   7
TORSDOF 6
ENDMDL
MODEL 9
REMARK VINA RESULT:    -4.647     13.169     14.259
REMARK INTER + INTRA:          -6.526
REMARK INTER:                  -6.243
REMARK INTRA:                  -0.284
REMARK UNBOUND:                -0.385
REMARK SMILES CCCCC=CC=CCO
REMARK SMILES IDX 5 1 6 2 4 3 3 4 2 5 1 6 7 7 8 8 9 9 10 10
REMARK H PARENT 10 11
REMARK Flexibility Score: inf
ROOT
ATOM      1  C   UNL     1      25.102   8.663  13.465  1.00  0.00    -0.027 C 
ATOM      2  C   UNL     1      25.109   9.892  13.988  1.00  0.00    -0.005 C 
ENDROOT
BRANCH   1   3
ATOM      3  C   UNL     1      25.579   8.401  12.065  1.00  0.00     0.027 C 
BRANCH   3   4
ATOM      4  C   UNL     1      25.877   9.711  11.325  1.00  0.00     0.004 C 
BRANCH   4   5
ATOM      5  C   UNL     1      26.168   9.450   9.843  1.00  0.00    -0.003 C 
ATOM      6  C   UNL     1      25.905   7.992   9.478  1.00  0.00     0.004 C 
ENDBRANCH   4   5
ENDBRANCH   3   4
ENDBRANCH   1   3
BRANCH   2   7
ATOM      7  C   UNL     1      24.647  10.127  15.371  1.00  0.00    -0.002 C 
ATOM      8  C   UNL     1      23.811  11.115  15.719  1.00  0.00     0.001 C 
BRANCH   8   9
ATOM      9  C   UNL     1      23.235  12.114  14.755  1.00  0.00     0.183 C 
BRANCH   9  10
ATOM     10  O   UNL     1      22.692  13.208  15.443  1.00  0.00    -0.392 OA
ATOM     11  H   UNL     1      22.702  12.969  16.408  1.00  0.00     0.210 HD
ENDBRANCH   9  10
ENDBRANCH   8   9
ENDBRANCH   2   7
TORSDOF 6
ENDMDL
