MODEL 1
REMARK VINA RESULT:    -8.136      0.000      0.000
REMARK INTER + INTRA:          -9.826
REMARK INTER:                  -9.563
REMARK INTRA:                  -0.263
REMARK UNBOUND:                -0.263
REMARK SMILES O=c1cc(-c2ccc(O)c(O)c2)oc2cc(O)cc(O)c12
REMARK SMILES IDX 4 1 3 2 2 3 1 4 21 5 19 6 18 7 16 8 15 9 14 10 13 11 5 12
REMARK SMILES IDX 6 13 7 14 8 15 12 16 10 17 9 18 11 20 20 22 17 24
REMARK H PARENT 9 19 11 21 20 23 17 25
REMARK Flexibility Score: inf
ROOT
ATOM      1  C   UNL     1      14.057  44.955   6.765  1.00  0.00     0.138 A 
ATOM      2  C   UNL     1      15.354  45.482   6.830  1.00  0.00     0.100 A 
ATOM      3  C   UNL     1      16.387  44.708   7.361  1.00  0.00     0.197 A 
ATOM      4  O   UNL     1      17.552  45.184   7.349  1.00  0.00    -0.289 OA
ATOM      5  C   UNL     1      16.111  43.413   7.860  1.00  0.00     0.107 A 
ATOM      6  C   UNL     1      17.075  42.551   8.462  1.00  0.00     0.134 A 
ATOM      7  C   UNL     1      16.711  41.245   8.812  1.00  0.00     0.093 A 
ATOM      8  C   UNL     1      15.404  40.790   8.640  1.00  0.00     0.123 A 
ATOM      9  C   UNL     1      14.438  41.644   8.103  1.00  0.00     0.094 A 
ATOM     10  C   UNL     1      14.780  42.940   7.711  1.00  0.00     0.146 A 
ATOM     11  O   UNL     1      13.834  43.716   7.189  1.00  0.00    -0.456 OA
ENDROOT
BRANCH   1  12
ATOM     12  C   UNL     1      12.922  45.735   6.210  1.00  0.00     0.021 A 
ATOM     13  C   UNL     1      11.992  46.323   7.087  1.00  0.00     0.016 A 
ATOM     14  C   UNL     1      10.919  47.067   6.590  1.00  0.00     0.051 A 
ATOM     15  C   UNL     1      10.763  47.246   5.210  1.00  0.00     0.157 A 
ATOM     16  C   UNL     1      12.765  45.931   4.824  1.00  0.00     0.062 A 
ATOM     17  C   UNL     1      11.688  46.680   4.326  1.00  0.00     0.158 A 
BRANCH  15  18
ATOM     18  O   UNL     1       9.693  47.988   4.712  1.00  0.00    -0.504 OA
ATOM     19  H   UNL     1       9.813  48.642   3.947  1.00  0.00     0.293 HD
ENDBRANCH  15  18
BRANCH  17  20
ATOM     20  O   UNL     1      11.536  46.871   2.955  1.00  0.00    -0.504 OA
ATOM     21  H   UNL     1      10.623  47.004   2.535  1.00  0.00     0.293 HD
ENDBRANCH  17  20
ENDBRANCH   1  12
BRANCH   6  22
ATOM     22  O   UNL     1      18.388  42.932   8.756  1.00  0.00    -0.507 OA
ATOM     23  H   UNL     1      18.662  43.844   9.090  1.00  0.00     0.293 HD
ENDBRANCH   6  22
BRANCH   8  24
ATOM     24  O   UNL     1      15.074  39.490   9.014  1.00  0.00    -0.508 OA
ATOM     25  H   UNL     1      14.902  39.245   9.982  1.00  0.00     0.293 HD
ENDBRANCH   8  24
TORSDOF 5
ENDMDL
MODEL 2
REMARK VINA RESULT:    -8.069      2.176      3.045
REMARK INTER + INTRA:          -9.748
REMARK INTER:                  -9.471
REMARK INTRA:                  -0.276
REMARK UNBOUND:                -0.263
REMARK SMILES O=c1cc(-c2ccc(O)c(O)c2)oc2cc(O)cc(O)c12
REMARK SMILES IDX 4 1 3 2 2 3 1 4 21 5 19 6 18 7 16 8 15 9 14 10 13 11 5 12
REMARK SMILES IDX 6 13 7 14 8 15 12 16 10 17 9 18 11 20 20 22 17 24
REMARK H PARENT 9 19 11 21 20 23 17 25
REMARK Flexibility Score: inf
ROOT
ATOM      1  C   UNL     1      13.132  45.403   6.268  1.00  0.00     0.138 A 
ATOM      2  C   UNL     1      13.442  44.975   4.970  1.00  0.00     0.100 A 
ATOM      3  C   UNL     1      14.684  44.391   4.714  1.00  0.00     0.197 A 
ATOM      4  O   UNL     1      14.910  43.961   3.553  1.00  0.00    -0.289 OA
ATOM      5  C   UNL     1      15.630  44.265   5.758  1.00  0.00     0.107 A 
ATOM      6  C   UNL     1      16.942  43.724   5.606  1.00  0.00     0.134 A 
ATOM      7  C   UNL     1      17.749  43.541   6.735  1.00  0.00     0.093 A 
ATOM      8  C   UNL     1      17.318  43.935   8.002  1.00  0.00     0.123 A 
ATOM      9  C   UNL     1      16.057  44.516   8.155  1.00  0.00     0.094 A 
ATOM     10  C   UNL     1      15.215  44.679   7.052  1.00  0.00     0.146 A 
ATOM     11  O   UNL     1      14.017  45.223   7.243  1.00  0.00    -0.456 OA
ENDROOT
BRANCH   1  12
ATOM     12  C   UNL     1      11.827  46.031   6.595  1.00  0.00     0.021 A 
ATOM     13  C   UNL     1      11.113  45.595   7.726  1.00  0.00     0.016 A 
ATOM     14  C   UNL     1       9.887  46.174   8.059  1.00  0.00     0.051 A 
ATOM     15  C   UNL     1       9.357  47.207   7.275  1.00  0.00     0.157 A 
ATOM     16  C   UNL     1      11.295  47.080   5.820  1.00  0.00     0.062 A 
ATOM     17  C   UNL     1      10.063  47.663   6.156  1.00  0.00     0.158 A 
BRANCH  15  18
ATOM     18  O   UNL     1       8.134  47.788   7.605  1.00  0.00    -0.504 OA
ATOM     19  H   UNL     1       7.513  48.156   6.894  1.00  0.00     0.293 HD
ENDBRANCH  15  18
BRANCH  17  20
ATOM     20  O   UNL     1       9.540  48.698   5.386  1.00  0.00    -0.504 OA
ATOM     21  H   UNL     1       9.759  49.669   5.581  1.00  0.00     0.293 HD
ENDBRANCH  17  20
ENDBRANCH   1  12
BRANCH   6  22
ATOM     22  O   UNL     1      17.505  43.375   4.374  1.00  0.00    -0.507 OA
ATOM     23  H   UNL     1      18.485  43.194   4.219  1.00  0.00     0.293 HD
ENDBRANCH   6  22
BRANCH   8  24
ATOM     24  O   UNL     1      18.154  43.752   9.101  1.00  0.00    -0.508 OA
ATOM     25  H   UNL     1      17.787  43.491  10.008  1.00  0.00     0.293 HD
ENDBRANCH   8  24
TORSDOF 5
ENDMDL
MODEL 3
REMARK VINA RESULT:    -7.647      1.991      2.943
REMARK INTER + INTRA:          -9.251
REMARK INTER:                  -8.963
REMARK INTRA:                  -0.288
REMARK UNBOUND:                -0.263
REMARK SMILES O=c1cc(-c2ccc(O)c(O)c2)oc2cc(O)cc(O)c12
REMARK SMILES IDX 4 1 3 2 2 3 1 4 21 5 19 6 18 7 16 8 15 9 14 10 13 11 5 12
REMARK SMILES IDX 6 13 7 14 8 15 12 16 10 17 9 18 11 20 20 22 17 24
REMARK H PARENT 9 19 11 21 20 23 17 25
REMARK Flexibility Score: inf
ROOT
ATOM      1  C   UNL     1      12.100  45.450   6.418  1.00  0.00     0.138 A 
ATOM      2  C   UNL     1      12.633  45.292   5.131  1.00  0.00     0.100 A 
ATOM      3  C   UNL     1      13.740  44.464   4.939  1.00  0.00     0.197 A 
ATOM      4  O   UNL     1      14.158  44.293   3.765  1.00  0.00    -0.289 OA
ATOM      5  C   UNL     1      14.334  43.816   6.048  1.00  0.00     0.107 A 
ATOM      6  C   UNL     1      15.489  42.981   5.979  1.00  0.00     0.134 A 
ATOM      7  C   UNL     1      15.917  42.298   7.124  1.00  0.00     0.093 A 
ATOM      8  C   UNL     1      15.271  42.467   8.348  1.00  0.00     0.123 A 
ATOM      9  C   UNL     1      14.173  43.325   8.440  1.00  0.00     0.094 A 
ATOM     10  C   UNL     1      13.700  43.992   7.307  1.00  0.00     0.146 A 
ATOM     11  O   UNL     1      12.642  44.787   7.434  1.00  0.00    -0.456 OA
ENDROOT
BRANCH   1  12
ATOM     12  C   UNL     1      10.925  46.320   6.678  1.00  0.00     0.021 A 
ATOM     13  C   UNL     1      10.059  46.012   7.742  1.00  0.00     0.016 A 
ATOM     14  C   UNL     1       8.950  46.818   8.012  1.00  0.00     0.051 A 
ATOM     15  C   UNL     1       8.695  47.952   7.231  1.00  0.00     0.157 A 
ATOM     16  C   UNL     1      10.669  47.469   5.905  1.00  0.00     0.062 A 
ATOM     17  C   UNL     1       9.556  48.280   6.178  1.00  0.00     0.158 A 
BRANCH  15  18
ATOM     18  O   UNL     1       7.590  48.758   7.497  1.00  0.00    -0.504 OA
ATOM     19  H   UNL     1       7.594  49.749   7.286  1.00  0.00     0.293 HD
ENDBRANCH  15  18
BRANCH  17  20
ATOM     20  O   UNL     1       9.306  49.414   5.410  1.00  0.00    -0.504 OA
ATOM     21  H   UNL     1       8.369  49.652   5.103  1.00  0.00     0.293 HD
ENDBRANCH  17  20
ENDBRANCH   1  12
BRANCH   6  22
ATOM     22  O   UNL     1      16.260  42.808   4.825  1.00  0.00    -0.507 OA
ATOM     23  H   UNL     1      15.954  43.029   3.890  1.00  0.00     0.293 HD
ENDBRANCH   6  22
BRANCH   8  24
ATOM     24  O   UNL     1      15.735  41.784   9.471  1.00  0.00    -0.508 OA
ATOM     25  H   UNL     1      15.624  42.162  10.404  1.00  0.00     0.293 HD
ENDBRANCH   8  24
TORSDOF 5
ENDMDL
MODEL 4
REMARK VINA RESULT:    -7.632      1.600      7.173
REMARK INTER + INTRA:          -9.234
REMARK INTER:                  -8.939
REMARK INTRA:                  -0.295
REMARK UNBOUND:                -0.263
REMARK SMILES O=c1cc(-c2ccc(O)c(O)c2)oc2cc(O)cc(O)c12
REMARK SMILES IDX 4 1 3 2 2 3 1 4 21 5 19 6 18 7 16 8 15 9 14 10 13 11 5 12
REMARK SMILES IDX 6 13 7 14 8 15 12 16 10 17 9 18 11 20 20 22 17 24
REMARK H PARENT 9 19 11 21 20 23 17 25
REMARK Flexibility Score: inf
ROOT
ATOM      1  C   UNL     1      13.465  45.371   6.969  1.00  0.00     0.138 A 
ATOM      2  C   UNL     1      13.521  45.869   5.660  1.00  0.00     0.100 A 
ATOM      3  C   UNL     1      12.420  46.544   5.131  1.00  0.00     0.197 A 
ATOM      4  O   UNL     1      12.522  47.033   3.976  1.00  0.00    -0.289 OA
ATOM      5  C   UNL     1      11.246  46.691   5.906  1.00  0.00     0.107 A 
ATOM      6  C   UNL     1      10.049  47.323   5.457  1.00  0.00     0.134 A 
ATOM      7  C   UNL     1       8.990  47.515   6.353  1.00  0.00     0.093 A 
ATOM      8  C   UNL     1       9.061  47.044   7.664  1.00  0.00     0.123 A 
ATOM      9  C   UNL     1      10.206  46.375   8.099  1.00  0.00     0.094 A 
ATOM     10  C   UNL     1      11.293  46.200   7.238  1.00  0.00     0.146 A 
ATOM     11  O   UNL     1      12.371  45.571   7.696  1.00  0.00    -0.456 OA
ENDROOT
BRANCH   1  12
ATOM     12  C   UNL     1      14.607  44.645   7.581  1.00  0.00     0.021 A 
ATOM     13  C   UNL     1      15.915  45.123   7.386  1.00  0.00     0.016 A 
ATOM     14  C   UNL     1      17.005  44.463   7.956  1.00  0.00     0.051 A 
ATOM     15  C   UNL     1      16.807  43.320   8.741  1.00  0.00     0.157 A 
ATOM     16  C   UNL     1      14.414  43.503   8.383  1.00  0.00     0.062 A 
ATOM     17  C   UNL     1      15.510  42.841   8.958  1.00  0.00     0.158 A 
BRANCH  15  18
ATOM     18  O   UNL     1      17.893  42.659   9.312  1.00  0.00    -0.504 OA
ATOM     19  H   UNL     1      18.491  42.050   8.765  1.00  0.00     0.293 HD
ENDBRANCH  15  18
BRANCH  17  20
ATOM     20  O   UNL     1      15.316  41.711   9.748  1.00  0.00    -0.504 OA
ATOM     21  H   UNL     1      15.068  40.815   9.343  1.00  0.00     0.293 HD
ENDBRANCH  17  20
ENDBRANCH   1  12
BRANCH   6  22
ATOM     22  O   UNL     1       9.840  47.757   4.144  1.00  0.00    -0.507 OA
ATOM     23  H   UNL     1       8.947  48.032   3.763  1.00  0.00     0.293 HD
ENDBRANCH   6  22
BRANCH   8  24
ATOM     24  O   UNL     1       7.982  47.238   8.523  1.00  0.00    -0.508 OA
ATOM     25  H   UNL     1       7.543  46.464   9.006  1.00  0.00     0.293 HD
ENDBRANCH   8  24
TORSDOF 5
ENDMDL
MODEL 5
REMARK VINA RESULT:    -7.560      2.726      7.428
REMARK INTER + INTRA:          -9.149
REMARK INTER:                  -8.860
REMARK INTRA:                  -0.289
REMARK UNBOUND:                -0.263
REMARK SMILES O=c1cc(-c2ccc(O)c(O)c2)oc2cc(O)cc(O)c12
REMARK SMILES IDX 4 1 3 2 2 3 1 4 21 5 19 6 18 7 16 8 15 9 14 10 13 11 5 12
REMARK SMILES IDX 6 13 7 14 8 15 12 16 10 17 9 18 11 20 20 22 17 24
REMARK H PARENT 9 19 11 21 20 23 17 25
REMARK Flexibility Score: inf
ROOT
ATOM      1  C   UNL     1      11.876  45.138   6.239  1.00  0.00     0.138 A 
ATOM      2  C   UNL     1      11.173  44.452   7.240  1.00  0.00     0.100 A 
ATOM      3  C   UNL     1      10.056  45.046   7.828  1.00  0.00     0.197 A 
ATOM      4  O   UNL     1       9.409  44.381   8.679  1.00  0.00    -0.289 OA
ATOM      5  C   UNL     1       9.660  46.346   7.434  1.00  0.00     0.107 A 
ATOM      6  C   UNL     1       8.563  47.066   7.994  1.00  0.00     0.134 A 
ATOM      7  C   UNL     1       8.193  48.299   7.442  1.00  0.00     0.093 A 
ATOM      8  C   UNL     1       8.917  48.866   6.394  1.00  0.00     0.123 A 
ATOM      9  C   UNL     1      10.026  48.196   5.875  1.00  0.00     0.094 A 
ATOM     10  C   UNL     1      10.398  46.948   6.380  1.00  0.00     0.146 A 
ATOM     11  O   UNL     1      11.451  46.335   5.848  1.00  0.00    -0.456 OA
ENDROOT
BRANCH   1  12
ATOM     12  C   UNL     1      13.071  44.554   5.580  1.00  0.00     0.021 A 
ATOM     13  C   UNL     1      13.406  44.953   4.274  1.00  0.00     0.016 A 
ATOM     14  C   UNL     1      14.529  44.424   3.635  1.00  0.00     0.051 A 
ATOM     15  C   UNL     1      15.345  43.495   4.294  1.00  0.00     0.157 A 
ATOM     16  C   UNL     1      13.904  43.630   6.242  1.00  0.00     0.062 A 
ATOM     17  C   UNL     1      15.034  43.100   5.600  1.00  0.00     0.158 A 
BRANCH  15  18
ATOM     18  O   UNL     1      16.466  42.965   3.659  1.00  0.00    -0.504 OA
ATOM     19  H   UNL     1      17.159  43.561   3.221  1.00  0.00     0.293 HD
ENDBRANCH  15  18
BRANCH  17  20
ATOM     20  O   UNL     1      15.853  42.185   6.256  1.00  0.00    -0.504 OA
ATOM     21  H   UNL     1      15.502  41.601   7.007  1.00  0.00     0.293 HD
ENDBRANCH  17  20
ENDBRANCH   1  12
BRANCH   6  22
ATOM     22  O   UNL     1       7.823  46.630   9.097  1.00  0.00    -0.507 OA
ATOM     23  H   UNL     1       7.262  47.226   9.687  1.00  0.00     0.293 HD
ENDBRANCH   6  22
BRANCH   8  24
ATOM     24  O   UNL     1       8.530  50.102   5.880  1.00  0.00    -0.508 OA
ATOM     25  H   UNL     1       7.594  50.259   5.526  1.00  0.00     0.293 HD
ENDBRANCH   8  24
TORSDOF 5
ENDMDL
MODEL 6
REMARK VINA RESULT:    -7.515      2.115      7.298
REMARK INTER + INTRA:          -9.097
REMARK INTER:                  -8.790
REMARK INTRA:                  -0.307
REMARK UNBOUND:                -0.263
REMARK SMILES O=c1cc(-c2ccc(O)c(O)c2)oc2cc(O)cc(O)c12
REMARK SMILES IDX 4 1 3 2 2 3 1 4 21 5 19 6 18 7 16 8 15 9 14 10 13 11 5 12
REMARK SMILES IDX 6 13 7 14 8 15 12 16 10 17 9 18 11 20 20 22 17 24
REMARK H PARENT 9 19 11 21 20 23 17 25
REMARK Flexibility Score: inf
ROOT
ATOM      1  C   UNL     1      13.019  44.783   8.277  1.00  0.00     0.138 A 
ATOM      2  C   UNL     1      12.061  44.382   9.219  1.00  0.00     0.100 A 
ATOM      3  C   UNL     1      10.759  44.879   9.135  1.00  0.00     0.197 A 
ATOM      4  O   UNL     1       9.907  44.453   9.956  1.00  0.00    -0.289 OA
ATOM      5  C   UNL     1      10.426  45.808   8.121  1.00  0.00     0.107 A 
ATOM      6  C   UNL     1       9.144  46.413   7.963  1.00  0.00     0.134 A 
ATOM      7  C   UNL     1       8.897  47.229   6.852  1.00  0.00     0.093 A 
ATOM      8  C   UNL     1       9.902  47.511   5.927  1.00  0.00     0.123 A 
ATOM      9  C   UNL     1      11.176  46.969   6.101  1.00  0.00     0.094 A 
ATOM     10  C   UNL     1      11.443  46.123   7.180  1.00  0.00     0.146 A 
ATOM     11  O   UNL     1      12.665  45.614   7.302  1.00  0.00    -0.456 OA
ENDROOT
BRANCH   1  12
ATOM     12  C   UNL     1      14.417  44.286   8.320  1.00  0.00     0.021 A 
ATOM     13  C   UNL     1      14.684  43.018   8.867  1.00  0.00     0.016 A 
ATOM     14  C   UNL     1      15.989  42.525   8.914  1.00  0.00     0.051 A 
ATOM     15  C   UNL     1      17.050  43.284   8.405  1.00  0.00     0.157 A 
ATOM     16  C   UNL     1      15.487  45.039   7.798  1.00  0.00     0.062 A 
ATOM     17  C   UNL     1      16.799  44.541   7.843  1.00  0.00     0.158 A 
BRANCH  15  18
ATOM     18  O   UNL     1      18.354  42.794   8.449  1.00  0.00    -0.504 OA
ATOM     19  H   UNL     1      19.108  43.249   7.947  1.00  0.00     0.293 HD
ENDBRANCH  15  18
BRANCH  17  20
ATOM     20  O   UNL     1      17.854  45.289   7.327  1.00  0.00    -0.504 OA
ATOM     21  H   UNL     1      18.226  46.093   7.819  1.00  0.00     0.293 HD
ENDBRANCH  17  20
ENDBRANCH   1  12
BRANCH   6  22
ATOM     22  O   UNL     1       8.093  46.266   8.874  1.00  0.00    -0.507 OA
ATOM     23  H   UNL     1       7.177  45.911   8.645  1.00  0.00     0.293 HD
ENDBRANCH   6  22
BRANCH   8  24
ATOM     24  O   UNL     1       9.625  48.340   4.842  1.00  0.00    -0.508 OA
ATOM     25  H   UNL     1       9.143  47.994   4.021  1.00  0.00     0.293 HD
ENDBRANCH   8  24
TORSDOF 5
ENDMDL
MODEL 7
REMARK VINA RESULT:    -7.390      2.843      6.891
REMARK INTER + INTRA:          -8.949
REMARK INTER:                  -8.635
REMARK INTRA:                  -0.314
REMARK UNBOUND:                -0.263
REMARK SMILES O=c1cc(-c2ccc(O)c(O)c2)oc2cc(O)cc(O)c12
REMARK SMILES IDX 4 1 3 2 2 3 1 4 21 5 19 6 18 7 16 8 15 9 14 10 13 11 5 12
REMARK SMILES IDX 6 13 7 14 8 15 12 16 10 17 9 18 11 20 20 22 17 24
REMARK H PARENT 9 19 11 21 20 23 17 25
REMARK Flexibility Score: inf
ROOT
ATOM      1  C   UNL     1      11.909  45.677   6.009  1.00  0.00     0.138 A 
ATOM      2  C   UNL     1      11.491  46.918   5.508  1.00  0.00     0.100 A 
ATOM      3  C   UNL     1      10.393  47.559   6.083  1.00  0.00     0.197 A 
ATOM      4  O   UNL     1      10.080  48.700   5.653  1.00  0.00    -0.289 OA
ATOM      5  C   UNL     1       9.691  46.938   7.143  1.00  0.00     0.107 A 
ATOM      6  C   UNL     1       8.533  47.479   7.778  1.00  0.00     0.134 A 
ATOM      7  C   UNL     1       7.993  46.831   8.895  1.00  0.00     0.093 A 
ATOM      8  C   UNL     1       8.528  45.631   9.363  1.00  0.00     0.123 A 
ATOM      9  C   UNL     1       9.628  45.064   8.715  1.00  0.00     0.094 A 
ATOM     10  C   UNL     1      10.211  45.706   7.620  1.00  0.00     0.146 A 
ATOM     11  O   UNL     1      11.267  45.141   7.041  1.00  0.00    -0.456 OA
ENDROOT
BRANCH   1  12
ATOM     12  C   UNL     1      13.070  44.951   5.434  1.00  0.00     0.021 A 
ATOM     13  C   UNL     1      13.571  45.332   4.177  1.00  0.00     0.016 A 
ATOM     14  C   UNL     1      14.666  44.669   3.618  1.00  0.00     0.051 A 
ATOM     15  C   UNL     1      15.287  43.622   4.310  1.00  0.00     0.157 A 
ATOM     16  C   UNL     1      13.708  43.905   6.131  1.00  0.00     0.062 A 
ATOM     17  C   UNL     1      14.809  43.241   5.569  1.00  0.00     0.158 A 
BRANCH  15  18
ATOM     18  O   UNL     1      16.380  42.959   3.755  1.00  0.00    -0.504 OA
ATOM     19  H   UNL     1      16.514  42.904   2.752  1.00  0.00     0.293 HD
ENDBRANCH  15  18
BRANCH  17  20
ATOM     20  O   UNL     1      15.436  42.208   6.260  1.00  0.00    -0.504 OA
ATOM     21  H   UNL     1      14.906  41.466   6.703  1.00  0.00     0.293 HD
ENDBRANCH  17  20
ENDBRANCH   1  12
BRANCH   6  22
ATOM     22  O   UNL     1       7.867  48.628   7.340  1.00  0.00    -0.507 OA
ATOM     23  H   UNL     1       6.896  48.834   7.520  1.00  0.00     0.293 HD
ENDBRANCH   6  22
BRANCH   8  24
ATOM     24  O   UNL     1       7.955  45.006  10.467  1.00  0.00    -0.508 OA
ATOM     25  H   UNL     1       8.522  44.626  11.215  1.00  0.00     0.293 HD
ENDBRANCH   8  24
TORSDOF 5
ENDMDL
MODEL 8
REMARK VINA RESULT:    -7.360      2.674      4.055
REMARK INTER + INTRA:          -8.914
REMARK INTER:                  -8.618
REMARK INTRA:                  -0.296
REMARK UNBOUND:                -0.263
REMARK SMILES O=c1cc(-c2ccc(O)c(O)c2)oc2cc(O)cc(O)c12
REMARK SMILES IDX 4 1 3 2 2 3 1 4 21 5 19 6 18 7 16 8 15 9 14 10 13 11 5 12
REMARK SMILES IDX 6 13 7 14 8 15 12 16 10 17 9 18 11 20 20 22 17 24
REMARK H PARENT 9 19 11 21 20 23 17 25
REMARK Flexibility Score: inf
ROOT
ATOM      1  C   UNL     1      11.052  46.412   7.377  1.00  0.00     0.138 A 
ATOM      2  C   UNL     1      11.819  46.985   6.353  1.00  0.00     0.100 A 
ATOM      3  C   UNL     1      13.141  46.578   6.171  1.00  0.00     0.197 A 
ATOM      4  O   UNL     1      13.785  47.065   5.206  1.00  0.00    -0.289 OA
ATOM      5  C   UNL     1      13.707  45.615   7.041  1.00  0.00     0.107 A 
ATOM      6  C   UNL     1      15.056  45.155   6.977  1.00  0.00     0.134 A 
ATOM      7  C   UNL     1      15.470  44.113   7.815  1.00  0.00     0.093 A 
ATOM      8  C   UNL     1      14.605  43.557   8.757  1.00  0.00     0.123 A 
ATOM      9  C   UNL     1      13.298  44.038   8.867  1.00  0.00     0.094 A 
ATOM     10  C   UNL     1      12.845  45.052   8.019  1.00  0.00     0.146 A 
ATOM     11  O   UNL     1      11.589  45.470   8.145  1.00  0.00    -0.456 OA
ENDROOT
BRANCH   1  12
ATOM     12  C   UNL     1       9.641  46.809   7.615  1.00  0.00     0.021 A 
ATOM     13  C   UNL     1       8.858  46.072   8.522  1.00  0.00     0.016 A 
ATOM     14  C   UNL     1       7.531  46.428   8.768  1.00  0.00     0.051 A 
ATOM     15  C   UNL     1       6.965  47.535   8.123  1.00  0.00     0.157 A 
ATOM     16  C   UNL     1       9.069  47.929   6.980  1.00  0.00     0.062 A 
ATOM     17  C   UNL     1       7.736  48.288   7.229  1.00  0.00     0.158 A 
BRANCH  15  18
ATOM     18  O   UNL     1       5.641  47.894   8.366  1.00  0.00    -0.504 OA
ATOM     19  H   UNL     1       4.869  47.319   8.051  1.00  0.00     0.293 HD
ENDBRANCH  15  18
BRANCH  17  20
ATOM     20  O   UNL     1       7.174  49.395   6.598  1.00  0.00    -0.504 OA
ATOM     21  H   UNL     1       7.054  50.278   7.081  1.00  0.00     0.293 HD
ENDBRANCH  17  20
ENDBRANCH   1  12
BRANCH   6  22
ATOM     22  O   UNL     1      16.027  45.699   6.131  1.00  0.00    -0.507 OA
ATOM     23  H   UNL     1      16.654  46.449   6.380  1.00  0.00     0.293 HD
ENDBRANCH   6  22
BRANCH   8  24
ATOM     24  O   UNL     1      15.057  42.533   9.586  1.00  0.00    -0.508 OA
ATOM     25  H   UNL     1      14.612  41.623   9.594  1.00  0.00     0.293 HD
ENDBRANCH   8  24
TORSDOF 5
ENDMDL
MODEL 9
REMARK VINA RESULT:    -7.334      2.214      6.941
REMARK INTER + INTRA:          -8.884
REMARK INTER:                  -8.594
REMARK INTRA:                  -0.290
REMARK UNBOUND:                -0.263
REMARK SMILES O=c1cc(-c2ccc(O)c(O)c2)oc2cc(O)cc(O)c12
REMARK SMILES IDX 4 1 3 2 2 3 1 4 21 5 19 6 18 7 16 8 15 9 14 10 13 11 5 12
REMARK SMILES IDX 6 13 7 14 8 15 12 16 10 17 9 18 11 20 20 22 17 24
REMARK H PARENT 9 19 11 21 20 23 17 25
REMARK Flexibility Score: inf
ROOT
ATOM      1  C   UNL     1      13.104  45.159   7.582  1.00  0.00     0.138 A 
ATOM      2  C   UNL     1      12.869  45.922   6.430  1.00  0.00     0.100 A 
ATOM      3  C   UNL     1      11.591  46.427   6.185  1.00  0.00     0.197 A 
ATOM      4  O   UNL     1      11.425  47.160   5.175  1.00  0.00    -0.289 OA
ATOM      5  C   UNL     1      10.537  46.138   7.083  1.00  0.00     0.107 A 
ATOM      6  C   UNL     1       9.186  46.564   6.915  1.00  0.00     0.134 A 
ATOM      7  C   UNL     1       8.252  46.318   7.929  1.00  0.00     0.093 A 
ATOM      8  C   UNL     1       8.605  45.609   9.077  1.00  0.00     0.123 A 
ATOM      9  C   UNL     1       9.911  45.139   9.228  1.00  0.00     0.094 A 
ATOM     10  C   UNL     1      10.873  45.400   8.249  1.00  0.00     0.146 A 
ATOM     11  O   UNL     1      12.110  44.948   8.438  1.00  0.00    -0.456 OA
ENDROOT
BRANCH   1  12
ATOM     12  C   UNL     1      14.443  44.597   7.890  1.00  0.00     0.021 A 
ATOM     13  C   UNL     1      14.543  43.451   8.699  1.00  0.00     0.016 A 
ATOM     14  C   UNL     1      15.791  42.899   8.998  1.00  0.00     0.051 A 
ATOM     15  C   UNL     1      16.959  43.475   8.485  1.00  0.00     0.157 A 
ATOM     16  C   UNL     1      15.622  45.164   7.367  1.00  0.00     0.062 A 
ATOM     17  C   UNL     1      16.875  44.607   7.666  1.00  0.00     0.158 A 
BRANCH  15  18
ATOM     18  O   UNL     1      18.206  42.927   8.782  1.00  0.00    -0.504 OA
ATOM     19  H   UNL     1      19.022  43.128   8.215  1.00  0.00     0.293 HD
ENDBRANCH  15  18
BRANCH  17  20
ATOM     20  O   UNL     1      18.039  45.171   7.148  1.00  0.00    -0.504 OA
ATOM     21  H   UNL     1      18.955  44.910   7.494  1.00  0.00     0.293 HD
ENDBRANCH  17  20
ENDBRANCH   1  12
BRANCH   6  22
ATOM     22  O   UNL     1       8.706  47.207   5.769  1.00  0.00    -0.507 OA
ATOM     23  H   UNL     1       9.138  48.009   5.335  1.00  0.00     0.293 HD
ENDBRANCH   6  22
BRANCH   8  24
ATOM     24  O   UNL     1       7.646  45.369  10.058  1.00  0.00    -0.508 OA
ATOM     25  H   UNL     1       7.848  44.792  10.866  1.00  0.00     0.293 HD
ENDBRANCH   8  24
TORSDOF 5
ENDMDL
