MODEL 1
REMARK VINA RESULT:    -4.856      0.000      0.000
REMARK INTER + INTRA:          -7.051
REMARK INTER:                  -6.559
REMARK INTRA:                  -0.492
REMARK UNBOUND:                -0.492
REMARK SMILES [NH3+]CCCC[C@H]([NH3+])C(=O)[O-]
REMARK SMILES IDX 4 1 3 2 2 3 1 4 5 8 6 9 7 10 8 14 9 15 10 16
REMARK H PARENT 1 5 1 6 1 7 7 11 7 12 7 13
REMARK Flexibility Score: inf
ROOT
ATOM      1  C   UNL     1      23.849  21.544  16.386  1.00  0.00     0.012 C 
ENDROOT
BRANCH   1   2
ATOM      2  C   UNL     1      22.817  20.832  17.277  1.00  0.00     0.061 C 
BRANCH   2   3
ATOM      3  C   UNL     1      23.150  19.362  17.597  1.00  0.00     0.258 C 
BRANCH   3   4
ATOM      4  N   UNL     1      22.501  18.430  16.673  1.00  0.00    -0.358 N 
ATOM      5  H   UNL     1      21.468  18.461  16.829  1.00  0.00     0.344 HD
ATOM      6  H   UNL     1      22.700  18.701  15.682  1.00  0.00     0.344 HD
ATOM      7  H   UNL     1      22.830  17.454  16.852  1.00  0.00     0.344 HD
ENDBRANCH   3   4
ENDBRANCH   2   3
ENDBRANCH   1   2
BRANCH   1   8
ATOM      8  C   UNL     1      23.464  21.529  14.897  1.00  0.00     0.072 C 
BRANCH   8   9
ATOM      9  C   UNL     1      24.411  20.653  14.048  1.00  0.00     0.227 C 
BRANCH   9  10
ATOM     10  N   UNL     1      25.145  21.452  13.057  1.00  0.00    -0.350 N 
ATOM     11  H   UNL     1      24.628  22.333  12.831  1.00  0.00     0.345 HD
ATOM     12  H   UNL     1      25.275  20.898  12.179  1.00  0.00     0.345 HD
ATOM     13  H   UNL     1      26.095  21.691  13.420  1.00  0.00     0.345 HD
ENDBRANCH   9  10
BRANCH   9  14
ATOM     14  C   UNL     1      23.616  19.578  13.356  1.00  0.00     0.099 C 
ATOM     15  O   UNL     1      22.568  19.124  13.886  1.00  0.00    -0.544 OA
ATOM     16  O   UNL     1      24.022  19.093  12.119  1.00  0.00    -0.544 OA
ENDBRANCH   9  14
ENDBRANCH   8   9
ENDBRANCH   1   8
TORSDOF 7
ENDMDL
MODEL 2
REMARK VINA RESULT:    -4.741      3.521      4.189
REMARK INTER + INTRA:          -6.895
REMARK INTER:                  -6.733
REMARK INTRA:                  -0.162
REMARK UNBOUND:                -0.492
REMARK SMILES [NH3+]CCCC[C@H]([NH3+])C(=O)[O-]
REMARK SMILES IDX 4 1 3 2 2 3 1 4 5 8 6 9 7 10 8 14 9 15 10 16
REMARK H PARENT 1 5 1 6 1 7 7 11 7 12 7 13
REMARK Flexibility Score: inf
ROOT
ATOM      1  C   UNL     1      22.963  21.708  12.823  1.00  0.00     0.012 C 
ENDROOT
BRANCH   1   2
ATOM      2  C   UNL     1      24.152  21.176  13.641  1.00  0.00     0.061 C 
BRANCH   2   3
ATOM      3  C   UNL     1      24.101  19.666  13.941  1.00  0.00     0.258 C 
BRANCH   3   4
ATOM      4  N   UNL     1      24.310  18.853  12.742  1.00  0.00    -0.358 N 
ATOM      5  H   UNL     1      24.043  17.863  12.951  1.00  0.00     0.344 HD
ATOM      6  H   UNL     1      23.716  19.202  11.955  1.00  0.00     0.344 HD
ATOM      7  H   UNL     1      25.318  18.868  12.465  1.00  0.00     0.344 HD
ENDBRANCH   3   4
ENDBRANCH   2   3
ENDBRANCH   1   2
BRANCH   1   8
ATOM      8  C   UNL     1      23.352  22.861  11.883  1.00  0.00     0.072 C 
BRANCH   8   9
ATOM      9  C   UNL     1      24.865  23.170  11.917  1.00  0.00     0.227 C 
BRANCH   9  10
ATOM     10  N   UNL     1      25.122  24.594  12.170  1.00  0.00    -0.350 N 
ATOM     11  H   UNL     1      25.414  25.082  11.292  1.00  0.00     0.345 HD
ATOM     12  H   UNL     1      25.879  24.697  12.885  1.00  0.00     0.345 HD
ATOM     13  H   UNL     1      24.265  25.052  12.552  1.00  0.00     0.345 HD
ENDBRANCH   9  10
BRANCH   9  14
ATOM     14  C   UNL     1      25.492  22.756  10.612  1.00  0.00     0.099 C 
ATOM     15  O   UNL     1      26.703  22.417  10.570  1.00  0.00    -0.544 OA
ATOM     16  O   UNL     1      24.732  22.727   9.449  1.00  0.00    -0.544 OA
ENDBRANCH   9  14
ENDBRANCH   8   9
ENDBRANCH   1   8
TORSDOF 7
ENDMDL
MODEL 3
REMARK VINA RESULT:    -4.572      2.957      3.555
REMARK INTER + INTRA:          -6.668
REMARK INTER:                  -6.596
REMARK INTRA:                  -0.072
REMARK UNBOUND:                -0.492
REMARK SMILES [NH3+]CCCC[C@H]([NH3+])C(=O)[O-]
REMARK SMILES IDX 4 1 3 2 2 3 1 4 5 8 6 9 7 10 8 14 9 15 10 16
REMARK H PARENT 1 5 1 6 1 7 7 11 7 12 7 13
REMARK Flexibility Score: inf
ROOT
ATOM      1  C   UNL     1      24.230  21.203  13.752  1.00  0.00     0.012 C 
ENDROOT
BRANCH   1   2
ATOM      2  C   UNL     1      23.366  20.061  14.311  1.00  0.00     0.061 C 
BRANCH   2   3
ATOM      3  C   UNL     1      23.152  20.105  15.836  1.00  0.00     0.258 C 
BRANCH   3   4
ATOM      4  N   UNL     1      22.820  18.791  16.390  1.00  0.00    -0.358 N 
ATOM      5  H   UNL     1      21.905  18.476  15.993  1.00  0.00     0.344 HD
ATOM      6  H   UNL     1      23.555  18.091  16.136  1.00  0.00     0.344 HD
ATOM      7  H   UNL     1      22.722  18.849  17.429  1.00  0.00     0.344 HD
ENDBRANCH   3   4
ENDBRANCH   2   3
ENDBRANCH   1   2
BRANCH   1   8
ATOM      8  C   UNL     1      23.871  21.568  12.301  1.00  0.00     0.072 C 
BRANCH   8   9
ATOM      9  C   UNL     1      24.504  22.902  11.849  1.00  0.00     0.227 C 
BRANCH   9  10
ATOM     10  N   UNL     1      23.484  23.923  11.579  1.00  0.00    -0.350 N 
ATOM     11  H   UNL     1      22.681  23.834  12.244  1.00  0.00     0.345 HD
ATOM     12  H   UNL     1      23.128  23.821  10.600  1.00  0.00     0.345 HD
ATOM     13  H   UNL     1      23.899  24.878  11.664  1.00  0.00     0.345 HD
ENDBRANCH   9  10
BRANCH   9  14
ATOM     14  C   UNL     1      25.341  22.670  10.619  1.00  0.00     0.099 C 
ATOM     15  O   UNL     1      24.815  22.722   9.476  1.00  0.00    -0.544 OA
ATOM     16  O   UNL     1      26.702  22.418  10.736  1.00  0.00    -0.544 OA
ENDBRANCH   9  14
ENDBRANCH   8   9
ENDBRANCH   1   8
TORSDOF 7
ENDMDL
MODEL 4
REMARK VINA RESULT:    -4.499      2.062      4.172
REMARK INTER + INTRA:          -6.569
REMARK INTER:                  -6.065
REMARK INTRA:                  -0.504
REMARK UNBOUND:                -0.492
REMARK SMILES [NH3+]CCCC[C@H]([NH3+])C(=O)[O-]
REMARK SMILES IDX 4 1 3 2 2 3 1 4 5 8 6 9 7 10 8 14 9 15 10 16
REMARK H PARENT 1 5 1 6 1 7 7 11 7 12 7 13
REMARK Flexibility Score: inf
ROOT
ATOM      1  C   UNL     1      22.885  22.283  12.893  1.00  0.00     0.012 C 
ENDROOT
BRANCH   1   2
ATOM      2  C   UNL     1      23.993  23.258  12.458  1.00  0.00     0.061 C 
BRANCH   2   3
ATOM      3  C   UNL     1      24.972  22.692  11.412  1.00  0.00     0.258 C 
BRANCH   3   4
ATOM      4  N   UNL     1      26.281  22.376  11.989  1.00  0.00    -0.358 N 
ATOM      5  H   UNL     1      26.778  21.706  11.357  1.00  0.00     0.344 HD
ATOM      6  H   UNL     1      26.859  23.243  12.081  1.00  0.00     0.344 HD
ATOM      7  H   UNL     1      26.165  21.920  12.922  1.00  0.00     0.344 HD
ENDBRANCH   3   4
ENDBRANCH   2   3
ENDBRANCH   1   2
BRANCH   1   8
ATOM      8  C   UNL     1      23.213  21.554  14.207  1.00  0.00     0.072 C 
BRANCH   8   9
ATOM      9  C   UNL     1      23.080  20.021  14.086  1.00  0.00     0.227 C 
BRANCH   9  10
ATOM     10  N   UNL     1      23.137  19.366  15.399  1.00  0.00    -0.350 N 
ATOM     11  H   UNL     1      23.597  19.986  16.106  1.00  0.00     0.345 HD
ATOM     12  H   UNL     1      23.677  18.472  15.328  1.00  0.00     0.345 HD
ATOM     13  H   UNL     1      22.174  19.125  15.724  1.00  0.00     0.345 HD
ENDBRANCH   9  10
BRANCH   9  14
ATOM     14  C   UNL     1      24.173  19.490  13.197  1.00  0.00     0.099 C 
ATOM     15  O   UNL     1      25.382  19.662  13.505  1.00  0.00    -0.544 OA
ATOM     16  O   UNL     1      23.855  18.789  12.040  1.00  0.00    -0.544 OA
ENDBRANCH   9  14
ENDBRANCH   8   9
ENDBRANCH   1   8
TORSDOF 7
ENDMDL
MODEL 5
REMARK VINA RESULT:    -4.434      3.241      3.822
REMARK INTER + INTRA:          -6.482
REMARK INTER:                  -6.361
REMARK INTRA:                  -0.120
REMARK UNBOUND:                -0.492
REMARK SMILES [NH3+]CCCC[C@H]([NH3+])C(=O)[O-]
REMARK SMILES IDX 4 1 3 2 2 3 1 4 5 8 6 9 7 10 8 14 9 15 10 16
REMARK H PARENT 1 5 1 6 1 7 7 11 7 12 7 13
REMARK Flexibility Score: inf
ROOT
ATOM      1  C   UNL     1      24.420  21.181  13.775  1.00  0.00     0.012 C 
ENDROOT
BRANCH   1   2
ATOM      2  C   UNL     1      23.305  21.099  14.832  1.00  0.00     0.061 C 
BRANCH   2   3
ATOM      3  C   UNL     1      23.117  22.380  15.667  1.00  0.00     0.258 C 
BRANCH   3   4
ATOM      4  N   UNL     1      23.571  22.214  17.049  1.00  0.00    -0.358 N 
ATOM      5  H   UNL     1      22.837  22.585  17.695  1.00  0.00     0.344 HD
ATOM      6  H   UNL     1      23.728  21.202  17.264  1.00  0.00     0.344 HD
ATOM      7  H   UNL     1      24.451  22.756  17.209  1.00  0.00     0.344 HD
ENDBRANCH   3   4
ENDBRANCH   2   3
ENDBRANCH   1   2
BRANCH   1   8
ATOM      8  C   UNL     1      23.893  21.556  12.379  1.00  0.00     0.072 C 
BRANCH   8   9
ATOM      9  C   UNL     1      24.450  22.905  11.876  1.00  0.00     0.227 C 
BRANCH   9  10
ATOM     10  N   UNL     1      23.374  23.850  11.551  1.00  0.00    -0.350 N 
ATOM     11  H   UNL     1      23.718  24.837  11.595  1.00  0.00     0.345 HD
ATOM     12  H   UNL     1      22.583  23.734  12.227  1.00  0.00     0.345 HD
ATOM     13  H   UNL     1      23.000  23.655  10.596  1.00  0.00     0.345 HD
ENDBRANCH   9  10
BRANCH   9  14
ATOM     14  C   UNL     1      25.315  22.672  10.665  1.00  0.00     0.099 C 
ATOM     15  O   UNL     1      24.817  22.731   9.510  1.00  0.00    -0.544 OA
ATOM     16  O   UNL     1      26.671  22.410  10.814  1.00  0.00    -0.544 OA
ENDBRANCH   9  14
ENDBRANCH   8   9
ENDBRANCH   1   8
TORSDOF 7
ENDMDL
MODEL 6
REMARK VINA RESULT:    -4.398      2.985      3.783
REMARK INTER + INTRA:          -6.433
REMARK INTER:                  -6.114
REMARK INTRA:                  -0.319
REMARK UNBOUND:                -0.492
REMARK SMILES [NH3+]CCCC[C@H]([NH3+])C(=O)[O-]
REMARK SMILES IDX 4 1 3 2 2 3 1 4 5 8 6 9 7 10 8 14 9 15 10 16
REMARK H PARENT 1 5 1 6 1 7 7 11 7 12 7 13
REMARK Flexibility Score: inf
ROOT
ATOM      1  C   UNL     1      23.289  22.271  14.105  1.00  0.00     0.012 C 
ENDROOT
BRANCH   1   2
ATOM      2  C   UNL     1      23.402  20.855  14.696  1.00  0.00     0.061 C 
BRANCH   2   3
ATOM      3  C   UNL     1      23.690  19.749  13.663  1.00  0.00     0.258 C 
BRANCH   3   4
ATOM      4  N   UNL     1      25.124  19.500  13.500  1.00  0.00    -0.358 N 
ATOM      5  H   UNL     1      25.633  20.413  13.527  1.00  0.00     0.344 HD
ATOM      6  H   UNL     1      25.480  18.893  14.274  1.00  0.00     0.344 HD
ATOM      7  H   UNL     1      25.311  19.050  12.575  1.00  0.00     0.344 HD
ENDBRANCH   3   4
ENDBRANCH   2   3
ENDBRANCH   1   2
BRANCH   1   8
ATOM      8  C   UNL     1      23.147  22.269  12.573  1.00  0.00     0.072 C 
BRANCH   8   9
ATOM      9  C   UNL     1      24.074  23.297  11.889  1.00  0.00     0.227 C 
BRANCH   9  10
ATOM     10  N   UNL     1      23.370  24.051  10.844  1.00  0.00    -0.350 N 
ATOM     11  H   UNL     1      23.374  25.076  11.057  1.00  0.00     0.345 HD
ATOM     12  H   UNL     1      22.380  23.721  10.773  1.00  0.00     0.345 HD
ATOM     13  H   UNL     1      23.822  23.889   9.916  1.00  0.00     0.345 HD
ENDBRANCH   9  10
BRANCH   9  14
ATOM     14  C   UNL     1      25.264  22.587  11.300  1.00  0.00     0.099 C 
ATOM     15  O   UNL     1      25.259  22.237  10.090  1.00  0.00    -0.544 OA
ATOM     16  O   UNL     1      26.384  22.331  12.081  1.00  0.00    -0.544 OA
ENDBRANCH   9  14
ENDBRANCH   8   9
ENDBRANCH   1   8
TORSDOF 7
ENDMDL
MODEL 7
REMARK VINA RESULT:    -4.315      1.826      1.878
REMARK INTER + INTRA:          -6.321
REMARK INTER:                  -6.207
REMARK INTRA:                  -0.113
REMARK UNBOUND:                -0.492
REMARK SMILES [NH3+]CCCC[C@H]([NH3+])C(=O)[O-]
REMARK SMILES IDX 4 1 3 2 2 3 1 4 5 8 6 9 7 10 8 14 9 15 10 16
REMARK H PARENT 1 5 1 6 1 7 7 11 7 12 7 13
REMARK Flexibility Score: inf
ROOT
ATOM      1  C   UNL     1      23.619  21.014  15.711  1.00  0.00     0.012 C 
ENDROOT
BRANCH   1   2
ATOM      2  C   UNL     1      23.188  20.997  17.187  1.00  0.00     0.061 C 
BRANCH   2   3
ATOM      3  C   UNL     1      22.857  19.599  17.744  1.00  0.00     0.258 C 
BRANCH   3   4
ATOM      4  N   UNL     1      23.538  19.329  19.011  1.00  0.00    -0.358 N 
ATOM      5  H   UNL     1      23.972  20.214  19.360  1.00  0.00     0.344 HD
ATOM      6  H   UNL     1      22.858  18.983  19.726  1.00  0.00     0.344 HD
ATOM      7  H   UNL     1      24.300  18.626  18.870  1.00  0.00     0.344 HD
ENDBRANCH   3   4
ENDBRANCH   2   3
ENDBRANCH   1   2
BRANCH   1   8
ATOM      8  C   UNL     1      23.072  19.816  14.915  1.00  0.00     0.072 C 
BRANCH   8   9
ATOM      9  C   UNL     1      23.724  19.680  13.522  1.00  0.00     0.227 C 
BRANCH   9  10
ATOM     10  N   UNL     1      25.131  19.268  13.620  1.00  0.00    -0.350 N 
ATOM     11  H   UNL     1      25.390  18.635  12.828  1.00  0.00     0.345 HD
ATOM     12  H   UNL     1      25.293  18.766  14.524  1.00  0.00     0.345 HD
ATOM     13  H   UNL     1      25.753  20.106  13.611  1.00  0.00     0.345 HD
ENDBRANCH   9  10
BRANCH   9  14
ATOM     14  C   UNL     1      23.621  20.990  12.788  1.00  0.00     0.099 C 
ATOM     15  O   UNL     1      22.493  21.500  12.557  1.00  0.00    -0.544 OA
ATOM     16  O   UNL     1      24.770  21.656  12.379  1.00  0.00    -0.544 OA
ENDBRANCH   9  14
ENDBRANCH   8   9
ENDBRANCH   1   8
TORSDOF 7
ENDMDL
MODEL 8
REMARK VINA RESULT:    -4.082      2.771      4.916
REMARK INTER + INTRA:          -6.006
REMARK INTER:                  -5.932
REMARK INTRA:                  -0.073
REMARK UNBOUND:                -0.492
REMARK SMILES [NH3+]CCCC[C@H]([NH3+])C(=O)[O-]
REMARK SMILES IDX 4 1 3 2 2 3 1 4 5 8 6 9 7 10 8 14 9 15 10 16
REMARK H PARENT 1 5 1 6 1 7 7 11 7 12 7 13
REMARK Flexibility Score: inf
ROOT
ATOM      1  C   UNL     1      23.122  19.646  14.355  1.00  0.00     0.012 C 
ENDROOT
BRANCH   1   2
ATOM      2  C   UNL     1      24.223  20.214  13.443  1.00  0.00     0.061 C 
BRANCH   2   3
ATOM      3  C   UNL     1      23.976  21.656  12.959  1.00  0.00     0.258 C 
BRANCH   3   4
ATOM      4  N   UNL     1      25.089  22.171  12.158  1.00  0.00    -0.358 N 
ATOM      5  H   UNL     1      25.923  21.557  12.300  1.00  0.00     0.344 HD
ATOM      6  H   UNL     1      24.839  22.171  11.143  1.00  0.00     0.344 HD
ATOM      7  H   UNL     1      25.339  23.139  12.467  1.00  0.00     0.344 HD
ENDBRANCH   3   4
ENDBRANCH   2   3
ENDBRANCH   1   2
BRANCH   1   8
ATOM      8  C   UNL     1      23.096  20.309  15.743  1.00  0.00     0.072 C 
BRANCH   8   9
ATOM      9  C   UNL     1      23.180  19.282  16.893  1.00  0.00     0.227 C 
BRANCH   9  10
ATOM     10  N   UNL     1      22.196  18.203  16.730  1.00  0.00    -0.350 N 
ATOM     11  H   UNL     1      21.281  18.581  16.390  1.00  0.00     0.345 HD
ATOM     12  H   UNL     1      22.047  17.717  17.644  1.00  0.00     0.345 HD
ATOM     13  H   UNL     1      22.551  17.492  16.051  1.00  0.00     0.345 HD
ENDBRANCH   9  10
BRANCH   9  14
ATOM     14  C   UNL     1      22.964  19.982  18.209  1.00  0.00     0.099 C 
ATOM     15  O   UNL     1      22.645  21.200  18.234  1.00  0.00    -0.544 OA
ATOM     16  O   UNL     1      23.095  19.283  19.402  1.00  0.00    -0.544 OA
ENDBRANCH   9  14
ENDBRANCH   8   9
ENDBRANCH   1   8
TORSDOF 7
ENDMDL
MODEL 9
REMARK VINA RESULT:    -3.925      2.074      2.859
REMARK INTER + INTRA:          -5.793
REMARK INTER:                  -5.669
REMARK INTRA:                  -0.124
REMARK UNBOUND:                -0.492
REMARK SMILES [NH3+]CCCC[C@H]([NH3+])C(=O)[O-]
REMARK SMILES IDX 4 1 3 2 2 3 1 4 5 8 6 9 7 10 8 14 9 15 10 16
REMARK H PARENT 1 5 1 6 1 7 7 11 7 12 7 13
REMARK Flexibility Score: inf
ROOT
ATOM      1  C   UNL     1      23.250  21.627  16.221  1.00  0.00     0.012 C 
ENDROOT
BRANCH   1   2
ATOM      2  C   UNL     1      22.871  23.005  16.789  1.00  0.00     0.061 C 
BRANCH   2   3
ATOM      3  C   UNL     1      22.855  24.145  15.752  1.00  0.00     0.258 C 
BRANCH   3   4
ATOM      4  N   UNL     1      23.088  25.455  16.363  1.00  0.00    -0.358 N 
ATOM      5  H   UNL     1      23.544  26.081  15.660  1.00  0.00     0.344 HD
ATOM      6  H   UNL     1      22.182  25.887  16.659  1.00  0.00     0.344 HD
ATOM      7  H   UNL     1      23.728  25.364  17.184  1.00  0.00     0.344 HD
ENDBRANCH   3   4
ENDBRANCH   2   3
ENDBRANCH   1   2
BRANCH   1   8
ATOM      8  C   UNL     1      23.285  21.604  14.683  1.00  0.00     0.072 C 
BRANCH   8   9
ATOM      9  C   UNL     1      24.313  20.595  14.127  1.00  0.00     0.227 C 
BRANCH   9  10
ATOM     10  N   UNL     1      25.283  21.245  13.235  1.00  0.00    -0.350 N 
ATOM     11  H   UNL     1      26.142  21.528  13.762  1.00  0.00     0.345 HD
ATOM     12  H   UNL     1      24.854  22.094  12.801  1.00  0.00     0.345 HD
ATOM     13  H   UNL     1      25.550  20.597  12.461  1.00  0.00     0.345 HD
ENDBRANCH   9  10
BRANCH   9  14
ATOM     14  C   UNL     1      23.592  19.496  13.392  1.00  0.00     0.099 C 
ATOM     15  O   UNL     1      22.603  18.923  13.919  1.00  0.00    -0.544 OA
ATOM     16  O   UNL     1      24.001  19.122  12.117  1.00  0.00    -0.544 OA
ENDBRANCH   9  14
ENDBRANCH   8   9
ENDBRANCH   1   8
TORSDOF 7
ENDMDL
