MODEL 1
REMARK VINA RESULT:    -3.045      0.000      0.000
REMARK INTER + INTRA:          -3.312
REMARK INTER:                  -3.312
REMARK INTRA:                   0.000
REMARK UNBOUND:                 0.000
REMARK SMILES [NH3+]CC(=O)[O-]
REMARK SMILES IDX 2 1 1 2 3 6 4 7 5 8
REMARK H PARENT 1 3 1 4 1 5
REMARK Flexibility Score: inf
ROOT
ATOM      1  C   UNL     1     -27.824  63.807   5.249  1.00  0.00     0.312 C 
ENDROOT
BRANCH   1   2
ATOM      2  N   UNL     1     -26.471  64.251   4.922  1.00  0.00    -0.353 N 
ATOM      3  H   UNL     1     -26.175  65.014   5.575  1.00  0.00     0.344 HD
ATOM      4  H   UNL     1     -26.435  64.597   3.935  1.00  0.00     0.344 HD
ATOM      5  H   UNL     1     -25.812  63.446   5.023  1.00  0.00     0.344 HD
ENDBRANCH   1   2
BRANCH   1   6
ATOM      6  C   UNL     1     -27.941  62.322   5.107  1.00  0.00     0.096 C 
ATOM      7  O   UNL     1     -27.458  61.560   5.987  1.00  0.00    -0.544 OA
ATOM      8  O   UNL     1     -28.538  61.776   3.978  1.00  0.00    -0.544 OA
ENDBRANCH   1   6
TORSDOF 2
ENDMDL
MODEL 2
REMARK VINA RESULT:    -3.026     11.669     12.020
REMARK INTER + INTRA:          -3.292
REMARK INTER:                  -3.292
REMARK INTRA:                   0.000
REMARK UNBOUND:                 0.000
REMARK SMILES [NH3+]CC(=O)[O-]
REMARK SMILES IDX 2 1 1 2 3 6 4 7 5 8
REMARK H PARENT 1 3 1 4 1 5
REMARK Flexibility Score: inf
ROOT
ATOM      1  C   UNL     1     -17.516  61.987  10.546  1.00  0.00     0.312 C 
ENDROOT
BRANCH   1   2
ATOM      2  N   UNL     1     -18.620  61.191  11.078  1.00  0.00    -0.353 N 
ATOM      3  H   UNL     1     -18.290  60.223  11.301  1.00  0.00     0.344 HD
ATOM      4  H   UNL     1     -19.400  61.147  10.382  1.00  0.00     0.344 HD
ATOM      5  H   UNL     1     -18.973  61.637  11.955  1.00  0.00     0.344 HD
ENDBRANCH   1   2
BRANCH   1   6
ATOM      6  C   UNL     1     -17.373  63.267  11.309  1.00  0.00     0.096 C 
ATOM      7  O   UNL     1     -16.997  63.250  12.511  1.00  0.00    -0.544 OA
ATOM      8  O   UNL     1     -17.704  64.475  10.709  1.00  0.00    -0.544 OA
ENDBRANCH   1   6
TORSDOF 2
ENDMDL
MODEL 3
REMARK VINA RESULT:    -2.937     10.421     10.693
REMARK INTER + INTRA:          -3.194
REMARK INTER:                  -3.194
REMARK INTRA:                   0.000
REMARK UNBOUND:                 0.000
REMARK SMILES [NH3+]CC(=O)[O-]
REMARK SMILES IDX 2 1 1 2 3 6 4 7 5 8
REMARK H PARENT 1 3 1 4 1 5
REMARK Flexibility Score: inf
ROOT
ATOM      1  C   UNL     1     -22.212  68.914   0.674  1.00  0.00     0.312 C 
ENDROOT
BRANCH   1   2
ATOM      2  N   UNL     1     -22.886  68.202  -0.409  1.00  0.00    -0.353 N 
ATOM      3  H   UNL     1     -22.183  67.703  -1.003  1.00  0.00     0.344 HD
ATOM      4  H   UNL     1     -23.432  68.873  -0.996  1.00  0.00     0.344 HD
ATOM      5  H   UNL     1     -23.542  67.498  -0.000  1.00  0.00     0.344 HD
ENDBRANCH   1   2
BRANCH   1   6
ATOM      6  C   UNL     1     -21.085  69.742   0.141  1.00  0.00     0.096 C 
ATOM      7  O   UNL     1     -21.170  70.999   0.134  1.00  0.00    -0.544 OA
ATOM      8  O   UNL     1     -19.962  69.126  -0.395  1.00  0.00    -0.544 OA
ENDBRANCH   1   6
TORSDOF 2
ENDMDL
MODEL 4
REMARK VINA RESULT:    -2.935     10.083     10.290
REMARK INTER + INTRA:          -3.193
REMARK INTER:                  -3.193
REMARK INTRA:                   0.000
REMARK UNBOUND:                 0.000
REMARK SMILES [NH3+]CC(=O)[O-]
REMARK SMILES IDX 2 1 1 2 3 6 4 7 5 8
REMARK H PARENT 1 3 1 4 1 5
REMARK Flexibility Score: inf
ROOT
ATOM      1  C   UNL     1     -21.144  70.709   0.273  1.00  0.00     0.312 C 
ENDROOT
BRANCH   1   2
ATOM      2  N   UNL     1     -21.437  71.626   1.373  1.00  0.00    -0.353 N 
ATOM      3  H   UNL     1     -20.929  72.530   1.232  1.00  0.00     0.344 HD
ATOM      4  H   UNL     1     -21.151  71.198   2.284  1.00  0.00     0.344 HD
ATOM      5  H   UNL     1     -22.465  71.815   1.396  1.00  0.00     0.344 HD
ENDBRANCH   1   2
BRANCH   1   6
ATOM      6  C   UNL     1     -21.696  69.348   0.559  1.00  0.00     0.096 C 
ATOM      7  O   UNL     1     -21.369  68.739   1.612  1.00  0.00    -0.544 OA
ATOM      8  O   UNL     1     -22.531  68.729  -0.362  1.00  0.00    -0.544 OA
ENDBRANCH   1   6
TORSDOF 2
ENDMDL
MODEL 5
REMARK VINA RESULT:    -2.918      2.062      2.197
REMARK INTER + INTRA:          -3.173
REMARK INTER:                  -3.173
REMARK INTRA:                   0.000
REMARK UNBOUND:                 0.000
REMARK SMILES [NH3+]CC(=O)[O-]
REMARK SMILES IDX 2 1 1 2 3 6 4 7 5 8
REMARK H PARENT 1 3 1 4 1 5
REMARK Flexibility Score: inf
ROOT
ATOM      1  C   UNL     1     -29.028  62.255   4.775  1.00  0.00     0.312 C 
ENDROOT
BRANCH   1   2
ATOM      2  N   UNL     1     -28.815  62.449   3.343  1.00  0.00    -0.353 N 
ATOM      3  H   UNL     1     -29.370  63.269   3.004  1.00  0.00     0.344 HD
ATOM      4  H   UNL     1     -29.097  61.589   2.817  1.00  0.00     0.344 HD
ATOM      5  H   UNL     1     -27.800  62.634   3.170  1.00  0.00     0.344 HD
ENDBRANCH   1   2
BRANCH   1   6
ATOM      6  C   UNL     1     -27.851  62.748   5.557  1.00  0.00     0.096 C 
ATOM      7  O   UNL     1     -27.526  62.186   6.636  1.00  0.00    -0.544 OA
ATOM      8  O   UNL     1     -27.144  63.861   5.120  1.00  0.00    -0.544 OA
ENDBRANCH   1   6
TORSDOF 2
ENDMDL
MODEL 6
REMARK VINA RESULT:    -2.908     11.219     11.320
REMARK INTER + INTRA:          -3.162
REMARK INTER:                  -3.162
REMARK INTRA:                   0.000
REMARK UNBOUND:                 0.000
REMARK SMILES [NH3+]CC(=O)[O-]
REMARK SMILES IDX 2 1 1 2 3 6 4 7 5 8
REMARK H PARENT 1 3 1 4 1 5
REMARK Flexibility Score: inf
ROOT
ATOM      1  C   UNL     1     -18.971  67.557  -0.607  1.00  0.00     0.312 C 
ENDROOT
BRANCH   1   2
ATOM      2  N   UNL     1     -18.286  68.830  -0.814  1.00  0.00    -0.353 N 
ATOM      3  H   UNL     1     -17.323  68.664  -1.188  1.00  0.00     0.344 HD
ATOM      4  H   UNL     1     -18.229  69.358   0.088  1.00  0.00     0.344 HD
ATOM      5  H   UNL     1     -18.824  69.400  -1.506  1.00  0.00     0.344 HD
ENDBRANCH   1   2
BRANCH   1   6
ATOM      6  C   UNL     1     -20.243  67.507  -1.394  1.00  0.00     0.096 C 
ATOM      7  O   UNL     1     -21.122  68.396  -1.236  1.00  0.00    -0.544 OA
ATOM      8  O   UNL     1     -20.482  66.452  -2.265  1.00  0.00    -0.544 OA
ENDBRANCH   1   6
TORSDOF 2
ENDMDL
MODEL 7
REMARK VINA RESULT:    -2.891      9.919     10.125
REMARK INTER + INTRA:          -3.145
REMARK INTER:                  -3.145
REMARK INTRA:                   0.000
REMARK UNBOUND:                 0.000
REMARK SMILES [NH3+]CC(=O)[O-]
REMARK SMILES IDX 2 1 1 2 3 6 4 7 5 8
REMARK H PARENT 1 3 1 4 1 5
REMARK Flexibility Score: inf
ROOT
ATOM      1  C   UNL     1     -21.762  68.366  -0.719  1.00  0.00     0.312 C 
ENDROOT
BRANCH   1   2
ATOM      2  N   UNL     1     -23.173  67.984  -0.705  1.00  0.00    -0.353 N 
ATOM      3  H   UNL     1     -23.444  67.645   0.247  1.00  0.00     0.344 HD
ATOM      4  H   UNL     1     -23.349  67.233  -1.412  1.00  0.00     0.344 HD
ATOM      5  H   UNL     1     -23.756  68.819  -0.945  1.00  0.00     0.344 HD
ENDBRANCH   1   2
BRANCH   1   6
ATOM      6  C   UNL     1     -21.434  69.220   0.465  1.00  0.00     0.096 C 
ATOM      7  O   UNL     1     -21.366  68.711   1.615  1.00  0.00    -0.544 OA
ATOM      8  O   UNL     1     -21.255  70.589   0.307  1.00  0.00    -0.544 OA
ENDBRANCH   1   6
TORSDOF 2
ENDMDL
MODEL 8
REMARK VINA RESULT:    -2.768     10.008     10.224
REMARK INTER + INTRA:          -3.010
REMARK INTER:                  -3.010
REMARK INTRA:                   0.000
REMARK UNBOUND:                 0.000
REMARK SMILES [NH3+]CC(=O)[O-]
REMARK SMILES IDX 2 1 1 2 3 6 4 7 5 8
REMARK H PARENT 1 3 1 4 1 5
REMARK Flexibility Score: inf
ROOT
ATOM      1  C   UNL     1     -22.415  68.152  -0.712  1.00  0.00     0.312 C 
ENDROOT
BRANCH   1   2
ATOM      2  N   UNL     1     -22.721  68.409   0.694  1.00  0.00    -0.353 N 
ATOM      3  H   UNL     1     -22.243  67.703   1.301  1.00  0.00     0.344 HD
ATOM      4  H   UNL     1     -23.755  68.369   0.850  1.00  0.00     0.344 HD
ATOM      5  H   UNL     1     -22.377  69.363   0.950  1.00  0.00     0.344 HD
ENDBRANCH   1   2
BRANCH   1   6
ATOM      6  C   UNL     1     -20.939  68.010  -0.914  1.00  0.00     0.096 C 
ATOM      7  O   UNL     1     -20.139  68.747  -0.279  1.00  0.00    -0.544 OA
ATOM      8  O   UNL     1     -20.449  67.100  -1.841  1.00  0.00    -0.544 OA
ENDBRANCH   1   6
TORSDOF 2
ENDMDL
MODEL 9
REMARK VINA RESULT:    -2.702     10.979     11.178
REMARK INTER + INTRA:          -2.938
REMARK INTER:                  -2.938
REMARK INTRA:                   0.000
REMARK UNBOUND:                 0.000
REMARK SMILES [NH3+]CC(=O)[O-]
REMARK SMILES IDX 2 1 1 2 3 6 4 7 5 8
REMARK H PARENT 1 3 1 4 1 5
REMARK Flexibility Score: inf
ROOT
ATOM      1  C   UNL     1     -20.051  68.386  -1.084  1.00  0.00     0.312 C 
ENDROOT
BRANCH   1   2
ATOM      2  N   UNL     1     -18.604  68.587  -1.063  1.00  0.00    -0.353 N 
ATOM      3  H   UNL     1     -18.305  68.949  -0.127  1.00  0.00     0.344 HD
ATOM      4  H   UNL     1     -18.324  69.264  -1.810  1.00  0.00     0.344 HD
ATOM      5  H   UNL     1     -18.129  67.672  -1.238  1.00  0.00     0.344 HD
ENDBRANCH   1   2
BRANCH   1   6
ATOM      6  C   UNL     1     -20.703  69.115   0.050  1.00  0.00     0.096 C 
ATOM      7  O   UNL     1     -21.119  68.481   1.055  1.00  0.00    -0.544 OA
ATOM      8  O   UNL     1     -20.898  70.488  -0.026  1.00  0.00    -0.544 OA
ENDBRANCH   1   6
TORSDOF 2
ENDMDL
