MODEL 1
REMARK VINA RESULT:    27.079      0.000      0.000
REMARK INTER + INTRA:          38.183
REMARK INTER:                  38.161
REMARK INTRA:                   0.022
REMARK UNBOUND:                 0.022
REMARK SMILES O=C(C=Cc1ccc(O)cc1)CC(=O)C=Cc1ccc(O)cc1
REMARK SMILES IDX 12 1 2 2 1 3 3 4 4 5 5 6 6 7 7 8 8 9 11 10 10 11 9 12 13 14
REMARK SMILES IDX 14 15 15 16 16 17 17 18 18 19 23 20 19 21 22 22 20 23 21 24
REMARK H PARENT 9 13 21 25
REMARK Flexibility Score: inf
ROOT
ATOM      1  C   UNL     1       8.363   0.630  11.285  1.00  0.00     0.160 C 
ENDROOT
BRANCH   1   2
ATOM      2  C   UNL     1       8.217   1.094   9.860  1.00  0.00     0.163 C 
ATOM      3  O   UNL     1       7.078   1.452   9.456  1.00  0.00    -0.294 OA
BRANCH   2   4
ATOM      4  C   UNL     1       9.341   1.132   8.897  1.00  0.00     0.048 C 
ATOM      5  C   UNL     1       9.824   2.264   8.363  1.00  0.00     0.012 C 
BRANCH   5   6
ATOM      6  C   UNL     1      10.949   2.299   7.395  1.00  0.00    -0.025 A 
ATOM      7  C   UNL     1      11.523   1.084   6.986  1.00  0.00     0.012 A 
ATOM      8  C   UNL     1      12.577   1.069   6.068  1.00  0.00     0.047 A 
ATOM      9  C   UNL     1      13.064   2.269   5.535  1.00  0.00     0.115 A 
ATOM     10  C   UNL     1      11.435   3.502   6.842  1.00  0.00     0.012 A 
ATOM     11  C   UNL     1      12.488   3.482   5.923  1.00  0.00     0.047 A 
BRANCH   9  12
ATOM     12  O   UNL     1      14.113   2.267   4.619  1.00  0.00    -0.508 OA
ATOM     13  H   UNL     1      14.436   1.409   4.187  1.00  0.00     0.293 HD
ENDBRANCH   9  12
ENDBRANCH   5   6
ENDBRANCH   2   4
ENDBRANCH   1   2
BRANCH   1  14
ATOM     14  C   UNL     1       7.173   1.039  12.116  1.00  0.00     0.163 C 
ATOM     15  O   UNL     1       6.026   0.677  11.743  1.00  0.00    -0.294 OA
BRANCH  14  16
ATOM     16  C   UNL     1       7.280   1.867  13.338  1.00  0.00     0.048 C 
ATOM     17  C   UNL     1       6.221   2.330  14.019  1.00  0.00     0.012 C 
BRANCH  17  18
ATOM     18  C   UNL     1       6.333   3.164  15.241  1.00  0.00    -0.025 A 
ATOM     19  C   UNL     1       6.046   4.544  15.245  1.00  0.00     0.012 A 
ATOM     20  C   UNL     1       6.781   2.561  16.429  1.00  0.00     0.012 A 
ATOM     21  C   UNL     1       6.180   5.291  16.419  1.00  0.00     0.047 A 
ATOM     22  C   UNL     1       6.913   3.311  17.600  1.00  0.00     0.047 A 
ATOM     23  C   UNL     1       6.610   4.678  17.599  1.00  0.00     0.115 A 
BRANCH  23  24
ATOM     24  O   UNL     1       6.738   5.436  18.762  1.00  0.00    -0.508 OA
ATOM     25  H   UNL     1       7.642   5.756  19.089  1.00  0.00     0.293 HD
ENDBRANCH  23  24
ENDBRANCH  17  18
ENDBRANCH  14  16
ENDBRANCH   1  14
TORSDOF 8
ENDMDL
MODEL 2
REMARK VINA RESULT:    27.089      0.060     10.062
REMARK INTER + INTRA:          38.197
REMARK INTER:                  38.143
REMARK INTRA:                   0.054
REMARK UNBOUND:                 0.022
REMARK SMILES O=C(C=Cc1ccc(O)cc1)CC(=O)C=Cc1ccc(O)cc1
REMARK SMILES IDX 12 1 2 2 1 3 3 4 4 5 5 6 6 7 7 8 8 9 11 10 10 11 9 12 13 14
REMARK SMILES IDX 14 15 15 16 16 17 17 18 18 19 23 20 19 21 22 22 20 23 21 24
REMARK H PARENT 9 13 21 25
REMARK Flexibility Score: inf
ROOT
ATOM      1  C   UNL     1       8.384   0.680  11.277  1.00  0.00     0.160 C 
ENDROOT
BRANCH   1   2
ATOM      2  C   UNL     1       7.195   1.077  12.111  1.00  0.00     0.163 C 
ATOM      3  O   UNL     1       6.047   0.715  11.736  1.00  0.00    -0.294 OA
BRANCH   2   4
ATOM      4  C   UNL     1       7.299   1.891  13.343  1.00  0.00     0.048 C 
ATOM      5  C   UNL     1       6.238   2.378  14.004  1.00  0.00     0.012 C 
BRANCH   5   6
ATOM      6  C   UNL     1       6.346   3.197  15.237  1.00  0.00    -0.025 A 
ATOM      7  C   UNL     1       6.819   2.588  16.411  1.00  0.00     0.012 A 
ATOM      8  C   UNL     1       6.947   3.324  17.593  1.00  0.00     0.047 A 
ATOM      9  C   UNL     1       6.617   4.685  17.614  1.00  0.00     0.115 A 
ATOM     10  C   UNL     1       6.030   4.572  15.263  1.00  0.00     0.012 A 
ATOM     11  C   UNL     1       6.162   5.304  16.446  1.00  0.00     0.047 A 
BRANCH   9  12
ATOM     12  O   UNL     1       6.741   5.429  18.785  1.00  0.00    -0.508 OA
ATOM     13  H   UNL     1       6.099   5.307  19.560  1.00  0.00     0.293 HD
ENDBRANCH   9  12
ENDBRANCH   5   6
ENDBRANCH   2   4
ENDBRANCH   1   2
BRANCH   1  14
ATOM     14  C   UNL     1       8.217   1.124   9.846  1.00  0.00     0.163 C 
ATOM     15  O   UNL     1       7.072   1.469   9.452  1.00  0.00    -0.294 OA
BRANCH  14  16
ATOM     16  C   UNL     1       9.329   1.153   8.868  1.00  0.00     0.048 C 
ATOM     17  C   UNL     1       9.841   2.282   8.356  1.00  0.00     0.012 C 
BRANCH  17  18
ATOM     18  C   UNL     1      10.952   2.307   7.374  1.00  0.00    -0.025 A 
ATOM     19  C   UNL     1      11.366   3.490   6.729  1.00  0.00     0.012 A 
ATOM     20  C   UNL     1      11.587   1.097   7.045  1.00  0.00     0.012 A 
ATOM     21  C   UNL     1      12.410   3.460   5.799  1.00  0.00     0.047 A 
ATOM     22  C   UNL     1      12.630   1.072   6.116  1.00  0.00     0.047 A 
ATOM     23  C   UNL     1      13.046   2.254   5.491  1.00  0.00     0.115 A 
BRANCH  23  24
ATOM     24  O   UNL     1      14.085   2.241   4.563  1.00  0.00    -0.508 OA
ATOM     25  H   UNL     1      14.899   1.649   4.687  1.00  0.00     0.293 HD
ENDBRANCH  23  24
ENDBRANCH  17  18
ENDBRANCH  14  16
ENDBRANCH   1  14
TORSDOF 8
ENDMDL
MODEL 3
REMARK VINA RESULT:    27.396      4.618      8.016
REMARK INTER + INTRA:          38.629
REMARK INTER:                  39.336
REMARK INTRA:                  -0.707
REMARK UNBOUND:                 0.022
REMARK SMILES O=C(C=Cc1ccc(O)cc1)CC(=O)C=Cc1ccc(O)cc1
REMARK SMILES IDX 12 1 2 2 1 3 3 4 4 5 5 6 6 7 7 8 8 9 11 10 10 11 9 12 13 14
REMARK SMILES IDX 14 15 15 16 16 17 17 18 18 19 23 20 19 21 22 22 20 23 21 24
REMARK H PARENT 9 13 21 25
REMARK Flexibility Score: inf
ROOT
ATOM      1  C   UNL     1       5.693   2.072   9.077  1.00  0.00     0.160 C 
ENDROOT
BRANCH   1   2
ATOM      2  C   UNL     1       4.960   1.310   8.004  1.00  0.00     0.163 C 
ATOM      3  O   UNL     1       3.722   1.115   8.143  1.00  0.00    -0.294 OA
BRANCH   2   4
ATOM      4  C   UNL     1       5.622   0.757   6.801  1.00  0.00     0.048 C 
ATOM      5  C   UNL     1       5.308   1.118   5.548  1.00  0.00     0.012 C 
BRANCH   5   6
ATOM      6  C   UNL     1       5.971   0.560   4.344  1.00  0.00    -0.025 A 
ATOM      7  C   UNL     1       5.961   1.314   3.159  1.00  0.00     0.012 A 
ATOM      8  C   UNL     1       6.583   0.832   2.003  1.00  0.00     0.047 A 
ATOM      9  C   UNL     1       7.237  -0.407   2.020  1.00  0.00     0.115 A 
ATOM     10  C   UNL     1       6.645  -0.679   4.356  1.00  0.00     0.012 A 
ATOM     11  C   UNL     1       7.267  -1.156   3.199  1.00  0.00     0.047 A 
BRANCH   9  12
ATOM     12  O   UNL     1       7.860  -0.897   0.875  1.00  0.00    -0.508 OA
ATOM     13  H   UNL     1       8.749  -1.381   0.923  1.00  0.00     0.293 HD
ENDBRANCH   9  12
ENDBRANCH   5   6
ENDBRANCH   2   4
ENDBRANCH   1   2
BRANCH   1  14
ATOM     14  C   UNL     1       6.950   1.352   9.494  1.00  0.00     0.163 C 
ATOM     15  O   UNL     1       6.965   0.762  10.606  1.00  0.00    -0.294 OA
BRANCH  14  16
ATOM     16  C   UNL     1       8.181   1.323   8.672  1.00  0.00     0.048 C 
ATOM     17  C   UNL     1       9.016   2.366   8.545  1.00  0.00     0.012 C 
BRANCH  17  18
ATOM     18  C   UNL     1      10.246   2.334   7.716  1.00  0.00    -0.025 A 
ATOM     19  C   UNL     1      10.852   3.504   7.216  1.00  0.00     0.012 A 
ATOM     20  C   UNL     1      10.804   1.087   7.386  1.00  0.00     0.012 A 
ATOM     21  C   UNL     1      12.004   3.422   6.427  1.00  0.00     0.047 A 
ATOM     22  C   UNL     1      11.955   1.010   6.598  1.00  0.00     0.047 A 
ATOM     23  C   UNL     1      12.560   2.178   6.118  1.00  0.00     0.115 A 
BRANCH  23  24
ATOM     24  O   UNL     1      13.708   2.112   5.332  1.00  0.00    -0.508 OA
ATOM     25  H   UNL     1      13.908   1.305   4.752  1.00  0.00     0.293 HD
ENDBRANCH  23  24
ENDBRANCH  17  18
ENDBRANCH  14  16
ENDBRANCH   1  14
TORSDOF 8
ENDMDL
MODEL 4
REMARK VINA RESULT:    27.504      4.766      8.767
REMARK INTER + INTRA:          38.781
REMARK INTER:                  39.234
REMARK INTRA:                  -0.453
REMARK UNBOUND:                 0.022
REMARK SMILES O=C(C=Cc1ccc(O)cc1)CC(=O)C=Cc1ccc(O)cc1
REMARK SMILES IDX 12 1 2 2 1 3 3 4 4 5 5 6 6 7 7 8 8 9 11 10 10 11 9 12 13 14
REMARK SMILES IDX 14 15 15 16 16 17 17 18 18 19 23 20 19 21 22 22 20 23 21 24
REMARK H PARENT 9 13 21 25
REMARK Flexibility Score: inf
ROOT
ATOM      1  C   UNL     1       4.974   2.051   9.046  1.00  0.00     0.160 C 
ENDROOT
BRANCH   1   2
ATOM      2  C   UNL     1       6.328   1.430   9.271  1.00  0.00     0.163 C 
ATOM      3  O   UNL     1       6.478   0.650  10.250  1.00  0.00    -0.294 OA
BRANCH   2   4
ATOM      4  C   UNL     1       7.503   1.706   8.415  1.00  0.00     0.048 C 
ATOM      5  C   UNL     1       8.767   1.706   8.864  1.00  0.00     0.012 C 
BRANCH   5   6
ATOM      6  C   UNL     1       9.943   1.986   8.004  1.00  0.00    -0.025 A 
ATOM      7  C   UNL     1      10.674   0.902   7.488  1.00  0.00     0.012 A 
ATOM      8  C   UNL     1      11.782   1.120   6.664  1.00  0.00     0.047 A 
ATOM      9  C   UNL     1      12.168   2.425   6.332  1.00  0.00     0.115 A 
ATOM     10  C   UNL     1      10.330   3.296   7.653  1.00  0.00     0.012 A 
ATOM     11  C   UNL     1      11.437   3.509   6.827  1.00  0.00     0.047 A 
BRANCH   9  12
ATOM     12  O   UNL     1      13.270   2.653   5.512  1.00  0.00    -0.508 OA
ATOM     13  H   UNL     1      13.573   1.968   4.830  1.00  0.00     0.293 HD
ENDBRANCH   9  12
ENDBRANCH   5   6
ENDBRANCH   2   4
ENDBRANCH   1   2
BRANCH   1  14
ATOM     14  C   UNL     1       4.362   1.568   7.755  1.00  0.00     0.163 C 
ATOM     15  O   UNL     1       3.107   1.557   7.652  1.00  0.00    -0.294 OA
BRANCH  14  16
ATOM     16  C   UNL     1       5.160   1.082   6.608  1.00  0.00     0.048 C 
ATOM     17  C   UNL     1       4.827   1.296   5.326  1.00  0.00     0.012 C 
BRANCH  17  18
ATOM     18  C   UNL     1       5.628   0.804   4.178  1.00  0.00    -0.025 A 
ATOM     19  C   UNL     1       6.332  -0.418   4.215  1.00  0.00     0.012 A 
ATOM     20  C   UNL     1       5.720   1.605   3.027  1.00  0.00     0.012 A 
ATOM     21  C   UNL     1       7.085  -0.833   3.112  1.00  0.00     0.047 A 
ATOM     22  C   UNL     1       6.473   1.186   1.928  1.00  0.00     0.047 A 
ATOM     23  C   UNL     1       7.156  -0.036   1.966  1.00  0.00     0.115 A 
BRANCH  23  24
ATOM     24  O   UNL     1       7.910  -0.464   0.875  1.00  0.00    -0.508 OA
ATOM     25  H   UNL     1       8.226  -1.423   0.793  1.00  0.00     0.293 HD
ENDBRANCH  23  24
ENDBRANCH  17  18
ENDBRANCH  14  16
ENDBRANCH   1  14
TORSDOF 8
ENDMDL
MODEL 5
REMARK VINA RESULT:    27.580      7.916     10.730
REMARK INTER + INTRA:          38.889
REMARK INTER:                  39.293
REMARK INTRA:                  -0.404
REMARK UNBOUND:                 0.022
REMARK SMILES O=C(C=Cc1ccc(O)cc1)CC(=O)C=Cc1ccc(O)cc1
REMARK SMILES IDX 12 1 2 2 1 3 3 4 4 5 5 6 6 7 7 8 8 9 11 10 10 11 9 12 13 14
REMARK SMILES IDX 14 15 15 16 16 17 17 18 18 19 23 20 19 21 22 22 20 23 21 24
REMARK H PARENT 9 13 21 25
REMARK Flexibility Score: inf
ROOT
ATOM      1  C   UNL     1      19.269   3.091   8.953  1.00  0.00     0.160 C 
ENDROOT
BRANCH   1   2
ATOM      2  C   UNL     1      19.858   3.631   7.676  1.00  0.00     0.163 C 
ATOM      3  O   UNL     1      21.111   3.737   7.588  1.00  0.00    -0.294 OA
BRANCH   2   4
ATOM      4  C   UNL     1      19.039   4.065   6.521  1.00  0.00     0.048 C 
ATOM      5  C   UNL     1      19.493   4.099   5.260  1.00  0.00     0.012 C 
BRANCH   5   6
ATOM      6  C   UNL     1      18.671   4.538   4.105  1.00  0.00    -0.025 A 
ATOM      7  C   UNL     1      17.995   5.767   4.188  1.00  0.00     0.012 A 
ATOM      8  C   UNL     1      17.218   6.225   3.119  1.00  0.00     0.047 A 
ATOM      9  C   UNL     1      17.117   5.467   1.946  1.00  0.00     0.115 A 
ATOM     10  C   UNL     1      18.576   3.788   2.914  1.00  0.00     0.012 A 
ATOM     11  C   UNL     1      17.800   4.251   1.848  1.00  0.00     0.047 A 
BRANCH   9  12
ATOM     12  O   UNL     1      16.347   5.913   0.875  1.00  0.00    -0.508 OA
ATOM     13  H   UNL     1      16.760   6.420   0.101  1.00  0.00     0.293 HD
ENDBRANCH   9  12
ENDBRANCH   5   6
ENDBRANCH   2   4
ENDBRANCH   1   2
BRANCH   1  14
ATOM     14  C   UNL     1      17.922   3.707   9.235  1.00  0.00     0.163 C 
ATOM     15  O   UNL     1      17.785   4.404  10.275  1.00  0.00    -0.294 OA
BRANCH  14  16
ATOM     16  C   UNL     1      16.742   3.517   8.363  1.00  0.00     0.048 C 
ATOM     17  C   UNL     1      15.512   3.245   8.824  1.00  0.00     0.012 C 
BRANCH  17  18
ATOM     18  C   UNL     1      14.332   3.050   7.947  1.00  0.00    -0.025 A 
ATOM     19  C   UNL     1      13.913   1.775   7.514  1.00  0.00     0.012 A 
ATOM     20  C   UNL     1      13.630   4.182   7.499  1.00  0.00     0.012 A 
ATOM     21  C   UNL     1      12.801   1.643   6.675  1.00  0.00     0.047 A 
ATOM     22  C   UNL     1      12.520   4.046   6.661  1.00  0.00     0.047 A 
ATOM     23  C   UNL     1      12.101   2.775   6.249  1.00  0.00     0.115 A 
BRANCH  23  24
ATOM     24  O   UNL     1      10.996   2.627   5.413  1.00  0.00    -0.508 OA
ATOM     25  H   UNL     1      10.391   3.410   5.191  1.00  0.00     0.293 HD
ENDBRANCH  23  24
ENDBRANCH  17  18
ENDBRANCH  14  16
ENDBRANCH   1  14
TORSDOF 8
ENDMDL
MODEL 6
REMARK VINA RESULT:    28.030      7.654      9.211
REMARK INTER + INTRA:          39.523
REMARK INTER:                  39.519
REMARK INTRA:                   0.004
REMARK UNBOUND:                 0.022
REMARK SMILES O=C(C=Cc1ccc(O)cc1)CC(=O)C=Cc1ccc(O)cc1
REMARK SMILES IDX 12 1 2 2 1 3 3 4 4 5 5 6 6 7 7 8 8 9 11 10 10 11 9 12 13 14
REMARK SMILES IDX 14 15 15 16 16 17 17 18 18 19 23 20 19 21 22 22 20 23 21 24
REMARK H PARENT 9 13 21 25
REMARK Flexibility Score: inf
ROOT
ATOM      1  C   UNL     1      16.098   4.500  11.239  1.00  0.00     0.160 C 
ENDROOT
BRANCH   1   2
ATOM      2  C   UNL     1      16.222   4.069   9.802  1.00  0.00     0.163 C 
ATOM      3  O   UNL     1      17.357   3.731   9.370  1.00  0.00    -0.294 OA
BRANCH   2   4
ATOM      4  C   UNL     1      15.082   4.043   8.858  1.00  0.00     0.048 C 
ATOM      5  C   UNL     1      14.610   2.921   8.294  1.00  0.00     0.012 C 
BRANCH   5   6
ATOM      6  C   UNL     1      13.469   2.898   7.346  1.00  0.00    -0.025 A 
ATOM      7  C   UNL     1      12.800   4.102   7.067  1.00  0.00     0.012 A 
ATOM      8  C   UNL     1      11.727   4.128   6.172  1.00  0.00     0.047 A 
ATOM      9  C   UNL     1      11.315   2.953   5.531  1.00  0.00     0.115 A 
ATOM     10  C   UNL     1      13.057   1.722   6.685  1.00  0.00     0.012 A 
ATOM     11  C   UNL     1      11.985   1.754   5.789  1.00  0.00     0.047 A 
BRANCH   9  12
ATOM     12  O   UNL     1      10.247   2.968   4.637  1.00  0.00    -0.508 OA
ATOM     13  H   UNL     1       9.303   2.754   4.936  1.00  0.00     0.293 HD
ENDBRANCH   9  12
ENDBRANCH   5   6
ENDBRANCH   2   4
ENDBRANCH   1   2
BRANCH   1  14
ATOM     14  C   UNL     1      17.303   4.078  12.041  1.00  0.00     0.163 C 
ATOM     15  O   UNL     1      18.440   4.475  11.672  1.00  0.00    -0.294 OA
BRANCH  14  16
ATOM     16  C   UNL     1      17.223   3.199  13.229  1.00  0.00     0.048 C 
ATOM     17  C   UNL     1      18.297   2.742  13.890  1.00  0.00     0.012 C 
BRANCH  17  18
ATOM     18  C   UNL     1      18.213   1.857  15.078  1.00  0.00    -0.025 A 
ATOM     19  C   UNL     1      18.475   0.473  15.011  1.00  0.00     0.012 A 
ATOM     20  C   UNL     1      17.818   2.414  16.306  1.00  0.00     0.012 A 
ATOM     21  C   UNL     1      18.369  -0.322  16.157  1.00  0.00     0.047 A 
ATOM     22  C   UNL     1      17.713   1.616  17.448  1.00  0.00     0.047 A 
ATOM     23  C   UNL     1      17.991   0.245  17.377  1.00  0.00     0.115 A 
BRANCH  23  24
ATOM     24  O   UNL     1      17.890  -0.561  18.509  1.00  0.00    -0.508 OA
ATOM     25  H   UNL     1      17.736  -1.560  18.437  1.00  0.00     0.293 HD
ENDBRANCH  23  24
ENDBRANCH  17  18
ENDBRANCH  14  16
ENDBRANCH   1  14
TORSDOF 8
ENDMDL
MODEL 7
REMARK VINA RESULT:    28.124      1.631      9.507
REMARK INTER + INTRA:          39.656
REMARK INTER:                  38.645
REMARK INTRA:                   1.011
REMARK UNBOUND:                 0.022
REMARK SMILES O=C(C=Cc1ccc(O)cc1)CC(=O)C=Cc1ccc(O)cc1
REMARK SMILES IDX 12 1 2 2 1 3 3 4 4 5 5 6 6 7 7 8 8 9 11 10 10 11 9 12 13 14
REMARK SMILES IDX 14 15 15 16 16 17 17 18 18 19 23 20 19 21 22 22 20 23 21 24
REMARK H PARENT 9 13 21 25
REMARK Flexibility Score: inf
ROOT
ATOM      1  C   UNL     1       6.360   0.525   8.200  1.00  0.00     0.160 C 
ENDROOT
BRANCH   1   2
ATOM      2  C   UNL     1       5.209   1.082   8.995  1.00  0.00     0.163 C 
ATOM      3  O   UNL     1       4.045   0.982   8.521  1.00  0.00    -0.294 OA
BRANCH   2   4
ATOM      4  C   UNL     1       5.374   1.763  10.300  1.00  0.00     0.048 C 
ATOM      5  C   UNL     1       5.283   1.136  11.482  1.00  0.00     0.012 C 
BRANCH   5   6
ATOM      6  C   UNL     1       5.445   1.822  12.788  1.00  0.00    -0.025 A 
ATOM      7  C   UNL     1       6.744   2.095  13.248  1.00  0.00     0.012 A 
ATOM      8  C   UNL     1       6.944   2.749  14.467  1.00  0.00     0.047 A 
ATOM      9  C   UNL     1       5.846   3.151  15.239  1.00  0.00     0.115 A 
ATOM     10  C   UNL     1       4.346   2.243  13.564  1.00  0.00     0.012 A 
ATOM     11  C   UNL     1       4.550   2.898  14.781  1.00  0.00     0.047 A 
BRANCH   9  12
ATOM     12  O   UNL     1       6.033   3.804  16.455  1.00  0.00    -0.508 OA
ATOM     13  H   UNL     1       6.320   3.301  17.286  1.00  0.00     0.293 HD
ENDBRANCH   9  12
ENDBRANCH   5   6
ENDBRANCH   2   4
ENDBRANCH   1   2
BRANCH   1  14
ATOM     14  C   UNL     1       7.683   0.914   8.811  1.00  0.00     0.163 C 
ATOM     15  O   UNL     1       7.724   1.173  10.042  1.00  0.00    -0.294 OA
BRANCH  14  16
ATOM     16  C   UNL     1       8.936   1.030   8.031  1.00  0.00     0.048 C 
ATOM     17  C   UNL     1       9.737   2.105   8.066  1.00  0.00     0.012 C 
BRANCH  17  18
ATOM     18  C   UNL     1      10.990   2.220   7.279  1.00  0.00    -0.025 A 
ATOM     19  C   UNL     1      11.528   3.463   6.889  1.00  0.00     0.012 A 
ATOM     20  C   UNL     1      11.642   1.042   6.875  1.00  0.00     0.012 A 
ATOM     21  C   UNL     1      12.705   3.519   6.136  1.00  0.00     0.047 A 
ATOM     22  C   UNL     1      12.818   1.102   6.123  1.00  0.00     0.047 A 
ATOM     23  C   UNL     1      13.354   2.342   5.753  1.00  0.00     0.115 A 
BRANCH  23  24
ATOM     24  O   UNL     1      14.526   2.414   5.003  1.00  0.00    -0.508 OA
ATOM     25  H   UNL     1      15.439   2.412   5.444  1.00  0.00     0.293 HD
ENDBRANCH  23  24
ENDBRANCH  17  18
ENDBRANCH  14  16
ENDBRANCH   1  14
TORSDOF 8
ENDMDL
MODEL 8
REMARK VINA RESULT:    28.150      7.636     11.513
REMARK INTER + INTRA:          39.691
REMARK INTER:                  39.692
REMARK INTRA:                  -0.001
REMARK UNBOUND:                 0.022
REMARK SMILES O=C(C=Cc1ccc(O)cc1)CC(=O)C=Cc1ccc(O)cc1
REMARK SMILES IDX 12 1 2 2 1 3 3 4 4 5 5 6 6 7 7 8 8 9 11 10 10 11 9 12 13 14
REMARK SMILES IDX 14 15 15 16 16 17 17 18 18 19 23 20 19 21 22 22 20 23 21 24
REMARK H PARENT 9 13 21 25
REMARK Flexibility Score: inf
ROOT
ATOM      1  C   UNL     1      16.110   4.525  11.191  1.00  0.00     0.160 C 
ENDROOT
BRANCH   1   2
ATOM      2  C   UNL     1      17.318   4.109  11.988  1.00  0.00     0.163 C 
ATOM      3  O   UNL     1      18.458   4.477  11.593  1.00  0.00    -0.294 OA
BRANCH   2   4
ATOM      4  C   UNL     1      17.241   3.270  13.205  1.00  0.00     0.048 C 
ATOM      5  C   UNL     1      18.304   2.674  13.766  1.00  0.00     0.012 C 
BRANCH   5   6
ATOM      6  C   UNL     1      18.223   1.831  14.984  1.00  0.00    -0.025 A 
ATOM      7  C   UNL     1      17.793   2.421  16.184  1.00  0.00     0.012 A 
ATOM      8  C   UNL     1      17.691   1.661  17.353  1.00  0.00     0.047 A 
ATOM      9  C   UNL     1      18.005   0.296  17.337  1.00  0.00     0.115 A 
ATOM     10  C   UNL     1      18.523   0.452  14.972  1.00  0.00     0.012 A 
ATOM     11  C   UNL     1      18.418  -0.303  16.143  1.00  0.00     0.047 A 
BRANCH   9  12
ATOM     12  O   UNL     1      17.907  -0.470  18.495  1.00  0.00    -0.508 OA
ATOM     13  H   UNL     1      18.556  -1.224  18.688  1.00  0.00     0.293 HD
ENDBRANCH   9  12
ENDBRANCH   5   6
ENDBRANCH   2   4
ENDBRANCH   1   2
BRANCH   1  14
ATOM     14  C   UNL     1      16.211   4.052   9.763  1.00  0.00     0.163 C 
ATOM     15  O   UNL     1      17.336   3.694   9.325  1.00  0.00    -0.294 OA
BRANCH  14  16
ATOM     16  C   UNL     1      15.056   4.008   8.837  1.00  0.00     0.048 C 
ATOM     17  C   UNL     1      14.593   2.880   8.278  1.00  0.00     0.012 C 
BRANCH  17  18
ATOM     18  C   UNL     1      13.438   2.841   7.348  1.00  0.00    -0.025 A 
ATOM     19  C   UNL     1      12.999   1.649   6.736  1.00  0.00     0.012 A 
ATOM     20  C   UNL     1      12.785   4.045   7.034  1.00  0.00     0.012 A 
ATOM     21  C   UNL     1      11.913   1.665   5.855  1.00  0.00     0.047 A 
ATOM     22  C   UNL     1      11.701   4.056   6.152  1.00  0.00     0.047 A 
ATOM     23  C   UNL     1      11.260   2.866   5.562  1.00  0.00     0.115 A 
BRANCH  23  24
ATOM     24  O   UNL     1      10.180   2.866   4.682  1.00  0.00    -0.508 OA
ATOM     25  H   UNL     1      10.299   2.657   3.697  1.00  0.00     0.293 HD
ENDBRANCH  23  24
ENDBRANCH  17  18
ENDBRANCH  14  16
ENDBRANCH   1  14
TORSDOF 8
ENDMDL
MODEL 9
REMARK VINA RESULT:    28.153      1.607      2.412
REMARK INTER + INTRA:          39.696
REMARK INTER:                  38.751
REMARK INTRA:                   0.945
REMARK UNBOUND:                 0.022
REMARK SMILES O=C(C=Cc1ccc(O)cc1)CC(=O)C=Cc1ccc(O)cc1
REMARK SMILES IDX 12 1 2 2 1 3 3 4 4 5 5 6 6 7 7 8 8 9 11 10 10 11 9 12 13 14
REMARK SMILES IDX 14 15 15 16 16 17 17 18 18 19 23 20 19 21 22 22 20 23 21 24
REMARK H PARENT 9 13 21 25
REMARK Flexibility Score: inf
ROOT
ATOM      1  C   UNL     1       6.417   0.481   8.234  1.00  0.00     0.160 C 
ENDROOT
BRANCH   1   2
ATOM      2  C   UNL     1       7.742   0.876   8.832  1.00  0.00     0.163 C 
ATOM      3  O   UNL     1       7.794   1.133  10.065  1.00  0.00    -0.294 OA
BRANCH   2   4
ATOM      4  C   UNL     1       8.988   1.000   8.042  1.00  0.00     0.048 C 
ATOM      5  C   UNL     1       9.771   2.088   8.056  1.00  0.00     0.012 C 
BRANCH   5   6
ATOM      6  C   UNL     1      11.018   2.210   7.261  1.00  0.00    -0.025 A 
ATOM      7  C   UNL     1      11.676   1.037   6.855  1.00  0.00     0.012 A 
ATOM      8  C   UNL     1      12.847   1.106   6.095  1.00  0.00     0.047 A 
ATOM      9  C   UNL     1      13.371   2.349   5.718  1.00  0.00     0.115 A 
ATOM     10  C   UNL     1      11.544   3.458   6.865  1.00  0.00     0.012 A 
ATOM     11  C   UNL     1      12.714   3.521   6.103  1.00  0.00     0.047 A 
BRANCH   9  12
ATOM     12  O   UNL     1      14.537   2.429   4.961  1.00  0.00    -0.508 OA
ATOM     13  H   UNL     1      14.712   3.210   4.339  1.00  0.00     0.293 HD
ENDBRANCH   9  12
ENDBRANCH   5   6
ENDBRANCH   2   4
ENDBRANCH   1   2
BRANCH   1  14
ATOM     14  C   UNL     1       5.270   1.089   9.000  1.00  0.00     0.163 C 
ATOM     15  O   UNL     1       4.117   1.043   8.496  1.00  0.00    -0.294 OA
BRANCH  14  16
ATOM     16  C   UNL     1       5.432   1.762  10.309  1.00  0.00     0.048 C 
ATOM     17  C   UNL     1       5.322   1.132  11.488  1.00  0.00     0.012 C 
BRANCH  17  18
ATOM     18  C   UNL     1       5.481   1.811  12.798  1.00  0.00    -0.025 A 
ATOM     19  C   UNL     1       4.379   2.221  13.576  1.00  0.00     0.012 A 
ATOM     20  C   UNL     1       6.778   2.091  13.259  1.00  0.00     0.012 A 
ATOM     21  C   UNL     1       4.579   2.870  14.799  1.00  0.00     0.047 A 
ATOM     22  C   UNL     1       6.974   2.739  14.481  1.00  0.00     0.047 A 
ATOM     23  C   UNL     1       5.874   3.129  15.255  1.00  0.00     0.115 A 
BRANCH  23  24
ATOM     24  O   UNL     1       6.058   3.776  16.476  1.00  0.00    -0.508 OA
ATOM     25  H   UNL     1       6.876   3.604  17.049  1.00  0.00     0.293 HD
ENDBRANCH  23  24
ENDBRANCH  17  18
ENDBRANCH  14  16
ENDBRANCH   1  14
TORSDOF 8
ENDMDL
