MODEL 1
REMARK VINA RESULT:    -7.190      0.000      0.000
REMARK INTER + INTRA:         -11.968
REMARK INTER:                 -11.183
REMARK INTRA:                  -0.785
REMARK UNBOUND:                -0.785
REMARK SMILES C[C@]12C[C@@H](O)[C@@H]3C[C@@]1(O[C@H]1O[C@@H](CO)[C@H](O)[C@H](O)[C@@H]1O)[C@]3(COC(=O)c1ccccc1)C(=O)O2
REMARK SMILES IDX 1 1 2 2 3 3 4 4 6 5 7 6 8 7 21 8 32 9 33 10 34 11 9 12 10 13
REMARK SMILES IDX 19 14 11 15 17 16 12 17 15 18 20 19 18 21 13 23 14 24 16 26
REMARK SMILES IDX 5 28 22 30 23 31 24 32 25 33 26 34 27 35 31 36 28 37 30 38
REMARK SMILES IDX 29 39
REMARK H PARENT 20 20 18 22 14 25 16 27 5 29
REMARK Flexibility Score: inf
ROOT
ATOM      1  C   UNL     1      62.238  32.747  25.342  1.00  0.00     0.060 C 
ATOM      2  C   UNL     1      61.684  31.600  26.193  1.00  0.00     0.142 C 
ATOM      3  C   UNL     1      62.532  31.448  27.510  1.00  0.00     0.083 C 
ATOM      4  C   UNL     1      62.264  30.063  28.221  1.00  0.00     0.123 C 
ATOM      5  C   UNL     1      61.746  29.010  27.192  1.00  0.00     0.045 C 
ATOM      6  C   UNL     1      62.596  29.183  25.930  1.00  0.00     0.049 C 
ATOM      7  C   UNL     1      61.538  30.184  25.455  1.00  0.00     0.131 C 
ATOM      8  C   UNL     1      60.506  29.500  26.372  1.00  0.00     0.140 C 
ATOM      9  C   UNL     1      59.720  30.671  26.883  1.00  0.00     0.319 C 
ATOM     10  O   UNL     1      58.655  30.596  27.550  1.00  0.00    -0.251 OA
ATOM     11  O   UNL     1      60.366  31.868  26.635  1.00  0.00    -0.456 OA
ENDROOT
BRANCH   7  12
ATOM     12  O   UNL     1      61.329  30.103  24.040  1.00  0.00    -0.338 OA
BRANCH  12  13
ATOM     13  C   UNL     1      60.325  30.956  23.502  1.00  0.00     0.282 C 
ATOM     14  C   UNL     1      59.179  30.147  22.836  1.00  0.00     0.202 C 
ATOM     15  O   UNL     1      60.901  31.848  22.556  1.00  0.00    -0.341 OA
ATOM     16  C   UNL     1      59.510  29.694  21.389  1.00  0.00     0.179 C 
ATOM     17  C   UNL     1      61.532  31.203  21.448  1.00  0.00     0.178 C 
ATOM     18  C   UNL     1      61.023  29.769  21.134  1.00  0.00     0.177 C 
BRANCH  14  19
ATOM     19  O   UNL     1      57.968  30.863  22.896  1.00  0.00    -0.385 OA
ATOM     20  H   UNL     1      57.244  30.203  23.080  1.00  0.00     0.211 HD
ENDBRANCH  14  19
BRANCH  16  21
ATOM     21  O   UNL     1      58.829  30.484  20.440  1.00  0.00    -0.387 OA
ATOM     22  H   UNL     1      59.497  30.702  19.729  1.00  0.00     0.211 HD
ENDBRANCH  16  21
BRANCH  17  23
ATOM     23  C   UNL     1      63.055  31.229  21.613  1.00  0.00     0.191 C 
BRANCH  23  24
ATOM     24  O   UNL     1      63.561  29.923  21.710  1.00  0.00    -0.394 OA
ATOM     25  H   UNL     1      64.537  30.007  21.881  1.00  0.00     0.210 HD
ENDBRANCH  23  24
ENDBRANCH  17  23
BRANCH  18  26
ATOM     26  O   UNL     1      61.323  29.443  19.801  1.00  0.00    -0.387 OA
ATOM     27  H   UNL     1      61.481  28.461  19.778  1.00  0.00     0.211 HD
ENDBRANCH  18  26
ENDBRANCH  12  13
ENDBRANCH   7  12
BRANCH   4  28
ATOM     28  O   UNL     1      61.396  30.146  29.327  1.00  0.00    -0.393 OA
ATOM     29  H   UNL     1      61.718  29.547  30.048  1.00  0.00     0.210 HD
ENDBRANCH   4  28
BRANCH   8  30
ATOM     30  C   UNL     1      59.709  28.307  25.760  1.00  0.00     0.255 C 
BRANCH  30  31
ATOM     31  O   UNL     1      59.180  27.421  26.750  1.00  0.00    -0.461 OA
BRANCH  31  32
ATOM     32  C   UNL     1      58.218  26.439  26.469  1.00  0.00     0.338 C 
ATOM     33  O   UNL     1      58.486  25.500  25.668  1.00  0.00    -0.246 OA
BRANCH  32  34
ATOM     34  C   UNL     1      56.882  26.512  27.102  1.00  0.00     0.060 A 
ATOM     35  C   UNL     1      56.589  27.512  28.047  1.00  0.00     0.015 A 
ATOM     36  C   UNL     1      55.896  25.556  26.791  1.00  0.00     0.015 A 
ATOM     37  C   UNL     1      55.332  27.565  28.656  1.00  0.00     0.001 A 
ATOM     38  C   UNL     1      54.640  25.612  27.400  1.00  0.00     0.001 A 
ATOM     39  C   UNL     1      54.357  26.613  28.335  1.00  0.00     0.000 A 
ENDBRANCH  32  34
ENDBRANCH  31  32
ENDBRANCH  30  31
ENDBRANCH   8  30
TORSDOF 12
ENDMDL
MODEL 2
REMARK VINA RESULT:    -7.168      1.729      7.042
REMARK INTER + INTRA:         -11.935
REMARK INTER:                 -10.871
REMARK INTRA:                  -1.064
REMARK UNBOUND:                -0.785
REMARK SMILES C[C@]12C[C@@H](O)[C@@H]3C[C@@]1(O[C@H]1O[C@@H](CO)[C@H](O)[C@H](O)[C@@H]1O)[C@]3(COC(=O)c1ccccc1)C(=O)O2
REMARK SMILES IDX 1 1 2 2 3 3 4 4 6 5 7 6 8 7 21 8 32 9 33 10 34 11 9 12 10 13
REMARK SMILES IDX 19 14 11 15 17 16 12 17 15 18 20 19 18 21 13 23 14 24 16 26
REMARK SMILES IDX 5 28 22 30 23 31 24 32 25 33 26 34 27 35 31 36 28 37 30 38
REMARK SMILES IDX 29 39
REMARK H PARENT 20 20 18 22 14 25 16 27 5 29
REMARK Flexibility Score: inf
ROOT
ATOM      1  C   UNL     1      61.527  30.368  28.270  1.00  0.00     0.060 C 
ATOM      2  C   UNL     1      61.428  30.648  26.768  1.00  0.00     0.142 C 
ATOM      3  C   UNL     1      62.056  32.053  26.439  1.00  0.00     0.083 C 
ATOM      4  C   UNL     1      61.636  32.559  25.002  1.00  0.00     0.123 C 
ATOM      5  C   UNL     1      60.300  31.887  24.554  1.00  0.00     0.045 C 
ATOM      6  C   UNL     1      59.378  31.897  25.777  1.00  0.00     0.049 C 
ATOM      7  C   UNL     1      59.964  30.525  26.125  1.00  0.00     0.131 C 
ATOM      8  C   UNL     1      60.330  30.325  24.641  1.00  0.00     0.140 C 
ATOM      9  C   UNL     1      61.657  29.633  24.740  1.00  0.00     0.319 C 
ATOM     10  O   UNL     1      62.282  29.119  23.775  1.00  0.00    -0.251 OA
ATOM     11  O   UNL     1      62.188  29.722  26.014  1.00  0.00    -0.456 OA
ENDROOT
BRANCH   7  12
ATOM     12  O   UNL     1      58.976  29.656  26.691  1.00  0.00    -0.338 OA
BRANCH  12  13
ATOM     13  C   UNL     1      59.468  28.533  27.415  1.00  0.00     0.282 C 
ATOM     14  C   UNL     1      59.517  27.256  26.532  1.00  0.00     0.202 C 
ATOM     15  O   UNL     1      58.655  28.300  28.559  1.00  0.00    -0.341 OA
ATOM     16  C   UNL     1      58.147  26.533  26.423  1.00  0.00     0.179 C 
ATOM     17  C   UNL     1      57.283  28.031  28.261  1.00  0.00     0.178 C 
ATOM     18  C   UNL     1      57.006  27.476  26.837  1.00  0.00     0.177 C 
BRANCH  14  19
ATOM     19  O   UNL     1      60.532  26.386  26.975  1.00  0.00    -0.385 OA
ATOM     20  H   UNL     1      60.711  25.742  26.237  1.00  0.00     0.211 HD
ENDBRANCH  14  19
BRANCH  16  21
ATOM     21  O   UNL     1      58.118  25.373  27.223  1.00  0.00    -0.387 OA
ATOM     22  H   UNL     1      58.882  25.457  27.863  1.00  0.00     0.211 HD
ENDBRANCH  16  21
BRANCH  17  23
ATOM     23  C   UNL     1      56.424  29.266  28.554  1.00  0.00     0.191 C 
BRANCH  23  24
ATOM     24  O   UNL     1      56.122  29.947  27.364  1.00  0.00    -0.394 OA
ATOM     25  H   UNL     1      56.982  30.301  27.012  1.00  0.00     0.210 HD
ENDBRANCH  23  24
ENDBRANCH  17  23
BRANCH  18  26
ATOM     26  O   UNL     1      55.773  26.805  26.823  1.00  0.00    -0.387 OA
ATOM     27  H   UNL     1      55.405  26.867  27.745  1.00  0.00     0.211 HD
ENDBRANCH  18  26
ENDBRANCH  12  13
ENDBRANCH   7  12
BRANCH   4  28
ATOM     28  O   UNL     1      62.632  32.388  24.022  1.00  0.00    -0.393 OA
ATOM     29  H   UNL     1      63.499  32.721  24.368  1.00  0.00     0.210 HD
ENDBRANCH   4  28
BRANCH   8  30
ATOM     30  C   UNL     1      59.240  29.674  23.735  1.00  0.00     0.255 C 
BRANCH  30  31
ATOM     31  O   UNL     1      59.771  29.137  22.521  1.00  0.00    -0.461 OA
BRANCH  31  32
ATOM     32  C   UNL     1      60.062  29.921  21.395  1.00  0.00     0.338 C 
ATOM     33  O   UNL     1      59.136  30.535  20.794  1.00  0.00    -0.246 OA
BRANCH  32  34
ATOM     34  C   UNL     1      61.453  30.016  20.899  1.00  0.00     0.060 A 
ATOM     35  C   UNL     1      62.131  28.871  20.439  1.00  0.00     0.015 A 
ATOM     36  C   UNL     1      62.131  31.250  20.916  1.00  0.00     0.015 A 
ATOM     37  C   UNL     1      63.451  28.963  19.991  1.00  0.00     0.001 A 
ATOM     38  C   UNL     1      63.451  31.338  20.466  1.00  0.00     0.001 A 
ATOM     39  C   UNL     1      64.114  30.196  20.006  1.00  0.00     0.000 A 
ENDBRANCH  32  34
ENDBRANCH  31  32
ENDBRANCH  30  31
ENDBRANCH   8  30
TORSDOF 12
ENDMDL
MODEL 3
REMARK VINA RESULT:    -6.696      2.158      6.781
REMARK INTER + INTRA:         -11.200
REMARK INTER:                 -10.003
REMARK INTRA:                  -1.197
REMARK UNBOUND:                -0.785
REMARK SMILES C[C@]12C[C@@H](O)[C@@H]3C[C@@]1(O[C@H]1O[C@@H](CO)[C@H](O)[C@H](O)[C@@H]1O)[C@]3(COC(=O)c1ccccc1)C(=O)O2
REMARK SMILES IDX 1 1 2 2 3 3 4 4 6 5 7 6 8 7 21 8 32 9 33 10 34 11 9 12 10 13
REMARK SMILES IDX 19 14 11 15 17 16 12 17 15 18 20 19 18 21 13 23 14 24 16 26
REMARK SMILES IDX 5 28 22 30 23 31 24 32 25 33 26 34 27 35 31 36 28 37 30 38
REMARK SMILES IDX 29 39
REMARK H PARENT 20 20 18 22 14 25 16 27 5 29
REMARK Flexibility Score: inf
ROOT
ATOM      1  C   UNL     1      58.553  29.254  29.864  1.00  0.00     0.060 C 
ATOM      2  C   UNL     1      58.228  28.759  28.452  1.00  0.00     0.142 C 
ATOM      3  C   UNL     1      57.353  27.453  28.527  1.00  0.00     0.083 C 
ATOM      4  C   UNL     1      57.321  26.689  27.144  1.00  0.00     0.123 C 
ATOM      5  C   UNL     1      58.577  27.051  26.291  1.00  0.00     0.045 C 
ATOM      6  C   UNL     1      59.769  27.048  27.252  1.00  0.00     0.049 C 
ATOM      7  C   UNL     1      59.483  28.535  27.479  1.00  0.00     0.131 C 
ATOM      8  C   UNL     1      58.783  28.591  26.108  1.00  0.00     0.140 C 
ATOM      9  C   UNL     1      57.631  29.511  26.384  1.00  0.00     0.319 C 
ATOM     10  O   UNL     1      56.857  29.989  25.514  1.00  0.00    -0.251 OA
ATOM     11  O   UNL     1      57.434  29.691  27.741  1.00  0.00    -0.456 OA
ENDROOT
BRANCH   7  12
ATOM     12  O   UNL     1      60.691  29.288  27.642  1.00  0.00    -0.338 OA
BRANCH  12  13
ATOM     13  C   UNL     1      60.534  30.663  27.978  1.00  0.00     0.282 C 
ATOM     14  C   UNL     1      61.157  31.592  26.900  1.00  0.00     0.202 C 
ATOM     15  O   UNL     1      61.128  30.923  29.244  1.00  0.00    -0.341 OA
ATOM     16  C   UNL     1      62.691  31.771  27.058  1.00  0.00     0.179 C 
ATOM     17  C   UNL     1      62.528  30.639  29.307  1.00  0.00     0.178 C 
ATOM     18  C   UNL     1      63.275  30.661  27.945  1.00  0.00     0.177 C 
BRANCH  14  19
ATOM     19  O   UNL     1      60.486  32.830  26.868  1.00  0.00    -0.385 OA
ATOM     20  H   UNL     1      60.045  32.949  27.753  1.00  0.00     0.211 HD
ENDBRANCH  14  19
BRANCH  16  21
ATOM     21  O   UNL     1      63.002  33.031  27.607  1.00  0.00    -0.387 OA
ATOM     22  H   UNL     1      63.653  33.455  26.977  1.00  0.00     0.211 HD
ENDBRANCH  16  21
BRANCH  17  23
ATOM     23  C   UNL     1      62.770  29.323  30.053  1.00  0.00     0.191 C 
BRANCH  23  24
ATOM     24  O   UNL     1      63.062  28.291  29.147  1.00  0.00    -0.394 OA
ATOM     25  H   UNL     1      62.251  27.719  29.095  1.00  0.00     0.210 HD
ENDBRANCH  23  24
ENDBRANCH  17  23
BRANCH  18  26
ATOM     26  O   UNL     1      64.647  30.864  28.162  1.00  0.00    -0.387 OA
ATOM     27  H   UNL     1      65.125  30.341  27.464  1.00  0.00     0.211 HD
ENDBRANCH  18  26
ENDBRANCH  12  13
ENDBRANCH   7  12
BRANCH   4  28
ATOM     28  O   UNL     1      56.141  26.896  26.404  1.00  0.00    -0.393 OA
ATOM     29  H   UNL     1      56.141  26.305  25.608  1.00  0.00     0.210 HD
ENDBRANCH   4  28
BRANCH   8  30
ATOM     30  C   UNL     1      59.684  28.912  24.876  1.00  0.00     0.255 C 
BRANCH  30  31
ATOM     31  O   UNL     1      59.060  29.794  23.941  1.00  0.00    -0.461 OA
BRANCH  31  32
ATOM     32  C   UNL     1      59.566  31.063  23.623  1.00  0.00     0.338 C 
ATOM     33  O   UNL     1      59.130  32.088  24.219  1.00  0.00    -0.246 OA
BRANCH  32  34
ATOM     34  C   UNL     1      60.603  31.204  22.576  1.00  0.00     0.060 A 
ATOM     35  C   UNL     1      60.268  31.087  21.214  1.00  0.00     0.015 A 
ATOM     36  C   UNL     1      61.948  31.422  22.932  1.00  0.00     0.015 A 
ATOM     37  C   UNL     1      61.254  31.201  20.230  1.00  0.00     0.001 A 
ATOM     38  C   UNL     1      62.931  31.537  21.946  1.00  0.00     0.001 A 
ATOM     39  C   UNL     1      62.587  31.424  20.595  1.00  0.00     0.000 A 
ENDBRANCH  32  34
ENDBRANCH  31  32
ENDBRANCH  30  31
ENDBRANCH   8  30
TORSDOF 12
ENDMDL
MODEL 4
REMARK VINA RESULT:    -6.629      2.632      6.373
REMARK INTER + INTRA:         -11.095
REMARK INTER:                 -10.378
REMARK INTRA:                  -0.717
REMARK UNBOUND:                -0.785
REMARK SMILES C[C@]12C[C@@H](O)[C@@H]3C[C@@]1(O[C@H]1O[C@@H](CO)[C@H](O)[C@H](O)[C@@H]1O)[C@]3(COC(=O)c1ccccc1)C(=O)O2
REMARK SMILES IDX 1 1 2 2 3 3 4 4 6 5 7 6 8 7 21 8 32 9 33 10 34 11 9 12 10 13
REMARK SMILES IDX 19 14 11 15 17 16 12 17 15 18 20 19 18 21 13 23 14 24 16 26
REMARK SMILES IDX 5 28 22 30 23 31 24 32 25 33 26 34 27 35 31 36 28 37 30 38
REMARK SMILES IDX 29 39
REMARK H PARENT 20 20 18 22 14 25 16 27 5 29
REMARK Flexibility Score: inf
ROOT
ATOM      1  C   UNL     1      59.765  28.374  29.162  1.00  0.00     0.060 C 
ATOM      2  C   UNL     1      60.969  28.842  28.339  1.00  0.00     0.142 C 
ATOM      3  C   UNL     1      62.290  28.686  29.182  1.00  0.00     0.083 C 
ATOM      4  C   UNL     1      63.486  29.503  28.551  1.00  0.00     0.123 C 
ATOM      5  C   UNL     1      62.945  30.676  27.674  1.00  0.00     0.045 C 
ATOM      6  C   UNL     1      61.787  31.304  28.456  1.00  0.00     0.049 C 
ATOM      7  C   UNL     1      60.869  30.320  27.724  1.00  0.00     0.131 C 
ATOM      8  C   UNL     1      61.910  30.219  26.593  1.00  0.00     0.140 C 
ATOM      9  C   UNL     1      61.837  28.765  26.233  1.00  0.00     0.319 C 
ATOM     10  O   UNL     1      62.399  28.232  25.239  1.00  0.00    -0.251 OA
ATOM     11  O   UNL     1      61.167  28.032  27.195  1.00  0.00    -0.456 OA
ENDROOT
BRANCH   7  12
ATOM     12  O   UNL     1      59.601  30.909  27.414  1.00  0.00    -0.338 OA
BRANCH  12  13
ATOM     13  C   UNL     1      58.529  30.004  27.173  1.00  0.00     0.282 C 
ATOM     14  C   UNL     1      58.553  29.458  25.719  1.00  0.00     0.202 C 
ATOM     15  O   UNL     1      57.286  30.646  27.429  1.00  0.00    -0.341 OA
ATOM     16  C   UNL     1      57.911  30.427  24.690  1.00  0.00     0.179 C 
ATOM     17  C   UNL     1      57.042  31.800  26.621  1.00  0.00     0.178 C 
ATOM     18  C   UNL     1      57.814  31.845  25.273  1.00  0.00     0.177 C 
BRANCH  14  19
ATOM     19  O   UNL     1      57.973  28.176  25.663  1.00  0.00    -0.385 OA
ATOM     20  H   UNL     1      57.293  28.193  24.935  1.00  0.00     0.211 HD
ENDBRANCH  14  19
BRANCH  16  21
ATOM     21  O   UNL     1      56.630  29.983  24.304  1.00  0.00    -0.387 OA
ATOM     22  H   UNL     1      56.025  30.774  24.387  1.00  0.00     0.211 HD
ENDBRANCH  16  21
BRANCH  17  23
ATOM     23  C   UNL     1      57.270  33.078  27.435  1.00  0.00     0.191 C 
BRANCH  23  24
ATOM     24  O   UNL     1      57.668  32.761  28.744  1.00  0.00    -0.394 OA
ATOM     25  H   UNL     1      58.661  32.812  28.761  1.00  0.00     0.210 HD
ENDBRANCH  23  24
ENDBRANCH  17  23
BRANCH  18  26
ATOM     26  O   UNL     1      57.157  32.708  24.382  1.00  0.00    -0.387 OA
ATOM     27  H   UNL     1      56.658  32.132  23.743  1.00  0.00     0.211 HD
ENDBRANCH  18  26
ENDBRANCH  12  13
ENDBRANCH   7  12
BRANCH   4  28
ATOM     28  O   UNL     1      64.394  28.715  27.820  1.00  0.00    -0.393 OA
ATOM     29  H   UNL     1      64.224  28.825  26.849  1.00  0.00     0.210 HD
ENDBRANCH   4  28
BRANCH   8  30
ATOM     30  C   UNL     1      61.786  31.257  25.435  1.00  0.00     0.255 C 
BRANCH  30  31
ATOM     31  O   UNL     1      61.088  30.745  24.298  1.00  0.00    -0.461 OA
BRANCH  31  32
ATOM     32  C   UNL     1      61.257  31.248  22.999  1.00  0.00     0.338 C 
ATOM     33  O   UNL     1      60.675  32.313  22.651  1.00  0.00    -0.246 OA
BRANCH  32  34
ATOM     34  C   UNL     1      62.108  30.520  22.030  1.00  0.00     0.060 A 
ATOM     35  C   UNL     1      63.344  31.052  21.620  1.00  0.00     0.015 A 
ATOM     36  C   UNL     1      61.670  29.302  21.476  1.00  0.00     0.015 A 
ATOM     37  C   UNL     1      64.135  30.371  20.691  1.00  0.00     0.001 A 
ATOM     38  C   UNL     1      62.464  28.623  20.547  1.00  0.00     0.001 A 
ATOM     39  C   UNL     1      63.694  29.157  20.151  1.00  0.00     0.000 A 
ENDBRANCH  32  34
ENDBRANCH  31  32
ENDBRANCH  30  31
ENDBRANCH   8  30
TORSDOF 12
ENDMDL
MODEL 5
REMARK VINA RESULT:    -6.526      2.260      6.890
REMARK INTER + INTRA:         -10.936
REMARK INTER:                 -10.754
REMARK INTRA:                  -0.182
REMARK UNBOUND:                -0.785
REMARK SMILES C[C@]12C[C@@H](O)[C@@H]3C[C@@]1(O[C@H]1O[C@@H](CO)[C@H](O)[C@H](O)[C@@H]1O)[C@]3(COC(=O)c1ccccc1)C(=O)O2
REMARK SMILES IDX 1 1 2 2 3 3 4 4 6 5 7 6 8 7 21 8 32 9 33 10 34 11 9 12 10 13
REMARK SMILES IDX 19 14 11 15 17 16 12 17 15 18 20 19 18 21 13 23 14 24 16 26
REMARK SMILES IDX 5 28 22 30 23 31 24 32 25 33 26 34 27 35 31 36 28 37 30 38
REMARK SMILES IDX 29 39
REMARK H PARENT 20 20 18 22 14 25 16 27 5 29
REMARK Flexibility Score: inf
ROOT
ATOM      1  C   UNL     1      60.229  27.854  29.482  1.00  0.00     0.060 C 
ATOM      2  C   UNL     1      59.584  27.775  28.094  1.00  0.00     0.142 C 
ATOM      3  C   UNL     1      59.549  26.280  27.602  1.00  0.00     0.083 C 
ATOM      4  C   UNL     1      59.267  26.182  26.050  1.00  0.00     0.123 C 
ATOM      5  C   UNL     1      59.689  27.503  25.333  1.00  0.00     0.045 C 
ATOM      6  C   UNL     1      61.031  27.918  25.943  1.00  0.00     0.049 C 
ATOM      7  C   UNL     1      60.223  28.720  26.967  1.00  0.00     0.131 C 
ATOM      8  C   UNL     1      59.053  28.785  25.967  1.00  0.00     0.140 C 
ATOM      9  C   UNL     1      57.865  28.632  26.868  1.00  0.00     0.319 C 
ATOM     10  O   UNL     1      56.664  28.783  26.520  1.00  0.00    -0.251 OA
ATOM     11  O   UNL     1      58.229  28.183  28.124  1.00  0.00    -0.456 OA
ENDROOT
BRANCH   7  12
ATOM     12  O   UNL     1      60.875  29.948  27.312  1.00  0.00    -0.338 OA
BRANCH  12  13
ATOM     13  C   UNL     1      62.268  30.023  27.026  1.00  0.00     0.282 C 
ATOM     14  C   UNL     1      63.129  29.566  28.235  1.00  0.00     0.202 C 
ATOM     15  O   UNL     1      62.617  31.352  26.658  1.00  0.00    -0.341 OA
ATOM     16  C   UNL     1      63.330  30.678  29.299  1.00  0.00     0.179 C 
ATOM     17  C   UNL     1      62.348  32.331  27.664  1.00  0.00     0.178 C 
ATOM     18  C   UNL     1      62.286  31.791  29.120  1.00  0.00     0.177 C 
BRANCH  14  19
ATOM     19  O   UNL     1      64.357  29.034  27.795  1.00  0.00    -0.385 OA
ATOM     20  H   UNL     1      64.452  29.273  26.833  1.00  0.00     0.211 HD
ENDBRANCH  14  19
BRANCH  16  21
ATOM     21  O   UNL     1      64.626  31.227  29.223  1.00  0.00    -0.387 OA
ATOM     22  H   UNL     1      64.512  32.168  28.906  1.00  0.00     0.211 HD
ENDBRANCH  16  21
BRANCH  17  23
ATOM     23  C   UNL     1      61.086  33.125  27.311  1.00  0.00     0.191 C 
BRANCH  23  24
ATOM     24  O   UNL     1      60.707  32.878  25.982  1.00  0.00    -0.394 OA
ATOM     25  H   UNL     1      60.926  33.699  25.465  1.00  0.00     0.210 HD
ENDBRANCH  23  24
ENDBRANCH  17  23
BRANCH  18  26
ATOM     26  O   UNL     1      62.513  32.841  30.023  1.00  0.00    -0.387 OA
ATOM     27  H   UNL     1      62.735  33.642  29.477  1.00  0.00     0.211 HD
ENDBRANCH  18  26
ENDBRANCH  12  13
ENDBRANCH   7  12
BRANCH   4  28
ATOM     28  O   UNL     1      57.938  25.846  25.730  1.00  0.00    -0.393 OA
ATOM     29  H   UNL     1      57.316  26.386  26.282  1.00  0.00     0.210 HD
ENDBRANCH   4  28
BRANCH   8  30
ATOM     30  C   UNL     1      59.054  29.985  24.969  1.00  0.00     0.255 C 
BRANCH  30  31
ATOM     31  O   UNL     1      59.692  29.678  23.728  1.00  0.00    -0.461 OA
BRANCH  31  32
ATOM     32  C   UNL     1      60.461  30.605  23.007  1.00  0.00     0.338 C 
ATOM     33  O   UNL     1      60.207  31.839  23.090  1.00  0.00    -0.246 OA
BRANCH  32  34
ATOM     34  C   UNL     1      61.562  30.134  22.138  1.00  0.00     0.060 A 
ATOM     35  C   UNL     1      62.763  30.862  22.043  1.00  0.00     0.015 A 
ATOM     36  C   UNL     1      61.407  28.968  21.364  1.00  0.00     0.015 A 
ATOM     37  C   UNL     1      63.792  30.425  21.205  1.00  0.00     0.001 A 
ATOM     38  C   UNL     1      62.439  28.533  20.528  1.00  0.00     0.001 A 
ATOM     39  C   UNL     1      63.631  29.260  20.445  1.00  0.00     0.000 A 
ENDBRANCH  32  34
ENDBRANCH  31  32
ENDBRANCH  30  31
ENDBRANCH   8  30
TORSDOF 12
ENDMDL
MODEL 6
REMARK VINA RESULT:    -6.514      2.412      6.985
REMARK INTER + INTRA:         -10.917
REMARK INTER:                  -9.942
REMARK INTRA:                  -0.975
REMARK UNBOUND:                -0.785
REMARK SMILES C[C@]12C[C@@H](O)[C@@H]3C[C@@]1(O[C@H]1O[C@@H](CO)[C@H](O)[C@H](O)[C@@H]1O)[C@]3(COC(=O)c1ccccc1)C(=O)O2
REMARK SMILES IDX 1 1 2 2 3 3 4 4 6 5 7 6 8 7 21 8 32 9 33 10 34 11 9 12 10 13
REMARK SMILES IDX 19 14 11 15 17 16 12 17 15 18 20 19 18 21 13 23 14 24 16 26
REMARK SMILES IDX 5 28 22 30 23 31 24 32 25 33 26 34 27 35 31 36 28 37 30 38
REMARK SMILES IDX 29 39
REMARK H PARENT 20 20 18 22 14 25 16 27 5 29
REMARK Flexibility Score: inf
ROOT
ATOM      1  C   UNL     1      57.969  31.681  28.610  1.00  0.00     0.060 C 
ATOM      2  C   UNL     1      58.088  31.118  27.190  1.00  0.00     0.142 C 
ATOM      3  C   UNL     1      56.662  30.745  26.638  1.00  0.00     0.083 C 
ATOM      4  C   UNL     1      56.753  29.812  25.366  1.00  0.00     0.123 C 
ATOM      5  C   UNL     1      58.109  29.038  25.351  1.00  0.00     0.045 C 
ATOM      6  C   UNL     1      58.354  28.566  26.787  1.00  0.00     0.049 C 
ATOM      7  C   UNL     1      59.099  29.886  27.005  1.00  0.00     0.131 C 
ATOM      8  C   UNL     1      59.359  29.969  25.488  1.00  0.00     0.140 C 
ATOM      9  C   UNL     1      59.198  31.437  25.225  1.00  0.00     0.319 C 
ATOM     10  O   UNL     1      59.475  32.016  24.142  1.00  0.00    -0.251 OA
ATOM     11  O   UNL     1      58.590  32.084  26.286  1.00  0.00    -0.456 OA
ENDROOT
BRANCH   7  12
ATOM     12  O   UNL     1      60.230  29.720  27.867  1.00  0.00    -0.338 OA
BRANCH  12  13
ATOM     13  C   UNL     1      60.745  30.905  28.465  1.00  0.00     0.282 C 
ATOM     14  C   UNL     1      61.727  31.648  27.518  1.00  0.00     0.202 C 
ATOM     15  O   UNL     1      61.399  30.588  29.688  1.00  0.00    -0.341 OA
ATOM     16  C   UNL     1      63.164  31.061  27.543  1.00  0.00     0.179 C 
ATOM     17  C   UNL     1      62.498  29.683  29.549  1.00  0.00     0.178 C 
ATOM     18  C   UNL     1      63.158  29.647  28.143  1.00  0.00     0.177 C 
BRANCH  14  19
ATOM     19  O   UNL     1      61.722  33.030  27.785  1.00  0.00    -0.385 OA
ATOM     20  H   UNL     1      62.565  33.238  28.275  1.00  0.00     0.211 HD
ENDBRANCH  14  19
BRANCH  16  21
ATOM     21  O   UNL     1      64.038  31.886  28.278  1.00  0.00    -0.387 OA
ATOM     22  H   UNL     1      63.527  32.185  29.083  1.00  0.00     0.211 HD
ENDBRANCH  16  21
BRANCH  17  23
ATOM     23  C   UNL     1      62.093  28.280  30.011  1.00  0.00     0.191 C 
BRANCH  23  24
ATOM     24  O   UNL     1      61.831  27.456  28.905  1.00  0.00    -0.394 OA
ATOM     25  H   UNL     1      60.843  27.350  28.854  1.00  0.00     0.210 HD
ENDBRANCH  23  24
ENDBRANCH  17  23
BRANCH  18  26
ATOM     26  O   UNL     1      64.464  29.142  28.248  1.00  0.00    -0.387 OA
ATOM     27  H   UNL     1      64.536  28.402  27.588  1.00  0.00     0.211 HD
ENDBRANCH  18  26
ENDBRANCH  12  13
ENDBRANCH   7  12
BRANCH   4  28
ATOM     28  O   UNL     1      56.554  30.487  24.146  1.00  0.00    -0.393 OA
ATOM     29  H   UNL     1      57.087  31.323  24.137  1.00  0.00     0.210 HD
ENDBRANCH   4  28
BRANCH   8  30
ATOM     30  C   UNL     1      60.655  29.279  24.963  1.00  0.00     0.255 C 
BRANCH  30  31
ATOM     31  O   UNL     1      60.463  28.601  23.720  1.00  0.00    -0.461 OA
BRANCH  31  32
ATOM     32  C   UNL     1      60.438  29.257  22.480  1.00  0.00     0.338 C 
ATOM     33  O   UNL     1      59.336  29.579  21.955  1.00  0.00    -0.246 OA
BRANCH  32  34
ATOM     34  C   UNL     1      61.707  29.560  21.779  1.00  0.00     0.060 A 
ATOM     35  C   UNL     1      62.218  28.678  20.809  1.00  0.00     0.015 A 
ATOM     36  C   UNL     1      62.438  30.719  22.103  1.00  0.00     0.015 A 
ATOM     37  C   UNL     1      63.426  28.959  20.164  1.00  0.00     0.001 A 
ATOM     38  C   UNL     1      63.645  30.997  21.455  1.00  0.00     0.001 A 
ATOM     39  C   UNL     1      64.142  30.117  20.488  1.00  0.00     0.000 A 
ENDBRANCH  32  34
ENDBRANCH  31  32
ENDBRANCH  30  31
ENDBRANCH   8  30
TORSDOF 12
ENDMDL
MODEL 7
REMARK VINA RESULT:    -6.460      1.347      2.207
REMARK INTER + INTRA:         -10.832
REMARK INTER:                 -11.035
REMARK INTRA:                   0.203
REMARK UNBOUND:                -0.785
REMARK SMILES C[C@]12C[C@@H](O)[C@@H]3C[C@@]1(O[C@H]1O[C@@H](CO)[C@H](O)[C@H](O)[C@@H]1O)[C@]3(COC(=O)c1ccccc1)C(=O)O2
REMARK SMILES IDX 1 1 2 2 3 3 4 4 6 5 7 6 8 7 21 8 32 9 33 10 34 11 9 12 10 13
REMARK SMILES IDX 19 14 11 15 17 16 12 17 15 18 20 19 18 21 13 23 14 24 16 26
REMARK SMILES IDX 5 28 22 30 23 31 24 32 25 33 26 34 27 35 31 36 28 37 30 38
REMARK SMILES IDX 29 39
REMARK H PARENT 20 20 18 22 14 25 16 27 5 29
REMARK Flexibility Score: inf
ROOT
ATOM      1  C   UNL     1      62.267  32.825  24.691  1.00  0.00     0.060 C 
ATOM      2  C   UNL     1      61.519  31.776  25.520  1.00  0.00     0.142 C 
ATOM      3  C   UNL     1      62.487  31.142  26.586  1.00  0.00     0.083 C 
ATOM      4  C   UNL     1      61.898  29.806  27.189  1.00  0.00     0.123 C 
ATOM      5  C   UNL     1      60.877  29.162  26.199  1.00  0.00     0.045 C 
ATOM      6  C   UNL     1      61.494  29.281  24.802  1.00  0.00     0.049 C 
ATOM      7  C   UNL     1      60.771  30.626  24.689  1.00  0.00     0.131 C 
ATOM      8  C   UNL     1      59.751  30.146  25.739  1.00  0.00     0.140 C 
ATOM      9  C   UNL     1      59.514  31.395  26.535  1.00  0.00     0.319 C 
ATOM     10  O   UNL     1      58.625  31.538  27.416  1.00  0.00    -0.251 OA
ATOM     11  O   UNL     1      60.472  32.358  26.275  1.00  0.00    -0.456 OA
ENDROOT
BRANCH   7  12
ATOM     12  O   UNL     1      60.297  30.862  23.358  1.00  0.00    -0.338 OA
BRANCH  12  13
ATOM     13  C   UNL     1      60.359  29.757  22.463  1.00  0.00     0.282 C 
ATOM     14  C   UNL     1      61.731  29.680  21.738  1.00  0.00     0.202 C 
ATOM     15  O   UNL     1      59.310  29.848  21.506  1.00  0.00    -0.341 OA
ATOM     16  C   UNL     1      61.829  30.626  20.511  1.00  0.00     0.179 C 
ATOM     17  C   UNL     1      59.346  31.032  20.705  1.00  0.00     0.178 C 
ATOM     18  C   UNL     1      60.739  31.707  20.575  1.00  0.00     0.177 C 
BRANCH  14  19
ATOM     19  O   UNL     1      62.036  28.348  21.398  1.00  0.00    -0.385 OA
ATOM     20  H   UNL     1      61.921  27.800  22.222  1.00  0.00     0.211 HD
ENDBRANCH  14  19
BRANCH  16  21
ATOM     21  O   UNL     1      61.715  29.907  19.304  1.00  0.00    -0.387 OA
ATOM     22  H   UNL     1      62.127  30.483  18.598  1.00  0.00     0.211 HD
ENDBRANCH  16  21
BRANCH  17  23
ATOM     23  C   UNL     1      58.286  32.030  21.183  1.00  0.00     0.191 C 
BRANCH  23  24
ATOM     24  O   UNL     1      58.889  33.095  21.869  1.00  0.00    -0.394 OA
ATOM     25  H   UNL     1      58.968  33.845  21.221  1.00  0.00     0.210 HD
ENDBRANCH  23  24
ENDBRANCH  17  23
BRANCH  18  26
ATOM     26  O   UNL     1      60.767  32.514  19.427  1.00  0.00    -0.387 OA
ATOM     27  H   UNL     1      60.444  33.413  19.704  1.00  0.00     0.211 HD
ENDBRANCH  18  26
ENDBRANCH  12  13
ENDBRANCH   7  12
BRANCH   4  28
ATOM     28  O   UNL     1      61.323  29.959  28.465  1.00  0.00    -0.393 OA
ATOM     29  H   UNL     1      60.470  29.456  28.508  1.00  0.00     0.210 HD
ENDBRANCH   4  28
BRANCH   8  30
ATOM     30  C   UNL     1      58.500  29.384  25.201  1.00  0.00     0.255 C 
BRANCH  30  31
ATOM     31  O   UNL     1      57.618  28.956  26.240  1.00  0.00    -0.461 OA
BRANCH  31  32
ATOM     32  C   UNL     1      57.459  27.612  26.611  1.00  0.00     0.338 C 
ATOM     33  O   UNL     1      58.364  26.771  26.349  1.00  0.00    -0.246 OA
BRANCH  32  34
ATOM     34  C   UNL     1      56.222  27.175  27.297  1.00  0.00     0.060 A 
ATOM     35  C   UNL     1      55.704  27.910  28.379  1.00  0.00     0.015 A 
ATOM     36  C   UNL     1      55.567  25.996  26.896  1.00  0.00     0.015 A 
ATOM     37  C   UNL     1      54.547  27.483  29.036  1.00  0.00     0.001 A 
ATOM     38  C   UNL     1      54.409  25.572  27.553  1.00  0.00     0.001 A 
ATOM     39  C   UNL     1      53.899  26.312  28.625  1.00  0.00     0.000 A 
ENDBRANCH  32  34
ENDBRANCH  31  32
ENDBRANCH  30  31
ENDBRANCH   8  30
TORSDOF 12
ENDMDL
MODEL 8
REMARK VINA RESULT:    -6.406      1.884      6.901
REMARK INTER + INTRA:         -10.749
REMARK INTER:                  -9.807
REMARK INTRA:                  -0.941
REMARK UNBOUND:                -0.785
REMARK SMILES C[C@]12C[C@@H](O)[C@@H]3C[C@@]1(O[C@H]1O[C@@H](CO)[C@H](O)[C@H](O)[C@@H]1O)[C@]3(COC(=O)c1ccccc1)C(=O)O2
REMARK SMILES IDX 1 1 2 2 3 3 4 4 6 5 7 6 8 7 21 8 32 9 33 10 34 11 9 12 10 13
REMARK SMILES IDX 19 14 11 15 17 16 12 17 15 18 20 19 18 21 13 23 14 24 16 26
REMARK SMILES IDX 5 28 22 30 23 31 24 32 25 33 26 34 27 35 31 36 28 37 30 38
REMARK SMILES IDX 29 39
REMARK H PARENT 20 20 18 22 14 25 16 27 5 29
REMARK Flexibility Score: inf
ROOT
ATOM      1  C   UNL     1      61.894  29.519  29.008  1.00  0.00     0.060 C 
ATOM      2  C   UNL     1      61.586  30.217  27.680  1.00  0.00     0.142 C 
ATOM      3  C   UNL     1      62.293  31.623  27.634  1.00  0.00     0.083 C 
ATOM      4  C   UNL     1      61.703  32.536  26.488  1.00  0.00     0.123 C 
ATOM      5  C   UNL     1      60.252  32.091  26.125  1.00  0.00     0.045 C 
ATOM      6  C   UNL     1      59.543  31.803  27.452  1.00  0.00     0.049 C 
ATOM      7  C   UNL     1      60.033  30.360  27.305  1.00  0.00     0.131 C 
ATOM      8  C   UNL     1      60.135  30.568  25.782  1.00  0.00     0.140 C 
ATOM      9  C   UNL     1      61.383  29.807  25.447  1.00  0.00     0.319 C 
ATOM     10  O   UNL     1      61.790  29.554  24.282  1.00  0.00    -0.251 OA
ATOM     11  O   UNL     1      62.117  29.503  26.579  1.00  0.00    -0.456 OA
ENDROOT
BRANCH   7  12
ATOM     12  O   UNL     1      59.065  29.420  27.786  1.00  0.00    -0.338 OA
BRANCH  12  13
ATOM     13  C   UNL     1      59.539  28.101  28.037  1.00  0.00     0.282 C 
ATOM     14  C   UNL     1      59.605  27.256  26.735  1.00  0.00     0.202 C 
ATOM     15  O   UNL     1      58.702  27.458  28.990  1.00  0.00    -0.341 OA
ATOM     16  C   UNL     1      58.237  26.643  26.333  1.00  0.00     0.179 C 
ATOM     17  C   UNL     1      57.336  27.336  28.586  1.00  0.00     0.178 C 
ATOM     18  C   UNL     1      57.089  27.368  27.052  1.00  0.00     0.177 C 
BRANCH  14  19
ATOM     19  O   UNL     1      60.610  26.274  26.833  1.00  0.00    -0.385 OA
ATOM     20  H   UNL     1      60.365  25.677  27.592  1.00  0.00     0.211 HD
ENDBRANCH  14  19
BRANCH  16  21
ATOM     21  O   UNL     1      58.189  25.266  26.630  1.00  0.00    -0.387 OA
ATOM     22  H   UNL     1      59.073  24.891  26.350  1.00  0.00     0.211 HD
ENDBRANCH  16  21
BRANCH  17  23
ATOM     23  C   UNL     1      56.473  28.374  29.310  1.00  0.00     0.191 C 
BRANCH  23  24
ATOM     24  O   UNL     1      56.051  29.372  28.417  1.00  0.00    -0.394 OA
ATOM     25  H   UNL     1      55.064  29.286  28.338  1.00  0.00     0.210 HD
ENDBRANCH  23  24
ENDBRANCH  17  23
BRANCH  18  26
ATOM     26  O   UNL     1      55.856  26.765  26.760  1.00  0.00    -0.387 OA
ATOM     27  H   UNL     1      55.181  27.199  27.348  1.00  0.00     0.211 HD
ENDBRANCH  18  26
ENDBRANCH  12  13
ENDBRANCH   7  12
BRANCH   4  28
ATOM     28  O   UNL     1      62.507  32.597  25.334  1.00  0.00    -0.393 OA
ATOM     29  H   UNL     1      63.455  32.723  25.595  1.00  0.00     0.210 HD
ENDBRANCH   4  28
BRANCH   8  30
ATOM     30  C   UNL     1      58.854  30.260  24.947  1.00  0.00     0.255 C 
BRANCH  30  31
ATOM     31  O   UNL     1      59.113  30.156  23.545  1.00  0.00    -0.461 OA
BRANCH  31  32
ATOM     32  C   UNL     1      59.007  31.240  22.660  1.00  0.00     0.338 C 
ATOM     33  O   UNL     1      58.148  32.142  22.863  1.00  0.00    -0.246 OA
BRANCH  32  34
ATOM     34  C   UNL     1      59.894  31.317  21.477  1.00  0.00     0.060 A 
ATOM     35  C   UNL     1      59.948  32.486  20.696  1.00  0.00     0.015 A 
ATOM     36  C   UNL     1      60.670  30.205  21.098  1.00  0.00     0.015 A 
ATOM     37  C   UNL     1      60.772  32.547  19.569  1.00  0.00     0.001 A 
ATOM     38  C   UNL     1      61.494  30.270  19.971  1.00  0.00     0.001 A 
ATOM     39  C   UNL     1      61.544  31.438  19.204  1.00  0.00     0.000 A 
ENDBRANCH  32  34
ENDBRANCH  31  32
ENDBRANCH  30  31
ENDBRANCH   8  30
TORSDOF 12
ENDMDL
MODEL 9
REMARK VINA RESULT:    -6.398      2.314      7.066
REMARK INTER + INTRA:         -10.736
REMARK INTER:                  -9.983
REMARK INTRA:                  -0.753
REMARK UNBOUND:                -0.785
REMARK SMILES C[C@]12C[C@@H](O)[C@@H]3C[C@@]1(O[C@H]1O[C@@H](CO)[C@H](O)[C@H](O)[C@@H]1O)[C@]3(COC(=O)c1ccccc1)C(=O)O2
REMARK SMILES IDX 1 1 2 2 3 3 4 4 6 5 7 6 8 7 21 8 32 9 33 10 34 11 9 12 10 13
REMARK SMILES IDX 19 14 11 15 17 16 12 17 15 18 20 19 18 21 13 23 14 24 16 26
REMARK SMILES IDX 5 28 22 30 23 31 24 32 25 33 26 34 27 35 31 36 28 37 30 38
REMARK SMILES IDX 29 39
REMARK H PARENT 20 20 18 22 14 25 16 27 5 29
REMARK Flexibility Score: inf
ROOT
ATOM      1  C   UNL     1      59.877  27.508  29.194  1.00  0.00     0.060 C 
ATOM      2  C   UNL     1      60.851  28.289  28.306  1.00  0.00     0.142 C 
ATOM      3  C   UNL     1      62.259  28.382  29.003  1.00  0.00     0.083 C 
ATOM      4  C   UNL     1      63.170  29.487  28.336  1.00  0.00     0.123 C 
ATOM      5  C   UNL     1      62.291  30.562  27.621  1.00  0.00     0.045 C 
ATOM      6  C   UNL     1      61.120  30.859  28.562  1.00  0.00     0.049 C 
ATOM      7  C   UNL     1      60.362  29.743  27.836  1.00  0.00     0.131 C 
ATOM      8  C   UNL     1      61.267  29.953  26.606  1.00  0.00     0.140 C 
ATOM      9  C   UNL     1      61.473  28.547  26.129  1.00  0.00     0.319 C 
ATOM     10  O   UNL     1      62.022  28.221  25.043  1.00  0.00    -0.251 OA
ATOM     11  O   UNL     1      61.091  27.620  27.082  1.00  0.00    -0.456 OA
ENDROOT
BRANCH   7  12
ATOM     12  O   UNL     1      58.970  30.049  27.700  1.00  0.00    -0.338 OA
BRANCH  12  13
ATOM     13  C   UNL     1      58.113  29.544  28.719  1.00  0.00     0.282 C 
ATOM     14  C   UNL     1      56.765  29.036  28.137  1.00  0.00     0.202 C 
ATOM     15  O   UNL     1      57.871  30.553  29.692  1.00  0.00    -0.341 OA
ATOM     16  C   UNL     1      55.737  30.173  27.892  1.00  0.00     0.179 C 
ATOM     17  C   UNL     1      57.249  31.732  29.176  1.00  0.00     0.178 C 
ATOM     18  C   UNL     1      56.439  31.538  27.864  1.00  0.00     0.177 C 
BRANCH  14  19
ATOM     19  O   UNL     1      56.232  28.013  28.945  1.00  0.00    -0.385 OA
ATOM     20  H   UNL     1      56.995  27.448  29.246  1.00  0.00     0.211 HD
ENDBRANCH  14  19
BRANCH  16  21
ATOM     21  O   UNL     1      54.734  30.174  28.883  1.00  0.00    -0.387 OA
ATOM     22  H   UNL     1      54.202  29.340  28.741  1.00  0.00     0.211 HD
ENDBRANCH  16  21
BRANCH  17  23
ATOM     23  C   UNL     1      58.280  32.857  29.033  1.00  0.00     0.191 C 
BRANCH  23  24
ATOM     24  O   UNL     1      58.552  33.104  27.678  1.00  0.00    -0.394 OA
ATOM     25  H   UNL     1      59.232  33.829  27.651  1.00  0.00     0.210 HD
ENDBRANCH  23  24
ENDBRANCH  17  23
BRANCH  18  26
ATOM     26  O   UNL     1      55.506  32.579  27.728  1.00  0.00    -0.387 OA
ATOM     27  H   UNL     1      55.972  33.319  27.256  1.00  0.00     0.211 HD
ENDBRANCH  18  26
ENDBRANCH  12  13
ENDBRANCH   7  12
BRANCH   4  28
ATOM     28  O   UNL     1      64.141  28.974  27.455  1.00  0.00    -0.393 OA
ATOM     29  H   UNL     1      64.630  29.722  27.027  1.00  0.00     0.210 HD
ENDBRANCH   4  28
BRANCH   8  30
ATOM     30  C   UNL     1      60.790  31.009  25.562  1.00  0.00     0.255 C 
BRANCH  30  31
ATOM     31  O   UNL     1      61.730  31.211  24.504  1.00  0.00    -0.461 OA
BRANCH  31  32
ATOM     32  C   UNL     1      61.366  31.262  23.150  1.00  0.00     0.338 C 
ATOM     33  O   UNL     1      60.380  31.962  22.784  1.00  0.00    -0.246 OA
BRANCH  32  34
ATOM     34  C   UNL     1      62.128  30.482  22.150  1.00  0.00     0.060 A 
ATOM     35  C   UNL     1      63.371  30.942  21.676  1.00  0.00     0.015 A 
ATOM     36  C   UNL     1      61.601  29.284  21.631  1.00  0.00     0.015 A 
ATOM     37  C   UNL     1      64.079  30.212  20.718  1.00  0.00     0.001 A 
ATOM     38  C   UNL     1      62.312  28.555  20.673  1.00  0.00     0.001 A 
ATOM     39  C   UNL     1      63.548  29.018  20.213  1.00  0.00     0.000 A 
ENDBRANCH  32  34
ENDBRANCH  31  32
ENDBRANCH  30  31
ENDBRANCH   8  30
TORSDOF 12
ENDMDL
