MODEL 1
REMARK VINA RESULT:    -5.108      0.000      0.000
REMARK INTER + INTRA:          -5.911
REMARK INTER:                  -5.705
REMARK INTRA:                  -0.205
REMARK UNBOUND:                -0.205
REMARK SMILES CC(C)c1ccc(C(=O)[O-])cc1
REMARK SMILES IDX 7 1 6 2 11 3 5 4 12 5 4 6 8 7 9 8 10 9 2 10 1 11 3 12
REMARK H PARENT
REMARK Flexibility Score: inf
ROOT
ATOM      1  C   UNL     1      35.686 105.928 264.152  1.00  0.00    -0.003 A 
ATOM      2  C   UNL     1      36.641 106.842 263.679  1.00  0.00     0.010 A 
ATOM      3  C   UNL     1      35.189 104.947 263.277  1.00  0.00     0.010 A 
ATOM      4  C   UNL     1      37.092 106.777 262.357  1.00  0.00     0.004 A 
ATOM      5  C   UNL     1      35.640 104.882 261.955  1.00  0.00     0.004 A 
ATOM      6  C   UNL     1      36.594 105.795 261.479  1.00  0.00    -0.045 A 
ENDROOT
BRANCH   1   7
ATOM      7  C   UNL     1      35.213 106.000 265.553  1.00  0.00     0.071 C 
ATOM      8  O   UNL     1      34.875 104.954 266.169  1.00  0.00    -0.545 OA
ATOM      9  O   UNL     1      35.134 107.224 266.208  1.00  0.00    -0.545 OA
ENDBRANCH   1   7
BRANCH   6  10
ATOM     10  C   UNL     1      37.074 105.714 260.043  1.00  0.00     0.013 C 
ATOM     11  C   UNL     1      36.567 106.906 259.222  1.00  0.00     0.012 C 
ATOM     12  C   UNL     1      38.602 105.606 259.974  1.00  0.00     0.012 C 
ENDBRANCH   6  10
TORSDOF 2
ENDMDL
MODEL 2
REMARK VINA RESULT:    -4.835      2.986      5.234
REMARK INTER + INTRA:          -5.606
REMARK INTER:                  -5.400
REMARK INTRA:                  -0.206
REMARK UNBOUND:                -0.205
REMARK SMILES CC(C)c1ccc(C(=O)[O-])cc1
REMARK SMILES IDX 7 1 6 2 11 3 5 4 12 5 4 6 8 7 9 8 10 9 2 10 1 11 3 12
REMARK H PARENT
REMARK Flexibility Score: inf
ROOT
ATOM      1  C   UNL     1      36.726 105.940 261.628  1.00  0.00    -0.003 A 
ATOM      2  C   UNL     1      35.757 104.982 261.971  1.00  0.00     0.010 A 
ATOM      3  C   UNL     1      37.096 106.905 262.580  1.00  0.00     0.010 A 
ATOM      4  C   UNL     1      35.170 104.990 263.240  1.00  0.00     0.004 A 
ATOM      5  C   UNL     1      36.510 106.912 263.849  1.00  0.00     0.004 A 
ATOM      6  C   UNL     1      35.540 105.956 264.194  1.00  0.00    -0.045 A 
ENDROOT
BRANCH   1   7
ATOM      7  C   UNL     1      37.345 105.928 260.284  1.00  0.00     0.071 C 
ATOM      8  O   UNL     1      38.477 105.404 260.105  1.00  0.00    -0.545 OA
ATOM      9  O   UNL     1      36.686 106.495 259.199  1.00  0.00    -0.545 OA
ENDBRANCH   1   7
BRANCH   6  10
ATOM     10  C   UNL     1      34.912 105.976 265.574  1.00  0.00     0.013 C 
ATOM     11  C   UNL     1      35.362 104.767 266.403  1.00  0.00     0.012 C 
ATOM     12  C   UNL     1      35.216 107.289 266.303  1.00  0.00     0.012 C 
ENDBRANCH   6  10
TORSDOF 2
ENDMDL
MODEL 3
REMARK VINA RESULT:    -4.832      2.986      5.077
REMARK INTER + INTRA:          -5.602
REMARK INTER:                  -5.397
REMARK INTRA:                  -0.205
REMARK UNBOUND:                -0.205
REMARK SMILES CC(C)c1ccc(C(=O)[O-])cc1
REMARK SMILES IDX 7 1 6 2 11 3 5 4 12 5 4 6 8 7 9 8 10 9 2 10 1 11 3 12
REMARK H PARENT
REMARK Flexibility Score: inf
ROOT
ATOM      1  C   UNL     1      36.732 105.930 261.638  1.00  0.00    -0.003 A 
ATOM      2  C   UNL     1      37.110 106.901 262.580  1.00  0.00     0.010 A 
ATOM      3  C   UNL     1      35.763 104.977 261.993  1.00  0.00     0.010 A 
ATOM      4  C   UNL     1      36.530 106.919 263.852  1.00  0.00     0.004 A 
ATOM      5  C   UNL     1      35.182 104.995 263.265  1.00  0.00     0.004 A 
ATOM      6  C   UNL     1      35.558 105.965 264.209  1.00  0.00    -0.045 A 
ENDROOT
BRANCH   1   7
ATOM      7  C   UNL     1      37.349 105.915 260.293  1.00  0.00     0.071 C 
ATOM      8  O   UNL     1      36.728 106.377 259.299  1.00  0.00    -0.545 OA
ATOM      9  O   UNL     1      38.623 105.390 260.107  1.00  0.00    -0.545 OA
ENDBRANCH   1   7
BRANCH   6  10
ATOM     10  C   UNL     1      34.920 105.973 265.585  1.00  0.00     0.013 C 
ATOM     11  C   UNL     1      35.376 104.765 266.412  1.00  0.00     0.012 C 
ATOM     12  C   UNL     1      35.209 107.286 266.321  1.00  0.00     0.012 C 
ENDBRANCH   6  10
TORSDOF 2
ENDMDL
MODEL 4
REMARK VINA RESULT:    -4.684      0.100      1.401
REMARK INTER + INTRA:          -5.436
REMARK INTER:                  -5.229
REMARK INTRA:                  -0.208
REMARK UNBOUND:                -0.205
REMARK SMILES CC(C)c1ccc(C(=O)[O-])cc1
REMARK SMILES IDX 7 1 6 2 11 3 5 4 12 5 4 6 8 7 9 8 10 9 2 10 1 11 3 12
REMARK H PARENT
REMARK Flexibility Score: inf
ROOT
ATOM      1  C   UNL     1      35.653 105.969 264.215  1.00  0.00    -0.003 A 
ATOM      2  C   UNL     1      35.165 104.977 263.348  1.00  0.00     0.010 A 
ATOM      3  C   UNL     1      36.611 106.879 263.739  1.00  0.00     0.010 A 
ATOM      4  C   UNL     1      35.627 104.897 262.031  1.00  0.00     0.004 A 
ATOM      5  C   UNL     1      37.072 106.800 262.422  1.00  0.00     0.004 A 
ATOM      6  C   UNL     1      36.587 105.809 261.553  1.00  0.00    -0.045 A 
ENDROOT
BRANCH   1   7
ATOM      7  C   UNL     1      35.161 106.049 265.609  1.00  0.00     0.071 C 
ATOM      8  O   UNL     1      34.875 105.003 266.248  1.00  0.00    -0.545 OA
ATOM      9  O   UNL     1      35.006 107.283 266.231  1.00  0.00    -0.545 OA
ENDBRANCH   1   7
BRANCH   6  10
ATOM     10  C   UNL     1      37.096 105.734 260.126  1.00  0.00     0.013 C 
ATOM     11  C   UNL     1      36.515 106.867 259.272  1.00  0.00     0.012 C 
ATOM     12  C   UNL     1      38.628 105.741 260.083  1.00  0.00     0.012 C 
ENDBRANCH   6  10
TORSDOF 2
ENDMDL
MODEL 5
REMARK VINA RESULT:    -4.627      2.104      3.554
REMARK INTER + INTRA:          -5.373
REMARK INTER:                  -5.157
REMARK INTRA:                  -0.216
REMARK UNBOUND:                -0.205
REMARK SMILES CC(C)c1ccc(C(=O)[O-])cc1
REMARK SMILES IDX 7 1 6 2 11 3 5 4 12 5 4 6 8 7 9 8 10 9 2 10 1 11 3 12
REMARK H PARENT
REMARK Flexibility Score: inf
ROOT
ATOM      1  C   UNL     1      35.194 106.497 267.214  1.00  0.00    -0.003 A 
ATOM      2  C   UNL     1      35.194 105.202 266.671  1.00  0.00     0.010 A 
ATOM      3  C   UNL     1      35.294 107.599 266.347  1.00  0.00     0.010 A 
ATOM      4  C   UNL     1      35.290 105.011 265.289  1.00  0.00     0.004 A 
ATOM      5  C   UNL     1      35.390 107.408 264.965  1.00  0.00     0.004 A 
ATOM      6  C   UNL     1      35.390 106.114 264.420  1.00  0.00    -0.045 A 
ENDROOT
BRANCH   1   7
ATOM      7  C   UNL     1      35.091 106.694 268.677  1.00  0.00     0.071 C 
ATOM      8  O   UNL     1      34.876 105.716 269.441  1.00  0.00    -0.545 OA
ATOM      9  O   UNL     1      35.230 107.963 269.229  1.00  0.00    -0.545 OA
ENDBRANCH   1   7
BRANCH   6  10
ATOM     10  C   UNL     1      35.495 105.922 262.919  1.00  0.00     0.013 C 
ATOM     11  C   UNL     1      36.809 106.499 262.379  1.00  0.00     0.012 C 
ATOM     12  C   UNL     1      35.344 104.445 262.538  1.00  0.00     0.012 C 
ENDBRANCH   6  10
TORSDOF 2
ENDMDL
MODEL 6
REMARK VINA RESULT:    -4.605      2.747      5.770
REMARK INTER + INTRA:          -5.349
REMARK INTER:                  -5.132
REMARK INTRA:                  -0.217
REMARK UNBOUND:                -0.205
REMARK SMILES CC(C)c1ccc(C(=O)[O-])cc1
REMARK SMILES IDX 7 1 6 2 11 3 5 4 12 5 4 6 8 7 9 8 10 9 2 10 1 11 3 12
REMARK H PARENT
REMARK Flexibility Score: inf
ROOT
ATOM      1  C   UNL     1      35.452 105.830 264.032  1.00  0.00    -0.003 A 
ATOM      2  C   UNL     1      35.350 104.971 265.139  1.00  0.00     0.010 A 
ATOM      3  C   UNL     1      35.364 107.217 264.236  1.00  0.00     0.010 A 
ATOM      4  C   UNL     1      35.165 105.490 266.424  1.00  0.00     0.004 A 
ATOM      5  C   UNL     1      35.179 107.736 265.522  1.00  0.00     0.004 A 
ATOM      6  C   UNL     1      35.076 106.879 266.630  1.00  0.00    -0.045 A 
ENDROOT
BRANCH   1   7
ATOM      7  C   UNL     1      35.649 105.277 262.674  1.00  0.00     0.071 C 
ATOM      8  O   UNL     1      36.414 105.851 261.854  1.00  0.00    -0.545 OA
ATOM      9  O   UNL     1      34.991 104.116 262.283  1.00  0.00    -0.545 OA
ENDBRANCH   1   7
BRANCH   6  10
ATOM     10  C   UNL     1      34.875 107.455 268.019  1.00  0.00     0.013 C 
ATOM     11  C   UNL     1      35.292 106.449 269.099  1.00  0.00     0.012 C 
ATOM     12  C   UNL     1      35.624 108.782 268.182  1.00  0.00     0.012 C 
ENDBRANCH   6  10
TORSDOF 2
ENDMDL
