MODEL 1
REMARK VINA RESULT:    -5.067      0.000      0.000
REMARK INTER + INTRA:          -7.022
REMARK INTER:                  -6.400
REMARK INTRA:                  -0.621
REMARK UNBOUND:                -0.621
REMARK SMILES O=C(C=Cc1ccc(O)cc1)c1ccc(O)cc1O
REMARK SMILES IDX 4 1 3 2 5 3 6 4 7 5 8 6 11 7 10 8 9 9 2 11 1 12 12 13 18 14
REMARK SMILES IDX 13 15 17 16 14 17 15 18 19 19 16 21
REMARK H PARENT 9 10 19 20 16 22
REMARK Flexibility Score: inf
ROOT
ATOM      1  C   UNL     1      28.501  33.921  19.807  1.00  0.00     0.012 C 
ATOM      2  C   UNL     1      29.257  34.920  19.330  1.00  0.00     0.053 C 
ENDROOT
BRANCH   1   3
ATOM      3  C   UNL     1      27.257  34.129  20.587  1.00  0.00    -0.025 A 
ATOM      4  C   UNL     1      26.939  33.212  21.604  1.00  0.00     0.012 A 
ATOM      5  C   UNL     1      25.771  33.364  22.358  1.00  0.00     0.047 A 
ATOM      6  C   UNL     1      24.899  34.429  22.100  1.00  0.00     0.115 A 
ATOM      7  C   UNL     1      26.365  35.189  20.324  1.00  0.00     0.012 A 
ATOM      8  C   UNL     1      25.198  35.337  21.080  1.00  0.00     0.047 A 
BRANCH   6   9
ATOM      9  O   UNL     1      23.734  34.590  22.845  1.00  0.00    -0.508 OA
ATOM     10  H   UNL     1      23.708  34.387  23.837  1.00  0.00     0.293 HD
ENDBRANCH   6   9
ENDBRANCH   1   3
BRANCH   2  11
ATOM     11  C   UNL     1      30.499  34.674  18.567  1.00  0.00     0.189 C 
ATOM     12  O   UNL     1      30.716  33.541  18.057  1.00  0.00    -0.289 OA
BRANCH  11  13
ATOM     13  C   UNL     1      31.484  35.762  18.370  1.00  0.00     0.064 A 
ATOM     14  C   UNL     1      32.076  36.016  17.109  1.00  0.00     0.130 A 
ATOM     15  C   UNL     1      31.810  36.594  19.457  1.00  0.00     0.020 A 
ATOM     16  C   UNL     1      32.946  37.104  16.956  1.00  0.00     0.093 A 
ATOM     17  C   UNL     1      32.690  37.665  19.294  1.00  0.00     0.047 A 
ATOM     18  C   UNL     1      33.255  37.927  18.045  1.00  0.00     0.119 A 
BRANCH  14  19
ATOM     19  O   UNL     1      31.849  35.198  16.000  1.00  0.00    -0.507 OA
ATOM     20  H   UNL     1      32.047  35.482  15.051  1.00  0.00     0.293 HD
ENDBRANCH  14  19
BRANCH  18  21
ATOM     21  O   UNL     1      34.125  39.005  17.896  1.00  0.00    -0.508 OA
ATOM     22  H   UNL     1      34.962  38.935  17.330  1.00  0.00     0.293 HD
ENDBRANCH  18  21
ENDBRANCH  11  13
ENDBRANCH   2  11
TORSDOF 6
ENDMDL
MODEL 2
REMARK VINA RESULT:    -4.967      1.734      2.927
REMARK INTER + INTRA:          -6.894
REMARK INTER:                  -6.259
REMARK INTRA:                  -0.636
REMARK UNBOUND:                -0.621
REMARK SMILES O=C(C=Cc1ccc(O)cc1)c1ccc(O)cc1O
REMARK SMILES IDX 4 1 3 2 5 3 6 4 7 5 8 6 11 7 10 8 9 9 2 11 1 12 12 13 18 14
REMARK SMILES IDX 13 15 17 16 14 17 15 18 19 19 16 21
REMARK H PARENT 9 10 19 20 16 22
REMARK Flexibility Score: inf
ROOT
ATOM      1  C   UNL     1      28.189  35.944  19.849  1.00  0.00     0.012 C 
ATOM      2  C   UNL     1      29.452  35.653  20.193  1.00  0.00     0.053 C 
ENDROOT
BRANCH   1   3
ATOM      3  C   UNL     1      27.000  35.475  20.602  1.00  0.00    -0.025 A 
ATOM      4  C   UNL     1      26.474  36.300  21.611  1.00  0.00     0.012 A 
ATOM      5  C   UNL     1      25.361  35.894  22.353  1.00  0.00     0.047 A 
ATOM      6  C   UNL     1      24.764  34.652  22.104  1.00  0.00     0.115 A 
ATOM      7  C   UNL     1      26.402  34.220  20.370  1.00  0.00     0.012 A 
ATOM      8  C   UNL     1      25.289  33.818  21.114  1.00  0.00     0.047 A 
BRANCH   6   9
ATOM      9  O   UNL     1      23.654  34.237  22.837  1.00  0.00    -0.508 OA
ATOM     10  H   UNL     1      23.639  33.345  23.316  1.00  0.00     0.293 HD
ENDBRANCH   6   9
ENDBRANCH   1   3
BRANCH   2  11
ATOM     11  C   UNL     1      30.612  36.128  19.409  1.00  0.00     0.189 C 
ATOM     12  O   UNL     1      31.198  37.198  19.729  1.00  0.00    -0.289 OA
BRANCH  11  13
ATOM     13  C   UNL     1      31.113  35.337  18.263  1.00  0.00     0.064 A 
ATOM     14  C   UNL     1      31.951  35.905  17.271  1.00  0.00     0.130 A 
ATOM     15  C   UNL     1      30.781  33.973  18.176  1.00  0.00     0.020 A 
ATOM     16  C   UNL     1      32.460  35.096  16.246  1.00  0.00     0.093 A 
ATOM     17  C   UNL     1      31.284  33.183  17.140  1.00  0.00     0.047 A 
ATOM     18  C   UNL     1      32.127  33.739  16.177  1.00  0.00     0.119 A 
BRANCH  14  19
ATOM     19  O   UNL     1      32.274  37.263  17.256  1.00  0.00    -0.507 OA
ATOM     20  H   UNL     1      31.707  37.963  16.799  1.00  0.00     0.293 HD
ENDBRANCH  14  19
BRANCH  18  21
ATOM     21  O   UNL     1      32.627  32.935  15.154  1.00  0.00    -0.508 OA
ATOM     22  H   UNL     1      33.334  33.275  14.513  1.00  0.00     0.293 HD
ENDBRANCH  18  21
ENDBRANCH  11  13
ENDBRANCH   2  11
TORSDOF 6
ENDMDL
MODEL 3
REMARK VINA RESULT:    -4.964      1.325      7.686
REMARK INTER + INTRA:          -6.891
REMARK INTER:                  -6.280
REMARK INTRA:                  -0.611
REMARK UNBOUND:                -0.621
REMARK SMILES O=C(C=Cc1ccc(O)cc1)c1ccc(O)cc1O
REMARK SMILES IDX 4 1 3 2 5 3 6 4 7 5 8 6 11 7 10 8 9 9 2 11 1 12 12 13 18 14
REMARK SMILES IDX 13 15 17 16 14 17 15 18 19 19 16 21
REMARK H PARENT 9 10 19 20 16 22
REMARK Flexibility Score: inf
ROOT
ATOM      1  C   UNL     1      30.615  35.071  19.001  1.00  0.00     0.012 C 
ATOM      2  C   UNL     1      29.401  35.157  19.564  1.00  0.00     0.053 C 
ENDROOT
BRANCH   1   3
ATOM      3  C   UNL     1      31.513  36.234  18.797  1.00  0.00    -0.025 A 
ATOM      4  C   UNL     1      32.170  36.369  17.562  1.00  0.00     0.012 A 
ATOM      5  C   UNL     1      33.032  37.445  17.329  1.00  0.00     0.047 A 
ATOM      6  C   UNL     1      33.259  38.395  18.333  1.00  0.00     0.115 A 
ATOM      7  C   UNL     1      31.760  37.188  19.806  1.00  0.00     0.012 A 
ATOM      8  C   UNL     1      32.624  38.261  19.569  1.00  0.00     0.047 A 
BRANCH   6   9
ATOM      9  O   UNL     1      34.116  39.471  18.112  1.00  0.00    -0.508 OA
ATOM     10  H   UNL     1      34.166  40.250  18.758  1.00  0.00     0.293 HD
ENDBRANCH   6   9
ENDBRANCH   1   3
BRANCH   2  11
ATOM     11  C   UNL     1      28.528  33.976  19.738  1.00  0.00     0.189 C 
ATOM     12  O   UNL     1      28.866  32.861  19.256  1.00  0.00    -0.289 OA
BRANCH  11  13
ATOM     13  C   UNL     1      27.267  34.086  20.505  1.00  0.00     0.064 A 
ATOM     14  C   UNL     1      26.889  33.117  21.466  1.00  0.00     0.130 A 
ATOM     15  C   UNL     1      26.440  35.207  20.304  1.00  0.00     0.020 A 
ATOM     16  C   UNL     1      25.722  33.304  22.220  1.00  0.00     0.093 A 
ATOM     17  C   UNL     1      25.273  35.373  21.052  1.00  0.00     0.047 A 
ATOM     18  C   UNL     1      24.914  34.428  22.013  1.00  0.00     0.119 A 
BRANCH  14  19
ATOM     19  O   UNL     1      27.625  31.949  21.678  1.00  0.00    -0.507 OA
ATOM     20  H   UNL     1      28.550  31.801  21.299  1.00  0.00     0.293 HD
ENDBRANCH  14  19
BRANCH  18  21
ATOM     21  O   UNL     1      23.750  34.611  22.758  1.00  0.00    -0.508 OA
ATOM     22  H   UNL     1      22.838  34.394  22.375  1.00  0.00     0.293 HD
ENDBRANCH  18  21
ENDBRANCH  11  13
ENDBRANCH   2  11
TORSDOF 6
ENDMDL
MODEL 4
REMARK VINA RESULT:    -4.931      6.133      9.972
REMARK INTER + INTRA:          -6.850
REMARK INTER:                  -6.249
REMARK INTRA:                  -0.601
REMARK UNBOUND:                -0.621
REMARK SMILES O=C(C=Cc1ccc(O)cc1)c1ccc(O)cc1O
REMARK SMILES IDX 4 1 3 2 5 3 6 4 7 5 8 6 11 7 10 8 9 9 2 11 1 12 12 13 18 14
REMARK SMILES IDX 13 15 17 16 14 17 15 18 19 19 16 21
REMARK H PARENT 9 10 19 20 16 22
REMARK Flexibility Score: inf
ROOT
ATOM      1  C   UNL     1      27.851  32.374  25.153  1.00  0.00     0.012 C 
ATOM      2  C   UNL     1      27.443  31.130  25.442  1.00  0.00     0.053 C 
ENDROOT
BRANCH   1   3
ATOM      3  C   UNL     1      27.105  33.301  24.266  1.00  0.00    -0.025 A 
ATOM      4  C   UNL     1      27.652  34.568  24.005  1.00  0.00     0.012 A 
ATOM      5  C   UNL     1      26.979  35.477  23.182  1.00  0.00     0.047 A 
ATOM      6  C   UNL     1      25.744  35.135  22.618  1.00  0.00     0.115 A 
ATOM      7  C   UNL     1      25.853  32.971  23.706  1.00  0.00     0.012 A 
ATOM      8  C   UNL     1      25.184  33.883  22.884  1.00  0.00     0.047 A 
BRANCH   6   9
ATOM      9  O   UNL     1      25.065  36.033  21.797  1.00  0.00    -0.508 OA
ATOM     10  H   UNL     1      25.561  36.692  21.209  1.00  0.00     0.293 HD
ENDBRANCH   6   9
ENDBRANCH   1   3
BRANCH   2  11
ATOM     11  C   UNL     1      28.220  30.230  26.320  1.00  0.00     0.189 C 
ATOM     12  O   UNL     1      29.007  30.709  27.182  1.00  0.00    -0.289 OA
BRANCH  11  13
ATOM     13  C   UNL     1      28.060  28.762  26.216  1.00  0.00     0.064 A 
ATOM     14  C   UNL     1      29.094  27.868  26.588  1.00  0.00     0.130 A 
ATOM     15  C   UNL     1      26.831  28.238  25.773  1.00  0.00     0.020 A 
ATOM     16  C   UNL     1      28.866  26.486  26.542  1.00  0.00     0.093 A 
ATOM     17  C   UNL     1      26.624  26.859  25.717  1.00  0.00     0.047 A 
ATOM     18  C   UNL     1      27.636  25.980  26.106  1.00  0.00     0.119 A 
BRANCH  14  19
ATOM     19  O   UNL     1      30.359  28.311  26.979  1.00  0.00    -0.507 OA
ATOM     20  H   UNL     1      31.166  27.706  27.034  1.00  0.00     0.293 HD
ENDBRANCH  14  19
BRANCH  18  21
ATOM     21  O   UNL     1      27.412  24.605  26.053  1.00  0.00    -0.508 OA
ATOM     22  H   UNL     1      27.610  24.007  26.845  1.00  0.00     0.293 HD
ENDBRANCH  18  21
ENDBRANCH  11  13
ENDBRANCH   2  11
TORSDOF 6
ENDMDL
MODEL 5
REMARK VINA RESULT:    -4.911      3.815      7.166
REMARK INTER + INTRA:          -6.824
REMARK INTER:                  -6.150
REMARK INTRA:                  -0.674
REMARK UNBOUND:                -0.621
REMARK SMILES O=C(C=Cc1ccc(O)cc1)c1ccc(O)cc1O
REMARK SMILES IDX 4 1 3 2 5 3 6 4 7 5 8 6 11 7 10 8 9 9 2 11 1 12 12 13 18 14
REMARK SMILES IDX 13 15 17 16 14 17 15 18 19 19 16 21
REMARK H PARENT 9 10 19 20 16 22
REMARK Flexibility Score: inf
ROOT
ATOM      1  C   UNL     1      30.005  31.754  18.136  1.00  0.00     0.012 C 
ATOM      2  C   UNL     1      29.727  33.066  18.140  1.00  0.00     0.053 C 
ENDROOT
BRANCH   1   3
ATOM      3  C   UNL     1      30.015  30.917  16.911  1.00  0.00    -0.025 A 
ATOM      4  C   UNL     1      29.613  31.498  15.696  1.00  0.00     0.012 A 
ATOM      5  C   UNL     1      29.598  30.744  14.519  1.00  0.00     0.047 A 
ATOM      6  C   UNL     1      29.974  29.395  14.541  1.00  0.00     0.115 A 
ATOM      7  C   UNL     1      30.377  29.554  16.926  1.00  0.00     0.012 A 
ATOM      8  C   UNL     1      30.360  28.804  15.747  1.00  0.00     0.047 A 
BRANCH   6   9
ATOM      9  O   UNL     1      29.963  28.635  13.374  1.00  0.00    -0.508 OA
ATOM     10  H   UNL     1      30.252  27.664  13.372  1.00  0.00     0.293 HD
ENDBRANCH   6   9
ENDBRANCH   1   3
BRANCH   2  11
ATOM     11  C   UNL     1      29.714  33.865  19.384  1.00  0.00     0.189 C 
ATOM     12  O   UNL     1      30.785  34.073  20.015  1.00  0.00    -0.289 OA
BRANCH  11  13
ATOM     13  C   UNL     1      28.449  34.453  19.881  1.00  0.00     0.064 A 
ATOM     14  C   UNL     1      28.268  35.853  19.993  1.00  0.00     0.130 A 
ATOM     15  C   UNL     1      27.382  33.598  20.213  1.00  0.00     0.020 A 
ATOM     16  C   UNL     1      27.027  36.363  20.398  1.00  0.00     0.093 A 
ATOM     17  C   UNL     1      26.156  34.120  20.630  1.00  0.00     0.047 A 
ATOM     18  C   UNL     1      25.973  35.500  20.718  1.00  0.00     0.119 A 
BRANCH  14  19
ATOM     19  O   UNL     1      29.299  36.761  19.740  1.00  0.00    -0.507 OA
ATOM     20  H   UNL     1      29.148  37.753  19.622  1.00  0.00     0.293 HD
ENDBRANCH  14  19
BRANCH  18  21
ATOM     21  O   UNL     1      24.741  36.006  21.128  1.00  0.00    -0.508 OA
ATOM     22  H   UNL     1      24.541  36.999  21.101  1.00  0.00     0.293 HD
ENDBRANCH  18  21
ENDBRANCH  11  13
ENDBRANCH   2  11
TORSDOF 6
ENDMDL
MODEL 6
REMARK VINA RESULT:    -4.888      1.691      3.008
REMARK INTER + INTRA:          -6.795
REMARK INTER:                  -6.182
REMARK INTRA:                  -0.612
REMARK UNBOUND:                -0.621
REMARK SMILES O=C(C=Cc1ccc(O)cc1)c1ccc(O)cc1O
REMARK SMILES IDX 4 1 3 2 5 3 6 4 7 5 8 6 11 7 10 8 9 9 2 11 1 12 12 13 18 14
REMARK SMILES IDX 13 15 17 16 14 17 15 18 19 19 16 21
REMARK H PARENT 9 10 19 20 16 22
REMARK Flexibility Score: inf
ROOT
ATOM      1  C   UNL     1      29.498  36.383  19.742  1.00  0.00     0.012 C 
ATOM      2  C   UNL     1      30.623  35.809  19.293  1.00  0.00     0.053 C 
ENDROOT
BRANCH   1   3
ATOM      3  C   UNL     1      28.287  35.624  20.140  1.00  0.00    -0.025 A 
ATOM      4  C   UNL     1      27.043  36.277  20.110  1.00  0.00     0.012 A 
ATOM      5  C   UNL     1      25.877  35.603  20.485  1.00  0.00     0.047 A 
ATOM      6  C   UNL     1      25.940  34.269  20.908  1.00  0.00     0.115 A 
ATOM      7  C   UNL     1      28.342  34.286  20.582  1.00  0.00     0.012 A 
ATOM      8  C   UNL     1      27.174  33.616  20.957  1.00  0.00     0.047 A 
BRANCH   6   9
ATOM      9  O   UNL     1      24.785  33.588  21.285  1.00  0.00    -0.508 OA
ATOM     10  H   UNL     1      24.755  32.575  21.320  1.00  0.00     0.293 HD
ENDBRANCH   6   9
ENDBRANCH   1   3
BRANCH   2  11
ATOM     11  C   UNL     1      31.806  36.600  18.892  1.00  0.00     0.189 C 
ATOM     12  O   UNL     1      32.348  37.390  19.712  1.00  0.00    -0.289 OA
BRANCH  11  13
ATOM     13  C   UNL     1      32.382  36.449  17.537  1.00  0.00     0.064 A 
ATOM     14  C   UNL     1      33.148  37.474  16.930  1.00  0.00     0.130 A 
ATOM     15  C   UNL     1      32.198  35.236  16.847  1.00  0.00     0.020 A 
ATOM     16  C   UNL     1      33.734  37.254  15.677  1.00  0.00     0.093 A 
ATOM     17  C   UNL     1      32.775  35.037  15.591  1.00  0.00     0.047 A 
ATOM     18  C   UNL     1      33.548  36.041  15.006  1.00  0.00     0.119 A 
BRANCH  14  19
ATOM     19  O   UNL     1      33.324  38.725  17.526  1.00  0.00    -0.507 OA
ATOM     20  H   UNL     1      33.066  38.925  18.482  1.00  0.00     0.293 HD
ENDBRANCH  14  19
BRANCH  18  21
ATOM     21  O   UNL     1      34.125  35.824  13.756  1.00  0.00    -0.508 OA
ATOM     22  H   UNL     1      35.097  36.045  13.577  1.00  0.00     0.293 HD
ENDBRANCH  18  21
ENDBRANCH  11  13
ENDBRANCH   2  11
TORSDOF 6
ENDMDL
MODEL 7
REMARK VINA RESULT:    -4.866      3.346      7.520
REMARK INTER + INTRA:          -6.768
REMARK INTER:                  -6.147
REMARK INTRA:                  -0.620
REMARK UNBOUND:                -0.621
REMARK SMILES O=C(C=Cc1ccc(O)cc1)c1ccc(O)cc1O
REMARK SMILES IDX 4 1 3 2 5 3 6 4 7 5 8 6 11 7 10 8 9 9 2 11 1 12 12 13 18 14
REMARK SMILES IDX 13 15 17 16 14 17 15 18 19 19 16 21
REMARK H PARENT 9 10 19 20 16 22
REMARK Flexibility Score: inf
ROOT
ATOM      1  C   UNL     1      29.585  33.037  18.209  1.00  0.00     0.012 C 
ATOM      2  C   UNL     1      29.094  33.117  19.455  1.00  0.00     0.053 C 
ENDROOT
BRANCH   1   3
ATOM      3  C   UNL     1      30.051  31.774  17.587  1.00  0.00    -0.025 A 
ATOM      4  C   UNL     1      29.662  31.490  16.267  1.00  0.00     0.012 A 
ATOM      5  C   UNL     1      30.071  30.307  15.643  1.00  0.00     0.047 A 
ATOM      6  C   UNL     1      30.866  29.385  16.335  1.00  0.00     0.115 A 
ATOM      7  C   UNL     1      30.839  30.832  18.280  1.00  0.00     0.012 A 
ATOM      8  C   UNL     1      31.246  29.651  17.653  1.00  0.00     0.047 A 
BRANCH   6   9
ATOM      9  O   UNL     1      31.279  28.204  15.724  1.00  0.00    -0.508 OA
ATOM     10  H   UNL     1      32.124  27.726  16.014  1.00  0.00     0.293 HD
ENDBRANCH   6   9
ENDBRANCH   1   3
BRANCH   2  11
ATOM     11  C   UNL     1      28.650  34.397  20.046  1.00  0.00     0.189 C 
ATOM     12  O   UNL     1      29.357  35.434  19.918  1.00  0.00    -0.289 OA
BRANCH  11  13
ATOM     13  C   UNL     1      27.360  34.480  20.767  1.00  0.00     0.064 A 
ATOM     14  C   UNL     1      26.323  35.349  20.349  1.00  0.00     0.130 A 
ATOM     15  C   UNL     1      27.142  33.641  21.876  1.00  0.00     0.020 A 
ATOM     16  C   UNL     1      25.094  35.337  21.020  1.00  0.00     0.093 A 
ATOM     17  C   UNL     1      25.916  33.651  22.545  1.00  0.00     0.047 A 
ATOM     18  C   UNL     1      24.889  34.492  22.117  1.00  0.00     0.119 A 
BRANCH  14  19
ATOM     19  O   UNL     1      26.487  36.253  19.297  1.00  0.00    -0.507 OA
ATOM     20  H   UNL     1      27.388  36.504  18.916  1.00  0.00     0.293 HD
ENDBRANCH  14  19
BRANCH  18  21
ATOM     21  O   UNL     1      23.668  34.484  22.789  1.00  0.00    -0.508 OA
ATOM     22  H   UNL     1      23.602  34.734  23.768  1.00  0.00     0.293 HD
ENDBRANCH  18  21
ENDBRANCH  11  13
ENDBRANCH   2  11
TORSDOF 6
ENDMDL
MODEL 8
REMARK VINA RESULT:    -4.849      3.341      7.619
REMARK INTER + INTRA:          -6.746
REMARK INTER:                  -6.126
REMARK INTRA:                  -0.620
REMARK UNBOUND:                -0.621
REMARK SMILES O=C(C=Cc1ccc(O)cc1)c1ccc(O)cc1O
REMARK SMILES IDX 4 1 3 2 5 3 6 4 7 5 8 6 11 7 10 8 9 9 2 11 1 12 12 13 18 14
REMARK SMILES IDX 13 15 17 16 14 17 15 18 19 19 16 21
REMARK H PARENT 9 10 19 20 16 22
REMARK Flexibility Score: inf
ROOT
ATOM      1  C   UNL     1      29.712  32.369  18.034  1.00  0.00     0.012 C 
ATOM      2  C   UNL     1      29.642  33.566  18.634  1.00  0.00     0.053 C 
ENDROOT
BRANCH   1   3
ATOM      3  C   UNL     1      30.026  32.185  16.596  1.00  0.00    -0.025 A 
ATOM      4  C   UNL     1      29.325  31.204  15.874  1.00  0.00     0.012 A 
ATOM      5  C   UNL     1      29.595  30.990  14.519  1.00  0.00     0.047 A 
ATOM      6  C   UNL     1      30.579  31.745  13.869  1.00  0.00     0.115 A 
ATOM      7  C   UNL     1      31.026  32.929  15.936  1.00  0.00     0.012 A 
ATOM      8  C   UNL     1      31.293  32.711  14.582  1.00  0.00     0.047 A 
BRANCH   6   9
ATOM      9  O   UNL     1      30.856  31.540  12.519  1.00  0.00    -0.508 OA
ATOM     10  H   UNL     1      30.461  32.135  11.801  1.00  0.00     0.293 HD
ENDBRANCH   6   9
ENDBRANCH   1   3
BRANCH   2  11
ATOM     11  C   UNL     1      29.312  33.712  20.067  1.00  0.00     0.189 C 
ATOM     12  O   UNL     1      30.231  33.721  20.932  1.00  0.00    -0.289 OA
BRANCH  11  13
ATOM     13  C   UNL     1      27.906  33.878  20.497  1.00  0.00     0.064 A 
ATOM     14  C   UNL     1      27.245  32.907  21.289  1.00  0.00     0.130 A 
ATOM     15  C   UNL     1      27.217  35.053  20.144  1.00  0.00     0.020 A 
ATOM     16  C   UNL     1      25.938  33.145  21.733  1.00  0.00     0.093 A 
ATOM     17  C   UNL     1      25.909  35.270  20.580  1.00  0.00     0.047 A 
ATOM     18  C   UNL     1      25.268  34.322  21.379  1.00  0.00     0.119 A 
BRANCH  14  19
ATOM     19  O   UNL     1      27.842  31.690  21.629  1.00  0.00    -0.507 OA
ATOM     20  H   UNL     1      27.462  30.793  21.362  1.00  0.00     0.293 HD
ENDBRANCH  14  19
BRANCH  18  21
ATOM     21  O   UNL     1      23.965  34.557  21.815  1.00  0.00    -0.508 OA
ATOM     22  H   UNL     1      23.760  35.264  22.510  1.00  0.00     0.293 HD
ENDBRANCH  18  21
ENDBRANCH  11  13
ENDBRANCH   2  11
TORSDOF 6
ENDMDL
MODEL 9
REMARK VINA RESULT:    -4.822      2.546      3.827
REMARK INTER + INTRA:          -6.711
REMARK INTER:                  -5.989
REMARK INTRA:                  -0.723
REMARK UNBOUND:                -0.621
REMARK SMILES O=C(C=Cc1ccc(O)cc1)c1ccc(O)cc1O
REMARK SMILES IDX 4 1 3 2 5 3 6 4 7 5 8 6 11 7 10 8 9 9 2 11 1 12 12 13 18 14
REMARK SMILES IDX 13 15 17 16 14 17 15 18 19 19 16 21
REMARK H PARENT 9 10 19 20 16 22
REMARK Flexibility Score: inf
ROOT
ATOM      1  C   UNL     1      28.473  34.297  19.688  1.00  0.00     0.012 C 
ATOM      2  C   UNL     1      29.340  33.277  19.766  1.00  0.00     0.053 C 
ENDROOT
BRANCH   1   3
ATOM      3  C   UNL     1      27.220  34.376  20.478  1.00  0.00    -0.025 A 
ATOM      4  C   UNL     1      26.940  33.352  21.399  1.00  0.00     0.012 A 
ATOM      5  C   UNL     1      25.766  33.381  22.158  1.00  0.00     0.047 A 
ATOM      6  C   UNL     1      24.850  34.429  22.000  1.00  0.00     0.115 A 
ATOM      7  C   UNL     1      26.285  35.419  20.315  1.00  0.00     0.012 A 
ATOM      8  C   UNL     1      25.113  35.443  21.076  1.00  0.00     0.047 A 
BRANCH   6   9
ATOM      9  O   UNL     1      23.678  34.468  22.751  1.00  0.00    -0.508 OA
ATOM     10  H   UNL     1      23.049  33.675  22.792  1.00  0.00     0.293 HD
ENDBRANCH   6   9
ENDBRANCH   1   3
BRANCH   2  11
ATOM     11  C   UNL     1      30.573  33.227  18.952  1.00  0.00     0.189 C 
ATOM     12  O   UNL     1      31.697  33.431  19.489  1.00  0.00    -0.289 OA
BRANCH  11  13
ATOM     13  C   UNL     1      30.504  32.907  17.509  1.00  0.00     0.064 A 
ATOM     14  C   UNL     1      31.257  33.622  16.546  1.00  0.00     0.130 A 
ATOM     15  C   UNL     1      29.697  31.835  17.084  1.00  0.00     0.020 A 
ATOM     16  C   UNL     1      31.214  33.233  15.201  1.00  0.00     0.093 A 
ATOM     17  C   UNL     1      29.652  31.467  15.738  1.00  0.00     0.047 A 
ATOM     18  C   UNL     1      30.412  32.160  14.795  1.00  0.00     0.119 A 
BRANCH  14  19
ATOM     19  O   UNL     1      32.032  34.735  16.882  1.00  0.00    -0.507 OA
ATOM     20  H   UNL     1      32.213  35.017  17.834  1.00  0.00     0.293 HD
ENDBRANCH  14  19
BRANCH  18  21
ATOM     21  O   UNL     1      30.363  31.776  13.456  1.00  0.00    -0.508 OA
ATOM     22  H   UNL     1      29.767  32.253  12.791  1.00  0.00     0.293 HD
ENDBRANCH  18  21
ENDBRANCH  11  13
ENDBRANCH   2  11
TORSDOF 6
ENDMDL
