MODEL 1
REMARK VINA RESULT:    -2.597      0.000      0.000
REMARK INTER + INTRA:          -5.648
REMARK INTER:                  -4.191
REMARK INTRA:                  -1.457
REMARK UNBOUND:                -1.457
REMARK SMILES CCCCCCCCCCCCO
REMARK SMILES IDX 7 1 6 2 5 3 4 4 3 5 2 6 1 7 8 8 9 9 10 10 11 11 12 12 13 13
REMARK H PARENT 13 14
REMARK Flexibility Score: inf
ROOT
ATOM      1  C   UNL     1     145.968 141.358 140.602  1.00  0.00     0.000 C 
ENDROOT
BRANCH   1   2
ATOM      2  C   UNL     1     145.927 142.247 141.855  1.00  0.00    -0.000 C 
BRANCH   2   3
ATOM      3  C   UNL     1     145.542 141.468 143.123  1.00  0.00    -0.000 C 
BRANCH   3   4
ATOM      4  C   UNL     1     144.211 141.974 143.695  1.00  0.00    -0.000 C 
BRANCH   4   5
ATOM      5  C   UNL     1     143.819 143.320 143.065  1.00  0.00    -0.000 C 
BRANCH   5   6
ATOM      6  C   UNL     1     142.432 143.281 142.406  1.00  0.00    -0.003 C 
ATOM      7  C   UNL     1     142.434 143.856 140.990  1.00  0.00     0.004 C 
ENDBRANCH   5   6
ENDBRANCH   4   5
ENDBRANCH   3   4
ENDBRANCH   2   3
ENDBRANCH   1   2
BRANCH   1   8
ATOM      8  C   UNL     1     144.568 141.077 140.030  1.00  0.00     0.000 C 
BRANCH   8   9
ATOM      9  C   UNL     1     144.119 139.625 140.254  1.00  0.00     0.000 C 
BRANCH   9  10
ATOM     10  C   UNL     1     142.924 139.515 141.218  1.00  0.00     0.002 C 
BRANCH  10  11
ATOM     11  C   UNL     1     143.165 138.495 142.344  1.00  0.00     0.028 C 
BRANCH  11  12
ATOM     12  C   UNL     1     142.277 137.248 142.250  1.00  0.00     0.156 C 
BRANCH  12  13
ATOM     13  O   UNL     1     143.055 136.082 142.211  1.00  0.00    -0.396 OA
ATOM     14  H   UNL     1     143.366 135.975 141.275  1.00  0.00     0.210 HD
ENDBRANCH  12  13
ENDBRANCH  11  12
ENDBRANCH  10  11
ENDBRANCH   9  10
ENDBRANCH   8   9
ENDBRANCH   1   8
TORSDOF 11
ENDMDL
MODEL 2
REMARK VINA RESULT:    -2.568      3.225      5.307
REMARK INTER + INTRA:          -5.601
REMARK INTER:                  -4.489
REMARK INTRA:                  -1.112
REMARK UNBOUND:                -1.457
REMARK SMILES CCCCCCCCCCCCO
REMARK SMILES IDX 7 1 6 2 5 3 4 4 3 5 2 6 1 7 8 8 9 9 10 10 11 11 12 12 13 13
REMARK H PARENT 13 14
REMARK Flexibility Score: inf
ROOT
ATOM      1  C   UNL     1     142.169 144.744 139.382  1.00  0.00     0.000 C 
ENDROOT
BRANCH   1   2
ATOM      2  C   UNL     1     140.721 144.779 139.894  1.00  0.00    -0.000 C 
BRANCH   2   3
ATOM      3  C   UNL     1     140.208 146.208 140.127  1.00  0.00    -0.000 C 
BRANCH   3   4
ATOM      4  C   UNL     1     139.673 146.373 141.555  1.00  0.00    -0.000 C 
BRANCH   4   5
ATOM      5  C   UNL     1     139.151 145.037 142.104  1.00  0.00    -0.000 C 
BRANCH   5   6
ATOM      6  C   UNL     1     139.430 144.866 143.605  1.00  0.00    -0.003 C 
ATOM      7  C   UNL     1     140.617 145.700 144.084  1.00  0.00     0.004 C 
ENDBRANCH   5   6
ENDBRANCH   4   5
ENDBRANCH   3   4
ENDBRANCH   2   3
ENDBRANCH   1   2
BRANCH   1   8
ATOM      8  C   UNL     1     143.084 143.870 140.257  1.00  0.00     0.000 C 
BRANCH   8   9
ATOM      9  C   UNL     1     142.647 143.849 141.730  1.00  0.00     0.000 C 
BRANCH   9  10
ATOM     10  C   UNL     1     143.127 142.590 142.473  1.00  0.00     0.002 C 
BRANCH  10  11
ATOM     11  C   UNL     1     144.058 141.716 141.615  1.00  0.00     0.028 C 
BRANCH  11  12
ATOM     12  C   UNL     1     145.514 141.705 142.095  1.00  0.00     0.156 C 
BRANCH  12  13
ATOM     13  O   UNL     1     146.000 143.012 142.246  1.00  0.00    -0.396 OA
ATOM     14  H   UNL     1     145.295 143.623 141.908  1.00  0.00     0.210 HD
ENDBRANCH  12  13
ENDBRANCH  11  12
ENDBRANCH  10  11
ENDBRANCH   9  10
ENDBRANCH   8   9
ENDBRANCH   1   8
TORSDOF 11
ENDMDL
MODEL 3
REMARK VINA RESULT:    -2.513      1.330      2.115
REMARK INTER + INTRA:          -5.513
REMARK INTER:                  -4.313
REMARK INTRA:                  -1.200
REMARK UNBOUND:                -1.457
REMARK SMILES CCCCCCCCCCCCO
REMARK SMILES IDX 7 1 6 2 5 3 4 4 3 5 2 6 1 7 8 8 9 9 10 10 11 11 12 12 13 13
REMARK H PARENT 13 14
REMARK Flexibility Score: inf
ROOT
ATOM      1  C   UNL     1     144.430 140.711 140.046  1.00  0.00     0.000 C 
ENDROOT
BRANCH   1   2
ATOM      2  C   UNL     1     145.912 141.097 139.921  1.00  0.00    -0.000 C 
BRANCH   2   3
ATOM      3  C   UNL     1     146.443 141.825 141.165  1.00  0.00    -0.000 C 
BRANCH   3   4
ATOM      4  C   UNL     1     145.289 142.300 142.057  1.00  0.00    -0.000 C 
BRANCH   4   5
ATOM      5  C   UNL     1     145.476 141.816 143.503  1.00  0.00    -0.000 C 
BRANCH   5   6
ATOM      6  C   UNL     1     144.209 141.165 144.076  1.00  0.00    -0.003 C 
ATOM      7  C   UNL     1     142.925 141.811 143.557  1.00  0.00     0.004 C 
ENDBRANCH   5   6
ENDBRANCH   4   5
ENDBRANCH   3   4
ENDBRANCH   2   3
ENDBRANCH   1   2
BRANCH   1   8
ATOM      8  C   UNL     1     144.229 139.201 140.266  1.00  0.00     0.000 C 
BRANCH   8   9
ATOM      9  C   UNL     1     143.123 138.896 141.288  1.00  0.00     0.000 C 
BRANCH   9  10
ATOM     10  C   UNL     1     143.644 138.118 142.511  1.00  0.00     0.002 C 
BRANCH  10  11
ATOM     11  C   UNL     1     142.512 137.456 143.316  1.00  0.00     0.028 C 
BRANCH  11  12
ATOM     12  C   UNL     1     141.888 136.239 142.621  1.00  0.00     0.156 C 
BRANCH  12  13
ATOM     13  O   UNL     1     142.875 135.451 142.011  1.00  0.00    -0.396 OA
ATOM     14  H   UNL     1     143.655 135.440 142.625  1.00  0.00     0.210 HD
ENDBRANCH  12  13
ENDBRANCH  11  12
ENDBRANCH  10  11
ENDBRANCH   9  10
ENDBRANCH   8   9
ENDBRANCH   1   8
TORSDOF 11
ENDMDL
MODEL 4
REMARK VINA RESULT:    -2.487      4.366      5.966
REMARK INTER + INTRA:          -5.471
REMARK INTER:                  -4.543
REMARK INTRA:                  -0.928
REMARK UNBOUND:                -1.457
REMARK SMILES CCCCCCCCCCCCO
REMARK SMILES IDX 7 1 6 2 5 3 4 4 3 5 2 6 1 7 8 8 9 9 10 10 11 11 12 12 13 13
REMARK H PARENT 13 14
REMARK Flexibility Score: inf
ROOT
ATOM      1  C   UNL     1     139.142 144.045 141.610  1.00  0.00     0.000 C 
ENDROOT
BRANCH   1   2
ATOM      2  C   UNL     1     139.069 145.271 142.534  1.00  0.00    -0.000 C 
BRANCH   2   3
ATOM      3  C   UNL     1     140.377 145.516 143.301  1.00  0.00    -0.000 C 
BRANCH   3   4
ATOM      4  C   UNL     1     141.010 144.190 143.744  1.00  0.00    -0.000 C 
BRANCH   4   5
ATOM      5  C   UNL     1     142.519 144.179 143.458  1.00  0.00    -0.000 C 
BRANCH   5   6
ATOM      6  C   UNL     1     142.898 143.213 142.326  1.00  0.00    -0.003 C 
ATOM      7  C   UNL     1     142.858 143.873 140.948  1.00  0.00     0.004 C 
ENDBRANCH   5   6
ENDBRANCH   4   5
ENDBRANCH   3   4
ENDBRANCH   2   3
ENDBRANCH   1   2
BRANCH   1   8
ATOM      8  C   UNL     1     138.010 143.037 141.875  1.00  0.00     0.000 C 
BRANCH   8   9
ATOM      9  C   UNL     1     137.565 143.023 143.346  1.00  0.00     0.000 C 
BRANCH   9  10
ATOM     10  C   UNL     1     137.665 141.625 143.982  1.00  0.00     0.002 C 
BRANCH  10  11
ATOM     11  C   UNL     1     137.443 140.495 142.962  1.00  0.00     0.028 C 
BRANCH  11  12
ATOM     12  C   UNL     1     136.200 139.642 143.244  1.00  0.00     0.156 C 
BRANCH  12  13
ATOM     13  O   UNL     1     136.074 138.614 142.298  1.00  0.00    -0.396 OA
ATOM     14  H   UNL     1     136.458 137.796 142.709  1.00  0.00     0.210 HD
ENDBRANCH  12  13
ENDBRANCH  11  12
ENDBRANCH  10  11
ENDBRANCH   9  10
ENDBRANCH   8   9
ENDBRANCH   1   8
TORSDOF 11
ENDMDL
MODEL 5
REMARK VINA RESULT:    -2.470      1.478      2.247
REMARK INTER + INTRA:          -5.442
REMARK INTER:                  -4.724
REMARK INTRA:                  -0.719
REMARK UNBOUND:                -1.457
REMARK SMILES CCCCCCCCCCCCO
REMARK SMILES IDX 7 1 6 2 5 3 4 4 3 5 2 6 1 7 8 8 9 9 10 10 11 11 12 12 13 13
REMARK H PARENT 13 14
REMARK Flexibility Score: inf
ROOT
ATOM      1  C   UNL     1     144.254 139.441 143.586  1.00  0.00     0.000 C 
ENDROOT
BRANCH   1   2
ATOM      2  C   UNL     1     144.673 140.869 143.969  1.00  0.00    -0.000 C 
BRANCH   2   3
ATOM      3  C   UNL     1     145.669 141.482 142.973  1.00  0.00    -0.000 C 
BRANCH   3   4
ATOM      4  C   UNL     1     145.083 142.739 142.316  1.00  0.00    -0.000 C 
BRANCH   4   5
ATOM      5  C   UNL     1     143.860 143.247 143.094  1.00  0.00    -0.000 C 
BRANCH   5   6
ATOM      6  C   UNL     1     142.715 143.689 142.171  1.00  0.00    -0.003 C 
ATOM      7  C   UNL     1     143.098 143.647 140.692  1.00  0.00     0.004 C 
ENDBRANCH   5   6
ENDBRANCH   4   5
ENDBRANCH   3   4
ENDBRANCH   2   3
ENDBRANCH   1   2
BRANCH   1   8
ATOM      8  C   UNL     1     143.952 139.297 142.084  1.00  0.00     0.000 C 
BRANCH   8   9
ATOM      9  C   UNL     1     143.232 137.980 141.751  1.00  0.00     0.000 C 
BRANCH   9  10
ATOM     10  C   UNL     1     142.581 137.331 142.986  1.00  0.00     0.002 C 
BRANCH  10  11
ATOM     11  C   UNL     1     141.885 136.000 142.655  1.00  0.00     0.028 C 
BRANCH  11  12
ATOM     12  C   UNL     1     141.727 135.740 141.152  1.00  0.00     0.156 C 
BRANCH  12  13
ATOM     13  O   UNL     1     142.401 134.571 140.773  1.00  0.00    -0.396 OA
ATOM     14  H   UNL     1     141.794 134.071 140.168  1.00  0.00     0.210 HD
ENDBRANCH  12  13
ENDBRANCH  11  12
ENDBRANCH  10  11
ENDBRANCH   9  10
ENDBRANCH   8   9
ENDBRANCH   1   8
TORSDOF 11
ENDMDL
MODEL 6
REMARK VINA RESULT:    -2.417      5.695      7.788
REMARK INTER + INTRA:          -5.358
REMARK INTER:                  -3.937
REMARK INTRA:                  -1.421
REMARK UNBOUND:                -1.457
REMARK SMILES CCCCCCCCCCCCO
REMARK SMILES IDX 7 1 6 2 5 3 4 4 3 5 2 6 1 7 8 8 9 9 10 10 11 11 12 12 13 13
REMARK H PARENT 13 14
REMARK Flexibility Score: inf
ROOT
ATOM      1  C   UNL     1     137.087 140.418 140.517  1.00  0.00     0.000 C 
ENDROOT
BRANCH   1   2
ATOM      2  C   UNL     1     135.803 139.898 141.182  1.00  0.00    -0.000 C 
BRANCH   2   3
ATOM      3  C   UNL     1     136.030 139.434 142.629  1.00  0.00    -0.000 C 
BRANCH   3   4
ATOM      4  C   UNL     1     137.441 138.859 142.806  1.00  0.00    -0.000 C 
BRANCH   4   5
ATOM      5  C   UNL     1     138.126 139.456 144.046  1.00  0.00    -0.000 C 
BRANCH   5   6
ATOM      6  C   UNL     1     139.644 139.611 143.864  1.00  0.00    -0.003 C 
ATOM      7  C   UNL     1     140.114 139.223 142.463  1.00  0.00     0.004 C 
ENDBRANCH   5   6
ENDBRANCH   4   5
ENDBRANCH   3   4
ENDBRANCH   2   3
ENDBRANCH   1   2
BRANCH   1   8
ATOM      8  C   UNL     1     136.881 141.770 139.812  1.00  0.00     0.000 C 
BRANCH   8   9
ATOM      9  C   UNL     1     137.682 142.905 140.469  1.00  0.00     0.000 C 
BRANCH   9  10
ATOM     10  C   UNL     1     138.383 142.463 141.766  1.00  0.00     0.002 C 
BRANCH  10  11
ATOM     11  C   UNL     1     137.731 143.063 143.024  1.00  0.00     0.028 C 
BRANCH  11  12
ATOM     12  C   UNL     1     138.740 143.579 144.058  1.00  0.00     0.156 C 
BRANCH  12  13
ATOM     13  O   UNL     1     138.836 144.977 144.009  1.00  0.00    -0.396 OA
ATOM     14  H   UNL     1     139.796 145.196 143.884  1.00  0.00     0.210 HD
ENDBRANCH  12  13
ENDBRANCH  11  12
ENDBRANCH  10  11
ENDBRANCH   9  10
ENDBRANCH   8   9
ENDBRANCH   1   8
TORSDOF 11
ENDMDL
MODEL 7
REMARK VINA RESULT:    -2.412      4.371      6.736
REMARK INTER + INTRA:          -5.349
REMARK INTER:                  -4.585
REMARK INTRA:                  -0.764
REMARK UNBOUND:                -1.457
REMARK SMILES CCCCCCCCCCCCO
REMARK SMILES IDX 7 1 6 2 5 3 4 4 3 5 2 6 1 7 8 8 9 9 10 10 11 11 12 12 13 13
REMARK H PARENT 13 14
REMARK Flexibility Score: inf
ROOT
ATOM      1  C   UNL     1     139.122 144.340 143.754  1.00  0.00     0.000 C 
ENDROOT
BRANCH   1   2
ATOM      2  C   UNL     1     138.402 144.015 142.436  1.00  0.00    -0.000 C 
BRANCH   2   3
ATOM      3  C   UNL     1     138.174 142.509 142.240  1.00  0.00    -0.000 C 
BRANCH   3   4
ATOM      4  C   UNL     1     138.802 141.705 143.386  1.00  0.00    -0.000 C 
BRANCH   4   5
ATOM      5  C   UNL     1     137.756 140.810 144.068  1.00  0.00    -0.000 C 
BRANCH   5   6
ATOM      6  C   UNL     1     136.552 140.512 143.162  1.00  0.00    -0.003 C 
ATOM      7  C   UNL     1     136.607 139.115 142.547  1.00  0.00     0.004 C 
ENDBRANCH   5   6
ENDBRANCH   4   5
ENDBRANCH   3   4
ENDBRANCH   2   3
ENDBRANCH   1   2
BRANCH   1   8
ATOM      8  C   UNL     1     140.301 145.310 143.560  1.00  0.00     0.000 C 
BRANCH   8   9
ATOM      9  C   UNL     1     141.632 144.726 144.058  1.00  0.00     0.000 C 
BRANCH   9  10
ATOM     10  C   UNL     1     142.062 143.475 143.270  1.00  0.00     0.002 C 
BRANCH  10  11
ATOM     11  C   UNL     1     143.369 143.691 142.487  1.00  0.00     0.028 C 
BRANCH  11  12
ATOM     12  C   UNL     1     144.470 142.679 142.830  1.00  0.00     0.156 C 
BRANCH  12  13
ATOM     13  O   UNL     1     145.678 143.026 142.208  1.00  0.00    -0.396 OA
ATOM     14  H   UNL     1     146.293 143.333 142.924  1.00  0.00     0.210 HD
ENDBRANCH  12  13
ENDBRANCH  11  12
ENDBRANCH  10  11
ENDBRANCH   9  10
ENDBRANCH   8   9
ENDBRANCH   1   8
TORSDOF 11
ENDMDL
MODEL 8
REMARK VINA RESULT:    -2.399      3.411      5.111
REMARK INTER + INTRA:          -5.329
REMARK INTER:                  -4.155
REMARK INTRA:                  -1.174
REMARK UNBOUND:                -1.457
REMARK SMILES CCCCCCCCCCCCO
REMARK SMILES IDX 7 1 6 2 5 3 4 4 3 5 2 6 1 7 8 8 9 9 10 10 11 11 12 12 13 13
REMARK H PARENT 13 14
REMARK Flexibility Score: inf
ROOT
ATOM      1  C   UNL     1     143.485 143.440 140.784  1.00  0.00     0.000 C 
ENDROOT
BRANCH   1   2
ATOM      2  C   UNL     1     144.314 142.191 141.126  1.00  0.00    -0.000 C 
BRANCH   2   3
ATOM      3  C   UNL     1     145.438 142.483 142.132  1.00  0.00    -0.000 C 
BRANCH   3   4
ATOM      4  C   UNL     1     145.526 141.378 143.192  1.00  0.00    -0.000 C 
BRANCH   4   5
ATOM      5  C   UNL     1     144.372 140.375 143.039  1.00  0.00    -0.000 C 
BRANCH   5   6
ATOM      6  C   UNL     1     143.298 140.541 144.125  1.00  0.00    -0.003 C 
ATOM      7  C   UNL     1     141.887 140.268 143.608  1.00  0.00     0.004 C 
ENDBRANCH   5   6
ENDBRANCH   4   5
ENDBRANCH   3   4
ENDBRANCH   2   3
ENDBRANCH   1   2
BRANCH   1   8
ATOM      8  C   UNL     1     142.218 143.562 141.648  1.00  0.00     0.000 C 
BRANCH   8   9
ATOM      9  C   UNL     1     142.527 143.999 143.089  1.00  0.00     0.000 C 
BRANCH   9  10
ATOM     10  C   UNL     1     141.255 144.283 143.908  1.00  0.00     0.002 C 
BRANCH  10  11
ATOM     11  C   UNL     1     140.045 143.468 143.421  1.00  0.00     0.028 C 
BRANCH  11  12
ATOM     12  C   UNL     1     138.709 144.213 143.534  1.00  0.00     0.156 C 
BRANCH  12  13
ATOM     13  O   UNL     1     138.746 145.416 142.815  1.00  0.00    -0.396 OA
ATOM     14  H   UNL     1     139.700 145.684 142.750  1.00  0.00     0.210 HD
ENDBRANCH  12  13
ENDBRANCH  11  12
ENDBRANCH  10  11
ENDBRANCH   9  10
ENDBRANCH   8   9
ENDBRANCH   1   8
TORSDOF 11
ENDMDL
MODEL 9
REMARK VINA RESULT:    -2.379      4.969      6.104
REMARK INTER + INTRA:          -5.296
REMARK INTER:                  -4.145
REMARK INTRA:                  -1.151
REMARK UNBOUND:                -1.457
REMARK SMILES CCCCCCCCCCCCO
REMARK SMILES IDX 7 1 6 2 5 3 4 4 3 5 2 6 1 7 8 8 9 9 10 10 11 11 12 12 13 13
REMARK H PARENT 13 14
REMARK Flexibility Score: inf
ROOT
ATOM      1  C   UNL     1     140.274 142.708 142.937  1.00  0.00     0.000 C 
ENDROOT
BRANCH   1   2
ATOM      2  C   UNL     1     140.961 144.058 143.196  1.00  0.00    -0.000 C 
BRANCH   2   3
ATOM      3  C   UNL     1     139.960 145.183 143.506  1.00  0.00    -0.000 C 
BRANCH   3   4
ATOM      4  C   UNL     1     139.074 145.479 142.290  1.00  0.00    -0.000 C 
BRANCH   4   5
ATOM      5  C   UNL     1     139.790 146.413 141.302  1.00  0.00    -0.000 C 
BRANCH   5   6
ATOM      6  C   UNL     1     139.901 145.809 139.894  1.00  0.00    -0.003 C 
ATOM      7  C   UNL     1     139.319 144.399 139.807  1.00  0.00     0.004 C 
ENDBRANCH   5   6
ENDBRANCH   4   5
ENDBRANCH   3   4
ENDBRANCH   2   3
ENDBRANCH   1   2
BRANCH   1   8
ATOM      8  C   UNL     1     139.389 142.260 144.113  1.00  0.00     0.000 C 
BRANCH   8   9
ATOM      9  C   UNL     1     137.909 142.129 143.720  1.00  0.00     0.000 C 
BRANCH   9  10
ATOM     10  C   UNL     1     137.710 141.972 142.202  1.00  0.00     0.002 C 
BRANCH  10  11
ATOM     11  C   UNL     1     137.069 140.625 141.826  1.00  0.00     0.028 C 
BRANCH  11  12
ATOM     12  C   UNL     1     136.298 139.964 142.975  1.00  0.00     0.156 C 
BRANCH  12  13
ATOM     13  O   UNL     1     136.653 138.614 143.104  1.00  0.00    -0.396 OA
ATOM     14  H   UNL     1     135.819 138.114 143.302  1.00  0.00     0.210 HD
ENDBRANCH  12  13
ENDBRANCH  11  12
ENDBRANCH  10  11
ENDBRANCH   9  10
ENDBRANCH   8   9
ENDBRANCH   1   8
TORSDOF 11
ENDMDL
