MODEL 1
REMARK VINA RESULT:    -4.589      0.000      0.000
REMARK INTER + INTRA:          -6.706
REMARK INTER:                  -6.466
REMARK INTRA:                  -0.240
REMARK UNBOUND:                -0.240
REMARK SMILES CCCCCCCCC(=O)[O-]
REMARK SMILES IDX 6 1 7 2 8 3 9 4 10 5 11 6 5 7 4 8 3 9 2 10 1 11
REMARK H PARENT
REMARK Flexibility Score: inf
ROOT
ATOM      1  C   UNL     1      -2.207 -35.864  21.360  1.00  0.00     0.000 C 
ENDROOT
BRANCH   1   2
ATOM      2  C   UNL     1      -2.537 -34.950  22.550  1.00  0.00     0.006 C 
BRANCH   2   3
ATOM      3  C   UNL     1      -1.470 -33.872  22.783  1.00  0.00     0.053 C 
BRANCH   3   4
ATOM      4  C   UNL     1      -1.964 -32.853  23.760  1.00  0.00     0.041 C 
ATOM      5  O   UNL     1      -1.392 -32.711  24.873  1.00  0.00    -0.550 OA
ATOM      6  O   UNL     1      -3.088 -32.092  23.463  1.00  0.00    -0.550 OA
ENDBRANCH   3   4
ENDBRANCH   2   3
ENDBRANCH   1   2
BRANCH   1   7
ATOM      7  C   UNL     1      -2.980 -37.195  21.404  1.00  0.00     0.000 C 
BRANCH   7   8
ATOM      8  C   UNL     1      -2.794 -38.028  20.126  1.00  0.00    -0.000 C 
BRANCH   8   9
ATOM      9  C   UNL     1      -4.077 -38.109  19.279  1.00  0.00    -0.000 C 
BRANCH   9  10
ATOM     10  C   UNL     1      -3.853 -37.653  17.830  1.00  0.00    -0.003 C 
ATOM     11  C   UNL     1      -4.570 -36.342  17.506  1.00  0.00     0.004 C 
ENDBRANCH   9  10
ENDBRANCH   8   9
ENDBRANCH   7   8
ENDBRANCH   1   7
TORSDOF 7
ENDMDL
MODEL 2
REMARK VINA RESULT:    -4.326      3.026      3.497
REMARK INTER + INTRA:          -6.336
REMARK INTER:                  -5.955
REMARK INTRA:                  -0.381
REMARK UNBOUND:                -0.240
REMARK SMILES CCCCCCCCC(=O)[O-]
REMARK SMILES IDX 6 1 7 2 8 3 9 4 10 5 11 6 5 7 4 8 3 9 2 10 1 11
REMARK H PARENT
REMARK Flexibility Score: inf
ROOT
ATOM      1  C   UNL     1      -2.356 -36.285  21.525  1.00  0.00     0.000 C 
ENDROOT
BRANCH   1   2
ATOM      2  C   UNL     1      -1.025 -35.568  21.250  1.00  0.00     0.006 C 
BRANCH   2   3
ATOM      3  C   UNL     1       0.046 -36.506  20.678  1.00  0.00     0.053 C 
BRANCH   3   4
ATOM      4  C   UNL     1       1.397 -35.868  20.764  1.00  0.00     0.041 C 
ATOM      5  O   UNL     1       1.779 -35.336  21.839  1.00  0.00    -0.550 OA
ATOM      6  O   UNL     1       2.215 -35.817  19.642  1.00  0.00    -0.550 OA
ENDBRANCH   3   4
ENDBRANCH   2   3
ENDBRANCH   1   2
BRANCH   1   7
ATOM      7  C   UNL     1      -2.351 -37.746  21.038  1.00  0.00     0.000 C 
BRANCH   7   8
ATOM      8  C   UNL     1      -3.643 -38.125  20.296  1.00  0.00    -0.000 C 
BRANCH   8   9
ATOM      9  C   UNL     1      -3.552 -37.873  18.780  1.00  0.00    -0.000 C 
BRANCH   9  10
ATOM     10  C   UNL     1      -4.018 -36.463  18.391  1.00  0.00    -0.003 C 
ATOM     11  C   UNL     1      -4.780 -36.437  17.066  1.00  0.00     0.004 C 
ENDBRANCH   9  10
ENDBRANCH   8   9
ENDBRANCH   7   8
ENDBRANCH   1   7
TORSDOF 7
ENDMDL
MODEL 3
REMARK VINA RESULT:    -4.317      2.166      3.151
REMARK INTER + INTRA:          -6.323
REMARK INTER:                  -5.872
REMARK INTRA:                  -0.451
REMARK UNBOUND:                -0.240
REMARK SMILES CCCCCCCCC(=O)[O-]
REMARK SMILES IDX 6 1 7 2 8 3 9 4 10 5 11 6 5 7 4 8 3 9 2 10 1 11
REMARK H PARENT
REMARK Flexibility Score: inf
ROOT
ATOM      1  C   UNL     1      -2.750 -35.503  22.125  1.00  0.00     0.000 C 
ENDROOT
BRANCH   1   2
ATOM      2  C   UNL     1      -1.698 -34.444  22.493  1.00  0.00     0.006 C 
BRANCH   2   3
ATOM      3  C   UNL     1      -2.312 -33.208  23.162  1.00  0.00     0.053 C 
BRANCH   3   4
ATOM      4  C   UNL     1      -1.433 -32.727  24.274  1.00  0.00     0.041 C 
ATOM      5  O   UNL     1      -0.485 -31.934  24.035  1.00  0.00    -0.550 OA
ATOM      6  O   UNL     1      -1.631 -33.194  25.568  1.00  0.00    -0.550 OA
ENDBRANCH   3   4
ENDBRANCH   2   3
ENDBRANCH   1   2
BRANCH   1   7
ATOM      7  C   UNL     1      -2.388 -36.274  20.843  1.00  0.00     0.000 C 
BRANCH   7   8
ATOM      8  C   UNL     1      -1.667 -37.599  21.135  1.00  0.00    -0.000 C 
BRANCH   8   9
ATOM      9  C   UNL     1      -0.303 -37.701  20.429  1.00  0.00    -0.000 C 
BRANCH   9  10
ATOM     10  C   UNL     1       0.769 -36.823  21.093  1.00  0.00    -0.003 C 
ATOM     11  C   UNL     1       1.432 -35.857  20.112  1.00  0.00     0.004 C 
ENDBRANCH   9  10
ENDBRANCH   8   9
ENDBRANCH   7   8
ENDBRANCH   1   7
TORSDOF 7
ENDMDL
MODEL 4
REMARK VINA RESULT:    -4.171      4.293      5.133
REMARK INTER + INTRA:          -6.118
REMARK INTER:                  -5.812
REMARK INTRA:                  -0.306
REMARK UNBOUND:                -0.240
REMARK SMILES CCCCCCCCC(=O)[O-]
REMARK SMILES IDX 6 1 7 2 8 3 9 4 10 5 11 6 5 7 4 8 3 9 2 10 1 11
REMARK H PARENT
REMARK Flexibility Score: inf
ROOT
ATOM      1  C   UNL     1       0.482 -37.416  20.645  1.00  0.00     0.000 C 
ENDROOT
BRANCH   1   2
ATOM      2  C   UNL     1      -0.921 -36.941  21.054  1.00  0.00     0.006 C 
BRANCH   2   3
ATOM      3  C   UNL     1      -0.975 -35.435  21.345  1.00  0.00     0.053 C 
BRANCH   3   4
ATOM      4  C   UNL     1      -2.141 -35.116  22.227  1.00  0.00     0.041 C 
ATOM      5  O   UNL     1      -2.120 -34.093  22.960  1.00  0.00    -0.550 OA
ATOM      6  O   UNL     1      -3.232 -35.976  22.275  1.00  0.00    -0.550 OA
ENDBRANCH   3   4
ENDBRANCH   2   3
ENDBRANCH   1   2
BRANCH   1   7
ATOM      7  C   UNL     1       1.559 -36.340  20.869  1.00  0.00     0.000 C 
BRANCH   7   8
ATOM      8  C   UNL     1       2.101 -35.764  19.551  1.00  0.00    -0.000 C 
BRANCH   8   9
ATOM      9  C   UNL     1       3.631 -35.890  19.433  1.00  0.00    -0.000 C 
BRANCH   9  10
ATOM     10  C   UNL     1       4.068 -36.502  18.094  1.00  0.00    -0.003 C 
ATOM     11  C   UNL     1       2.902 -37.103  17.310  1.00  0.00     0.004 C 
ENDBRANCH   9  10
ENDBRANCH   8   9
ENDBRANCH   7   8
ENDBRANCH   1   7
TORSDOF 7
ENDMDL
MODEL 5
REMARK VINA RESULT:    -4.167      4.132      5.142
REMARK INTER + INTRA:          -6.112
REMARK INTER:                  -5.718
REMARK INTRA:                  -0.395
REMARK UNBOUND:                -0.240
REMARK SMILES CCCCCCCCC(=O)[O-]
REMARK SMILES IDX 6 1 7 2 8 3 9 4 10 5 11 6 5 7 4 8 3 9 2 10 1 11
REMARK H PARENT
REMARK Flexibility Score: inf
ROOT
ATOM      1  C   UNL     1       0.599 -37.265  21.017  1.00  0.00     0.000 C 
ENDROOT
BRANCH   1   2
ATOM      2  C   UNL     1      -0.914 -36.997  21.000  1.00  0.00     0.006 C 
BRANCH   2   3
ATOM      3  C   UNL     1      -1.251 -35.500  21.016  1.00  0.00     0.053 C 
BRANCH   3   4
ATOM      4  C   UNL     1      -2.219 -35.196  22.116  1.00  0.00     0.041 C 
ATOM      5  O   UNL     1      -3.255 -35.897  22.260  1.00  0.00    -0.550 OA
ATOM      6  O   UNL     1      -2.002 -34.108  22.952  1.00  0.00    -0.550 OA
ENDBRANCH   3   4
ENDBRANCH   2   3
ENDBRANCH   1   2
BRANCH   1   7
ATOM      7  C   UNL     1       1.428 -35.968  21.015  1.00  0.00     0.000 C 
BRANCH   7   8
ATOM      8  C   UNL     1       2.919 -36.220  21.291  1.00  0.00    -0.000 C 
BRANCH   8   9
ATOM      9  C   UNL     1       3.757 -36.296  20.002  1.00  0.00    -0.000 C 
BRANCH   9  10
ATOM     10  C   UNL     1       2.977 -35.821  18.767  1.00  0.00    -0.003 C 
ATOM     11  C   UNL     1       2.977 -36.849  17.636  1.00  0.00     0.004 C 
ENDBRANCH   9  10
ENDBRANCH   8   9
ENDBRANCH   7   8
ENDBRANCH   1   7
TORSDOF 7
ENDMDL
MODEL 6
REMARK VINA RESULT:    -4.108      2.543      4.290
REMARK INTER + INTRA:          -6.029
REMARK INTER:                  -5.649
REMARK INTRA:                  -0.380
REMARK UNBOUND:                -0.240
REMARK SMILES CCCCCCCCC(=O)[O-]
REMARK SMILES IDX 6 1 7 2 8 3 9 4 10 5 11 6 5 7 4 8 3 9 2 10 1 11
REMARK H PARENT
REMARK Flexibility Score: inf
ROOT
ATOM      1  C   UNL     1      -2.144 -36.059  21.602  1.00  0.00     0.000 C 
ENDROOT
BRANCH   1   2
ATOM      2  C   UNL     1      -2.589 -34.899  22.506  1.00  0.00     0.006 C 
BRANCH   2   3
ATOM      3  C   UNL     1      -1.452 -33.912  22.806  1.00  0.00     0.053 C 
BRANCH   3   4
ATOM      4  C   UNL     1      -1.920 -32.850  23.750  1.00  0.00     0.041 C 
ATOM      5  O   UNL     1      -3.006 -32.250  23.541  1.00  0.00    -0.550 OA
ATOM      6  O   UNL     1      -1.132 -32.488  24.836  1.00  0.00    -0.550 OA
ENDBRANCH   3   4
ENDBRANCH   2   3
ENDBRANCH   1   2
BRANCH   1   7
ATOM      7  C   UNL     1      -0.709 -35.880  21.075  1.00  0.00     0.000 C 
BRANCH   7   8
ATOM      8  C   UNL     1       0.071 -37.204  21.027  1.00  0.00    -0.000 C 
BRANCH   8   9
ATOM      9  C   UNL     1       1.590 -36.994  20.896  1.00  0.00    -0.000 C 
BRANCH   9  10
ATOM     10  C   UNL     1       2.061 -35.691  21.558  1.00  0.00    -0.003 C 
ATOM     11  C   UNL     1       3.443 -35.820  22.198  1.00  0.00     0.004 C 
ENDBRANCH   9  10
ENDBRANCH   8   9
ENDBRANCH   7   8
ENDBRANCH   1   7
TORSDOF 7
ENDMDL
MODEL 7
REMARK VINA RESULT:    -4.090      4.606      6.230
REMARK INTER + INTRA:          -6.003
REMARK INTER:                  -5.310
REMARK INTRA:                  -0.694
REMARK UNBOUND:                -0.240
REMARK SMILES CCCCCCCCC(=O)[O-]
REMARK SMILES IDX 6 1 7 2 8 3 9 4 10 5 11 6 5 7 4 8 3 9 2 10 1 11
REMARK H PARENT
REMARK Flexibility Score: inf
ROOT
ATOM      1  C   UNL     1       1.518 -37.389  19.817  1.00  0.00     0.000 C 
ENDROOT
BRANCH   1   2
ATOM      2  C   UNL     1       0.391 -37.197  20.845  1.00  0.00     0.006 C 
BRANCH   2   3
ATOM      3  C   UNL     1       0.102 -35.719  21.138  1.00  0.00     0.053 C 
BRANCH   3   4
ATOM      4  C   UNL     1      -1.371 -35.493  21.268  1.00  0.00     0.041 C 
ATOM      5  O   UNL     1      -2.162 -35.960  20.408  1.00  0.00    -0.550 OA
ATOM      6  O   UNL     1      -1.867 -34.723  22.313  1.00  0.00    -0.550 OA
ENDBRANCH   3   4
ENDBRANCH   2   3
ENDBRANCH   1   2
BRANCH   1   7
ATOM      7  C   UNL     1       2.064 -36.052  19.285  1.00  0.00     0.000 C 
BRANCH   7   8
ATOM      8  C   UNL     1       3.568 -35.879  19.556  1.00  0.00    -0.000 C 
BRANCH   8   9
ATOM      9  C   UNL     1       4.047 -36.690  20.774  1.00  0.00    -0.000 C 
BRANCH   9  10
ATOM     10  C   UNL     1       4.520 -35.791  21.927  1.00  0.00    -0.003 C 
ATOM     11  C   UNL     1       3.362 -35.238  22.757  1.00  0.00     0.004 C 
ENDBRANCH   9  10
ENDBRANCH   8   9
ENDBRANCH   7   8
ENDBRANCH   1   7
TORSDOF 7
ENDMDL
MODEL 8
REMARK VINA RESULT:    -4.028      5.024      5.898
REMARK INTER + INTRA:          -5.916
REMARK INTER:                  -5.376
REMARK INTRA:                  -0.540
REMARK UNBOUND:                -0.240
REMARK SMILES CCCCCCCCC(=O)[O-]
REMARK SMILES IDX 6 1 7 2 8 3 9 4 10 5 11 6 5 7 4 8 3 9 2 10 1 11
REMARK H PARENT
REMARK Flexibility Score: inf
ROOT
ATOM      1  C   UNL     1       1.965 -35.507  21.734  1.00  0.00     0.000 C 
ENDROOT
BRANCH   1   2
ATOM      2  C   UNL     1       0.948 -35.793  20.618  1.00  0.00     0.006 C 
BRANCH   2   3
ATOM      3  C   UNL     1      -0.228 -36.657  21.095  1.00  0.00     0.053 C 
BRANCH   3   4
ATOM      4  C   UNL     1      -1.494 -35.860  21.092  1.00  0.00     0.041 C 
ATOM      5  O   UNL     1      -1.642 -34.901  21.894  1.00  0.00    -0.550 OA
ATOM      6  O   UNL     1      -2.533 -36.209  20.238  1.00  0.00    -0.550 OA
ENDBRANCH   3   4
ENDBRANCH   2   3
ENDBRANCH   1   2
BRANCH   1   7
ATOM      7  C   UNL     1       3.403 -35.878  21.331  1.00  0.00     0.000 C 
BRANCH   7   8
ATOM      8  C   UNL     1       3.457 -37.078  20.373  1.00  0.00    -0.000 C 
BRANCH   8   9
ATOM      9  C   UNL     1       4.607 -36.974  19.354  1.00  0.00    -0.000 C 
BRANCH   9  10
ATOM     10  C   UNL     1       4.136 -36.451  17.989  1.00  0.00    -0.003 C 
ATOM     11  C   UNL     1       2.749 -36.966  17.605  1.00  0.00     0.004 C 
ENDBRANCH   9  10
ENDBRANCH   8   9
ENDBRANCH   7   8
ENDBRANCH   1   7
TORSDOF 7
ENDMDL
MODEL 9
REMARK VINA RESULT:    -3.980      4.199      6.040
REMARK INTER + INTRA:          -5.848
REMARK INTER:                  -5.483
REMARK INTRA:                  -0.365
REMARK UNBOUND:                -0.240
REMARK SMILES CCCCCCCCC(=O)[O-]
REMARK SMILES IDX 6 1 7 2 8 3 9 4 10 5 11 6 5 7 4 8 3 9 2 10 1 11
REMARK H PARENT
REMARK Flexibility Score: inf
ROOT
ATOM      1  C   UNL     1       0.702 -37.237  20.934  1.00  0.00     0.000 C 
ENDROOT
BRANCH   1   2
ATOM      2  C   UNL     1      -0.788 -36.870  21.014  1.00  0.00     0.006 C 
BRANCH   2   3
ATOM      3  C   UNL     1      -1.017 -35.362  21.180  1.00  0.00     0.053 C 
BRANCH   3   4
ATOM      4  C   UNL     1      -2.128 -35.108  22.150  1.00  0.00     0.041 C 
ATOM      5  O   UNL     1      -2.047 -34.157  22.971  1.00  0.00    -0.550 OA
ATOM      6  O   UNL     1      -3.232 -35.951  22.180  1.00  0.00    -0.550 OA
ENDBRANCH   3   4
ENDBRANCH   2   3
ENDBRANCH   1   2
BRANCH   1   7
ATOM      7  C   UNL     1       1.554 -36.118  20.307  1.00  0.00     0.000 C 
BRANCH   7   8
ATOM      8  C   UNL     1       2.977 -36.067  20.885  1.00  0.00    -0.000 C 
BRANCH   8   9
ATOM      9  C   UNL     1       3.029 -35.413  22.277  1.00  0.00    -0.000 C 
BRANCH   9  10
ATOM     10  C   UNL     1       4.292 -35.800  23.061  1.00  0.00    -0.003 C 
ATOM     11  C   UNL     1       5.439 -36.240  22.152  1.00  0.00     0.004 C 
ENDBRANCH   9  10
ENDBRANCH   8   9
ENDBRANCH   7   8
ENDBRANCH   1   7
TORSDOF 7
ENDMDL
