MODEL 1
REMARK VINA RESULT:    -7.902      0.000      0.000
REMARK INTER + INTRA:          -8.615
REMARK INTER:                  -8.364
REMARK INTRA:                  -0.251
REMARK UNBOUND:                -0.251
REMARK SMILES O=c1cc(-c2ccccc2)oc2ccccc12
REMARK SMILES IDX 4 1 3 2 2 3 1 4 17 5 16 6 15 7 14 8 13 9 12 10 11 11 5 12
REMARK SMILES IDX 8 13 7 14 9 15 6 16 10 17
REMARK H PARENT
REMARK Flexibility Score: inf
ROOT
ATOM      1  C   UNL     1      17.762  25.726   0.366  1.00  0.00     0.138 A 
ATOM      2  C   UNL     1      18.704  25.823  -0.680  1.00  0.00     0.100 A 
ATOM      3  C   UNL     1      19.451  26.993  -0.828  1.00  0.00     0.193 A 
ATOM      4  O   UNL     1      20.293  27.080  -1.764  1.00  0.00    -0.289 OA
ATOM      5  C   UNL     1      19.254  28.056   0.065  1.00  0.00     0.065 A 
ATOM      6  C   UNL     1      19.972  29.263  -0.029  1.00  0.00     0.016 A 
ATOM      7  C   UNL     1      19.736  30.291   0.889  1.00  0.00     0.001 A 
ATOM      8  C   UNL     1      18.786  30.126   1.901  1.00  0.00     0.004 A 
ATOM      9  C   UNL     1      18.067  28.931   2.001  1.00  0.00     0.048 A 
ATOM     10  C   UNL     1      18.296  27.895   1.088  1.00  0.00     0.138 A 
ATOM     11  O   UNL     1      17.608  26.762   1.192  1.00  0.00    -0.456 OA
ENDROOT
BRANCH   1  12
ATOM     12  C   UNL     1      16.923  24.511   0.596  1.00  0.00     0.017 A 
ATOM     13  C   UNL     1      15.263  22.273   1.052  1.00  0.00     0.000 A 
ATOM     14  C   UNL     1      16.585  22.091   0.651  1.00  0.00     0.001 A 
ATOM     15  C   UNL     1      14.762  23.562   1.227  1.00  0.00     0.001 A 
ATOM     16  C   UNL     1      17.413  23.196   0.423  1.00  0.00     0.012 A 
ATOM     17  C   UNL     1      15.582  24.672   1.002  1.00  0.00     0.012 A 
ENDBRANCH   1  12
TORSDOF 1
ENDMDL
MODEL 2
REMARK VINA RESULT:    -7.616      2.088      6.297
REMARK INTER + INTRA:          -8.312
REMARK INTER:                  -8.071
REMARK INTRA:                  -0.241
REMARK UNBOUND:                -0.251
REMARK SMILES O=c1cc(-c2ccccc2)oc2ccccc12
REMARK SMILES IDX 4 1 3 2 2 3 1 4 17 5 16 6 15 7 14 8 13 9 12 10 11 11 5 12
REMARK SMILES IDX 8 13 7 14 9 15 6 16 10 17
REMARK H PARENT
REMARK Flexibility Score: inf
ROOT
ATOM      1  C   UNL     1      16.111  27.093   0.263  1.00  0.00     0.138 A 
ATOM      2  C   UNL     1      15.437  27.060  -0.977  1.00  0.00     0.100 A 
ATOM      3  C   UNL     1      14.762  25.901  -1.362  1.00  0.00     0.193 A 
ATOM      4  O   UNL     1      14.160  25.871  -2.470  1.00  0.00    -0.289 OA
ATOM      5  C   UNL     1      14.763  24.786  -0.513  1.00  0.00     0.065 A 
ATOM      6  C   UNL     1      14.103  23.587  -0.841  1.00  0.00     0.016 A 
ATOM      7  C   UNL     1      14.136  22.505   0.044  1.00  0.00     0.001 A 
ATOM      8  C   UNL     1      14.824  22.608   1.255  1.00  0.00     0.004 A 
ATOM      9  C   UNL     1      15.483  23.795   1.590  1.00  0.00     0.048 A 
ATOM     10  C   UNL     1      15.456  24.884   0.712  1.00  0.00     0.138 A 
ATOM     11  O   UNL     1      16.086  26.009   1.039  1.00  0.00    -0.456 OA
ENDROOT
BRANCH   1  12
ATOM     12  C   UNL     1      16.857  28.293   0.752  1.00  0.00     0.017 A 
ATOM     13  C   UNL     1      18.344  30.501   1.691  1.00  0.00     0.000 A 
ATOM     14  C   UNL     1      17.031  30.677   1.259  1.00  0.00     0.001 A 
ATOM     15  C   UNL     1      18.923  29.233   1.658  1.00  0.00     0.001 A 
ATOM     16  C   UNL     1      16.289  29.586   0.792  1.00  0.00     0.012 A 
ATOM     17  C   UNL     1      18.188  28.138   1.193  1.00  0.00     0.012 A 
ENDBRANCH   1  12
TORSDOF 1
ENDMDL
MODEL 3
REMARK VINA RESULT:    -7.383      1.682      6.037
REMARK INTER + INTRA:          -8.065
REMARK INTER:                  -7.802
REMARK INTRA:                  -0.264
REMARK UNBOUND:                -0.251
REMARK SMILES O=c1cc(-c2ccccc2)oc2ccccc12
REMARK SMILES IDX 4 1 3 2 2 3 1 4 17 5 16 6 15 7 14 8 13 9 12 10 11 11 5 12
REMARK SMILES IDX 8 13 7 14 9 15 6 16 10 17
REMARK H PARENT
REMARK Flexibility Score: inf
ROOT
ATOM      1  C   UNL     1      17.201  26.816   1.002  1.00  0.00     0.138 A 
ATOM      2  C   UNL     1      18.268  25.893   1.003  1.00  0.00     0.100 A 
ATOM      3  C   UNL     1      18.002  24.533   0.839  1.00  0.00     0.193 A 
ATOM      4  O   UNL     1      18.956  23.707   0.840  1.00  0.00    -0.289 OA
ATOM      5  C   UNL     1      16.678  24.103   0.676  1.00  0.00     0.065 A 
ATOM      6  C   UNL     1      16.340  22.747   0.506  1.00  0.00     0.016 A 
ATOM      7  C   UNL     1      15.003  22.373   0.348  1.00  0.00     0.001 A 
ATOM      8  C   UNL     1      13.996  23.342   0.357  1.00  0.00     0.004 A 
ATOM      9  C   UNL     1      14.321  24.692   0.525  1.00  0.00     0.048 A 
ATOM     10  C   UNL     1      15.657  25.077   0.684  1.00  0.00     0.138 A 
ATOM     11  O   UNL     1      15.957  26.362   0.843  1.00  0.00    -0.456 OA
ENDROOT
BRANCH   1  12
ATOM     12  C   UNL     1      17.398  28.289   1.170  1.00  0.00     0.017 A 
ATOM     13  C   UNL     1      17.861  31.052   1.516  1.00  0.00     0.000 A 
ATOM     14  C   UNL     1      16.620  30.603   1.067  1.00  0.00     0.001 A 
ATOM     15  C   UNL     1      18.873  30.134   1.793  1.00  0.00     0.001 A 
ATOM     16  C   UNL     1      16.385  29.235   0.893  1.00  0.00     0.012 A 
ATOM     17  C   UNL     1      18.646  28.765   1.623  1.00  0.00     0.012 A 
ENDBRANCH   1  12
TORSDOF 1
ENDMDL
MODEL 4
REMARK VINA RESULT:    -6.944      1.526      2.772
REMARK INTER + INTRA:          -7.601
REMARK INTER:                  -7.351
REMARK INTRA:                  -0.249
REMARK UNBOUND:                -0.251
REMARK SMILES O=c1cc(-c2ccccc2)oc2ccccc12
REMARK SMILES IDX 4 1 3 2 2 3 1 4 17 5 16 6 15 7 14 8 13 9 12 10 11 11 5 12
REMARK SMILES IDX 8 13 7 14 9 15 6 16 10 17
REMARK H PARENT
REMARK Flexibility Score: inf
ROOT
ATOM      1  C   UNL     1      16.170  25.584   0.527  1.00  0.00     0.138 A 
ATOM      2  C   UNL     1      15.374  26.699   0.866  1.00  0.00     0.100 A 
ATOM      3  C   UNL     1      15.960  27.963   0.950  1.00  0.00     0.193 A 
ATOM      4  O   UNL     1      15.248  28.959   1.253  1.00  0.00    -0.289 OA
ATOM      5  C   UNL     1      17.331  28.107   0.698  1.00  0.00     0.065 A 
ATOM      6  C   UNL     1      17.984  29.352   0.767  1.00  0.00     0.016 A 
ATOM      7  C   UNL     1      19.355  29.439   0.505  1.00  0.00     0.001 A 
ATOM      8  C   UNL     1      20.082  28.292   0.176  1.00  0.00     0.004 A 
ATOM      9  C   UNL     1      19.442  27.051   0.106  1.00  0.00     0.048 A 
ATOM     10  C   UNL     1      18.071  26.952   0.365  1.00  0.00     0.138 A 
ATOM     11  O   UNL     1      17.471  25.768   0.295  1.00  0.00    -0.456 OA
ENDROOT
BRANCH   1  12
ATOM     12  C   UNL     1      15.624  24.197   0.414  1.00  0.00     0.017 A 
ATOM     13  C   UNL     1      14.672  21.545   0.245  1.00  0.00     0.000 A 
ATOM     14  C   UNL     1      13.898  22.597  -0.244  1.00  0.00     0.001 A 
ATOM     15  C   UNL     1      15.916  21.805   0.817  1.00  0.00     0.001 A 
ATOM     16  C   UNL     1      14.364  23.913  -0.163  1.00  0.00     0.012 A 
ATOM     17  C   UNL     1      16.389  23.118   0.902  1.00  0.00     0.012 A 
ENDBRANCH   1  12
TORSDOF 1
ENDMDL
MODEL 5
REMARK VINA RESULT:    -6.938      3.105      5.195
REMARK INTER + INTRA:          -7.594
REMARK INTER:                  -7.362
REMARK INTRA:                  -0.232
REMARK UNBOUND:                -0.251
REMARK SMILES O=c1cc(-c2ccccc2)oc2ccccc12
REMARK SMILES IDX 4 1 3 2 2 3 1 4 17 5 16 6 15 7 14 8 13 9 12 10 11 11 5 12
REMARK SMILES IDX 8 13 7 14 9 15 6 16 10 17
REMARK H PARENT
REMARK Flexibility Score: inf
ROOT
ATOM      1  C   UNL     1      17.968  26.167  -2.114  1.00  0.00     0.138 A 
ATOM      2  C   UNL     1      18.493  25.000  -1.519  1.00  0.00     0.100 A 
ATOM      3  C   UNL     1      18.296  24.774  -0.156  1.00  0.00     0.193 A 
ATOM      4  O   UNL     1      18.766  23.731   0.376  1.00  0.00    -0.289 OA
ATOM      5  C   UNL     1      17.580  25.710   0.603  1.00  0.00     0.065 A 
ATOM      6  C   UNL     1      17.346  25.544   1.981  1.00  0.00     0.016 A 
ATOM      7  C   UNL     1      16.625  26.509   2.691  1.00  0.00     0.001 A 
ATOM      8  C   UNL     1      16.135  27.642   2.036  1.00  0.00     0.004 A 
ATOM      9  C   UNL     1      16.363  27.816   0.667  1.00  0.00     0.048 A 
ATOM     10  C   UNL     1      17.082  26.856  -0.052  1.00  0.00     0.138 A 
ATOM     11  O   UNL     1      17.293  27.031  -1.353  1.00  0.00    -0.456 OA
ENDROOT
BRANCH   1  12
ATOM     12  C   UNL     1      18.132  26.486  -3.565  1.00  0.00     0.017 A 
ATOM     13  C   UNL     1      18.539  27.087  -6.294  1.00  0.00     0.000 A 
ATOM     14  C   UNL     1      17.245  26.937  -5.797  1.00  0.00     0.001 A 
ATOM     15  C   UNL     1      19.632  26.939  -5.441  1.00  0.00     0.001 A 
ATOM     16  C   UNL     1      17.037  26.639  -4.446  1.00  0.00     0.012 A 
ATOM     17  C   UNL     1      19.433  26.641  -4.089  1.00  0.00     0.012 A 
ENDBRANCH   1  12
TORSDOF 1
ENDMDL
MODEL 6
REMARK VINA RESULT:    -6.935      3.078      5.096
REMARK INTER + INTRA:          -7.591
REMARK INTER:                  -7.359
REMARK INTRA:                  -0.231
REMARK UNBOUND:                -0.251
REMARK SMILES O=c1cc(-c2ccccc2)oc2ccccc12
REMARK SMILES IDX 4 1 3 2 2 3 1 4 17 5 16 6 15 7 14 8 13 9 12 10 11 11 5 12
REMARK SMILES IDX 8 13 7 14 9 15 6 16 10 17
REMARK H PARENT
REMARK Flexibility Score: inf
ROOT
ATOM      1  C   UNL     1      18.015  26.156  -2.073  1.00  0.00     0.138 A 
ATOM      2  C   UNL     1      18.481  24.954  -1.499  1.00  0.00     0.100 A 
ATOM      3  C   UNL     1      18.262  24.708  -0.143  1.00  0.00     0.193 A 
ATOM      4  O   UNL     1      18.679  23.634   0.371  1.00  0.00    -0.289 OA
ATOM      5  C   UNL     1      17.581  25.659   0.630  1.00  0.00     0.065 A 
ATOM      6  C   UNL     1      17.327  25.475   2.002  1.00  0.00     0.016 A 
ATOM      7  C   UNL     1      16.644  26.456   2.726  1.00  0.00     0.001 A 
ATOM      8  C   UNL     1      16.210  27.624   2.092  1.00  0.00     0.004 A 
ATOM      9  C   UNL     1      16.459  27.816   0.729  1.00  0.00     0.048 A 
ATOM     10  C   UNL     1      17.141  26.840  -0.005  1.00  0.00     0.138 A 
ATOM     11  O   UNL     1      17.372  27.032  -1.300  1.00  0.00    -0.456 OA
ENDROOT
BRANCH   1  12
ATOM     12  C   UNL     1      18.207  26.497  -3.516  1.00  0.00     0.017 A 
ATOM     13  C   UNL     1      18.473  27.142  -6.251  1.00  0.00     0.000 A 
ATOM     14  C   UNL     1      19.607  27.001  -5.454  1.00  0.00     0.001 A 
ATOM     15  C   UNL     1      17.206  26.964  -5.696  1.00  0.00     0.001 A 
ATOM     16  C   UNL     1      19.482  26.682  -4.097  1.00  0.00     0.012 A 
ATOM     17  C   UNL     1      17.073  26.645  -4.341  1.00  0.00     0.012 A 
ENDBRANCH   1  12
TORSDOF 1
ENDMDL
MODEL 7
REMARK VINA RESULT:    -6.843      1.303      6.192
REMARK INTER + INTRA:          -7.493
REMARK INTER:                  -7.256
REMARK INTRA:                  -0.237
REMARK UNBOUND:                -0.251
REMARK SMILES O=c1cc(-c2ccccc2)oc2ccccc12
REMARK SMILES IDX 4 1 3 2 2 3 1 4 17 5 16 6 15 7 14 8 13 9 12 10 11 11 5 12
REMARK SMILES IDX 8 13 7 14 9 15 6 16 10 17
REMARK H PARENT
REMARK Flexibility Score: inf
ROOT
ATOM      1  C   UNL     1      17.289  26.483   0.588  1.00  0.00     0.138 A 
ATOM      2  C   UNL     1      15.882  26.584   0.536  1.00  0.00     0.100 A 
ATOM      3  C   UNL     1      15.110  25.423   0.493  1.00  0.00     0.193 A 
ATOM      4  O   UNL     1      13.852  25.513   0.446  1.00  0.00    -0.289 OA
ATOM      5  C   UNL     1      15.743  24.172   0.500  1.00  0.00     0.065 A 
ATOM      6  C   UNL     1      15.023  22.962   0.457  1.00  0.00     0.016 A 
ATOM      7  C   UNL     1      15.705  21.742   0.467  1.00  0.00     0.001 A 
ATOM      8  C   UNL     1      17.101  21.717   0.518  1.00  0.00     0.004 A 
ATOM      9  C   UNL     1      17.824  22.913   0.561  1.00  0.00     0.048 A 
ATOM     10  C   UNL     1      17.152  24.140   0.552  1.00  0.00     0.138 A 
ATOM     11  O   UNL     1      17.848  25.272   0.593  1.00  0.00    -0.456 OA
ENDROOT
BRANCH   1  12
ATOM     12  C   UNL     1      18.190  27.675   0.637  1.00  0.00     0.017 A 
ATOM     13  C   UNL     1      19.843  29.957   0.810  1.00  0.00     0.000 A 
ATOM     14  C   UNL     1      20.049  29.021  -0.203  1.00  0.00     0.001 A 
ATOM     15  C   UNL     1      18.820  29.764   1.737  1.00  0.00     0.001 A 
ATOM     16  C   UNL     1      19.233  27.888  -0.293  1.00  0.00     0.012 A 
ATOM     17  C   UNL     1      18.000  28.634   1.654  1.00  0.00     0.012 A 
ENDBRANCH   1  12
TORSDOF 1
ENDMDL
MODEL 8
REMARK VINA RESULT:    -6.711      3.671      5.300
REMARK INTER + INTRA:          -7.354
REMARK INTER:                  -7.127
REMARK INTRA:                  -0.226
REMARK UNBOUND:                -0.251
REMARK SMILES O=c1cc(-c2ccccc2)oc2ccccc12
REMARK SMILES IDX 4 1 3 2 2 3 1 4 17 5 16 6 15 7 14 8 13 9 12 10 11 11 5 12
REMARK SMILES IDX 8 13 7 14 9 15 6 16 10 17
REMARK H PARENT
REMARK Flexibility Score: inf
ROOT
ATOM      1  C   UNL     1      16.433  26.995  -2.243  1.00  0.00     0.138 A 
ATOM      2  C   UNL     1      16.151  28.269  -1.706  1.00  0.00     0.100 A 
ATOM      3  C   UNL     1      16.202  28.461  -0.324  1.00  0.00     0.193 A 
ATOM      4  O   UNL     1      15.949  29.600   0.156  1.00  0.00    -0.289 OA
ATOM      5  C   UNL     1      16.531  27.384   0.510  1.00  0.00     0.065 A 
ATOM      6  C   UNL     1      16.599  27.509   1.911  1.00  0.00     0.016 A 
ATOM      7  C   UNL     1      16.933  26.402   2.697  1.00  0.00     0.001 A 
ATOM      8  C   UNL     1      17.200  25.168   2.097  1.00  0.00     0.004 A 
ATOM      9  C   UNL     1      17.134  25.035   0.706  1.00  0.00     0.048 A 
ATOM     10  C   UNL     1      16.802  26.136  -0.090  1.00  0.00     0.138 A 
ATOM     11  O   UNL     1      16.742  25.999  -1.411  1.00  0.00    -0.456 OA
ENDROOT
BRANCH   1  12
ATOM     12  C   UNL     1      16.403  26.704  -3.709  1.00  0.00     0.017 A 
ATOM     13  C   UNL     1      16.442  26.148  -6.476  1.00  0.00     0.000 A 
ATOM     14  C   UNL     1      15.227  26.350  -5.822  1.00  0.00     0.001 A 
ATOM     15  C   UNL     1      17.637  26.222  -5.762  1.00  0.00     0.001 A 
ATOM     16  C   UNL     1      15.201  26.625  -4.450  1.00  0.00     0.012 A 
ATOM     17  C   UNL     1      17.619  26.497  -4.391  1.00  0.00     0.012 A 
ENDBRANCH   1  12
TORSDOF 1
ENDMDL
MODEL 9
REMARK VINA RESULT:    -6.624      3.926      5.400
REMARK INTER + INTRA:          -7.262
REMARK INTER:                  -7.026
REMARK INTRA:                  -0.236
REMARK UNBOUND:                -0.251
REMARK SMILES O=c1cc(-c2ccccc2)oc2ccccc12
REMARK SMILES IDX 4 1 3 2 2 3 1 4 17 5 16 6 15 7 14 8 13 9 12 10 11 11 5 12
REMARK SMILES IDX 8 13 7 14 9 15 6 16 10 17
REMARK H PARENT
REMARK Flexibility Score: inf
ROOT
ATOM      1  C   UNL     1      17.086  26.617  -1.936  1.00  0.00     0.138 A 
ATOM      2  C   UNL     1      18.335  26.601  -2.593  1.00  0.00     0.100 A 
ATOM      3  C   UNL     1      18.379  26.621  -3.987  1.00  0.00     0.193 A 
ATOM      4  O   UNL     1      19.496  26.607  -4.575  1.00  0.00    -0.289 OA
ATOM      5  C   UNL     1      17.182  26.658  -4.716  1.00  0.00     0.065 A 
ATOM      6  C   UNL     1      17.156  26.679  -6.123  1.00  0.00     0.016 A 
ATOM      7  C   UNL     1      15.933  26.715  -6.800  1.00  0.00     0.001 A 
ATOM      8  C   UNL     1      14.733  26.729  -6.084  1.00  0.00     0.004 A 
ATOM      9  C   UNL     1      14.749  26.707  -4.686  1.00  0.00     0.048 A 
ATOM     10  C   UNL     1      15.968  26.672  -3.998  1.00  0.00     0.138 A 
ATOM     11  O   UNL     1      15.973  26.651  -2.669  1.00  0.00    -0.456 OA
ENDROOT
BRANCH   1  12
ATOM     12  C   UNL     1      16.949  26.598  -0.447  1.00  0.00     0.017 A 
ATOM     13  C   UNL     1      16.744  26.480   2.366  1.00  0.00     0.000 A 
ATOM     14  C   UNL     1      16.141  27.523   1.665  1.00  0.00     0.001 A 
ATOM     15  C   UNL     1      17.448  25.495   1.675  1.00  0.00     0.001 A 
ATOM     16  C   UNL     1      16.239  27.587   0.271  1.00  0.00     0.012 A 
ATOM     17  C   UNL     1      17.551  25.551   0.282  1.00  0.00     0.012 A 
ENDBRANCH   1  12
TORSDOF 1
ENDMDL
