MODEL 1
REMARK VINA RESULT:    -6.644      0.000      0.000
REMARK INTER + INTRA:          -8.374
REMARK INTER:                  -8.003
REMARK INTRA:                  -0.371
REMARK UNBOUND:                -0.371
REMARK SMILES Oc1cc(O)c2c(c1)O[C@@H](c1ccc(O)c(O)c1)[C@H](O)C2
REMARK SMILES IDX 21 1 19 2 10 3 9 4 7 5 8 6 2 7 3 8 4 9 6 10 20 11 11 13
REMARK SMILES IDX 18 14 12 15 16 16 13 17 14 18 17 19 15 21 5 23 1 25
REMARK H PARENT 20 12 17 20 15 22 5 24 1 26
REMARK Flexibility Score: inf
ROOT
ATOM      1  C   UNL     1      19.208   7.646  30.385  1.00  0.00     0.079 C 
ATOM      2  C   UNL     1      19.995   6.981  31.530  1.00  0.00     0.164 C 
ATOM      3  C   UNL     1      20.982   5.941  30.967  1.00  0.00     0.232 C 
ATOM      4  O   UNL     1      21.848   6.563  30.019  1.00  0.00    -0.482 OA
ATOM      5  C   UNL     1      21.398   7.542  29.124  1.00  0.00     0.131 A 
ATOM      6  C   UNL     1      22.252   7.968  28.103  1.00  0.00     0.093 A 
ATOM      7  C   UNL     1      21.826   8.933  27.185  1.00  0.00     0.122 A 
ATOM      8  C   UNL     1      20.539   9.465  27.283  1.00  0.00     0.092 A 
ATOM      9  C   UNL     1      19.668   9.049  28.298  1.00  0.00     0.126 A 
ATOM     10  C   UNL     1      20.110   8.105  29.258  1.00  0.00     0.039 A 
ENDROOT
BRANCH   2  11
ATOM     11  O   UNL     1      19.116   6.404  32.464  1.00  0.00    -0.389 OA
ATOM     12  H   UNL     1      19.127   6.972  33.279  1.00  0.00     0.211 HD
ENDBRANCH   2  11
BRANCH   3  13
ATOM     13  C   UNL     1      21.801   5.313  32.069  1.00  0.00    -0.001 A 
ATOM     14  C   UNL     1      21.673   3.944  32.364  1.00  0.00     0.057 A 
ATOM     15  C   UNL     1      22.739   6.080  32.779  1.00  0.00     0.012 A 
ATOM     16  C   UNL     1      22.455   3.355  33.368  1.00  0.00     0.157 A 
ATOM     17  C   UNL     1      23.518   5.495  33.780  1.00  0.00     0.050 A 
ATOM     18  C   UNL     1      23.380   4.136  34.081  1.00  0.00     0.157 A 
BRANCH  16  19
ATOM     19  O   UNL     1      22.316   1.998  33.658  1.00  0.00    -0.504 OA
ATOM     20  H   UNL     1      22.766   1.287  33.094  1.00  0.00     0.293 HD
ENDBRANCH  16  19
BRANCH  18  21
ATOM     21  O   UNL     1      24.171   3.580  35.084  1.00  0.00    -0.504 OA
ATOM     22  H   UNL     1      24.265   2.579  35.204  1.00  0.00     0.293 HD
ENDBRANCH  18  21
ENDBRANCH   3  13
BRANCH   9  23
ATOM     23  O   UNL     1      18.379   9.584  28.317  1.00  0.00    -0.507 OA
ATOM     24  H   UNL     1      18.124  10.437  27.839  1.00  0.00     0.293 HD
ENDBRANCH   9  23
BRANCH   7  25
ATOM     25  O   UNL     1      22.672   9.365  26.166  1.00  0.00    -0.508 OA
ATOM     26  H   UNL     1      22.324   9.561  25.235  1.00  0.00     0.293 HD
ENDBRANCH   7  25
TORSDOF 6
ENDMDL
MODEL 2
REMARK VINA RESULT:    -6.271     11.346     13.282
REMARK INTER + INTRA:          -7.926
REMARK INTER:                  -7.572
REMARK INTRA:                  -0.354
REMARK UNBOUND:                -0.371
REMARK SMILES Oc1cc(O)c2c(c1)O[C@@H](c1ccc(O)c(O)c1)[C@H](O)C2
REMARK SMILES IDX 21 1 19 2 10 3 9 4 7 5 8 6 2 7 3 8 4 9 6 10 20 11 11 13
REMARK SMILES IDX 18 14 12 15 16 16 13 17 14 18 17 19 15 21 5 23 1 25
REMARK H PARENT 20 12 17 20 15 22 5 24 1 26
REMARK Flexibility Score: inf
ROOT
ATOM      1  C   UNL     1      26.855  -0.289  20.136  1.00  0.00     0.079 C 
ATOM      2  C   UNL     1      26.819   1.055  20.889  1.00  0.00     0.164 C 
ATOM      3  C   UNL     1      26.916   0.819  22.409  1.00  0.00     0.232 C 
ATOM      4  O   UNL     1      28.098   0.076  22.706  1.00  0.00    -0.482 OA
ATOM      5  C   UNL     1      28.555  -0.962  21.885  1.00  0.00     0.131 A 
ATOM      6  C   UNL     1      29.605  -1.767  22.334  1.00  0.00     0.093 A 
ATOM      7  C   UNL     1      30.074  -2.821  21.543  1.00  0.00     0.122 A 
ATOM      8  C   UNL     1      29.482  -3.076  20.305  1.00  0.00     0.092 A 
ATOM      9  C   UNL     1      28.427  -2.283  19.839  1.00  0.00     0.126 A 
ATOM     10  C   UNL     1      27.978  -1.186  20.615  1.00  0.00     0.039 A 
ENDROOT
BRANCH   2  11
ATOM     11  O   UNL     1      25.660   1.778  20.554  1.00  0.00    -0.389 OA
ATOM     12  H   UNL     1      25.051   1.752  21.339  1.00  0.00     0.211 HD
ENDBRANCH   2  11
BRANCH   3  13
ATOM     13  C   UNL     1      26.934   2.126  23.164  1.00  0.00    -0.001 A 
ATOM     14  C   UNL     1      25.820   2.531  23.921  1.00  0.00     0.057 A 
ATOM     15  C   UNL     1      28.085   2.930  23.160  1.00  0.00     0.012 A 
ATOM     16  C   UNL     1      25.848   3.731  24.646  1.00  0.00     0.157 A 
ATOM     17  C   UNL     1      28.114   4.127  23.880  1.00  0.00     0.050 A 
ATOM     18  C   UNL     1      27.001   4.533  24.622  1.00  0.00     0.157 A 
BRANCH  16  19
ATOM     19  O   UNL     1      24.736   4.126  25.389  1.00  0.00    -0.504 OA
ATOM     20  H   UNL     1      24.819   4.776  26.162  1.00  0.00     0.293 HD
ENDBRANCH  16  19
BRANCH  18  21
ATOM     21  O   UNL     1      27.060   5.732  25.332  1.00  0.00    -0.504 OA
ATOM     22  H   UNL     1      27.771   6.430  25.151  1.00  0.00     0.293 HD
ENDBRANCH  18  21
ENDBRANCH   3  13
BRANCH   9  23
ATOM     23  O   UNL     1      27.846  -2.616  18.613  1.00  0.00    -0.507 OA
ATOM     24  H   UNL     1      28.349  -2.594  17.736  1.00  0.00     0.293 HD
ENDBRANCH   9  23
BRANCH   7  25
ATOM     25  O   UNL     1      31.123  -3.626  21.983  1.00  0.00    -0.508 OA
ATOM     26  H   UNL     1      32.004  -3.668  21.484  1.00  0.00     0.293 HD
ENDBRANCH   7  25
TORSDOF 6
ENDMDL
MODEL 3
REMARK VINA RESULT:    -6.269     10.906     13.025
REMARK INTER + INTRA:          -7.923
REMARK INTER:                  -7.593
REMARK INTRA:                  -0.330
REMARK UNBOUND:                -0.371
REMARK SMILES Oc1cc(O)c2c(c1)O[C@@H](c1ccc(O)c(O)c1)[C@H](O)C2
REMARK SMILES IDX 21 1 19 2 10 3 9 4 7 5 8 6 2 7 3 8 4 9 6 10 20 11 11 13
REMARK SMILES IDX 18 14 12 15 16 16 13 17 14 18 17 19 15 21 5 23 1 25
REMARK H PARENT 20 12 17 20 15 22 5 24 1 26
REMARK Flexibility Score: inf
ROOT
ATOM      1  C   UNL     1      28.009  -0.176  20.880  1.00  0.00     0.079 C 
ATOM      2  C   UNL     1      27.775   1.215  21.499  1.00  0.00     0.164 C 
ATOM      3  C   UNL     1      27.260   1.077  22.945  1.00  0.00     0.232 C 
ATOM      4  O   UNL     1      28.182   0.302  23.711  1.00  0.00    -0.482 OA
ATOM      5  C   UNL     1      28.849  -0.808  23.180  1.00  0.00     0.131 A 
ATOM      6  C   UNL     1      29.587  -1.627  24.038  1.00  0.00     0.093 A 
ATOM      7  C   UNL     1      30.253  -2.752  23.541  1.00  0.00     0.122 A 
ATOM      8  C   UNL     1      30.171  -3.062  22.182  1.00  0.00     0.092 A 
ATOM      9  C   UNL     1      29.434  -2.254  21.307  1.00  0.00     0.126 A 
ATOM     10  C   UNL     1      28.795  -1.089  21.797  1.00  0.00     0.039 A 
ENDROOT
BRANCH   2  11
ATOM     11  O   UNL     1      26.888   1.966  20.707  1.00  0.00    -0.389 OA
ATOM     12  H   UNL     1      27.311   2.849  20.537  1.00  0.00     0.211 HD
ENDBRANCH   2  11
BRANCH   3  13
ATOM     13  C   UNL     1      27.073   2.429  23.590  1.00  0.00    -0.001 A 
ATOM     14  C   UNL     1      25.882   2.739  24.270  1.00  0.00     0.057 A 
ATOM     15  C   UNL     1      28.108   3.377  23.559  1.00  0.00     0.012 A 
ATOM     16  C   UNL     1      25.719   3.984  24.893  1.00  0.00     0.157 A 
ATOM     17  C   UNL     1      27.947   4.619  24.179  1.00  0.00     0.050 A 
ATOM     18  C   UNL     1      26.758   4.929  24.844  1.00  0.00     0.157 A 
BRANCH  16  19
ATOM     19  O   UNL     1      24.532   4.284  25.561  1.00  0.00    -0.504 OA
ATOM     20  H   UNL     1      24.290   5.236  25.810  1.00  0.00     0.293 HD
ENDBRANCH  16  19
BRANCH  18  21
ATOM     21  O   UNL     1      26.627   6.176  25.454  1.00  0.00    -0.504 OA
ATOM     22  H   UNL     1      27.393   6.617  25.949  1.00  0.00     0.293 HD
ENDBRANCH  18  21
ENDBRANCH   3  13
BRANCH   9  23
ATOM     23  O   UNL     1      29.352  -2.642  19.968  1.00  0.00    -0.507 OA
ATOM     24  H   UNL     1      29.959  -2.277  19.245  1.00  0.00     0.293 HD
ENDBRANCH   9  23
BRANCH   7  25
ATOM     25  O   UNL     1      30.993  -3.572  24.389  1.00  0.00    -0.508 OA
ATOM     26  H   UNL     1      31.225  -4.525  24.136  1.00  0.00     0.293 HD
ENDBRANCH   7  25
TORSDOF 6
ENDMDL
MODEL 4
REMARK VINA RESULT:    -6.159      1.317      7.187
REMARK INTER + INTRA:          -7.791
REMARK INTER:                  -7.419
REMARK INTRA:                  -0.372
REMARK UNBOUND:                -0.371
REMARK SMILES Oc1cc(O)c2c(c1)O[C@@H](c1ccc(O)c(O)c1)[C@H](O)C2
REMARK SMILES IDX 21 1 19 2 10 3 9 4 7 5 8 6 2 7 3 8 4 9 6 10 20 11 11 13
REMARK SMILES IDX 18 14 12 15 16 16 13 17 14 18 17 19 15 21 5 23 1 25
REMARK H PARENT 20 12 17 20 15 22 5 24 1 26
REMARK Flexibility Score: inf
ROOT
ATOM      1  C   UNL     1      23.676   6.972  32.833  1.00  0.00     0.079 C 
ATOM      2  C   UNL     1      22.777   7.698  31.814  1.00  0.00     0.164 C 
ATOM      3  C   UNL     1      22.630   6.854  30.534  1.00  0.00     0.232 C 
ATOM      4  O   UNL     1      22.123   5.562  30.865  1.00  0.00    -0.482 OA
ATOM      5  C   UNL     1      22.517   4.876  32.020  1.00  0.00     0.131 A 
ATOM      6  C   UNL     1      22.127   3.544  32.182  1.00  0.00     0.093 A 
ATOM      7  C   UNL     1      22.517   2.828  33.318  1.00  0.00     0.122 A 
ATOM      8  C   UNL     1      23.309   3.444  34.289  1.00  0.00     0.092 A 
ATOM      9  C   UNL     1      23.712   4.777  34.143  1.00  0.00     0.126 A 
ATOM     10  C   UNL     1      23.282   5.521  33.017  1.00  0.00     0.039 A 
ENDROOT
BRANCH   2  11
ATOM     11  O   UNL     1      23.284   8.979  31.531  1.00  0.00    -0.389 OA
ATOM     12  H   UNL     1      23.156   9.146  30.560  1.00  0.00     0.211 HD
ENDBRANCH   2  11
BRANCH   3  13
ATOM     13  C   UNL     1      21.711   7.523  29.540  1.00  0.00    -0.001 A 
ATOM     14  C   UNL     1      22.197   7.954  28.293  1.00  0.00     0.057 A 
ATOM     15  C   UNL     1      20.346   7.677  29.832  1.00  0.00     0.012 A 
ATOM     16  C   UNL     1      21.336   8.549  27.360  1.00  0.00     0.157 A 
ATOM     17  C   UNL     1      19.488   8.271  28.903  1.00  0.00     0.050 A 
ATOM     18  C   UNL     1      19.975   8.710  27.669  1.00  0.00     0.157 A 
BRANCH  16  19
ATOM     19  O   UNL     1      21.829   8.978  26.128  1.00  0.00    -0.504 OA
ATOM     20  H   UNL     1      22.337   9.850  26.035  1.00  0.00     0.293 HD
ENDBRANCH  16  19
BRANCH  18  21
ATOM     21  O   UNL     1      19.095   9.298  26.762  1.00  0.00    -0.504 OA
ATOM     22  H   UNL     1      19.074   9.035  25.784  1.00  0.00     0.293 HD
ENDBRANCH  18  21
ENDBRANCH   3  13
BRANCH   9  23
ATOM     23  O   UNL     1      24.541   5.324  35.125  1.00  0.00    -0.507 OA
ATOM     24  H   UNL     1      25.549   5.347  35.051  1.00  0.00     0.293 HD
ENDBRANCH   9  23
BRANCH   7  25
ATOM     25  O   UNL     1      22.130   1.501  33.488  1.00  0.00    -0.508 OA
ATOM     26  H   UNL     1      22.299   0.803  32.772  1.00  0.00     0.293 HD
ENDBRANCH   7  25
TORSDOF 6
ENDMDL
MODEL 5
REMARK VINA RESULT:    -6.112      1.329      2.762
REMARK INTER + INTRA:          -7.733
REMARK INTER:                  -7.380
REMARK INTRA:                  -0.353
REMARK UNBOUND:                -0.371
REMARK SMILES Oc1cc(O)c2c(c1)O[C@@H](c1ccc(O)c(O)c1)[C@H](O)C2
REMARK SMILES IDX 21 1 19 2 10 3 9 4 7 5 8 6 2 7 3 8 4 9 6 10 20 11 11 13
REMARK SMILES IDX 18 14 12 15 16 16 13 17 14 18 17 19 15 21 5 23 1 25
REMARK H PARENT 20 12 17 20 15 22 5 24 1 26
REMARK Flexibility Score: inf
ROOT
ATOM      1  C   UNL     1      23.547   8.398  29.216  1.00  0.00     0.079 C 
ATOM      2  C   UNL     1      23.648   7.171  30.142  1.00  0.00     0.164 C 
ATOM      3  C   UNL     1      22.592   7.255  31.259  1.00  0.00     0.232 C 
ATOM      4  O   UNL     1      21.292   7.381  30.684  1.00  0.00    -0.482 OA
ATOM      5  C   UNL     1      21.051   8.152  29.541  1.00  0.00     0.131 A 
ATOM      6  C   UNL     1      19.730   8.382  29.146  1.00  0.00     0.093 A 
ATOM      7  C   UNL     1      19.456   9.161  28.018  1.00  0.00     0.122 A 
ATOM      8  C   UNL     1      20.508   9.720  27.288  1.00  0.00     0.092 A 
ATOM      9  C   UNL     1      21.838   9.502  27.669  1.00  0.00     0.126 A 
ATOM     10  C   UNL     1      22.122   8.678  28.785  1.00  0.00     0.039 A 
ENDROOT
BRANCH   2  11
ATOM     11  O   UNL     1      24.947   7.055  30.669  1.00  0.00    -0.389 OA
ATOM     12  H   UNL     1      24.927   7.406  31.598  1.00  0.00     0.211 HD
ENDBRANCH   2  11
BRANCH   3  13
ATOM     13  C   UNL     1      22.638   6.036  32.149  1.00  0.00    -0.001 A 
ATOM     14  C   UNL     1      22.209   4.785  31.671  1.00  0.00     0.057 A 
ATOM     15  C   UNL     1      23.158   6.129  33.450  1.00  0.00     0.012 A 
ATOM     16  C   UNL     1      22.279   3.648  32.488  1.00  0.00     0.157 A 
ATOM     17  C   UNL     1      23.228   4.996  34.265  1.00  0.00     0.050 A 
ATOM     18  C   UNL     1      22.790   3.756  33.793  1.00  0.00     0.157 A 
BRANCH  16  19
ATOM     19  O   UNL     1      21.846   2.412  32.008  1.00  0.00    -0.504 OA
ATOM     20  H   UNL     1      22.161   1.543  32.421  1.00  0.00     0.293 HD
ENDBRANCH  16  19
BRANCH  18  21
ATOM     21  O   UNL     1      22.872   2.644  34.629  1.00  0.00    -0.504 OA
ATOM     22  H   UNL     1      22.457   2.633  35.553  1.00  0.00     0.293 HD
ENDBRANCH  18  21
ENDBRANCH   3  13
BRANCH   9  23
ATOM     23  O   UNL     1      22.843  10.125  26.927  1.00  0.00    -0.507 OA
ATOM     24  H   UNL     1      22.670  10.625  26.065  1.00  0.00     0.293 HD
ENDBRANCH   9  23
BRANCH   7  25
ATOM     25  O   UNL     1      18.143   9.393  27.616  1.00  0.00    -0.508 OA
ATOM     26  H   UNL     1      17.927   9.988  26.825  1.00  0.00     0.293 HD
ENDBRANCH   7  25
TORSDOF 6
ENDMDL
MODEL 6
REMARK VINA RESULT:    -6.016     10.532     12.611
REMARK INTER + INTRA:          -7.618
REMARK INTER:                  -7.252
REMARK INTRA:                  -0.366
REMARK UNBOUND:                -0.371
REMARK SMILES Oc1cc(O)c2c(c1)O[C@@H](c1ccc(O)c(O)c1)[C@H](O)C2
REMARK SMILES IDX 21 1 19 2 10 3 9 4 7 5 8 6 2 7 3 8 4 9 6 10 20 11 11 13
REMARK SMILES IDX 18 14 12 15 16 16 13 17 14 18 17 19 15 21 5 23 1 25
REMARK H PARENT 20 12 17 20 15 22 5 24 1 26
REMARK Flexibility Score: inf
ROOT
ATOM      1  C   UNL     1      28.642   3.653  22.972  1.00  0.00     0.079 C 
ATOM      2  C   UNL     1      28.611   2.540  21.907  1.00  0.00     0.164 C 
ATOM      3  C   UNL     1      28.249   1.190  22.555  1.00  0.00     0.232 C 
ATOM      4  O   UNL     1      27.003   1.304  23.241  1.00  0.00    -0.482 OA
ATOM      5  C   UNL     1      26.644   2.453  23.956  1.00  0.00     0.131 A 
ATOM      6  C   UNL     1      25.499   2.423  24.754  1.00  0.00     0.093 A 
ATOM      7  C   UNL     1      25.123   3.550  25.493  1.00  0.00     0.122 A 
ATOM      8  C   UNL     1      25.903   4.707  25.438  1.00  0.00     0.092 A 
ATOM      9  C   UNL     1      27.056   4.756  24.645  1.00  0.00     0.126 A 
ATOM     10  C   UNL     1      27.416   3.633  23.861  1.00  0.00     0.039 A 
ENDROOT
BRANCH   2  11
ATOM     11  O   UNL     1      29.841   2.471  21.227  1.00  0.00    -0.389 OA
ATOM     12  H   UNL     1      30.083   1.511  21.139  1.00  0.00     0.211 HD
ENDBRANCH   2  11
BRANCH   3  13
ATOM     13  C   UNL     1      28.162   0.093  21.521  1.00  0.00    -0.001 A 
ATOM     14  C   UNL     1      27.152   0.110  20.543  1.00  0.00     0.057 A 
ATOM     15  C   UNL     1      29.121  -0.932  21.495  1.00  0.00     0.012 A 
ATOM     16  C   UNL     1      27.089  -0.893  19.566  1.00  0.00     0.157 A 
ATOM     17  C   UNL     1      29.059  -1.933  20.522  1.00  0.00     0.050 A 
ATOM     18  C   UNL     1      28.046  -1.921  19.558  1.00  0.00     0.157 A 
BRANCH  16  19
ATOM     19  O   UNL     1      26.080  -0.871  18.603  1.00  0.00    -0.504 OA
ATOM     20  H   UNL     1      26.291  -0.789  17.616  1.00  0.00     0.293 HD
ENDBRANCH  16  19
BRANCH  18  21
ATOM     21  O   UNL     1      28.010  -2.933  18.599  1.00  0.00    -0.504 OA
ATOM     22  H   UNL     1      27.991  -2.733  17.606  1.00  0.00     0.293 HD
ENDBRANCH  18  21
ENDBRANCH   3  13
BRANCH   9  23
ATOM     23  O   UNL     1      27.819   5.925  24.668  1.00  0.00    -0.507 OA
ATOM     24  H   UNL     1      28.286   6.268  25.497  1.00  0.00     0.293 HD
ENDBRANCH   9  23
BRANCH   7  25
ATOM     25  O   UNL     1      23.980   3.528  26.289  1.00  0.00    -0.508 OA
ATOM     26  H   UNL     1      23.893   4.120  27.107  1.00  0.00     0.293 HD
ENDBRANCH   7  25
TORSDOF 6
ENDMDL
MODEL 7
REMARK VINA RESULT:    -5.942      1.559      6.673
REMARK INTER + INTRA:          -7.529
REMARK INTER:                  -7.265
REMARK INTRA:                  -0.263
REMARK UNBOUND:                -0.371
REMARK SMILES Oc1cc(O)c2c(c1)O[C@@H](c1ccc(O)c(O)c1)[C@H](O)C2
REMARK SMILES IDX 21 1 19 2 10 3 9 4 7 5 8 6 2 7 3 8 4 9 6 10 20 11 11 13
REMARK SMILES IDX 18 14 12 15 16 16 13 17 14 18 17 19 15 21 5 23 1 25
REMARK H PARENT 20 12 17 20 15 22 5 24 1 26
REMARK Flexibility Score: inf
ROOT
ATOM      1  C   UNL     1      19.616   6.005  32.483  1.00  0.00     0.079 C 
ATOM      2  C   UNL     1      19.962   6.624  31.115  1.00  0.00     0.164 C 
ATOM      3  C   UNL     1      21.160   7.583  31.250  1.00  0.00     0.232 C 
ATOM      4  O   UNL     1      22.271   6.888  31.815  1.00  0.00    -0.482 OA
ATOM      5  C   UNL     1      22.121   5.935  32.829  1.00  0.00     0.131 A 
ATOM      6  C   UNL     1      23.261   5.435  33.463  1.00  0.00     0.093 A 
ATOM      7  C   UNL     1      23.143   4.494  34.490  1.00  0.00     0.122 A 
ATOM      8  C   UNL     1      21.878   4.059  34.890  1.00  0.00     0.092 A 
ATOM      9  C   UNL     1      20.723   4.549  34.268  1.00  0.00     0.126 A 
ATOM     10  C   UNL     1      20.839   5.469  33.198  1.00  0.00     0.039 A 
ENDROOT
BRANCH   2  11
ATOM     11  O   UNL     1      18.841   7.274  30.568  1.00  0.00    -0.389 OA
ATOM     12  H   UNL     1      18.828   7.083  29.593  1.00  0.00     0.211 HD
ENDBRANCH   2  11
BRANCH   3  13
ATOM     13  C   UNL     1      21.550   8.161  29.910  1.00  0.00    -0.001 A 
ATOM     14  C   UNL     1      22.378   7.440  29.033  1.00  0.00     0.057 A 
ATOM     15  C   UNL     1      21.048   9.409  29.505  1.00  0.00     0.012 A 
ATOM     16  C   UNL     1      22.717   7.965  27.778  1.00  0.00     0.157 A 
ATOM     17  C   UNL     1      21.385   9.934  28.255  1.00  0.00     0.050 A 
ATOM     18  C   UNL     1      22.219   9.220  27.389  1.00  0.00     0.157 A 
BRANCH  16  19
ATOM     19  O   UNL     1      23.544   7.244  26.917  1.00  0.00    -0.504 OA
ATOM     20  H   UNL     1      23.329   7.150  25.931  1.00  0.00     0.293 HD
ENDBRANCH  16  19
BRANCH  18  21
ATOM     21  O   UNL     1      22.537   9.769  26.148  1.00  0.00    -0.504 OA
ATOM     22  H   UNL     1      21.920  10.415  25.671  1.00  0.00     0.293 HD
ENDBRANCH  18  21
ENDBRANCH   3  13
BRANCH   9  23
ATOM     23  O   UNL     1      19.485   4.110  34.743  1.00  0.00    -0.507 OA
ATOM     24  H   UNL     1      19.266   3.137  34.907  1.00  0.00     0.293 HD
ENDBRANCH   9  23
BRANCH   7  25
ATOM     25  O   UNL     1      24.276   3.990  35.125  1.00  0.00    -0.508 OA
ATOM     26  H   UNL     1      24.938   3.398  34.637  1.00  0.00     0.293 HD
ENDBRANCH   7  25
TORSDOF 6
ENDMDL
MODEL 8
REMARK VINA RESULT:    -5.767      1.564      6.778
REMARK INTER + INTRA:          -7.319
REMARK INTER:                  -7.456
REMARK INTRA:                   0.137
REMARK UNBOUND:                -0.371
REMARK SMILES Oc1cc(O)c2c(c1)O[C@@H](c1ccc(O)c(O)c1)[C@H](O)C2
REMARK SMILES IDX 21 1 19 2 10 3 9 4 7 5 8 6 2 7 3 8 4 9 6 10 20 11 11 13
REMARK SMILES IDX 18 14 12 15 16 16 13 17 14 18 17 19 15 21 5 23 1 25
REMARK H PARENT 20 12 17 20 15 22 5 24 1 26
REMARK Flexibility Score: inf
ROOT
ATOM      1  C   UNL     1      21.201   5.691  33.051  1.00  0.00     0.079 C 
ATOM      2  C   UNL     1      20.690   6.159  31.675  1.00  0.00     0.164 C 
ATOM      3  C   UNL     1      21.322   7.514  31.303  1.00  0.00     0.232 C 
ATOM      4  O   UNL     1      22.745   7.406  31.333  1.00  0.00    -0.482 OA
ATOM      5  C   UNL     1      23.418   6.651  32.302  1.00  0.00     0.131 A 
ATOM      6  C   UNL     1      24.809   6.743  32.385  1.00  0.00     0.093 A 
ATOM      7  C   UNL     1      25.509   6.013  33.351  1.00  0.00     0.122 A 
ATOM      8  C   UNL     1      24.811   5.196  34.243  1.00  0.00     0.092 A 
ATOM      9  C   UNL     1      23.416   5.092  34.177  1.00  0.00     0.126 A 
ATOM     10  C   UNL     1      22.707   5.795  33.172  1.00  0.00     0.039 A 
ENDROOT
BRANCH   2  11
ATOM     11  O   UNL     1      19.285   6.226  31.665  1.00  0.00    -0.389 OA
ATOM     12  H   UNL     1      19.018   6.821  30.915  1.00  0.00     0.211 HD
ENDBRANCH   2  11
BRANCH   3  13
ATOM     13  C   UNL     1      20.876   7.968  29.934  1.00  0.00    -0.001 A 
ATOM     14  C   UNL     1      21.800   8.078  28.880  1.00  0.00     0.057 A 
ATOM     15  C   UNL     1      19.521   8.238  29.685  1.00  0.00     0.012 A 
ATOM     16  C   UNL     1      21.381   8.472  27.601  1.00  0.00     0.157 A 
ATOM     17  C   UNL     1      19.101   8.632  28.411  1.00  0.00     0.050 A 
ATOM     18  C   UNL     1      20.024   8.752  27.368  1.00  0.00     0.157 A 
BRANCH  16  19
ATOM     19  O   UNL     1      22.306   8.583  26.564  1.00  0.00    -0.504 OA
ATOM     20  H   UNL     1      22.926   7.819  26.322  1.00  0.00     0.293 HD
ENDBRANCH  16  19
BRANCH  18  21
ATOM     21  O   UNL     1      19.575   9.146  26.108  1.00  0.00    -0.504 OA
ATOM     22  H   UNL     1      20.116   8.981  25.268  1.00  0.00     0.293 HD
ENDBRANCH  18  21
ENDBRANCH   3  13
BRANCH   9  23
ATOM     23  O   UNL     1      22.771   4.295  35.125  1.00  0.00    -0.507 OA
ATOM     24  H   UNL     1      23.174   3.450  35.507  1.00  0.00     0.293 HD
ENDBRANCH   9  23
BRANCH   7  25
ATOM     25  O   UNL     1      26.896   6.098  33.438  1.00  0.00    -0.508 OA
ATOM     26  H   UNL     1      27.494   5.335  33.143  1.00  0.00     0.293 HD
ENDBRANCH   7  25
TORSDOF 6
ENDMDL
MODEL 9
REMARK VINA RESULT:    -5.757     11.342     13.173
REMARK INTER + INTRA:          -7.306
REMARK INTER:                  -7.002
REMARK INTRA:                  -0.304
REMARK UNBOUND:                -0.371
REMARK SMILES Oc1cc(O)c2c(c1)O[C@@H](c1ccc(O)c(O)c1)[C@H](O)C2
REMARK SMILES IDX 21 1 19 2 10 3 9 4 7 5 8 6 2 7 3 8 4 9 6 10 20 11 11 13
REMARK SMILES IDX 18 14 12 15 16 16 13 17 14 18 17 19 15 21 5 23 1 25
REMARK H PARENT 20 12 17 20 15 22 5 24 1 26
REMARK Flexibility Score: inf
ROOT
ATOM      1  C   UNL     1      28.243  -1.041  21.104  1.00  0.00     0.079 C 
ATOM      2  C   UNL     1      27.770  -0.053  22.187  1.00  0.00     0.164 C 
ATOM      3  C   UNL     1      28.045   1.397  21.744  1.00  0.00     0.232 C 
ATOM      4  O   UNL     1      27.415   1.644  20.488  1.00  0.00    -0.482 OA
ATOM      5  C   UNL     1      27.369   0.682  19.472  1.00  0.00     0.131 A 
ATOM      6  C   UNL     1      26.906   1.056  18.207  1.00  0.00     0.093 A 
ATOM      7  C   UNL     1      26.863   0.122  17.167  1.00  0.00     0.122 A 
ATOM      8  C   UNL     1      27.293  -1.188  17.392  1.00  0.00     0.092 A 
ATOM      9  C   UNL     1      27.762  -1.580  18.652  1.00  0.00     0.126 A 
ATOM     10  C   UNL     1      27.766  -0.650  19.720  1.00  0.00     0.039 A 
ENDROOT
BRANCH   2  11
ATOM     11  O   UNL     1      28.382  -0.340  23.420  1.00  0.00    -0.389 OA
ATOM     12  H   UNL     1      27.824   0.065  24.135  1.00  0.00     0.211 HD
ENDBRANCH   2  11
BRANCH   3  13
ATOM     13  C   UNL     1      27.541   2.385  22.769  1.00  0.00    -0.001 A 
ATOM     14  C   UNL     1      26.257   2.247  23.325  1.00  0.00     0.057 A 
ATOM     15  C   UNL     1      28.371   3.427  23.215  1.00  0.00     0.012 A 
ATOM     16  C   UNL     1      25.801   3.149  24.297  1.00  0.00     0.157 A 
ATOM     17  C   UNL     1      27.917   4.327  24.183  1.00  0.00     0.050 A 
ATOM     18  C   UNL     1      26.635   4.195  24.726  1.00  0.00     0.157 A 
BRANCH  16  19
ATOM     19  O   UNL     1      24.524   3.007  24.839  1.00  0.00    -0.504 OA
ATOM     20  H   UNL     1      23.755   2.633  24.295  1.00  0.00     0.293 HD
ENDBRANCH  16  19
BRANCH  18  21
ATOM     21  O   UNL     1      26.211   5.107  25.690  1.00  0.00    -0.504 OA
ATOM     22  H   UNL     1      26.355   6.105  25.589  1.00  0.00     0.293 HD
ENDBRANCH  18  21
ENDBRANCH   3  13
BRANCH   9  23
ATOM     23  O   UNL     1      28.221  -2.890  18.802  1.00  0.00    -0.507 OA
ATOM     24  H   UNL     1      28.918  -3.308  18.200  1.00  0.00     0.293 HD
ENDBRANCH   9  23
BRANCH   7  25
ATOM     25  O   UNL     1      26.400   0.486  15.905  1.00  0.00    -0.508 OA
ATOM     26  H   UNL     1      25.419   0.667  15.732  1.00  0.00     0.293 HD
ENDBRANCH   7  25
TORSDOF 6
ENDMDL
