MODEL 1
REMARK VINA RESULT:    -3.800      0.000      0.000
REMARK INTER + INTRA:          -4.284
REMARK INTER:                  -4.133
REMARK INTRA:                  -0.151
REMARK UNBOUND:                -0.151
REMARK SMILES C=C(C)[C@@H]1CC[C@@H](C)C[C@@H]1O
REMARK SMILES IDX 8 1 7 2 6 3 5 4 4 5 10 6 9 7 11 8 2 10 1 11 3 12
REMARK H PARENT 11 9
REMARK Flexibility Score: inf
ROOT
ATOM      1  C   UNL     1      10.011  -0.706  24.253  1.00  0.00     0.008 C 
ATOM      2  C   UNL     1       8.706  -1.419  24.627  1.00  0.00    -0.012 C 
ATOM      3  C   UNL     1       8.629  -2.794  23.937  1.00  0.00     0.004 C 
ATOM      4  C   UNL     1       7.320  -3.515  24.277  1.00  0.00     0.011 C 
ATOM      5  C   UNL     1       6.102  -2.658  23.875  1.00  0.00     0.043 C 
ATOM      6  C   UNL     1       6.142  -1.247  24.520  1.00  0.00     0.121 C 
ATOM      7  C   UNL     1       7.490  -0.544  24.250  1.00  0.00     0.035 C 
ENDROOT
BRANCH   6   8
ATOM      8  O   UNL     1       5.840  -1.265  25.895  1.00  0.00    -0.392 OA
ATOM      9  H   UNL     1       5.702  -0.332  26.197  1.00  0.00     0.210 HD
ENDBRANCH   6   8
BRANCH   5  10
ATOM     10  C   UNL     1       4.778  -3.373  24.126  1.00  0.00    -0.075 C 
ATOM     11  C   UNL     1       4.731  -4.644  24.563  1.00  0.00     0.008 C 
ATOM     12  C   UNL     1       3.476  -2.656  23.877  1.00  0.00     0.039 C 
ENDBRANCH   5  10
TORSDOF 2
ENDMDL
MODEL 2
REMARK VINA RESULT:    -3.403     20.424     22.452
REMARK INTER + INTRA:          -3.853
REMARK INTER:                  -3.699
REMARK INTRA:                  -0.153
REMARK UNBOUND:                -0.151
REMARK SMILES C=C(C)[C@@H]1CC[C@@H](C)C[C@@H]1O
REMARK SMILES IDX 8 1 7 2 6 3 5 4 4 5 10 6 9 7 11 8 2 10 1 11 3 12
REMARK H PARENT 11 9
REMARK Flexibility Score: inf
ROOT
ATOM      1  C   UNL     1      15.877  14.113  41.352  1.00  0.00     0.008 C 
ATOM      2  C   UNL     1      15.628  14.114  39.839  1.00  0.00    -0.012 C 
ATOM      3  C   UNL     1      14.116  14.122  39.544  1.00  0.00     0.004 C 
ATOM      4  C   UNL     1      13.843  14.098  38.035  1.00  0.00     0.011 C 
ATOM      5  C   UNL     1      14.500  12.866  37.379  1.00  0.00     0.043 C 
ATOM      6  C   UNL     1      16.022  12.790  37.669  1.00  0.00     0.121 C 
ATOM      7  C   UNL     1      16.313  12.895  39.182  1.00  0.00     0.035 C 
ENDROOT
BRANCH   6   8
ATOM      8  O   UNL     1      16.765  13.738  36.939  1.00  0.00    -0.392 OA
ATOM      9  H   UNL     1      17.143  14.396  37.576  1.00  0.00     0.210 HD
ENDBRANCH   6   8
BRANCH   5  10
ATOM     10  C   UNL     1      14.187  12.763  35.890  1.00  0.00    -0.075 C 
ATOM     11  C   UNL     1      13.843  13.840  35.162  1.00  0.00     0.008 C 
ATOM     12  C   UNL     1      14.251  11.425  35.198  1.00  0.00     0.039 C 
ENDBRANCH   5  10
TORSDOF 2
ENDMDL
MODEL 3
REMARK VINA RESULT:    -3.014     18.938     21.171
REMARK INTER + INTRA:          -3.430
REMARK INTER:                  -3.371
REMARK INTRA:                  -0.059
REMARK UNBOUND:                -0.151
REMARK SMILES C=C(C)[C@@H]1CC[C@@H](C)C[C@@H]1O
REMARK SMILES IDX 8 1 7 2 6 3 5 4 4 5 10 6 9 7 11 8 2 10 1 11 3 12
REMARK H PARENT 11 9
REMARK Flexibility Score: inf
ROOT
ATOM      1  C   UNL     1      13.911  12.011  32.955  1.00  0.00     0.008 C 
ATOM      2  C   UNL     1      13.797  12.389  34.436  1.00  0.00    -0.012 C 
ATOM      3  C   UNL     1      14.493  13.739  34.701  1.00  0.00     0.004 C 
ATOM      4  C   UNL     1      14.413  14.125  36.182  1.00  0.00     0.011 C 
ATOM      5  C   UNL     1      15.040  13.029  37.069  1.00  0.00     0.043 C 
ATOM      6  C   UNL     1      14.396  11.639  36.823  1.00  0.00     0.121 C 
ATOM      7  C   UNL     1      14.399  11.275  35.322  1.00  0.00     0.035 C 
ENDROOT
BRANCH   6   8
ATOM      8  O   UNL     1      13.104  11.529  37.373  1.00  0.00    -0.392 OA
ATOM      9  H   UNL     1      12.930  10.574  37.572  1.00  0.00     0.210 HD
ENDBRANCH   6   8
BRANCH   5  10
ATOM     10  C   UNL     1      15.050  13.410  38.546  1.00  0.00    -0.075 C 
ATOM     11  C   UNL     1      14.051  14.117  39.102  1.00  0.00     0.008 C 
ATOM     12  C   UNL     1      16.207  13.000  39.421  1.00  0.00     0.039 C 
ENDBRANCH   5  10
TORSDOF 2
ENDMDL
MODEL 4
REMARK VINA RESULT:    -2.779     19.588     21.720
REMARK INTER + INTRA:          -3.174
REMARK INTER:                  -3.150
REMARK INTRA:                  -0.024
REMARK UNBOUND:                -0.151
REMARK SMILES C=C(C)[C@@H]1CC[C@@H](C)C[C@@H]1O
REMARK SMILES IDX 8 1 7 2 6 3 5 4 4 5 10 6 9 7 11 8 2 10 1 11 3 12
REMARK H PARENT 11 9
REMARK Flexibility Score: inf
ROOT
ATOM      1  C   UNL     1      13.366  12.218  33.692  1.00  0.00     0.008 C 
ATOM      2  C   UNL     1      14.189  12.410  34.972  1.00  0.00    -0.012 C 
ATOM      3  C   UNL     1      13.680  11.470  36.082  1.00  0.00     0.004 C 
ATOM      4  C   UNL     1      14.472  11.664  37.380  1.00  0.00     0.011 C 
ATOM      5  C   UNL     1      14.394  13.129  37.857  1.00  0.00     0.043 C 
ATOM      6  C   UNL     1      14.868  14.125  36.765  1.00  0.00     0.121 C 
ATOM      7  C   UNL     1      14.132  13.885  35.428  1.00  0.00     0.035 C 
ENDROOT
BRANCH   6   8
ATOM      8  O   UNL     1      16.265  14.119  36.588  1.00  0.00    -0.392 OA
ATOM      9  H   UNL     1      16.457  14.198  35.619  1.00  0.00     0.210 HD
ENDBRANCH   6   8
BRANCH   5  10
ATOM     10  C   UNL     1      15.106  13.347  39.188  1.00  0.00    -0.075 C 
ATOM     11  C   UNL     1      14.580  14.122  40.153  1.00  0.00     0.008 C 
ATOM     12  C   UNL     1      16.438  12.691  39.446  1.00  0.00     0.039 C 
ENDBRANCH   5  10
TORSDOF 2
ENDMDL
MODEL 5
REMARK VINA RESULT:    -2.552      1.156      4.349
REMARK INTER + INTRA:          -2.927
REMARK INTER:                  -3.481
REMARK INTRA:                   0.555
REMARK UNBOUND:                -0.151
REMARK SMILES C=C(C)[C@@H]1CC[C@@H](C)C[C@@H]1O
REMARK SMILES IDX 8 1 7 2 6 3 5 4 4 5 10 6 9 7 11 8 2 10 1 11 3 12
REMARK H PARENT 11 9
REMARK Flexibility Score: inf
ROOT
ATOM      1  C   UNL     1       4.461  -4.100  24.593  1.00  0.00     0.008 C 
ATOM      2  C   UNL     1       5.597  -3.132  24.246  1.00  0.00    -0.012 C 
ATOM      3  C   UNL     1       6.943  -3.880  24.197  1.00  0.00     0.004 C 
ATOM      4  C   UNL     1       8.098  -2.925  23.875  1.00  0.00     0.011 C 
ATOM      5  C   UNL     1       8.170  -1.784  24.910  1.00  0.00     0.043 C 
ATOM      6  C   UNL     1       6.829  -1.012  25.024  1.00  0.00     0.121 C 
ATOM      7  C   UNL     1       5.646  -1.974  25.268  1.00  0.00     0.035 C 
ENDROOT
BRANCH   6   8
ATOM      8  O   UNL     1       6.586  -0.172  23.920  1.00  0.00    -0.392 OA
ATOM      9  H   UNL     1       7.431  -0.072  23.412  1.00  0.00     0.210 HD
ENDBRANCH   6   8
BRANCH   5  10
ATOM     10  C   UNL     1       9.356  -0.854  24.671  1.00  0.00    -0.075 C 
ATOM     11  C   UNL     1       9.260   0.226  23.875  1.00  0.00     0.008 C 
ATOM     12  C   UNL     1      10.682  -1.141  25.328  1.00  0.00     0.039 C 
ENDBRANCH   5  10
TORSDOF 2
ENDMDL
MODEL 6
REMARK VINA RESULT:    -2.371     19.388     21.460
REMARK INTER + INTRA:          -2.730
REMARK INTER:                  -2.612
REMARK INTRA:                  -0.118
REMARK UNBOUND:                -0.151
REMARK SMILES C=C(C)[C@@H]1CC[C@@H](C)C[C@@H]1O
REMARK SMILES IDX 8 1 7 2 6 3 5 4 4 5 10 6 9 7 11 8 2 10 1 11 3 12
REMARK H PARENT 11 9
REMARK Flexibility Score: inf
ROOT
ATOM      1  C   UNL     1      16.235  13.576  40.166  1.00  0.00     0.008 C 
ATOM      2  C   UNL     1      15.577  13.034  38.892  1.00  0.00    -0.012 C 
ATOM      3  C   UNL     1      16.606  12.962  37.747  1.00  0.00     0.004 C 
ATOM      4  C   UNL     1      15.963  12.446  36.454  1.00  0.00     0.011 C 
ATOM      5  C   UNL     1      14.776  13.338  36.037  1.00  0.00     0.043 C 
ATOM      6  C   UNL     1      13.720  13.471  37.166  1.00  0.00     0.121 C 
ATOM      7  C   UNL     1      14.370  13.914  38.495  1.00  0.00     0.035 C 
ENDROOT
BRANCH   6   8
ATOM      8  O   UNL     1      12.951  12.303  37.337  1.00  0.00    -0.392 OA
ATOM      9  H   UNL     1      13.150  11.927  38.231  1.00  0.00     0.210 HD
ENDBRANCH   6   8
BRANCH   5  10
ATOM     10  C   UNL     1      14.157  12.903  34.712  1.00  0.00    -0.075 C 
ATOM     11  C   UNL     1      13.612  13.789  33.861  1.00  0.00     0.008 C 
ATOM     12  C   UNL     1      14.140  11.445  34.332  1.00  0.00     0.039 C 
ENDBRANCH   5  10
TORSDOF 2
ENDMDL
MODEL 7
REMARK VINA RESULT:    -1.201      1.349      4.416
REMARK INTER + INTRA:          -1.458
REMARK INTER:                  -1.562
REMARK INTRA:                   0.104
REMARK UNBOUND:                -0.151
REMARK SMILES C=C(C)[C@@H]1CC[C@@H](C)C[C@@H]1O
REMARK SMILES IDX 8 1 7 2 6 3 5 4 4 5 10 6 9 7 11 8 2 10 1 11 3 12
REMARK H PARENT 11 9
REMARK Flexibility Score: inf
ROOT
ATOM      1  C   UNL     1       3.056  -2.843  24.482  1.00  0.00     0.008 C 
ATOM      2  C   UNL     1       4.555  -2.770  24.794  1.00  0.00    -0.012 C 
ATOM      3  C   UNL     1       5.066  -1.325  24.632  1.00  0.00     0.004 C 
ATOM      4  C   UNL     1       6.570  -1.232  24.915  1.00  0.00     0.011 C 
ATOM      5  C   UNL     1       7.361  -2.175  23.986  1.00  0.00     0.043 C 
ATOM      6  C   UNL     1       6.868  -3.643  24.085  1.00  0.00     0.121 C 
ATOM      7  C   UNL     1       5.340  -3.738  23.881  1.00  0.00     0.035 C 
ENDROOT
BRANCH   6   8
ATOM      8  O   UNL     1       7.265  -4.274  25.280  1.00  0.00    -0.392 OA
ATOM      9  H   UNL     1       7.976  -4.929  25.065  1.00  0.00     0.210 HD
ENDBRANCH   6   8
BRANCH   5  10
ATOM     10  C   UNL     1       8.869  -2.055  24.181  1.00  0.00    -0.075 C 
ATOM     11  C   UNL     1       9.705  -3.065  23.880  1.00  0.00     0.008 C 
ATOM     12  C   UNL     1       9.457  -0.782  24.733  1.00  0.00     0.039 C 
ENDBRANCH   5  10
TORSDOF 2
ENDMDL
MODEL 8
REMARK VINA RESULT:    -1.030     19.661     21.704
REMARK INTER + INTRA:          -1.271
REMARK INTER:                  -1.079
REMARK INTRA:                  -0.192
REMARK UNBOUND:                -0.151
REMARK SMILES C=C(C)[C@@H]1CC[C@@H](C)C[C@@H]1O
REMARK SMILES IDX 8 1 7 2 6 3 5 4 4 5 10 6 9 7 11 8 2 10 1 11 3 12
REMARK H PARENT 11 9
REMARK Flexibility Score: inf
ROOT
ATOM      1  C   UNL     1      16.010  13.256  40.510  1.00  0.00     0.008 C 
ATOM      2  C   UNL     1      15.656  13.485  39.037  1.00  0.00    -0.012 C 
ATOM      3  C   UNL     1      14.170  13.868  38.895  1.00  0.00     0.004 C 
ATOM      4  C   UNL     1      13.787  14.077  37.426  1.00  0.00     0.011 C 
ATOM      5  C   UNL     1      14.083  12.810  36.596  1.00  0.00     0.043 C 
ATOM      6  C   UNL     1      15.562  12.360  36.725  1.00  0.00     0.121 C 
ATOM      7  C   UNL     1      15.982  12.224  38.205  1.00  0.00     0.035 C 
ENDROOT
BRANCH   6   8
ATOM      8  O   UNL     1      16.451  13.191  36.016  1.00  0.00    -0.392 OA
ATOM      9  H   UNL     1      17.105  12.616  35.543  1.00  0.00     0.210 HD
ENDBRANCH   6   8
BRANCH   5  10
ATOM     10  C   UNL     1      13.643  12.950  35.142  1.00  0.00    -0.075 C 
ATOM     11  C   UNL     1      13.228  14.125  34.638  1.00  0.00     0.008 C 
ATOM     12  C   UNL     1      13.661  11.749  34.232  1.00  0.00     0.039 C 
ENDBRANCH   5  10
TORSDOF 2
ENDMDL
