MODEL 1
REMARK VINA RESULT:    -4.250      0.000      0.000
REMARK INTER + INTRA:          -6.608
REMARK INTER:                  -5.741
REMARK INTRA:                  -0.867
REMARK UNBOUND:                -0.867
REMARK SMILES CC(=O)CCC=C(C)CCC=C(C)C
REMARK SMILES IDX 7 1 6 2 8 3 9 4 10 5 11 6 13 7 12 8 14 9 5 10 4 11 2 12 3 13
REMARK SMILES IDX 1 14
REMARK H PARENT
REMARK Flexibility Score: inf
ROOT
ATOM      1  C   UNL     1     -13.580  26.896  15.120  1.00  0.00    -0.077 C 
ATOM      2  C   UNL     1     -13.770  27.549  16.287  1.00  0.00    -0.028 C 
ATOM      3  C   UNL     1     -13.355  27.645  13.828  1.00  0.00     0.039 C 
ENDROOT
BRANCH   1   4
ATOM      4  C   UNL     1     -13.580  25.384  15.111  1.00  0.00     0.034 C 
BRANCH   4   5
ATOM      5  C   UNL     1     -14.885  24.835  15.700  1.00  0.00     0.032 C 
BRANCH   5   6
ATOM      6  C   UNL     1     -14.603  23.917  16.863  1.00  0.00    -0.028 C 
ATOM      7  C   UNL     1     -14.600  23.202  19.233  1.00  0.00     0.039 C 
ATOM      8  C   UNL     1     -14.953  24.180  18.143  1.00  0.00    -0.080 C 
ATOM      9  C   UNL     1     -15.739  25.412  18.523  1.00  0.00     0.039 C 
ENDBRANCH   5   6
ENDBRANCH   4   5
ENDBRANCH   1   4
BRANCH   2  10
ATOM     10  C   UNL     1     -13.784  29.055  16.397  1.00  0.00     0.035 C 
BRANCH  10  11
ATOM     11  C   UNL     1     -14.523  29.511  17.664  1.00  0.00     0.079 C 
BRANCH  11  12
ATOM     12  C   UNL     1     -13.662  29.566  18.906  1.00  0.00     0.130 C 
ATOM     13  O   UNL     1     -13.020  30.583  19.122  1.00  0.00    -0.300 OA
ATOM     14  C   UNL     1     -13.561  28.427  19.883  1.00  0.00     0.087 C 
ENDBRANCH  11  12
ENDBRANCH  10  11
ENDBRANCH   2  10
TORSDOF 6
ENDMDL
MODEL 2
REMARK VINA RESULT:    -4.227      2.622      5.799
REMARK INTER + INTRA:          -6.577
REMARK INTER:                  -5.626
REMARK INTRA:                  -0.951
REMARK UNBOUND:                -0.867
REMARK SMILES CC(=O)CCC=C(C)CCC=C(C)C
REMARK SMILES IDX 7 1 6 2 8 3 9 4 10 5 11 6 13 7 12 8 14 9 5 10 4 11 2 12 3 13
REMARK SMILES IDX 1 14
REMARK H PARENT
REMARK Flexibility Score: inf
ROOT
ATOM      1  C   UNL     1     -13.780  28.939  17.774  1.00  0.00    -0.077 C 
ATOM      2  C   UNL     1     -14.289  27.914  18.492  1.00  0.00    -0.028 C 
ATOM      3  C   UNL     1     -14.012  29.048  16.285  1.00  0.00     0.039 C 
ENDROOT
BRANCH   1   4
ATOM      4  C   UNL     1     -12.971  30.004  18.480  1.00  0.00     0.034 C 
BRANCH   4   5
ATOM      5  C   UNL     1     -13.699  30.499  19.735  1.00  0.00     0.032 C 
BRANCH   5   6
ATOM      6  C   UNL     1     -14.636  31.632  19.400  1.00  0.00    -0.028 C 
ATOM      7  C   UNL     1     -16.828  32.739  19.089  1.00  0.00     0.039 C 
ATOM      8  C   UNL     1     -15.984  31.551  19.472  1.00  0.00    -0.080 C 
ATOM      9  C   UNL     1     -16.688  30.315  19.976  1.00  0.00     0.039 C 
ENDBRANCH   5   6
ENDBRANCH   4   5
ENDBRANCH   1   4
BRANCH   2  10
ATOM     10  C   UNL     1     -15.109  26.805  17.878  1.00  0.00     0.035 C 
BRANCH  10  11
ATOM     11  C   UNL     1     -15.970  26.100  18.938  1.00  0.00     0.079 C 
BRANCH  11  12
ATOM     12  C   UNL     1     -15.354  24.842  19.508  1.00  0.00     0.130 C 
ATOM     13  O   UNL     1     -15.225  24.759  20.720  1.00  0.00    -0.300 OA
ATOM     14  C   UNL     1     -14.897  23.694  18.652  1.00  0.00     0.087 C 
ENDBRANCH  11  12
ENDBRANCH  10  11
ENDBRANCH   2  10
TORSDOF 6
ENDMDL
MODEL 3
REMARK VINA RESULT:    -4.143      1.351      4.222
REMARK INTER + INTRA:          -6.464
REMARK INTER:                  -5.532
REMARK INTRA:                  -0.932
REMARK UNBOUND:                -0.867
REMARK SMILES CC(=O)CCC=C(C)CCC=C(C)C
REMARK SMILES IDX 7 1 6 2 8 3 9 4 10 5 11 6 13 7 12 8 14 9 5 10 4 11 2 12 3 13
REMARK SMILES IDX 1 14
REMARK H PARENT
REMARK Flexibility Score: inf
ROOT
ATOM      1  C   UNL     1     -14.825  25.201  16.827  1.00  0.00    -0.077 C 
ATOM      2  C   UNL     1     -15.231  26.335  17.441  1.00  0.00    -0.028 C 
ATOM      3  C   UNL     1     -14.906  23.861  17.518  1.00  0.00     0.039 C 
ENDROOT
BRANCH   1   4
ATOM      4  C   UNL     1     -14.291  25.277  15.414  1.00  0.00     0.034 C 
BRANCH   4   5
ATOM      5  C   UNL     1     -13.136  26.281  15.321  1.00  0.00     0.032 C 
BRANCH   5   6
ATOM      6  C   UNL     1     -13.296  27.171  14.114  1.00  0.00    -0.028 C 
ATOM      7  C   UNL     1     -13.809  29.264  12.897  1.00  0.00     0.039 C 
ATOM      8  C   UNL     1     -13.655  28.474  14.170  1.00  0.00    -0.080 C 
ATOM      9  C   UNL     1     -13.863  29.193  15.481  1.00  0.00     0.039 C 
ENDBRANCH   5   6
ENDBRANCH   4   5
ENDBRANCH   1   4
BRANCH   2  10
ATOM     10  C   UNL     1     -15.780  26.360  18.847  1.00  0.00     0.035 C 
BRANCH  10  11
ATOM     11  C   UNL     1     -14.717  26.837  19.848  1.00  0.00     0.079 C 
BRANCH  11  12
ATOM     12  C   UNL     1     -14.362  28.302  19.734  1.00  0.00     0.130 C 
ATOM     13  O   UNL     1     -15.149  29.126  20.172  1.00  0.00    -0.300 OA
ATOM     14  C   UNL     1     -13.084  28.788  19.107  1.00  0.00     0.087 C 
ENDBRANCH  11  12
ENDBRANCH  10  11
ENDBRANCH   2  10
TORSDOF 6
ENDMDL
MODEL 4
REMARK VINA RESULT:    -4.114      2.001      4.298
REMARK INTER + INTRA:          -6.424
REMARK INTER:                  -5.581
REMARK INTRA:                  -0.842
REMARK UNBOUND:                -0.867
REMARK SMILES CC(=O)CCC=C(C)CCC=C(C)C
REMARK SMILES IDX 7 1 6 2 8 3 9 4 10 5 11 6 13 7 12 8 14 9 5 10 4 11 2 12 3 13
REMARK SMILES IDX 1 14
REMARK H PARENT
REMARK Flexibility Score: inf
ROOT
ATOM      1  C   UNL     1     -14.635  27.339  17.702  1.00  0.00    -0.077 C 
ATOM      2  C   UNL     1     -13.690  28.256  18.004  1.00  0.00    -0.028 C 
ATOM      3  C   UNL     1     -15.712  26.963  18.692  1.00  0.00     0.039 C 
ENDROOT
BRANCH   1   4
ATOM      4  C   UNL     1     -14.619  26.684  16.338  1.00  0.00     0.034 C 
BRANCH   4   5
ATOM      5  C   UNL     1     -13.230  26.788  15.699  1.00  0.00     0.032 C 
BRANCH   5   6
ATOM      6  C   UNL     1     -13.339  27.027  14.214  1.00  0.00    -0.028 C 
ATOM      7  C   UNL     1     -13.676  28.359  12.155  1.00  0.00     0.039 C 
ATOM      8  C   UNL     1     -13.559  28.238  13.652  1.00  0.00    -0.080 C 
ATOM      9  C   UNL     1     -13.646  29.500  14.475  1.00  0.00     0.039 C 
ENDBRANCH   5   6
ENDBRANCH   4   5
ENDBRANCH   1   4
BRANCH   2  10
ATOM     10  C   UNL     1     -13.624  28.964  19.335  1.00  0.00     0.035 C 
BRANCH  10  11
ATOM     11  C   UNL     1     -13.423  30.476  19.150  1.00  0.00     0.079 C 
BRANCH  11  12
ATOM     12  C   UNL     1     -14.655  31.309  19.422  1.00  0.00     0.130 C 
ATOM     13  O   UNL     1     -14.536  32.523  19.464  1.00  0.00    -0.300 OA
ATOM     14  C   UNL     1     -16.017  30.709  19.641  1.00  0.00     0.087 C 
ENDBRANCH  11  12
ENDBRANCH  10  11
ENDBRANCH   2  10
TORSDOF 6
ENDMDL
MODEL 5
REMARK VINA RESULT:    -4.063      2.926      6.093
REMARK INTER + INTRA:          -6.355
REMARK INTER:                  -5.534
REMARK INTRA:                  -0.821
REMARK UNBOUND:                -0.867
REMARK SMILES CC(=O)CCC=C(C)CCC=C(C)C
REMARK SMILES IDX 7 1 6 2 8 3 9 4 10 5 11 6 13 7 12 8 14 9 5 10 4 11 2 12 3 13
REMARK SMILES IDX 1 14
REMARK H PARENT
REMARK Flexibility Score: inf
ROOT
ATOM      1  C   UNL     1     -15.431  27.288  19.216  1.00  0.00    -0.077 C 
ATOM      2  C   UNL     1     -14.883  26.177  19.756  1.00  0.00    -0.028 C 
ATOM      3  C   UNL     1     -16.714  27.226  18.421  1.00  0.00     0.039 C 
ENDROOT
BRANCH   1   4
ATOM      4  C   UNL     1     -14.750  28.622  19.424  1.00  0.00     0.034 C 
BRANCH   4   5
ATOM      5  C   UNL     1     -13.457  28.709  18.606  1.00  0.00     0.032 C 
BRANCH   5   6
ATOM      6  C   UNL     1     -13.713  29.352  17.266  1.00  0.00    -0.028 C 
ATOM      7  C   UNL     1     -14.031  29.422  14.812  1.00  0.00     0.039 C 
ATOM      8  C   UNL     1     -13.796  28.674  16.099  1.00  0.00    -0.080 C 
ATOM      9  C   UNL     1     -13.708  27.169  16.038  1.00  0.00     0.039 C 
ENDBRANCH   5   6
ENDBRANCH   4   5
ENDBRANCH   1   4
BRANCH   2  10
ATOM     10  C   UNL     1     -15.489  24.802  19.605  1.00  0.00     0.035 C 
BRANCH  10  11
ATOM     11  C   UNL     1     -15.065  23.880  20.758  1.00  0.00     0.079 C 
BRANCH  11  12
ATOM     12  C   UNL     1     -15.935  22.656  20.933  1.00  0.00     0.130 C 
ATOM     13  O   UNL     1     -16.922  22.743  21.647  1.00  0.00    -0.300 OA
ATOM     14  C   UNL     1     -15.640  21.340  20.266  1.00  0.00     0.087 C 
ENDBRANCH  11  12
ENDBRANCH  10  11
ENDBRANCH   2  10
TORSDOF 6
ENDMDL
MODEL 6
REMARK VINA RESULT:    -4.063      1.373      2.188
REMARK INTER + INTRA:          -6.355
REMARK INTER:                  -5.592
REMARK INTRA:                  -0.763
REMARK UNBOUND:                -0.867
REMARK SMILES CC(=O)CCC=C(C)CCC=C(C)C
REMARK SMILES IDX 7 1 6 2 8 3 9 4 10 5 11 6 13 7 12 8 14 9 5 10 4 11 2 12 3 13
REMARK SMILES IDX 1 14
REMARK H PARENT
REMARK Flexibility Score: inf
ROOT
ATOM      1  C   UNL     1     -13.775  28.147  15.197  1.00  0.00    -0.077 C 
ATOM      2  C   UNL     1     -13.760  27.911  16.528  1.00  0.00    -0.028 C 
ATOM      3  C   UNL     1     -14.007  29.533  14.646  1.00  0.00     0.039 C 
ENDROOT
BRANCH   1   4
ATOM      4  C   UNL     1     -13.542  26.997  14.242  1.00  0.00     0.034 C 
BRANCH   4   5
ATOM      5  C   UNL     1     -13.368  25.680  15.006  1.00  0.00     0.032 C 
BRANCH   5   6
ATOM      6  C   UNL     1     -14.546  24.767  14.776  1.00  0.00    -0.028 C 
ATOM      7  C   UNL     1     -16.283  23.114  15.390  1.00  0.00     0.039 C 
ATOM      8  C   UNL     1     -15.124  24.012  15.738  1.00  0.00    -0.080 C 
ATOM      9  C   UNL     1     -14.678  24.068  17.178  1.00  0.00     0.039 C 
ENDBRANCH   5   6
ENDBRANCH   4   5
ENDBRANCH   1   4
BRANCH   2  10
ATOM     10  C   UNL     1     -13.980  28.992  17.559  1.00  0.00     0.035 C 
BRANCH  10  11
ATOM     11  C   UNL     1     -13.148  28.730  18.823  1.00  0.00     0.079 C 
BRANCH  11  12
ATOM     12  C   UNL     1     -13.924  28.117  19.967  1.00  0.00     0.130 C 
ATOM     13  O   UNL     1     -13.929  28.697  21.041  1.00  0.00    -0.300 OA
ATOM     14  C   UNL     1     -14.687  26.827  19.839  1.00  0.00     0.087 C 
ENDBRANCH  11  12
ENDBRANCH  10  11
ENDBRANCH   2  10
TORSDOF 6
ENDMDL
MODEL 7
REMARK VINA RESULT:    -4.055      2.974      6.080
REMARK INTER + INTRA:          -6.344
REMARK INTER:                  -5.470
REMARK INTRA:                  -0.874
REMARK UNBOUND:                -0.867
REMARK SMILES CC(=O)CCC=C(C)CCC=C(C)C
REMARK SMILES IDX 7 1 6 2 8 3 9 4 10 5 11 6 13 7 12 8 14 9 5 10 4 11 2 12 3 13
REMARK SMILES IDX 1 14
REMARK H PARENT
REMARK Flexibility Score: inf
ROOT
ATOM      1  C   UNL     1     -13.599  28.922  18.315  1.00  0.00    -0.077 C 
ATOM      2  C   UNL     1     -13.793  28.685  16.999  1.00  0.00    -0.028 C 
ATOM      3  C   UNL     1     -13.977  27.902  19.362  1.00  0.00     0.039 C 
ENDROOT
BRANCH   1   4
ATOM      4  C   UNL     1     -12.980  30.234  18.745  1.00  0.00     0.034 C 
BRANCH   4   5
ATOM      5  C   UNL     1     -13.831  30.911  19.825  1.00  0.00     0.032 C 
BRANCH   5   6
ATOM      6  C   UNL     1     -14.981  31.665  19.206  1.00  0.00    -0.028 C 
ATOM      7  C   UNL     1     -17.350  32.127  18.657  1.00  0.00     0.039 C 
ATOM      8  C   UNL     1     -16.281  31.315  19.340  1.00  0.00    -0.080 C 
ATOM      9  C   UNL     1     -16.714  30.153  20.200  1.00  0.00     0.039 C 
ENDBRANCH   5   6
ENDBRANCH   4   5
ENDBRANCH   1   4
BRANCH   2  10
ATOM     10  C   UNL     1     -14.401  27.407  16.472  1.00  0.00     0.035 C 
BRANCH  10  11
ATOM     11  C   UNL     1     -13.397  26.631  15.605  1.00  0.00     0.079 C 
BRANCH  11  12
ATOM     12  C   UNL     1     -13.586  26.812  14.116  1.00  0.00     0.130 C 
ATOM     13  O   UNL     1     -13.936  25.846  13.455  1.00  0.00    -0.300 OA
ATOM     14  C   UNL     1     -13.364  28.124  13.416  1.00  0.00     0.087 C 
ENDBRANCH  11  12
ENDBRANCH  10  11
ENDBRANCH   2  10
TORSDOF 6
ENDMDL
MODEL 8
REMARK VINA RESULT:    -4.031      2.661      5.501
REMARK INTER + INTRA:          -6.312
REMARK INTER:                  -4.792
REMARK INTRA:                  -1.520
REMARK UNBOUND:                -0.867
REMARK SMILES CC(=O)CCC=C(C)CCC=C(C)C
REMARK SMILES IDX 7 1 6 2 8 3 9 4 10 5 11 6 13 7 12 8 14 9 5 10 4 11 2 12 3 13
REMARK SMILES IDX 1 14
REMARK H PARENT
REMARK Flexibility Score: inf
ROOT
ATOM      1  C   UNL     1     -13.650  29.524  18.802  1.00  0.00    -0.077 C 
ATOM      2  C   UNL     1     -13.807  29.345  17.471  1.00  0.00    -0.028 C 
ATOM      3  C   UNL     1     -13.337  28.366  19.719  1.00  0.00     0.039 C 
ENDROOT
BRANCH   1   4
ATOM      4  C   UNL     1     -13.780  30.916  19.379  1.00  0.00     0.034 C 
BRANCH   4   5
ATOM      5  C   UNL     1     -15.117  31.550  18.980  1.00  0.00     0.032 C 
BRANCH   5   6
ATOM      6  C   UNL     1     -16.264  30.873  19.688  1.00  0.00    -0.028 C 
ATOM      7  C   UNL     1     -18.417  29.665  19.866  1.00  0.00     0.039 C 
ATOM      8  C   UNL     1     -17.311  30.292  19.059  1.00  0.00    -0.080 C 
ATOM      9  C   UNL     1     -17.394  30.204  17.554  1.00  0.00     0.039 C 
ENDBRANCH   5   6
ENDBRANCH   4   5
ENDBRANCH   1   4
BRANCH   2  10
ATOM     10  C   UNL     1     -13.694  27.997  16.802  1.00  0.00     0.035 C 
BRANCH  10  11
ATOM     11  C   UNL     1     -15.082  27.404  16.512  1.00  0.00     0.079 C 
BRANCH  11  12
ATOM     12  C   UNL     1     -15.540  26.367  17.513  1.00  0.00     0.130 C 
ATOM     13  O   UNL     1     -15.101  25.232  17.415  1.00  0.00    -0.300 OA
ATOM     14  C   UNL     1     -16.510  26.673  18.622  1.00  0.00     0.087 C 
ENDBRANCH  11  12
ENDBRANCH  10  11
ENDBRANCH   2  10
TORSDOF 6
ENDMDL
MODEL 9
REMARK VINA RESULT:    -4.019      2.221      4.468
REMARK INTER + INTRA:          -6.296
REMARK INTER:                  -4.912
REMARK INTRA:                  -1.384
REMARK UNBOUND:                -0.867
REMARK SMILES CC(=O)CCC=C(C)CCC=C(C)C
REMARK SMILES IDX 7 1 6 2 8 3 9 4 10 5 11 6 13 7 12 8 14 9 5 10 4 11 2 12 3 13
REMARK SMILES IDX 1 14
REMARK H PARENT
REMARK Flexibility Score: inf
ROOT
ATOM      1  C   UNL     1     -14.724  26.161  15.891  1.00  0.00    -0.077 C 
ATOM      2  C   UNL     1     -14.323  24.950  16.338  1.00  0.00    -0.028 C 
ATOM      3  C   UNL     1     -16.183  26.466  15.649  1.00  0.00     0.039 C 
ENDROOT
BRANCH   1   4
ATOM      4  C   UNL     1     -13.688  27.235  15.641  1.00  0.00     0.034 C 
BRANCH   4   5
ATOM      5  C   UNL     1     -14.040  28.519  16.400  1.00  0.00     0.032 C 
BRANCH   5   6
ATOM      6  C   UNL     1     -13.529  28.460  17.818  1.00  0.00    -0.028 C 
ATOM      7  C   UNL     1     -13.706  28.377  20.285  1.00  0.00     0.039 C 
ATOM      8  C   UNL     1     -14.323  28.408  18.912  1.00  0.00    -0.080 C 
ATOM      9  C   UNL     1     -15.827  28.329  18.808  1.00  0.00     0.039 C 
ENDBRANCH   5   6
ENDBRANCH   4   5
ENDBRANCH   1   4
BRANCH   2  10
ATOM     10  C   UNL     1     -15.279  23.817  16.619  1.00  0.00     0.035 C 
BRANCH  10  11
ATOM     11  C   UNL     1     -15.242  23.413  18.101  1.00  0.00     0.079 C 
BRANCH  11  12
ATOM     12  C   UNL     1     -15.793  24.456  19.047  1.00  0.00     0.130 C 
ATOM     13  O   UNL     1     -16.894  24.930  18.810  1.00  0.00    -0.300 OA
ATOM     14  C   UNL     1     -15.048  24.932  20.264  1.00  0.00     0.087 C 
ENDBRANCH  11  12
ENDBRANCH  10  11
ENDBRANCH   2  10
TORSDOF 6
ENDMDL
