MODEL 1
REMARK VINA RESULT:    47.517      0.000      0.000
REMARK INTER + INTRA:          72.232
REMARK INTER:                  69.740
REMARK INTRA:                   2.492
REMARK UNBOUND:                 2.492
REMARK SMILES Cc1cc2c(C(C)C)c(O)c(O)c(C=O)c2c(O)c1-c1c(C)cc2c(C(C)C)c(O)c(O)c(C=O)c2c1O
REMARK SMILES IDX 1 1 2 2 3 3 4 4 16 5 13 6 11 7 9 8 5 9 17 10 19 11 20 12
REMARK SMILES IDX 37 13 21 14 36 15 23 16 22 17 24 18 33 19 25 20 31 21 29 22
REMARK SMILES IDX 38 23 34 25 35 26 26 27 27 28 28 29 32 30 30 32 18 34 6 36
REMARK SMILES IDX 7 37 8 38 14 39 15 40 10 41 12 43
REMARK H PARENT 38 24 32 31 30 33 18 35 10 42 12 44
REMARK Flexibility Score: inf
ROOT
ATOM      1  C   UNL     1     -13.621  48.016  28.270  1.00  0.00     0.045 C 
ATOM      2  C   UNL     1     -14.802  47.379  28.963  1.00  0.00    -0.039 A 
ATOM      3  C   UNL     1     -14.992  46.000  28.864  1.00  0.00     0.013 A 
ATOM      4  C   UNL     1     -16.087  45.350  29.477  1.00  0.00    -0.006 A 
ATOM      5  C   UNL     1     -16.971  46.117  30.296  1.00  0.00     0.039 A 
ATOM      6  C   UNL     1     -18.035  45.451  30.973  1.00  0.00     0.072 A 
ATOM      7  C   UNL     1     -18.095  44.044  30.966  1.00  0.00     0.169 A 
ATOM      8  C   UNL     1     -17.212  43.300  30.176  1.00  0.00     0.162 A 
ATOM      9  C   UNL     1     -16.290  43.944  29.323  1.00  0.00     0.008 A 
ATOM     10  C   UNL     1     -16.730  47.516  30.451  1.00  0.00     0.132 A 
ATOM     11  C   UNL     1     -15.675  48.143  29.753  1.00  0.00     0.031 A 
ENDROOT
BRANCH  11  12
ATOM     12  C   UNL     1     -15.453  49.607  29.890  1.00  0.00     0.031 A 
ATOM     13  C   UNL     1     -14.336  50.093  30.601  1.00  0.00     0.132 A 
ATOM     14  C   UNL     1     -16.363  50.505  29.312  1.00  0.00    -0.039 A 
ATOM     15  C   UNL     1     -14.134  51.497  30.754  1.00  0.00     0.039 A 
ATOM     16  C   UNL     1     -16.100  51.876  29.358  1.00  0.00     0.013 A 
ATOM     17  C   UNL     1     -17.601  50.011  28.605  1.00  0.00     0.045 C 
ATOM     18  C   UNL     1     -14.956  52.392  30.007  1.00  0.00    -0.006 A 
ATOM     19  C   UNL     1     -13.125  52.036  31.603  1.00  0.00     0.072 A 
ATOM     20  C   UNL     1     -14.637  53.781  29.952  1.00  0.00     0.008 A 
ATOM     21  C   UNL     1     -12.905  53.425  31.646  1.00  0.00     0.169 A 
ATOM     22  C   UNL     1     -13.678  54.296  30.853  1.00  0.00     0.162 A 
BRANCH  13  23
ATOM     23  O   UNL     1     -13.405  49.187  31.120  1.00  0.00    -0.507 OA
ATOM     24  H   UNL     1     -12.402  49.298  31.042  1.00  0.00     0.293 HD
ENDBRANCH  13  23
BRANCH  19  25
ATOM     25  C   UNL     1     -12.370  51.191  32.560  1.00  0.00     0.264 C 
ATOM     26  O   UNL     1     -12.515  49.940  32.576  1.00  0.00    -0.298 OA
ENDBRANCH  19  25
BRANCH  20  27
ATOM     27  C   UNL     1     -15.328  54.724  28.949  1.00  0.00     0.017 C 
ATOM     28  C   UNL     1     -16.378  55.595  29.646  1.00  0.00     0.012 C 
ATOM     29  C   UNL     1     -14.347  55.579  28.124  1.00  0.00     0.012 C 
ENDBRANCH  20  27
BRANCH  21  30
ATOM     30  O   UNL     1     -11.907  53.913  32.498  1.00  0.00    -0.504 OA
ATOM     31  H   UNL     1     -11.949  54.796  32.986  1.00  0.00     0.293 HD
ENDBRANCH  21  30
BRANCH  22  32
ATOM     32  O   UNL     1     -13.542  55.682  30.971  1.00  0.00    -0.504 OA
ATOM     33  H   UNL     1     -14.159  56.280  31.501  1.00  0.00     0.293 HD
ENDBRANCH  22  32
ENDBRANCH  11  12
BRANCH  10  34
ATOM     34  O   UNL     1     -17.510  48.276  31.331  1.00  0.00    -0.507 OA
ATOM     35  H   UNL     1     -18.481  48.084  31.536  1.00  0.00     0.293 HD
ENDBRANCH  10  34
BRANCH   9  36
ATOM     36  C   UNL     1     -15.512  43.119  28.280  1.00  0.00     0.017 C 
ATOM     37  C   UNL     1     -14.122  42.747  28.805  1.00  0.00     0.012 C 
ATOM     38  C   UNL     1     -16.273  41.878  27.777  1.00  0.00     0.012 C 
ENDBRANCH   9  36
BRANCH   6  39
ATOM     39  C   UNL     1     -19.114  46.182  31.666  1.00  0.00     0.264 C 
ATOM     40  O   UNL     1     -19.123  46.262  32.923  1.00  0.00    -0.298 OA
ENDBRANCH   6  39
BRANCH   8  41
ATOM     41  O   UNL     1     -17.253  41.904  30.233  1.00  0.00    -0.504 OA
ATOM     42  H   UNL     1     -16.949  41.376  31.042  1.00  0.00     0.293 HD
ENDBRANCH   8  41
BRANCH   7  43
ATOM     43  O   UNL     1     -19.050  43.347  31.717  1.00  0.00    -0.504 OA
ATOM     44  H   UNL     1     -19.483  43.708  32.558  1.00  0.00     0.293 HD
ENDBRANCH   7  43
TORSDOF 11
ENDMDL
