MODEL 1
REMARK VINA RESULT:    -4.330      0.000      0.000
REMARK INTER + INTRA:          -4.891
REMARK INTER:                  -4.710
REMARK INTRA:                  -0.181
REMARK UNBOUND:                -0.181
REMARK SMILES C=C(C)[C@H]1CC[C@H](C)C[C@@H]1O
REMARK SMILES IDX 8 1 7 2 6 3 5 4 4 5 10 6 9 7 11 8 2 10 1 11 3 12
REMARK H PARENT 11 9
REMARK Flexibility Score: inf
ROOT
ATOM      1  C   UNL     1     -38.125  25.084   3.978  1.00  0.00     0.008 C 
ATOM      2  C   UNL     1     -37.410  24.129   4.940  1.00  0.00    -0.012 C 
ATOM      3  C   UNL     1     -38.007  24.242   6.355  1.00  0.00     0.004 C 
ATOM      4  C   UNL     1     -37.310  23.278   7.324  1.00  0.00     0.011 C 
ATOM      5  C   UNL     1     -37.395  21.824   6.813  1.00  0.00     0.043 C 
ATOM      6  C   UNL     1     -36.800  21.702   5.392  1.00  0.00     0.121 C 
ATOM      7  C   UNL     1     -37.501  22.678   4.428  1.00  0.00     0.035 C 
ENDROOT
BRANCH   6   8
ATOM      8  O   UNL     1     -36.966  20.386   4.929  1.00  0.00    -0.392 OA
ATOM      9  H   UNL     1     -36.065  20.055   4.676  1.00  0.00     0.210 HD
ENDBRANCH   6   8
BRANCH   5  10
ATOM     10  C   UNL     1     -36.726  20.863   7.790  1.00  0.00    -0.075 C 
ATOM     11  C   UNL     1     -35.470  21.067   8.222  1.00  0.00     0.008 C 
ATOM     12  C   UNL     1     -37.473  19.653   8.288  1.00  0.00     0.039 C 
ENDBRANCH   5  10
TORSDOF 2
ENDMDL
MODEL 2
REMARK VINA RESULT:    -2.628      1.790      4.595
REMARK INTER + INTRA:          -3.040
REMARK INTER:                  -3.251
REMARK INTRA:                   0.212
REMARK UNBOUND:                -0.181
REMARK SMILES C=C(C)[C@H]1CC[C@H](C)C[C@@H]1O
REMARK SMILES IDX 8 1 7 2 6 3 5 4 4 5 10 6 9 7 11 8 2 10 1 11 3 12
REMARK H PARENT 11 9
REMARK Flexibility Score: inf
ROOT
ATOM      1  C   UNL     1     -36.943  19.497   8.227  1.00  0.00     0.008 C 
ATOM      2  C   UNL     1     -36.873  20.643   7.211  1.00  0.00    -0.012 C 
ATOM      3  C   UNL     1     -38.120  20.640   6.308  1.00  0.00     0.004 C 
ATOM      4  C   UNL     1     -38.068  21.793   5.297  1.00  0.00     0.011 C 
ATOM      5  C   UNL     1     -37.921  23.151   6.015  1.00  0.00     0.043 C 
ATOM      6  C   UNL     1     -36.672  23.161   6.926  1.00  0.00     0.121 C 
ATOM      7  C   UNL     1     -36.728  21.997   7.933  1.00  0.00     0.035 C 
ENDROOT
BRANCH   6   8
ATOM      8  O   UNL     1     -36.613  24.380   7.622  1.00  0.00    -0.392 OA
ATOM      9  H   UNL     1     -37.062  24.233   8.495  1.00  0.00     0.210 HD
ENDBRANCH   6   8
BRANCH   5  10
ATOM     10  C   UNL     1     -37.897  24.299   5.012  1.00  0.00    -0.075 C 
ATOM     11  C   UNL     1     -37.673  24.080   3.705  1.00  0.00     0.008 C 
ATOM     12  C   UNL     1     -38.124  25.713   5.478  1.00  0.00     0.039 C 
ENDBRANCH   5  10
TORSDOF 2
ENDMDL
MODEL 3
REMARK VINA RESULT:    -1.939      1.103      4.180
REMARK INTER + INTRA:          -2.290
REMARK INTER:                  -2.629
REMARK INTRA:                   0.339
REMARK UNBOUND:                -0.181
REMARK SMILES C=C(C)[C@H]1CC[C@H](C)C[C@@H]1O
REMARK SMILES IDX 8 1 7 2 6 3 5 4 4 5 10 6 9 7 11 8 2 10 1 11 3 12
REMARK H PARENT 11 9
REMARK Flexibility Score: inf
ROOT
ATOM      1  C   UNL     1     -36.271  19.378   8.382  1.00  0.00     0.008 C 
ATOM      2  C   UNL     1     -36.953  20.618   7.794  1.00  0.00    -0.012 C 
ATOM      3  C   UNL     1     -36.074  21.865   7.998  1.00  0.00     0.004 C 
ATOM      4  C   UNL     1     -36.739  23.110   7.398  1.00  0.00     0.011 C 
ATOM      5  C   UNL     1     -37.049  22.904   5.901  1.00  0.00     0.043 C 
ATOM      6  C   UNL     1     -37.930  21.652   5.686  1.00  0.00     0.121 C 
ATOM      7  C   UNL     1     -37.258  20.409   6.297  1.00  0.00     0.035 C 
ENDROOT
BRANCH   6   8
ATOM      8  O   UNL     1     -38.125  21.450   4.310  1.00  0.00    -0.392 OA
ATOM      9  H   UNL     1     -37.386  20.865   3.998  1.00  0.00     0.210 HD
ENDBRANCH   6   8
BRANCH   5  10
ATOM     10  C   UNL     1     -37.685  24.152   5.298  1.00  0.00    -0.075 C 
ATOM     11  C   UNL     1     -37.875  24.270   3.973  1.00  0.00     0.008 C 
ATOM     12  C   UNL     1     -38.112  25.288   6.191  1.00  0.00     0.039 C 
ENDBRANCH   5  10
TORSDOF 2
ENDMDL
