MODEL 1
REMARK VINA RESULT:    -4.833      0.000      0.000
REMARK INTER + INTRA:          -9.711
REMARK INTER:                  -8.788
REMARK INTRA:                  -0.923
REMARK UNBOUND:                -0.923
REMARK SMILES CCCCCCCCCCCCCC[C@H](C)C(=O)[O-]
REMARK SMILES IDX 9 1 10 2 11 3 12 4 13 5 14 6 15 7 16 8 17 9 18 10 19 11 8 12
REMARK SMILES IDX 7 13 6 14 5 15 4 16 3 17 2 18 1 19
REMARK H PARENT
REMARK Flexibility Score: inf
ROOT
ATOM      1  C   UNL     1       9.399 -10.888 -25.381  1.00  0.00     0.000 C 
ENDROOT
BRANCH   1   2
ATOM      2  C   UNL     1       8.210 -11.631 -24.751  1.00  0.00     0.000 C 
BRANCH   2   3
ATOM      3  C   UNL     1       8.654 -12.984 -24.175  1.00  0.00     0.000 C 
BRANCH   3   4
ATOM      4  C   UNL     1      10.181 -13.162 -24.183  1.00  0.00     0.000 C 
BRANCH   4   5
ATOM      5  C   UNL     1      10.778 -13.205 -22.766  1.00  0.00     0.001 C 
BRANCH   5   6
ATOM      6  C   UNL     1       9.928 -14.035 -21.785  1.00  0.00     0.009 C 
BRANCH   6   7
ATOM      7  C   UNL     1      10.722 -15.100 -20.997  1.00  0.00     0.032 C 
ATOM      8  C   UNL     1      10.023 -16.460 -21.084  1.00  0.00     0.014 C 
BRANCH   7   9
ATOM      9  C   UNL     1      10.885 -14.708 -19.552  1.00  0.00     0.044 C 
ATOM     10  O   UNL     1      10.657 -13.524 -19.190  1.00  0.00    -0.550 OA
ATOM     11  O   UNL     1      11.287 -15.648 -18.611  1.00  0.00    -0.550 OA
ENDBRANCH   7   9
ENDBRANCH   6   7
ENDBRANCH   5   6
ENDBRANCH   4   5
ENDBRANCH   3   4
ENDBRANCH   2   3
ENDBRANCH   1   2
BRANCH   1  12
ATOM     12  C   UNL     1       9.638  -9.507 -24.751  1.00  0.00     0.000 C 
BRANCH  12  13
ATOM     13  C   UNL     1       8.364  -8.649 -24.702  1.00  0.00    -0.000 C 
BRANCH  13  14
ATOM     14  C   UNL     1       8.013  -8.106 -26.095  1.00  0.00    -0.000 C 
BRANCH  14  15
ATOM     15  C   UNL     1       9.125  -7.225 -26.684  1.00  0.00    -0.000 C 
BRANCH  15  16
ATOM     16  C   UNL     1       8.680  -6.481 -27.955  1.00  0.00    -0.000 C 
BRANCH  16  17
ATOM     17  C   UNL     1       9.012  -7.256 -29.240  1.00  0.00    -0.000 C 
BRANCH  17  18
ATOM     18  C   UNL     1       8.259  -6.716 -30.464  1.00  0.00    -0.003 C 
ATOM     19  C   UNL     1       9.158  -6.693 -31.697  1.00  0.00     0.004 C 
ENDBRANCH  17  18
ENDBRANCH  16  17
ENDBRANCH  15  16
ENDBRANCH  14  15
ENDBRANCH  13  14
ENDBRANCH  12  13
ENDBRANCH   1  12
TORSDOF 14
ENDMDL
MODEL 2
REMARK VINA RESULT:    -4.702      2.989      5.501
REMARK INTER + INTRA:          -9.473
REMARK INTER:                  -7.580
REMARK INTRA:                  -1.893
REMARK UNBOUND:                -0.923
REMARK SMILES CCCCCCCCCCCCCC[C@H](C)C(=O)[O-]
REMARK SMILES IDX 9 1 10 2 11 3 12 4 13 5 14 6 15 7 16 8 17 9 18 10 19 11 8 12
REMARK SMILES IDX 7 13 6 14 5 15 4 16 3 17 2 18 1 19
REMARK H PARENT
REMARK Flexibility Score: inf
ROOT
ATOM      1  C   UNL     1      10.646 -16.431 -25.611  1.00  0.00     0.000 C 
ENDROOT
BRANCH   1   2
ATOM      2  C   UNL     1      10.929 -17.752 -24.879  1.00  0.00     0.000 C 
BRANCH   2   3
ATOM      3  C   UNL     1       9.724 -18.172 -24.024  1.00  0.00     0.000 C 
BRANCH   3   4
ATOM      4  C   UNL     1      10.052 -18.231 -22.523  1.00  0.00     0.000 C 
BRANCH   4   5
ATOM      5  C   UNL     1      10.948 -17.067 -22.068  1.00  0.00     0.001 C 
BRANCH   5   6
ATOM      6  C   UNL     1      10.236 -16.115 -21.086  1.00  0.00     0.009 C 
BRANCH   6   7
ATOM      7  C   UNL     1      10.137 -14.653 -21.575  1.00  0.00     0.032 C 
ATOM      8  C   UNL     1      11.196 -14.375 -22.647  1.00  0.00     0.014 C 
BRANCH   7   9
ATOM      9  C   UNL     1      10.302 -13.679 -20.439  1.00  0.00     0.044 C 
ATOM     10  O   UNL     1      10.608 -14.096 -19.291  1.00  0.00    -0.550 OA
ATOM     11  O   UNL     1      10.119 -12.318 -20.648  1.00  0.00    -0.550 OA
ENDBRANCH   7   9
ENDBRANCH   6   7
ENDBRANCH   5   6
ENDBRANCH   4   5
ENDBRANCH   3   4
ENDBRANCH   2   3
ENDBRANCH   1   2
BRANCH   1  12
ATOM     12  C   UNL     1       9.534 -16.560 -26.663  1.00  0.00     0.000 C 
BRANCH  12  13
ATOM     13  C   UNL     1       8.257 -15.801 -26.273  1.00  0.00    -0.000 C 
BRANCH  13  14
ATOM     14  C   UNL     1       8.495 -14.926 -25.034  1.00  0.00    -0.000 C 
BRANCH  14  15
ATOM     15  C   UNL     1       8.348 -13.425 -25.331  1.00  0.00    -0.000 C 
BRANCH  15  16
ATOM     16  C   UNL     1       8.248 -12.575 -24.053  1.00  0.00    -0.000 C 
BRANCH  16  17
ATOM     17  C   UNL     1       9.240 -11.402 -24.045  1.00  0.00    -0.000 C 
BRANCH  17  18
ATOM     18  C   UNL     1       8.666 -10.140 -24.705  1.00  0.00    -0.003 C 
ATOM     19  C   UNL     1       9.672  -8.993 -24.664  1.00  0.00     0.004 C 
ENDBRANCH  17  18
ENDBRANCH  16  17
ENDBRANCH  15  16
ENDBRANCH  14  15
ENDBRANCH  13  14
ENDBRANCH  12  13
ENDBRANCH   1  12
TORSDOF 14
ENDMDL
MODEL 3
REMARK VINA RESULT:    -4.627      5.869      8.376
REMARK INTER + INTRA:          -9.338
REMARK INTER:                  -6.917
REMARK INTRA:                  -2.421
REMARK UNBOUND:                -0.923
REMARK SMILES CCCCCCCCCCCCCC[C@H](C)C(=O)[O-]
REMARK SMILES IDX 9 1 10 2 11 3 12 4 13 5 14 6 15 7 16 8 17 9 18 10 19 11 8 12
REMARK SMILES IDX 7 13 6 14 5 15 4 16 3 17 2 18 1 19
REMARK H PARENT
REMARK Flexibility Score: inf
ROOT
ATOM      1  C   UNL     1      11.609 -19.307 -23.598  1.00  0.00     0.000 C 
ENDROOT
BRANCH   1   2
ATOM      2  C   UNL     1      11.064 -18.055 -22.892  1.00  0.00     0.000 C 
BRANCH   2   3
ATOM      3  C   UNL     1       9.621 -18.281 -22.415  1.00  0.00     0.000 C 
BRANCH   3   4
ATOM      4  C   UNL     1       8.639 -17.242 -22.979  1.00  0.00     0.000 C 
BRANCH   4   5
ATOM      5  C   UNL     1       9.345 -15.968 -23.474  1.00  0.00     0.001 C 
BRANCH   5   6
ATOM      6  C   UNL     1       9.085 -14.751 -22.564  1.00  0.00     0.009 C 
BRANCH   6   7
ATOM      7  C   UNL     1      10.327 -14.257 -21.791  1.00  0.00     0.032 C 
ATOM      8  C   UNL     1      10.455 -14.997 -20.456  1.00  0.00     0.014 C 
BRANCH   7   9
ATOM      9  C   UNL     1      10.266 -12.773 -21.541  1.00  0.00     0.044 C 
ATOM     10  O   UNL     1       9.984 -12.338 -20.394  1.00  0.00    -0.550 OA
ATOM     11  O   UNL     1      10.522 -11.876 -22.572  1.00  0.00    -0.550 OA
ENDBRANCH   7   9
ENDBRANCH   6   7
ENDBRANCH   5   6
ENDBRANCH   4   5
ENDBRANCH   3   4
ENDBRANCH   2   3
ENDBRANCH   1   2
BRANCH   1  12
ATOM     12  C   UNL     1      10.609 -20.473 -23.596  1.00  0.00     0.000 C 
BRANCH  12  13
ATOM     13  C   UNL     1      10.301 -20.993 -25.009  1.00  0.00    -0.000 C 
BRANCH  13  14
ATOM     14  C   UNL     1       9.130 -20.222 -25.635  1.00  0.00    -0.000 C 
BRANCH  14  15
ATOM     15  C   UNL     1       9.563 -19.356 -26.829  1.00  0.00    -0.000 C 
BRANCH  15  16
ATOM     16  C   UNL     1       9.148 -17.883 -26.674  1.00  0.00    -0.000 C 
BRANCH  16  17
ATOM     17  C   UNL     1      10.329 -16.915 -26.846  1.00  0.00    -0.000 C 
BRANCH  17  18
ATOM     18  C   UNL     1      11.689 -17.616 -26.721  1.00  0.00    -0.003 C 
ATOM     19  C   UNL     1      12.563 -17.340 -27.941  1.00  0.00     0.004 C 
ENDBRANCH  17  18
ENDBRANCH  16  17
ENDBRANCH  15  16
ENDBRANCH  14  15
ENDBRANCH  13  14
ENDBRANCH  12  13
ENDBRANCH   1  12
TORSDOF 14
ENDMDL
MODEL 4
REMARK VINA RESULT:    -4.495      5.638      8.005
REMARK INTER + INTRA:          -9.098
REMARK INTER:                  -7.794
REMARK INTRA:                  -1.304
REMARK UNBOUND:                -0.923
REMARK SMILES CCCCCCCCCCCCCC[C@H](C)C(=O)[O-]
REMARK SMILES IDX 9 1 10 2 11 3 12 4 13 5 14 6 15 7 16 8 17 9 18 10 19 11 8 12
REMARK SMILES IDX 7 13 6 14 5 15 4 16 3 17 2 18 1 19
REMARK H PARENT
REMARK Flexibility Score: inf
ROOT
ATOM      1  C   UNL     1      10.198 -16.978 -27.041  1.00  0.00     0.000 C 
ENDROOT
BRANCH   1   2
ATOM      2  C   UNL     1       9.723 -16.586 -25.633  1.00  0.00     0.000 C 
BRANCH   2   3
ATOM      3  C   UNL     1      10.919 -16.328 -24.705  1.00  0.00     0.000 C 
BRANCH   3   4
ATOM      4  C   UNL     1      10.927 -17.250 -23.475  1.00  0.00     0.000 C 
BRANCH   4   5
ATOM      5  C   UNL     1       9.969 -16.772 -22.371  1.00  0.00     0.001 C 
BRANCH   5   6
ATOM      6  C   UNL     1      10.587 -15.679 -21.477  1.00  0.00     0.009 C 
BRANCH   6   7
ATOM      7  C   UNL     1       9.699 -14.428 -21.294  1.00  0.00     0.032 C 
ATOM      8  C   UNL     1       9.616 -13.635 -22.602  1.00  0.00     0.014 C 
BRANCH   7   9
ATOM      9  C   UNL     1      10.219 -13.539 -20.196  1.00  0.00     0.044 C 
ATOM     10  O   UNL     1      10.768 -14.044 -19.182  1.00  0.00    -0.550 OA
ATOM     11  O   UNL     1      10.099 -12.158 -20.295  1.00  0.00    -0.550 OA
ENDBRANCH   7   9
ENDBRANCH   6   7
ENDBRANCH   5   6
ENDBRANCH   4   5
ENDBRANCH   3   4
ENDBRANCH   2   3
ENDBRANCH   1   2
BRANCH   1  12
ATOM     12  C   UNL     1      11.708 -17.252 -27.104  1.00  0.00     0.000 C 
BRANCH  12  13
ATOM     13  C   UNL     1      12.032 -18.718 -27.433  1.00  0.00    -0.000 C 
BRANCH  13  14
ATOM     14  C   UNL     1      12.836 -18.824 -28.736  1.00  0.00    -0.000 C 
BRANCH  14  15
ATOM     15  C   UNL     1      13.017 -17.466 -29.432  1.00  0.00    -0.000 C 
BRANCH  15  16
ATOM     16  C   UNL     1      14.462 -17.230 -29.905  1.00  0.00    -0.000 C 
BRANCH  16  17
ATOM     17  C   UNL     1      15.141 -16.064 -29.168  1.00  0.00    -0.000 C 
BRANCH  17  18
ATOM     18  C   UNL     1      15.364 -16.359 -27.678  1.00  0.00    -0.003 C 
ATOM     19  C   UNL     1      16.663 -17.130 -27.459  1.00  0.00     0.004 C 
ENDBRANCH  17  18
ENDBRANCH  16  17
ENDBRANCH  15  16
ENDBRANCH  14  15
ENDBRANCH  13  14
ENDBRANCH  12  13
ENDBRANCH   1  12
TORSDOF 14
ENDMDL
MODEL 5
REMARK VINA RESULT:    -4.449      2.237      2.563
REMARK INTER + INTRA:          -9.013
REMARK INTER:                  -8.219
REMARK INTRA:                  -0.795
REMARK UNBOUND:                -0.923
REMARK SMILES CCCCCCCCCCCCCC[C@H](C)C(=O)[O-]
REMARK SMILES IDX 9 1 10 2 11 3 12 4 13 5 14 6 15 7 16 8 17 9 18 10 19 11 8 12
REMARK SMILES IDX 7 13 6 14 5 15 4 16 3 17 2 18 1 19
REMARK H PARENT
REMARK Flexibility Score: inf
ROOT
ATOM      1  C   UNL     1       9.537 -11.052 -25.168  1.00  0.00     0.000 C 
ENDROOT
BRANCH   1   2
ATOM      2  C   UNL     1       8.423 -11.713 -24.341  1.00  0.00     0.000 C 
BRANCH   2   3
ATOM      3  C   UNL     1       8.969 -12.910 -23.547  1.00  0.00     0.000 C 
BRANCH   3   4
ATOM      4  C   UNL     1      10.501 -12.898 -23.432  1.00  0.00     0.000 C 
BRANCH   4   5
ATOM      5  C   UNL     1      11.062 -14.218 -22.875  1.00  0.00     0.001 C 
BRANCH   5   6
ATOM      6  C   UNL     1      10.359 -15.459 -23.459  1.00  0.00     0.009 C 
BRANCH   6   7
ATOM      7  C   UNL     1      11.318 -16.517 -24.047  1.00  0.00     0.032 C 
ATOM      8  C   UNL     1      10.882 -16.904 -25.464  1.00  0.00     0.014 C 
BRANCH   7   9
ATOM      9  C   UNL     1      11.376 -17.748 -23.183  1.00  0.00     0.044 C 
ATOM     10  O   UNL     1      10.782 -17.770 -22.074  1.00  0.00    -0.550 OA
ATOM     11  O   UNL     1      12.085 -18.868 -23.603  1.00  0.00    -0.550 OA
ENDBRANCH   7   9
ENDBRANCH   6   7
ENDBRANCH   5   6
ENDBRANCH   4   5
ENDBRANCH   3   4
ENDBRANCH   2   3
ENDBRANCH   1   2
BRANCH   1  12
ATOM     12  C   UNL     1       9.827  -9.609 -24.728  1.00  0.00     0.000 C 
BRANCH  12  13
ATOM     13  C   UNL     1       8.551  -8.766 -24.580  1.00  0.00    -0.000 C 
BRANCH  13  14
ATOM     14  C   UNL     1       8.098  -8.212 -25.939  1.00  0.00    -0.000 C 
BRANCH  14  15
ATOM     15  C   UNL     1       9.163  -7.324 -26.601  1.00  0.00    -0.000 C 
BRANCH  15  16
ATOM     16  C   UNL     1       8.613  -6.532 -27.799  1.00  0.00    -0.000 C 
BRANCH  16  17
ATOM     17  C   UNL     1       8.844  -7.249 -29.138  1.00  0.00    -0.000 C 
BRANCH  17  18
ATOM     18  C   UNL     1       8.308  -6.450 -30.335  1.00  0.00    -0.003 C 
ATOM     19  C   UNL     1       9.231  -6.583 -31.543  1.00  0.00     0.004 C 
ENDBRANCH  17  18
ENDBRANCH  16  17
ENDBRANCH  15  16
ENDBRANCH  14  15
ENDBRANCH  13  14
ENDBRANCH  12  13
ENDBRANCH   1  12
TORSDOF 14
ENDMDL
MODEL 6
REMARK VINA RESULT:    -4.433      5.709      8.704
REMARK INTER + INTRA:          -8.985
REMARK INTER:                  -6.717
REMARK INTRA:                  -2.268
REMARK UNBOUND:                -0.923
REMARK SMILES CCCCCCCCCCCCCC[C@H](C)C(=O)[O-]
REMARK SMILES IDX 9 1 10 2 11 3 12 4 13 5 14 6 15 7 16 8 17 9 18 10 19 11 8 12
REMARK SMILES IDX 7 13 6 14 5 15 4 16 3 17 2 18 1 19
REMARK H PARENT
REMARK Flexibility Score: inf
ROOT
ATOM      1  C   UNL     1      11.239 -16.606 -25.757  1.00  0.00     0.000 C 
ENDROOT
BRANCH   1   2
ATOM      2  C   UNL     1       9.760 -16.376 -26.107  1.00  0.00     0.000 C 
BRANCH   2   3
ATOM      3  C   UNL     1       9.158 -15.263 -25.236  1.00  0.00     0.000 C 
BRANCH   3   4
ATOM      4  C   UNL     1       8.148 -15.795 -24.206  1.00  0.00     0.000 C 
BRANCH   4   5
ATOM      5  C   UNL     1       8.445 -15.302 -22.779  1.00  0.00     0.001 C 
BRANCH   5   6
ATOM      6  C   UNL     1       9.670 -14.369 -22.713  1.00  0.00     0.009 C 
BRANCH   6   7
ATOM      7  C   UNL     1      10.628 -14.657 -21.536  1.00  0.00     0.032 C 
ATOM      8  C   UNL     1      10.441 -16.092 -21.034  1.00  0.00     0.014 C 
BRANCH   7   9
ATOM      9  C   UNL     1      10.411 -13.693 -20.400  1.00  0.00     0.044 C 
ATOM     10  O   UNL     1      10.657 -14.045 -19.217  1.00  0.00    -0.550 OA
ATOM     11  O   UNL     1       9.940 -12.409 -20.649  1.00  0.00    -0.550 OA
ENDBRANCH   7   9
ENDBRANCH   6   7
ENDBRANCH   5   6
ENDBRANCH   4   5
ENDBRANCH   3   4
ENDBRANCH   2   3
ENDBRANCH   1   2
BRANCH   1  12
ATOM     12  C   UNL     1      11.997 -17.370 -26.854  1.00  0.00     0.000 C 
BRANCH  12  13
ATOM     13  C   UNL     1      11.067 -18.206 -27.746  1.00  0.00    -0.000 C 
BRANCH  13  14
ATOM     14  C   UNL     1      11.268 -19.707 -27.494  1.00  0.00    -0.000 C 
BRANCH  14  15
ATOM     15  C   UNL     1      10.110 -20.334 -26.701  1.00  0.00    -0.000 C 
BRANCH  15  16
ATOM     16  C   UNL     1      10.472 -20.587 -25.226  1.00  0.00    -0.000 C 
BRANCH  16  17
ATOM     17  C   UNL     1       9.379 -20.105 -24.259  1.00  0.00    -0.000 C 
BRANCH  17  18
ATOM     18  C   UNL     1       9.862 -18.972 -23.342  1.00  0.00    -0.003 C 
ATOM     19  C   UNL     1      11.386 -18.928 -23.279  1.00  0.00     0.004 C 
ENDBRANCH  17  18
ENDBRANCH  16  17
ENDBRANCH  15  16
ENDBRANCH  14  15
ENDBRANCH  13  14
ENDBRANCH  12  13
ENDBRANCH   1  12
TORSDOF 14
ENDMDL
MODEL 7
REMARK VINA RESULT:    -4.430      3.602      5.915
REMARK INTER + INTRA:          -8.980
REMARK INTER:                  -6.991
REMARK INTRA:                  -1.989
REMARK UNBOUND:                -0.923
REMARK SMILES CCCCCCCCCCCCCC[C@H](C)C(=O)[O-]
REMARK SMILES IDX 9 1 10 2 11 3 12 4 13 5 14 6 15 7 16 8 17 9 18 10 19 11 8 12
REMARK SMILES IDX 7 13 6 14 5 15 4 16 3 17 2 18 1 19
REMARK H PARENT
REMARK Flexibility Score: inf
ROOT
ATOM      1  C   UNL     1      10.350 -13.512 -20.104  1.00  0.00     0.000 C 
ENDROOT
BRANCH   1   2
ATOM      2  C   UNL     1      10.708 -14.988 -19.869  1.00  0.00     0.000 C 
BRANCH   2   3
ATOM      3  C   UNL     1       9.786 -15.911 -20.680  1.00  0.00     0.000 C 
BRANCH   3   4
ATOM      4  C   UNL     1      10.562 -16.891 -21.574  1.00  0.00     0.000 C 
BRANCH   4   5
ATOM      5  C   UNL     1      10.216 -16.732 -23.064  1.00  0.00     0.001 C 
BRANCH   5   6
ATOM      6  C   UNL     1      11.466 -16.590 -23.955  1.00  0.00     0.009 C 
BRANCH   6   7
ATOM      7  C   UNL     1      11.168 -16.563 -25.471  1.00  0.00     0.032 C 
ATOM      8  C   UNL     1       9.659 -16.642 -25.720  1.00  0.00     0.014 C 
BRANCH   7   9
ATOM      9  C   UNL     1      11.858 -17.692 -26.188  1.00  0.00     0.044 C 
ATOM     10  O   UNL     1      11.643 -18.883 -25.844  1.00  0.00    -0.550 OA
ATOM     11  O   UNL     1      12.735 -17.428 -27.234  1.00  0.00    -0.550 OA
ENDBRANCH   7   9
ENDBRANCH   6   7
ENDBRANCH   5   6
ENDBRANCH   4   5
ENDBRANCH   3   4
ENDBRANCH   2   3
ENDBRANCH   1   2
BRANCH   1  12
ATOM     12  C   UNL     1       9.757 -13.259 -21.499  1.00  0.00     0.000 C 
BRANCH  12  13
ATOM     13  C   UNL     1      10.835 -13.034 -22.570  1.00  0.00    -0.000 C 
BRANCH  13  14
ATOM     14  C   UNL     1      10.224 -13.064 -23.979  1.00  0.00    -0.000 C 
BRANCH  14  15
ATOM     15  C   UNL     1       8.688 -13.017 -23.958  1.00  0.00    -0.000 C 
BRANCH  15  16
ATOM     16  C   UNL     1       8.119 -11.881 -24.826  1.00  0.00    -0.000 C 
BRANCH  16  17
ATOM     17  C   UNL     1       8.862 -10.552 -24.621  1.00  0.00    -0.000 C 
BRANCH  17  18
ATOM     18  C   UNL     1       8.868  -9.679 -25.884  1.00  0.00    -0.003 C 
ATOM     19  C   UNL     1       8.785 -10.537 -27.144  1.00  0.00     0.004 C 
ENDBRANCH  17  18
ENDBRANCH  16  17
ENDBRANCH  15  16
ENDBRANCH  14  15
ENDBRANCH  13  14
ENDBRANCH  12  13
ENDBRANCH   1  12
TORSDOF 14
ENDMDL
MODEL 8
REMARK VINA RESULT:    -4.383      3.153      4.822
REMARK INTER + INTRA:          -8.894
REMARK INTER:                  -7.559
REMARK INTRA:                  -1.335
REMARK UNBOUND:                -0.923
REMARK SMILES CCCCCCCCCCCCCC[C@H](C)C(=O)[O-]
REMARK SMILES IDX 9 1 10 2 11 3 12 4 13 5 14 6 15 7 16 8 17 9 18 10 19 11 8 12
REMARK SMILES IDX 7 13 6 14 5 15 4 16 3 17 2 18 1 19
REMARK H PARENT
REMARK Flexibility Score: inf
ROOT
ATOM      1  C   UNL     1      10.940 -14.007 -23.166  1.00  0.00     0.000 C 
ENDROOT
BRANCH   1   2
ATOM      2  C   UNL     1      10.672 -14.336 -21.689  1.00  0.00     0.000 C 
BRANCH   2   3
ATOM      3  C   UNL     1      10.067 -15.741 -21.542  1.00  0.00     0.000 C 
BRANCH   3   4
ATOM      4  C   UNL     1       8.912 -15.996 -22.524  1.00  0.00     0.000 C 
BRANCH   4   5
ATOM      5  C   UNL     1       8.811 -17.472 -22.946  1.00  0.00     0.001 C 
BRANCH   5   6
ATOM      6  C   UNL     1       9.060 -17.679 -24.453  1.00  0.00     0.009 C 
BRANCH   6   7
ATOM      7  C   UNL     1      10.468 -17.261 -24.930  1.00  0.00     0.032 C 
ATOM      8  C   UNL     1      10.392 -16.606 -26.312  1.00  0.00     0.014 C 
BRANCH   7   9
ATOM      9  C   UNL     1      11.405 -18.439 -24.980  1.00  0.00     0.044 C 
ATOM     10  O   UNL     1      11.670 -18.987 -26.082  1.00  0.00    -0.550 OA
ATOM     11  O   UNL     1      11.983 -18.927 -23.815  1.00  0.00    -0.550 OA
ENDBRANCH   7   9
ENDBRANCH   6   7
ENDBRANCH   5   6
ENDBRANCH   4   5
ENDBRANCH   3   4
ENDBRANCH   2   3
ENDBRANCH   1   2
BRANCH   1  12
ATOM     12  C   UNL     1      10.464 -12.600 -23.556  1.00  0.00     0.000 C 
BRANCH  12  13
ATOM     13  C   UNL     1       9.164 -12.619 -24.376  1.00  0.00    -0.000 C 
BRANCH  13  14
ATOM     14  C   UNL     1       8.677 -11.192 -24.668  1.00  0.00    -0.000 C 
BRANCH  14  15
ATOM     15  C   UNL     1       9.775 -10.138 -24.456  1.00  0.00    -0.000 C 
BRANCH  15  16
ATOM     16  C   UNL     1       9.258  -8.700 -24.640  1.00  0.00    -0.000 C 
BRANCH  16  17
ATOM     17  C   UNL     1       8.131  -8.606 -25.681  1.00  0.00    -0.000 C 
BRANCH  17  18
ATOM     18  C   UNL     1       8.642  -8.176 -27.064  1.00  0.00    -0.003 C 
ATOM     19  C   UNL     1       9.395  -6.851 -26.984  1.00  0.00     0.004 C 
ENDBRANCH  17  18
ENDBRANCH  16  17
ENDBRANCH  15  16
ENDBRANCH  14  15
ENDBRANCH  13  14
ENDBRANCH  12  13
ENDBRANCH   1  12
TORSDOF 14
ENDMDL
MODEL 9
REMARK VINA RESULT:    -4.338      5.253      8.614
REMARK INTER + INTRA:          -8.812
REMARK INTER:                  -6.577
REMARK INTRA:                  -2.235
REMARK UNBOUND:                -0.923
REMARK SMILES CCCCCCCCCCCCCC[C@H](C)C(=O)[O-]
REMARK SMILES IDX 9 1 10 2 11 3 12 4 13 5 14 6 15 7 16 8 17 9 18 10 19 11 8 12
REMARK SMILES IDX 7 13 6 14 5 15 4 16 3 17 2 18 1 19
REMARK H PARENT
REMARK Flexibility Score: inf
ROOT
ATOM      1  C   UNL     1       8.946 -18.895 -22.635  1.00  0.00     0.000 C 
ENDROOT
BRANCH   1   2
ATOM      2  C   UNL     1       7.908 -18.289 -23.592  1.00  0.00     0.000 C 
BRANCH   2   3
ATOM      3  C   UNL     1       8.083 -16.766 -23.696  1.00  0.00     0.000 C 
BRANCH   3   4
ATOM      4  C   UNL     1       8.393 -16.299 -25.127  1.00  0.00     0.000 C 
BRANCH   4   5
ATOM      5  C   UNL     1       9.388 -15.127 -25.163  1.00  0.00     0.001 C 
BRANCH   5   6
ATOM      6  C   UNL     1       9.122 -14.084 -24.060  1.00  0.00     0.009 C 
BRANCH   6   7
ATOM      7  C   UNL     1      10.385 -13.622 -23.301  1.00  0.00     0.032 C 
ATOM      8  C   UNL     1      10.856 -14.712 -22.334  1.00  0.00     0.014 C 
BRANCH   7   9
ATOM      9  C   UNL     1      10.136 -12.347 -22.541  1.00  0.00     0.044 C 
ATOM     10  O   UNL     1      10.144 -12.351 -21.282  1.00  0.00    -0.550 OA
ATOM     11  O   UNL     1       9.896 -11.159 -23.221  1.00  0.00    -0.550 OA
ENDBRANCH   7   9
ENDBRANCH   6   7
ENDBRANCH   5   6
ENDBRANCH   4   5
ENDBRANCH   3   4
ENDBRANCH   2   3
ENDBRANCH   1   2
BRANCH   1  12
ATOM     12  C   UNL     1      10.356 -18.326 -22.850  1.00  0.00     0.000 C 
BRANCH  12  13
ATOM     13  C   UNL     1      11.289 -19.310 -23.573  1.00  0.00    -0.000 C 
BRANCH  13  14
ATOM     14  C   UNL     1      10.574 -20.638 -23.856  1.00  0.00    -0.000 C 
BRANCH  14  15
ATOM     15  C   UNL     1      10.252 -20.832 -25.346  1.00  0.00    -0.000 C 
BRANCH  15  16
ATOM     16  C   UNL     1      10.970 -19.809 -26.244  1.00  0.00    -0.000 C 
BRANCH  16  17
ATOM     17  C   UNL     1       9.992 -18.975 -27.088  1.00  0.00    -0.000 C 
BRANCH  17  18
ATOM     18  C   UNL     1      10.630 -17.687 -27.628  1.00  0.00    -0.003 C 
ATOM     19  C   UNL     1      11.880 -17.318 -26.833  1.00  0.00     0.004 C 
ENDBRANCH  17  18
ENDBRANCH  16  17
ENDBRANCH  15  16
ENDBRANCH  14  15
ENDBRANCH  13  14
ENDBRANCH  12  13
ENDBRANCH   1  12
TORSDOF 14
ENDMDL
