MODEL 1
REMARK VINA RESULT:   -10.569      0.000      0.000
REMARK INTER + INTRA:         -14.216
REMARK INTER:                 -13.967
REMARK INTRA:                  -0.249
REMARK UNBOUND:                -0.249
REMARK SMILES CC(C)=CCC[C@H](C(=O)[O-])[C@@H]1CC[C@@]2(C)C3=C(CC[C@@]12C)[C@]1(C)CC[C@H](O)C(C)(C)[C@@H]1CC3
REMARK SMILES IDX 6 1 7 2 8 3 9 4 10 5 11 6 12 7 20 8 13 9 14 10 19 11 21 12
REMARK SMILES IDX 15 13 16 14 18 15 17 16 33 17 22 18 32 19 31 20 24 21 23 22
REMARK SMILES IDX 28 23 25 24 26 25 29 26 30 27 27 28 5 30 4 31 2 32 1 33 3 34
REMARK H PARENT 27 29
REMARK Flexibility Score: inf
ROOT
ATOM      1  C   UNL     1     -17.353 -37.821  23.140  1.00  0.00     0.014 C 
ENDROOT
BRANCH   1   2
ATOM      2  C   UNL     1     -18.154 -38.569  24.254  1.00  0.00     0.039 C 
BRANCH   2   3
ATOM      3  C   UNL     1     -17.446 -38.653  25.597  1.00  0.00     0.045 C 
ATOM      4  O   UNL     1     -17.814 -37.903  26.543  1.00  0.00    -0.550 OA
ATOM      5  O   UNL     1     -16.393 -39.528  25.815  1.00  0.00    -0.550 OA
ENDBRANCH   2   3
BRANCH   2   6
ATOM      6  C   UNL     1     -18.926 -39.866  23.788  1.00  0.00     0.004 C 
ATOM      7  C   UNL     1     -19.736 -39.618  22.509  1.00  0.00     0.006 C 
ATOM      8  C   UNL     1     -19.838 -40.744  24.750  1.00  0.00    -0.020 C 
ATOM      9  C   UNL     1     -20.736 -40.746  22.419  1.00  0.00     0.012 C 
ATOM     10  C   UNL     1     -21.140 -41.072  23.870  1.00  0.00    -0.006 C 
ATOM     11  C   UNL     1     -19.060 -42.046  25.156  1.00  0.00     0.012 C 
ATOM     12  C   UNL     1     -20.192 -40.066  26.106  1.00  0.00     0.012 C 
ATOM     13  C   UNL     1     -22.333 -40.126  24.236  1.00  0.00     0.017 C 
ATOM     14  C   UNL     1     -21.595 -42.557  23.916  1.00  0.00    -0.064 C 
ATOM     15  C   UNL     1     -19.228 -43.167  24.151  1.00  0.00     0.032 C 
ATOM     16  C   UNL     1     -20.691 -43.563  24.112  1.00  0.00    -0.064 C 
ATOM     17  C   UNL     1     -23.036 -42.886  23.597  1.00  0.00     0.032 C 
ATOM     18  C   UNL     1     -21.089 -45.060  24.295  1.00  0.00    -0.008 C 
ATOM     19  C   UNL     1     -23.226 -44.313  23.115  1.00  0.00     0.009 C 
ATOM     20  C   UNL     1     -22.656 -45.301  24.154  1.00  0.00     0.007 C 
ATOM     21  C   UNL     1     -20.318 -45.868  23.205  1.00  0.00     0.014 C 
ATOM     22  C   UNL     1     -20.619 -45.475  25.724  1.00  0.00     0.016 C 
ATOM     23  C   UNL     1     -23.107 -46.811  23.897  1.00  0.00    -0.006 C 
ATOM     24  C   UNL     1     -20.731 -47.336  23.085  1.00  0.00     0.033 C 
ATOM     25  C   UNL     1     -22.230 -47.489  22.801  1.00  0.00     0.120 C 
ATOM     26  C   UNL     1     -23.045 -47.638  25.215  1.00  0.00     0.014 C 
ATOM     27  C   UNL     1     -24.598 -46.901  23.456  1.00  0.00     0.014 C 
BRANCH  25  28
ATOM     28  O   UNL     1     -22.520 -46.950  21.534  1.00  0.00    -0.393 OA
ATOM     29  H   UNL     1     -23.476 -47.148  21.347  1.00  0.00     0.210 HD
ENDBRANCH  25  28
ENDBRANCH   2   6
ENDBRANCH   1   2
BRANCH   1  30
ATOM     30  C   UNL     1     -16.729 -36.467  23.544  1.00  0.00     0.028 C 
BRANCH  30  31
ATOM     31  C   UNL     1     -15.341 -36.636  24.120  1.00  0.00    -0.028 C 
ATOM     32  C   UNL     1     -14.943 -36.111  25.300  1.00  0.00    -0.080 C 
ATOM     33  C   UNL     1     -15.860 -35.258  26.146  1.00  0.00     0.039 C 
ATOM     34  C   UNL     1     -13.538 -36.383  25.771  1.00  0.00     0.039 C 
ENDBRANCH  30  31
ENDBRANCH   1  30
TORSDOF 6
ENDMDL
MODEL 2
REMARK VINA RESULT:    -9.158      1.580      9.212
REMARK INTER + INTRA:         -12.352
REMARK INTER:                 -11.710
REMARK INTRA:                  -0.642
REMARK UNBOUND:                -0.249
REMARK SMILES CC(C)=CCC[C@H](C(=O)[O-])[C@@H]1CC[C@@]2(C)C3=C(CC[C@@]12C)[C@]1(C)CC[C@H](O)C(C)(C)[C@@H]1CC3
REMARK SMILES IDX 6 1 7 2 8 3 9 4 10 5 11 6 12 7 20 8 13 9 14 10 19 11 21 12
REMARK SMILES IDX 15 13 16 14 18 15 17 16 33 17 22 18 32 19 31 20 24 21 23 22
REMARK SMILES IDX 28 23 25 24 26 25 29 26 30 27 27 28 5 30 4 31 2 32 1 33 3 34
REMARK H PARENT 27 29
REMARK Flexibility Score: inf
ROOT
ATOM      1  C   UNL     1     -21.562 -44.530  25.697  1.00  0.00     0.014 C 
ENDROOT
BRANCH   1   2
ATOM      2  C   UNL     1     -22.169 -43.370  24.843  1.00  0.00     0.039 C 
BRANCH   2   3
ATOM      3  C   UNL     1     -22.726 -43.798  23.495  1.00  0.00     0.045 C 
ATOM      4  O   UNL     1     -21.954 -44.300  22.632  1.00  0.00    -0.550 OA
ATOM      5  O   UNL     1     -24.068 -43.645  23.177  1.00  0.00    -0.550 OA
ENDBRANCH   2   3
BRANCH   2   6
ATOM      6  C   UNL     1     -21.366 -42.009  24.867  1.00  0.00     0.004 C 
ATOM      7  C   UNL     1     -22.111 -40.895  24.121  1.00  0.00     0.006 C 
ATOM      8  C   UNL     1     -19.831 -41.883  24.475  1.00  0.00    -0.020 C 
ATOM      9  C   UNL     1     -21.088 -39.820  23.842  1.00  0.00     0.012 C 
ATOM     10  C   UNL     1     -19.760 -40.555  23.576  1.00  0.00    -0.006 C 
ATOM     11  C   UNL     1     -18.970 -41.754  25.783  1.00  0.00     0.012 C 
ATOM     12  C   UNL     1     -19.242 -43.127  23.746  1.00  0.00     0.012 C 
ATOM     13  C   UNL     1     -19.725 -40.897  22.049  1.00  0.00     0.017 C 
ATOM     14  C   UNL     1     -18.599 -39.589  23.939  1.00  0.00    -0.064 C 
ATOM     15  C   UNL     1     -18.853 -40.324  26.269  1.00  0.00     0.032 C 
ATOM     16  C   UNL     1     -18.117 -39.518  25.216  1.00  0.00    -0.064 C 
ATOM     17  C   UNL     1     -18.103 -38.621  22.888  1.00  0.00     0.032 C 
ATOM     18  C   UNL     1     -16.876 -38.667  25.626  1.00  0.00    -0.008 C 
ATOM     19  C   UNL     1     -17.425 -37.397  23.480  1.00  0.00     0.009 C 
ATOM     20  C   UNL     1     -16.275 -37.832  24.412  1.00  0.00     0.007 C 
ATOM     21  C   UNL     1     -17.343 -37.706  26.763  1.00  0.00     0.014 C 
ATOM     22  C   UNL     1     -15.804 -39.670  26.157  1.00  0.00     0.016 C 
ATOM     23  C   UNL     1     -15.302 -36.629  24.809  1.00  0.00    -0.006 C 
ATOM     24  C   UNL     1     -16.318 -36.643  27.164  1.00  0.00     0.033 C 
ATOM     25  C   UNL     1     -15.895 -35.778  25.972  1.00  0.00     0.120 C 
ATOM     26  C   UNL     1     -13.895 -37.165  25.206  1.00  0.00     0.014 C 
ATOM     27  C   UNL     1     -15.027 -35.686  23.600  1.00  0.00     0.014 C 
BRANCH  25  28
ATOM     28  O   UNL     1     -17.000 -35.032  25.523  1.00  0.00    -0.393 OA
ATOM     29  H   UNL     1     -17.124 -35.247  24.561  1.00  0.00     0.210 HD
ENDBRANCH  25  28
ENDBRANCH   2   6
ENDBRANCH   1   2
BRANCH   1  30
ATOM     30  C   UNL     1     -22.136 -45.939  25.435  1.00  0.00     0.028 C 
BRANCH  30  31
ATOM     31  C   UNL     1     -21.067 -46.905  24.974  1.00  0.00    -0.028 C 
ATOM     32  C   UNL     1     -21.157 -47.654  23.853  1.00  0.00    -0.080 C 
ATOM     33  C   UNL     1     -22.379 -47.619  22.963  1.00  0.00     0.039 C 
ATOM     34  C   UNL     1     -20.004 -48.554  23.493  1.00  0.00     0.039 C 
ENDBRANCH  30  31
ENDBRANCH   1  30
TORSDOF 6
ENDMDL
MODEL 3
REMARK VINA RESULT:    -8.661      1.782      9.259
REMARK INTER + INTRA:         -11.694
REMARK INTER:                 -11.319
REMARK INTRA:                  -0.375
REMARK UNBOUND:                -0.249
REMARK SMILES CC(C)=CCC[C@H](C(=O)[O-])[C@@H]1CC[C@@]2(C)C3=C(CC[C@@]12C)[C@]1(C)CC[C@H](O)C(C)(C)[C@@H]1CC3
REMARK SMILES IDX 6 1 7 2 8 3 9 4 10 5 11 6 12 7 20 8 13 9 14 10 19 11 21 12
REMARK SMILES IDX 15 13 16 14 18 15 17 16 33 17 22 18 32 19 31 20 24 21 23 22
REMARK SMILES IDX 28 23 25 24 26 25 29 26 30 27 27 28 5 30 4 31 2 32 1 33 3 34
REMARK H PARENT 27 29
REMARK Flexibility Score: inf
ROOT
ATOM      1  C   UNL     1     -23.290 -43.600  24.027  1.00  0.00     0.014 C 
ENDROOT
BRANCH   1   2
ATOM      2  C   UNL     1     -21.817 -43.617  24.547  1.00  0.00     0.039 C 
BRANCH   2   3
ATOM      3  C   UNL     1     -21.561 -44.574  25.699  1.00  0.00     0.045 C 
ATOM      4  O   UNL     1     -22.381 -44.628  26.658  1.00  0.00    -0.550 OA
ATOM      5  O   UNL     1     -20.440 -45.389  25.738  1.00  0.00    -0.550 OA
ENDBRANCH   2   3
BRANCH   2   6
ATOM      6  C   UNL     1     -21.106 -42.208  24.635  1.00  0.00     0.004 C 
ATOM      7  C   UNL     1     -21.917 -41.116  23.926  1.00  0.00     0.006 C 
ATOM      8  C   UNL     1     -19.579 -41.965  24.266  1.00  0.00    -0.020 C 
ATOM      9  C   UNL     1     -20.964 -39.965  23.703  1.00  0.00     0.012 C 
ATOM     10  C   UNL     1     -19.588 -40.600  23.422  1.00  0.00    -0.006 C 
ATOM     11  C   UNL     1     -18.740 -41.834  25.587  1.00  0.00     0.012 C 
ATOM     12  C   UNL     1     -18.903 -43.136  23.494  1.00  0.00     0.012 C 
ATOM     13  C   UNL     1     -19.518 -40.876  21.883  1.00  0.00     0.017 C 
ATOM     14  C   UNL     1     -18.497 -39.575  23.837  1.00  0.00    -0.064 C 
ATOM     15  C   UNL     1     -18.722 -40.420  26.132  1.00  0.00     0.032 C 
ATOM     16  C   UNL     1     -18.032 -39.525  25.121  1.00  0.00    -0.064 C 
ATOM     17  C   UNL     1     -18.057 -38.534  22.831  1.00  0.00     0.032 C 
ATOM     18  C   UNL     1     -16.853 -38.612  25.579  1.00  0.00    -0.008 C 
ATOM     19  C   UNL     1     -17.467 -37.294  23.481  1.00  0.00     0.009 C 
ATOM     20  C   UNL     1     -16.299 -37.690  24.407  1.00  0.00     0.007 C 
ATOM     21  C   UNL     1     -17.392 -37.732  26.749  1.00  0.00     0.014 C 
ATOM     22  C   UNL     1     -15.722 -39.563  26.081  1.00  0.00     0.016 C 
ATOM     23  C   UNL     1     -15.411 -36.444  24.863  1.00  0.00    -0.006 C 
ATOM     24  C   UNL     1     -16.444 -36.621  27.204  1.00  0.00     0.033 C 
ATOM     25  C   UNL     1     -16.068 -35.681  26.053  1.00  0.00     0.120 C 
ATOM     26  C   UNL     1     -13.974 -36.901  25.254  1.00  0.00     0.014 C 
ATOM     27  C   UNL     1     -15.188 -35.435  23.697  1.00  0.00     0.014 C 
BRANCH  25  28
ATOM     28  O   UNL     1     -17.217 -34.991  25.622  1.00  0.00    -0.393 OA
ATOM     29  H   UNL     1     -17.485 -34.384  26.362  1.00  0.00     0.210 HD
ENDBRANCH  25  28
ENDBRANCH   2   6
ENDBRANCH   1   2
BRANCH   1  30
ATOM     30  C   UNL     1     -23.765 -44.869  23.286  1.00  0.00     0.028 C 
BRANCH  30  31
ATOM     31  C   UNL     1     -22.762 -45.996  23.400  1.00  0.00    -0.028 C 
ATOM     32  C   UNL     1     -22.751 -47.082  22.597  1.00  0.00    -0.080 C 
ATOM     33  C   UNL     1     -23.787 -47.288  21.515  1.00  0.00     0.039 C 
ATOM     34  C   UNL     1     -21.675 -48.117  22.800  1.00  0.00     0.039 C 
ENDBRANCH  30  31
ENDBRANCH   1  30
TORSDOF 6
ENDMDL
MODEL 4
REMARK VINA RESULT:    -8.265      1.819      9.177
REMARK INTER + INTRA:         -11.172
REMARK INTER:                 -10.442
REMARK INTRA:                  -0.730
REMARK UNBOUND:                -0.249
REMARK SMILES CC(C)=CCC[C@H](C(=O)[O-])[C@@H]1CC[C@@]2(C)C3=C(CC[C@@]12C)[C@]1(C)CC[C@H](O)C(C)(C)[C@@H]1CC3
REMARK SMILES IDX 6 1 7 2 8 3 9 4 10 5 11 6 12 7 20 8 13 9 14 10 19 11 21 12
REMARK SMILES IDX 15 13 16 14 18 15 17 16 33 17 22 18 32 19 31 20 24 21 23 22
REMARK SMILES IDX 28 23 25 24 26 25 29 26 30 27 27 28 5 30 4 31 2 32 1 33 3 34
REMARK H PARENT 27 29
REMARK Flexibility Score: inf
ROOT
ATOM      1  C   UNL     1     -22.226 -44.722  25.229  1.00  0.00     0.014 C 
ENDROOT
BRANCH   1   2
ATOM      2  C   UNL     1     -22.434 -43.233  24.801  1.00  0.00     0.039 C 
BRANCH   2   3
ATOM      3  C   UNL     1     -23.511 -43.019  23.750  1.00  0.00     0.045 C 
ATOM      4  O   UNL     1     -23.240 -42.371  22.702  1.00  0.00    -0.550 OA
ATOM      5  O   UNL     1     -24.799 -43.509  23.913  1.00  0.00    -0.550 OA
ENDBRANCH   2   3
BRANCH   2   6
ATOM      6  C   UNL     1     -21.116 -42.378  24.636  1.00  0.00     0.004 C 
ATOM      7  C   UNL     1     -19.956 -43.219  24.089  1.00  0.00     0.006 C 
ATOM      8  C   UNL     1     -20.516 -41.451  25.780  1.00  0.00    -0.020 C 
ATOM      9  C   UNL     1     -18.696 -42.441  24.385  1.00  0.00     0.012 C 
ATOM     10  C   UNL     1     -18.938 -41.739  25.736  1.00  0.00    -0.006 C 
ATOM     11  C   UNL     1     -20.849 -39.950  25.458  1.00  0.00     0.012 C 
ATOM     12  C   UNL     1     -21.125 -41.688  27.193  1.00  0.00     0.012 C 
ATOM     13  C   UNL     1     -18.507 -42.744  26.856  1.00  0.00     0.017 C 
ATOM     14  C   UNL     1     -18.047 -40.467  25.779  1.00  0.00    -0.064 C 
ATOM     15  C   UNL     1     -19.825 -39.304  24.547  1.00  0.00     0.032 C 
ATOM     16  C   UNL     1     -18.490 -39.281  25.266  1.00  0.00    -0.064 C 
ATOM     17  C   UNL     1     -16.621 -40.595  26.268  1.00  0.00     0.032 C 
ATOM     18  C   UNL     1     -17.704 -37.939  25.386  1.00  0.00    -0.008 C 
ATOM     19  C   UNL     1     -15.713 -39.496  25.743  1.00  0.00     0.009 C 
ATOM     20  C   UNL     1     -16.295 -38.114  26.105  1.00  0.00     0.007 C 
ATOM     21  C   UNL     1     -17.507 -37.400  23.935  1.00  0.00     0.014 C 
ATOM     22  C   UNL     1     -18.602 -36.970  26.216  1.00  0.00     0.016 C 
ATOM     23  C   UNL     1     -15.254 -36.922  25.895  1.00  0.00    -0.006 C 
ATOM     24  C   UNL     1     -16.577 -36.190  23.823  1.00  0.00     0.033 C 
ATOM     25  C   UNL     1     -15.188 -36.480  24.402  1.00  0.00     0.120 C 
ATOM     26  C   UNL     1     -15.621 -35.703  26.794  1.00  0.00     0.014 C 
ATOM     27  C   UNL     1     -13.820 -37.319  26.353  1.00  0.00     0.014 C 
BRANCH  25  28
ATOM     28  O   UNL     1     -14.556 -37.467  23.623  1.00  0.00    -0.393 OA
ATOM     29  H   UNL     1     -14.502 -37.114  22.696  1.00  0.00     0.210 HD
ENDBRANCH  25  28
ENDBRANCH   2   6
ENDBRANCH   1   2
BRANCH   1  30
ATOM     30  C   UNL     1     -22.704 -45.792  24.223  1.00  0.00     0.028 C 
BRANCH  30  31
ATOM     31  C   UNL     1     -21.996 -47.113  24.427  1.00  0.00    -0.028 C 
ATOM     32  C   UNL     1     -20.769 -47.397  23.937  1.00  0.00    -0.080 C 
ATOM     33  C   UNL     1     -19.997 -46.409  23.091  1.00  0.00     0.039 C 
ATOM     34  C   UNL     1     -20.166 -48.743  24.242  1.00  0.00     0.039 C 
ENDBRANCH  30  31
ENDBRANCH   1  30
TORSDOF 6
ENDMDL
