MODEL 1
REMARK VINA RESULT:    -6.331      0.000      0.000
REMARK INTER + INTRA:          -7.574
REMARK INTER:                  -7.442
REMARK INTRA:                  -0.132
REMARK UNBOUND:                -0.132
REMARK SMILES O=C([O-])C=Cc1ccc(O)c(O)c1
REMARK SMILES IDX 6 1 13 2 7 3 11 4 8 5 9 6 5 7 4 8 2 9 1 10 3 11 12 12 10 14
REMARK H PARENT 12 13 10 15
REMARK Flexibility Score: inf
ROOT
ATOM      1  C   UNL     1      42.918  45.297  41.937  1.00  0.00    -0.022 A 
ATOM      2  C   UNL     1      43.779  45.194  40.831  1.00  0.00     0.058 A 
ATOM      3  C   UNL     1      41.536  45.101  41.743  1.00  0.00     0.012 A 
ATOM      4  C   UNL     1      43.272  44.928  39.551  1.00  0.00     0.157 A 
ATOM      5  C   UNL     1      41.032  44.834  40.468  1.00  0.00     0.051 A 
ATOM      6  C   UNL     1      41.896  44.750  39.368  1.00  0.00     0.157 A 
ENDROOT
BRANCH   1   7
ATOM      7  C   UNL     1      43.507  45.570  43.272  1.00  0.00     0.010 C 
ATOM      8  C   UNL     1      44.771  45.270  43.605  1.00  0.00     0.025 C 
BRANCH   8   9
ATOM      9  C   UNL     1      45.317  45.544  44.944  1.00  0.00     0.064 C 
ATOM     10  O   UNL     1      45.260  46.698  45.449  1.00  0.00    -0.545 OA
ATOM     11  O   UNL     1      45.907  44.514  45.665  1.00  0.00    -0.545 OA
ENDBRANCH   8   9
ENDBRANCH   1   7
BRANCH   4  12
ATOM     12  O   UNL     1      44.130  44.838  38.457  1.00  0.00    -0.504 OA
ATOM     13  H   UNL     1      43.902  45.267  37.567  1.00  0.00     0.293 HD
ENDBRANCH   4  12
BRANCH   6  14
ATOM     14  O   UNL     1      41.396  44.486  38.096  1.00  0.00    -0.504 OA
ATOM     15  H   UNL     1      41.701  43.679  37.563  1.00  0.00     0.293 HD
ENDBRANCH   6  14
TORSDOF 4
ENDMDL
MODEL 2
REMARK VINA RESULT:    -6.277      0.815      2.073
REMARK INTER + INTRA:          -7.510
REMARK INTER:                  -7.373
REMARK INTRA:                  -0.138
REMARK UNBOUND:                -0.132
REMARK SMILES O=C([O-])C=Cc1ccc(O)c(O)c1
REMARK SMILES IDX 6 1 13 2 7 3 11 4 8 5 9 6 5 7 4 8 2 9 1 10 3 11 12 12 10 14
REMARK H PARENT 12 13 10 15
REMARK Flexibility Score: inf
ROOT
ATOM      1  C   UNL     1      42.967  45.266  41.763  1.00  0.00    -0.022 A 
ATOM      2  C   UNL     1      41.615  45.131  41.408  1.00  0.00     0.058 A 
ATOM      3  C   UNL     1      43.950  45.126  40.762  1.00  0.00     0.012 A 
ATOM      4  C   UNL     1      41.247  44.835  40.088  1.00  0.00     0.157 A 
ATOM      5  C   UNL     1      43.582  44.832  39.446  1.00  0.00     0.051 A 
ATOM      6  C   UNL     1      42.232  44.682  39.106  1.00  0.00     0.157 A 
ENDROOT
BRANCH   1   7
ATOM      7  C   UNL     1      43.303  45.591  43.172  1.00  0.00     0.010 C 
ATOM      8  C   UNL     1      44.532  45.460  43.694  1.00  0.00     0.025 C 
BRANCH   8   9
ATOM      9  C   UNL     1      44.825  45.779  45.101  1.00  0.00     0.064 C 
ATOM     10  O   UNL     1      45.508  45.000  45.818  1.00  0.00    -0.545 OA
ATOM     11  O   UNL     1      44.339  46.960  45.649  1.00  0.00    -0.545 OA
ENDBRANCH   8   9
ENDBRANCH   1   7
BRANCH   4  12
ATOM     12  O   UNL     1      39.903  44.691  39.745  1.00  0.00    -0.504 OA
ATOM     13  H   UNL     1      39.437  45.357  39.138  1.00  0.00     0.293 HD
ENDBRANCH   4  12
BRANCH   6  14
ATOM     14  O   UNL     1      41.862  44.388  37.795  1.00  0.00    -0.504 OA
ATOM     15  H   UNL     1      41.468  45.094  37.184  1.00  0.00     0.293 HD
ENDBRANCH   6  14
TORSDOF 4
ENDMDL
MODEL 3
REMARK VINA RESULT:    -6.179      2.874      7.254
REMARK INTER + INTRA:          -7.395
REMARK INTER:                  -7.260
REMARK INTRA:                  -0.135
REMARK UNBOUND:                -0.132
REMARK SMILES O=C([O-])C=Cc1ccc(O)c(O)c1
REMARK SMILES IDX 6 1 13 2 7 3 11 4 8 5 9 6 5 7 4 8 2 9 1 10 3 11 12 12 10 14
REMARK H PARENT 12 13 10 15
REMARK Flexibility Score: inf
ROOT
ATOM      1  C   UNL     1      44.253  46.344  45.774  1.00  0.00    -0.022 A 
ATOM      2  C   UNL     1      43.634  45.961  46.975  1.00  0.00     0.058 A 
ATOM      3  C   UNL     1      45.550  46.893  45.822  1.00  0.00     0.012 A 
ATOM      4  C   UNL     1      44.281  46.146  48.205  1.00  0.00     0.157 A 
ATOM      5  C   UNL     1      46.195  47.075  47.049  1.00  0.00     0.051 A 
ATOM      6  C   UNL     1      45.563  46.706  48.242  1.00  0.00     0.157 A 
ENDROOT
BRANCH   1   7
ATOM      7  C   UNL     1      43.529  46.118  44.498  1.00  0.00     0.010 C 
ATOM      8  C   UNL     1      44.073  45.518  43.429  1.00  0.00     0.025 C 
BRANCH   8   9
ATOM      9  C   UNL     1      43.328  45.322  42.174  1.00  0.00     0.064 C 
ATOM     10  O   UNL     1      43.913  45.342  41.058  1.00  0.00    -0.545 OA
ATOM     11  O   UNL     1      41.956  45.113  42.221  1.00  0.00    -0.545 OA
ENDBRANCH   8   9
ENDBRANCH   1   7
BRANCH   4  12
ATOM     12  O   UNL     1      43.656  45.774  49.395  1.00  0.00    -0.504 OA
ATOM     13  H   UNL     1      42.648  45.694  49.461  1.00  0.00     0.293 HD
ENDBRANCH   4  12
BRANCH   6  14
ATOM     14  O   UNL     1      46.202  46.888  49.466  1.00  0.00    -0.504 OA
ATOM     15  H   UNL     1      45.680  47.064  50.317  1.00  0.00     0.293 HD
ENDBRANCH   6  14
TORSDOF 4
ENDMDL
MODEL 4
REMARK VINA RESULT:    -5.853      1.753      6.491
REMARK INTER + INTRA:          -7.012
REMARK INTER:                  -6.878
REMARK INTRA:                  -0.134
REMARK UNBOUND:                -0.132
REMARK SMILES O=C([O-])C=Cc1ccc(O)c(O)c1
REMARK SMILES IDX 6 1 13 2 7 3 11 4 8 5 9 6 5 7 4 8 2 9 1 10 3 11 12 12 10 14
REMARK H PARENT 12 13 10 15
REMARK Flexibility Score: inf
ROOT
ATOM      1  C   UNL     1      44.118  45.725  44.336  1.00  0.00    -0.022 A 
ATOM      2  C   UNL     1      43.771  46.669  45.317  1.00  0.00     0.058 A 
ATOM      3  C   UNL     1      45.242  44.902  44.552  1.00  0.00     0.012 A 
ATOM      4  C   UNL     1      44.542  46.811  46.479  1.00  0.00     0.157 A 
ATOM      5  C   UNL     1      46.010  45.044  45.711  1.00  0.00     0.051 A 
ATOM      6  C   UNL     1      45.665  46.000  46.675  1.00  0.00     0.157 A 
ENDROOT
BRANCH   1   7
ATOM      7  C   UNL     1      43.262  45.607  43.129  1.00  0.00     0.010 C 
ATOM      8  C   UNL     1      43.743  45.455  41.886  1.00  0.00     0.025 C 
BRANCH   8   9
ATOM      9  C   UNL     1      42.864  45.353  40.710  1.00  0.00     0.064 C 
ATOM     10  O   UNL     1      41.611  45.424  40.824  1.00  0.00    -0.545 OA
ATOM     11  O   UNL     1      43.424  45.174  39.452  1.00  0.00    -0.545 OA
ENDBRANCH   8   9
ENDBRANCH   1   7
BRANCH   4  12
ATOM     12  O   UNL     1      44.198  47.757  47.443  1.00  0.00    -0.504 OA
ATOM     13  H   UNL     1      43.231  47.929  47.695  1.00  0.00     0.293 HD
ENDBRANCH   4  12
BRANCH   6  14
ATOM     14  O   UNL     1      46.429  46.144  47.831  1.00  0.00    -0.504 OA
ATOM     15  H   UNL     1      46.963  45.373  48.213  1.00  0.00     0.293 HD
ENDBRANCH   6  14
TORSDOF 4
ENDMDL
MODEL 5
REMARK VINA RESULT:    -5.658      1.660      6.256
REMARK INTER + INTRA:          -6.782
REMARK INTER:                  -6.643
REMARK INTRA:                  -0.139
REMARK UNBOUND:                -0.132
REMARK SMILES O=C([O-])C=Cc1ccc(O)c(O)c1
REMARK SMILES IDX 6 1 13 2 7 3 11 4 8 5 9 6 5 7 4 8 2 9 1 10 3 11 12 12 10 14
REMARK H PARENT 12 13 10 15
REMARK Flexibility Score: inf
ROOT
ATOM      1  C   UNL     1      44.167  45.599  44.119  1.00  0.00    -0.022 A 
ATOM      2  C   UNL     1      45.397  45.120  44.600  1.00  0.00     0.058 A 
ATOM      3  C   UNL     1      43.286  46.235  45.017  1.00  0.00     0.012 A 
ATOM      4  C   UNL     1      45.734  45.247  45.955  1.00  0.00     0.157 A 
ATOM      5  C   UNL     1      43.624  46.362  46.367  1.00  0.00     0.051 A 
ATOM      6  C   UNL     1      44.845  45.867  46.841  1.00  0.00     0.157 A 
ENDROOT
BRANCH   1   7
ATOM      7  C   UNL     1      43.863  45.449  42.674  1.00  0.00     0.010 C 
ATOM      8  C   UNL     1      42.620  45.457  42.169  1.00  0.00     0.025 C 
BRANCH   8   9
ATOM      9  C   UNL     1      42.355  45.292  40.731  1.00  0.00     0.064 C 
ATOM     10  O   UNL     1      43.297  45.234  39.896  1.00  0.00    -0.545 OA
ATOM     11  O   UNL     1      41.043  45.203  40.284  1.00  0.00    -0.545 OA
ENDBRANCH   8   9
ENDBRANCH   1   7
BRANCH   4  12
ATOM     12  O   UNL     1      46.952  44.760  46.428  1.00  0.00    -0.504 OA
ATOM     13  H   UNL     1      47.061  44.446  47.386  1.00  0.00     0.293 HD
ENDBRANCH   4  12
BRANCH   6  14
ATOM     14  O   UNL     1      45.184  45.991  48.186  1.00  0.00    -0.504 OA
ATOM     15  H   UNL     1      44.701  45.464  48.905  1.00  0.00     0.293 HD
ENDBRANCH   6  14
TORSDOF 4
ENDMDL
MODEL 6
REMARK VINA RESULT:    -5.586      8.610      9.441
REMARK INTER + INTRA:          -6.698
REMARK INTER:                  -6.570
REMARK INTRA:                  -0.128
REMARK UNBOUND:                -0.132
REMARK SMILES O=C([O-])C=Cc1ccc(O)c(O)c1
REMARK SMILES IDX 6 1 13 2 7 3 11 4 8 5 9 6 5 7 4 8 2 9 1 10 3 11 12 12 10 14
REMARK H PARENT 12 13 10 15
REMARK Flexibility Score: inf
ROOT
ATOM      1  C   UNL     1      48.816  45.199  34.428  1.00  0.00    -0.022 A 
ATOM      2  C   UNL     1      48.582  44.183  35.370  1.00  0.00     0.058 A 
ATOM      3  C   UNL     1      48.285  45.058  33.130  1.00  0.00     0.012 A 
ATOM      4  C   UNL     1      47.857  43.035  35.020  1.00  0.00     0.157 A 
ATOM      5  C   UNL     1      47.561  43.915  32.782  1.00  0.00     0.051 A 
ATOM      6  C   UNL     1      47.347  42.899  33.723  1.00  0.00     0.157 A 
ENDROOT
BRANCH   1   7
ATOM      7  C   UNL     1      49.580  46.398  34.853  1.00  0.00     0.010 C 
ATOM      8  C   UNL     1      49.038  47.617  34.992  1.00  0.00     0.025 C 
BRANCH   8   9
ATOM      9  C   UNL     1      49.831  48.787  35.403  1.00  0.00     0.064 C 
ATOM     10  O   UNL     1      50.252  49.620  34.556  1.00  0.00    -0.545 OA
ATOM     11  O   UNL     1      50.124  48.976  36.748  1.00  0.00    -0.545 OA
ENDBRANCH   8   9
ENDBRANCH   1   7
BRANCH   4  12
ATOM     12  O   UNL     1      47.637  42.025  35.956  1.00  0.00    -0.504 OA
ATOM     13  H   UNL     1      47.558  41.054  35.678  1.00  0.00     0.293 HD
ENDBRANCH   4  12
BRANCH   6  14
ATOM     14  O   UNL     1      46.627  41.758  33.379  1.00  0.00    -0.504 OA
ATOM     15  H   UNL     1      46.047  41.727  32.549  1.00  0.00     0.293 HD
ENDBRANCH   6  14
TORSDOF 4
ENDMDL
MODEL 7
REMARK VINA RESULT:    -5.484      8.972      9.619
REMARK INTER + INTRA:          -6.578
REMARK INTER:                  -6.456
REMARK INTRA:                  -0.122
REMARK UNBOUND:                -0.132
REMARK SMILES O=C([O-])C=Cc1ccc(O)c(O)c1
REMARK SMILES IDX 6 1 13 2 7 3 11 4 8 5 9 6 5 7 4 8 2 9 1 10 3 11 12 12 10 14
REMARK H PARENT 12 13 10 15
REMARK Flexibility Score: inf
ROOT
ATOM      1  C   UNL     1      48.777  44.976  34.277  1.00  0.00    -0.022 A 
ATOM      2  C   UNL     1      48.293  44.897  32.961  1.00  0.00     0.058 A 
ATOM      3  C   UNL     1      48.601  43.870  35.134  1.00  0.00     0.012 A 
ATOM      4  C   UNL     1      47.621  43.751  32.513  1.00  0.00     0.157 A 
ATOM      5  C   UNL     1      47.932  42.728  34.686  1.00  0.00     0.051 A 
ATOM      6  C   UNL     1      47.438  42.666  33.377  1.00  0.00     0.157 A 
ENDROOT
BRANCH   1   7
ATOM      7  C   UNL     1      49.491  46.207  34.700  1.00  0.00     0.010 C 
ATOM      8  C   UNL     1      48.870  47.330  35.091  1.00  0.00     0.025 C 
BRANCH   8   9
ATOM      9  C   UNL     1      49.611  48.538  35.492  1.00  0.00     0.064 C 
ATOM     10  O   UNL     1      50.108  49.314  34.632  1.00  0.00    -0.545 OA
ATOM     11  O   UNL     1      49.768  48.826  36.841  1.00  0.00    -0.545 OA
ENDBRANCH   8   9
ENDBRANCH   1   7
BRANCH   4  12
ATOM     12  O   UNL     1      47.133  43.684  31.208  1.00  0.00    -0.504 OA
ATOM     13  H   UNL     1      47.008  44.518  30.646  1.00  0.00     0.293 HD
ENDBRANCH   4  12
BRANCH   6  14
ATOM     14  O   UNL     1      46.770  41.529  32.927  1.00  0.00    -0.504 OA
ATOM     15  H   UNL     1      46.563  41.390  31.945  1.00  0.00     0.293 HD
ENDBRANCH   6  14
TORSDOF 4
ENDMDL
MODEL 8
REMARK VINA RESULT:    -5.465      8.458      9.023
REMARK INTER + INTRA:          -6.556
REMARK INTER:                  -6.418
REMARK INTRA:                  -0.138
REMARK UNBOUND:                -0.132
REMARK SMILES O=C([O-])C=Cc1ccc(O)c(O)c1
REMARK SMILES IDX 6 1 13 2 7 3 11 4 8 5 9 6 5 7 4 8 2 9 1 10 3 11 12 12 10 14
REMARK H PARENT 12 13 10 15
REMARK Flexibility Score: inf
ROOT
ATOM      1  C   UNL     1      48.609  44.300  34.549  1.00  0.00    -0.022 A 
ATOM      2  C   UNL     1      48.071  43.022  34.326  1.00  0.00     0.058 A 
ATOM      3  C   UNL     1      48.336  45.324  33.619  1.00  0.00     0.012 A 
ATOM      4  C   UNL     1      47.299  42.758  33.186  1.00  0.00     0.157 A 
ATOM      5  C   UNL     1      47.565  45.061  32.484  1.00  0.00     0.051 A 
ATOM      6  C   UNL     1      47.047  43.778  32.262  1.00  0.00     0.157 A 
ENDROOT
BRANCH   1   7
ATOM      7  C   UNL     1      49.411  44.530  35.776  1.00  0.00     0.010 C 
ATOM      8  C   UNL     1      49.689  45.746  36.268  1.00  0.00     0.025 C 
BRANCH   8   9
ATOM      9  C   UNL     1      50.500  45.936  37.482  1.00  0.00     0.064 C 
ATOM     10  O   UNL     1      50.149  46.748  38.381  1.00  0.00    -0.545 OA
ATOM     11  O   UNL     1      51.673  45.210  37.641  1.00  0.00    -0.545 OA
ENDBRANCH   8   9
ENDBRANCH   1   7
BRANCH   4  12
ATOM     12  O   UNL     1      46.778  41.484  32.966  1.00  0.00    -0.504 OA
ATOM     13  H   UNL     1      45.786  41.295  33.053  1.00  0.00     0.293 HD
ENDBRANCH   4  12
BRANCH   6  14
ATOM     14  O   UNL     1      46.280  43.512  31.130  1.00  0.00    -0.504 OA
ATOM     15  H   UNL     1      46.429  42.680  30.572  1.00  0.00     0.293 HD
ENDBRANCH   6  14
TORSDOF 4
ENDMDL
MODEL 9
REMARK VINA RESULT:    -5.417      6.848      8.165
REMARK INTER + INTRA:          -6.499
REMARK INTER:                  -6.368
REMARK INTRA:                  -0.130
REMARK UNBOUND:                -0.132
REMARK SMILES O=C([O-])C=Cc1ccc(O)c(O)c1
REMARK SMILES IDX 6 1 13 2 7 3 11 4 8 5 9 6 5 7 4 8 2 9 1 10 3 11 12 12 10 14
REMARK H PARENT 12 13 10 15
REMARK Flexibility Score: inf
ROOT
ATOM      1  C   UNL     1      46.716  44.128  47.767  1.00  0.00    -0.022 A 
ATOM      2  C   UNL     1      45.883  44.274  48.889  1.00  0.00     0.058 A 
ATOM      3  C   UNL     1      46.707  45.133  46.778  1.00  0.00     0.012 A 
ATOM      4  C   UNL     1      45.037  45.385  49.014  1.00  0.00     0.157 A 
ATOM      5  C   UNL     1      45.864  46.241  46.904  1.00  0.00     0.051 A 
ATOM      6  C   UNL     1      45.026  46.369  48.019  1.00  0.00     0.157 A 
ENDROOT
BRANCH   1   7
ATOM      7  C   UNL     1      47.600  42.938  47.687  1.00  0.00     0.010 C 
ATOM      8  C   UNL     1      47.438  41.948  46.797  1.00  0.00     0.025 C 
BRANCH   8   9
ATOM      9  C   UNL     1      48.328  40.776  46.756  1.00  0.00     0.064 C 
ATOM     10  O   UNL     1      47.889  39.633  46.460  1.00  0.00    -0.545 OA
ATOM     11  O   UNL     1      49.677  40.932  47.051  1.00  0.00    -0.545 OA
ENDBRANCH   8   9
ENDBRANCH   1   7
BRANCH   4  12
ATOM     12  O   UNL     1      44.206  45.518  50.125  1.00  0.00    -0.504 OA
ATOM     13  H   UNL     1      44.582  45.568  51.065  1.00  0.00     0.293 HD
ENDBRANCH   4  12
BRANCH   6  14
ATOM     14  O   UNL     1      44.184  47.472  48.146  1.00  0.00    -0.504 OA
ATOM     15  H   UNL     1      43.478  47.518  48.873  1.00  0.00     0.293 HD
ENDBRANCH   6  14
TORSDOF 4
ENDMDL
