MODEL 1
REMARK VINA RESULT:    -5.817      0.000      0.000
REMARK INTER + INTRA:         -10.749
REMARK INTER:                  -9.048
REMARK INTRA:                  -1.701
REMARK UNBOUND:                -1.701
REMARK SMILES COc1cc(CNC(=O)CCCCC=CC(C)C)ccc1O
REMARK SMILES IDX 11 1 12 2 13 3 14 4 15 5 16 6 17 7 18 8 10 9 8 10 9 11 7 12
REMARK SMILES IDX 6 14 5 15 4 16 19 17 3 18 20 19 21 20 2 21 1 22 22 23
REMARK H PARENT 7 13 22 24
REMARK Flexibility Score: inf
ROOT
ATOM      1  C   UNL     1      26.012 -24.715  40.614  1.00  0.00     0.010 C 
ENDROOT
BRANCH   1   2
ATOM      2  C   UNL     1      25.432 -26.140  40.615  1.00  0.00     0.005 C 
BRANCH   2   3
ATOM      3  C   UNL     1      26.475 -27.244  40.349  1.00  0.00     0.027 C 
BRANCH   3   4
ATOM      4  C   UNL     1      26.046 -28.202  39.269  1.00  0.00    -0.031 C 
ATOM      5  C   UNL     1      26.136 -27.883  37.967  1.00  0.00    -0.028 C 
BRANCH   5   6
ATOM      6  C   UNL     1      25.662 -28.805  36.868  1.00  0.00     0.005 C 
ATOM      7  C   UNL     1      24.412 -29.586  37.287  1.00  0.00     0.012 C 
ATOM      8  C   UNL     1      25.424 -28.035  35.562  1.00  0.00     0.012 C 
ENDBRANCH   5   6
ENDBRANCH   3   4
ENDBRANCH   2   3
ENDBRANCH   1   2
BRANCH   1   9
ATOM      9  C   UNL     1      27.397 -24.625  39.962  1.00  0.00     0.100 C 
BRANCH   9  10
ATOM     10  C   UNL     1      27.265 -24.349  38.496  1.00  0.00     0.220 C 
ATOM     11  O   UNL     1      26.392 -23.534  38.095  1.00  0.00    -0.275 OA
ATOM     12  N   UNL     1      28.162 -24.970  37.564  1.00  0.00    -0.352 N 
ATOM     13  H   UNL     1      28.906 -25.607  37.931  1.00  0.00     0.163 HD
BRANCH  12  14
ATOM     14  C   UNL     1      28.232 -24.574  36.160  1.00  0.00     0.151 C 
BRANCH  14  15
ATOM     15  C   UNL     1      28.427 -25.791  35.298  1.00  0.00    -0.025 A 
ATOM     16  C   UNL     1      28.086 -25.759  33.937  1.00  0.00     0.056 A 
ATOM     17  C   UNL     1      29.023 -26.941  35.834  1.00  0.00     0.009 A 
ATOM     18  C   UNL     1      28.317 -26.882  33.115  1.00  0.00     0.160 A 
ATOM     19  C   UNL     1      29.252 -28.056  35.025  1.00  0.00     0.050 A 
ATOM     20  C   UNL     1      28.900 -28.029  33.670  1.00  0.00     0.157 A 
BRANCH  18  21
ATOM     21  O   UNL     1      27.988 -26.891  31.751  1.00  0.00    -0.493 OA
ATOM     22  C   UNL     1      26.681 -27.129  31.238  1.00  0.00     0.278 C 
ENDBRANCH  18  21
BRANCH  20  23
ATOM     23  O   UNL     1      29.133 -29.141  32.861  1.00  0.00    -0.504 OA
ATOM     24  H   UNL     1      28.481 -29.419  32.138  1.00  0.00     0.293 HD
ENDBRANCH  20  23
ENDBRANCH  14  15
ENDBRANCH  12  14
ENDBRANCH   9  10
ENDBRANCH   1   9
TORSDOF 10
ENDMDL
MODEL 2
REMARK VINA RESULT:    -5.810      5.851      9.603
REMARK INTER + INTRA:         -10.737
REMARK INTER:                 -10.017
REMARK INTRA:                  -0.720
REMARK UNBOUND:                -1.701
REMARK SMILES COc1cc(CNC(=O)CCCCC=CC(C)C)ccc1O
REMARK SMILES IDX 11 1 12 2 13 3 14 4 15 5 16 6 17 7 18 8 10 9 8 10 9 11 7 12
REMARK SMILES IDX 6 14 5 15 4 16 19 17 3 18 20 19 21 20 2 21 1 22 22 23
REMARK H PARENT 7 13 22 24
REMARK Flexibility Score: inf
ROOT
ATOM      1  C   UNL     1      27.296 -28.720  29.456  1.00  0.00     0.010 C 
ENDROOT
BRANCH   1   2
ATOM      2  C   UNL     1      26.955 -28.274  30.888  1.00  0.00     0.005 C 
BRANCH   2   3
ATOM      3  C   UNL     1      27.989 -27.315  31.511  1.00  0.00     0.027 C 
BRANCH   3   4
ATOM      4  C   UNL     1      28.111 -27.479  33.003  1.00  0.00    -0.031 C 
ATOM      5  C   UNL     1      29.299 -27.394  33.626  1.00  0.00    -0.028 C 
BRANCH   5   6
ATOM      6  C   UNL     1      29.454 -27.608  35.114  1.00  0.00     0.005 C 
ATOM      7  C   UNL     1      28.953 -26.400  35.912  1.00  0.00     0.012 C 
ATOM      8  C   UNL     1      28.756 -28.899  35.564  1.00  0.00     0.012 C 
ENDBRANCH   5   6
ENDBRANCH   3   4
ENDBRANCH   2   3
ENDBRANCH   1   2
BRANCH   1   9
ATOM      9  C   UNL     1      27.575 -27.549  28.507  1.00  0.00     0.100 C 
BRANCH   9  10
ATOM     10  C   UNL     1      26.354 -26.694  28.362  1.00  0.00     0.220 C 
ATOM     11  O   UNL     1      26.364 -25.518  28.814  1.00  0.00    -0.275 OA
ATOM     12  N   UNL     1      25.204 -27.195  27.666  1.00  0.00    -0.352 N 
ATOM     13  H   UNL     1      25.241 -28.158  27.262  1.00  0.00     0.163 HD
BRANCH  12  14
ATOM     14  C   UNL     1      24.076 -26.342  27.299  1.00  0.00     0.151 C 
BRANCH  14  15
ATOM     15  C   UNL     1      24.329 -25.718  25.955  1.00  0.00    -0.025 A 
ATOM     16  C   UNL     1      24.732 -24.376  25.860  1.00  0.00     0.056 A 
ATOM     17  C   UNL     1      24.236 -26.494  24.792  1.00  0.00     0.009 A 
ATOM     18  C   UNL     1      25.019 -23.803  24.604  1.00  0.00     0.160 A 
ATOM     19  C   UNL     1      24.517 -25.931  23.546  1.00  0.00     0.050 A 
ATOM     20  C   UNL     1      24.907 -24.589  23.449  1.00  0.00     0.157 A 
BRANCH  18  21
ATOM     21  O   UNL     1      25.422 -22.466  24.466  1.00  0.00    -0.493 OA
ATOM     22  C   UNL     1      24.870 -21.377  25.198  1.00  0.00     0.278 C 
ENDBRANCH  18  21
BRANCH  20  23
ATOM     23  O   UNL     1      25.193 -24.028  22.204  1.00  0.00    -0.504 OA
ATOM     24  H   UNL     1      24.480 -23.565  21.653  1.00  0.00     0.293 HD
ENDBRANCH  20  23
ENDBRANCH  14  15
ENDBRANCH  12  14
ENDBRANCH   9  10
ENDBRANCH   1   9
TORSDOF 10
ENDMDL
MODEL 3
REMARK VINA RESULT:    -5.694      3.123      6.085
REMARK INTER + INTRA:         -10.557
REMARK INTER:                  -9.823
REMARK INTRA:                  -0.733
REMARK UNBOUND:                -1.701
REMARK SMILES COc1cc(CNC(=O)CCCCC=CC(C)C)ccc1O
REMARK SMILES IDX 11 1 12 2 13 3 14 4 15 5 16 6 17 7 18 8 10 9 8 10 9 11 7 12
REMARK SMILES IDX 6 14 5 15 4 16 19 17 3 18 20 19 21 20 2 21 1 22 22 23
REMARK H PARENT 7 13 22 24
REMARK Flexibility Score: inf
ROOT
ATOM      1  C   UNL     1      29.758 -27.034  33.973  1.00  0.00     0.010 C 
ENDROOT
BRANCH   1   2
ATOM      2  C   UNL     1      29.534 -27.236  35.482  1.00  0.00     0.005 C 
BRANCH   2   3
ATOM      3  C   UNL     1      28.556 -26.225  36.112  1.00  0.00     0.027 C 
BRANCH   3   4
ATOM      4  C   UNL     1      27.620 -26.862  37.105  1.00  0.00    -0.031 C 
ATOM      5  C   UNL     1      27.120 -26.173  38.145  1.00  0.00    -0.028 C 
BRANCH   5   6
ATOM      6  C   UNL     1      26.223 -26.804  39.184  1.00  0.00     0.005 C 
ATOM      7  C   UNL     1      26.577 -28.276  39.414  1.00  0.00     0.012 C 
ATOM      8  C   UNL     1      26.256 -26.012  40.499  1.00  0.00     0.012 C 
ENDBRANCH   5   6
ENDBRANCH   3   4
ENDBRANCH   2   3
ENDBRANCH   1   2
BRANCH   1   9
ATOM      9  C   UNL     1      28.590 -26.329  33.275  1.00  0.00     0.100 C 
BRANCH   9  10
ATOM     10  C   UNL     1      27.700 -27.332  32.607  1.00  0.00     0.220 C 
ATOM     11  O   UNL     1      26.488 -27.405  32.944  1.00  0.00    -0.275 OA
ATOM     12  N   UNL     1      28.214 -28.163  31.557  1.00  0.00    -0.352 N 
ATOM     13  H   UNL     1      29.212 -28.048  31.269  1.00  0.00     0.163 HD
BRANCH  12  14
ATOM     14  C   UNL     1      27.352 -28.995  30.721  1.00  0.00     0.151 C 
BRANCH  14  15
ATOM     15  C   UNL     1      26.808 -28.178  29.583  1.00  0.00    -0.025 A 
ATOM     16  C   UNL     1      25.428 -27.941  29.475  1.00  0.00     0.056 A 
ATOM     17  C   UNL     1      27.683 -27.585  28.663  1.00  0.00     0.009 A 
ATOM     18  C   UNL     1      24.920 -27.132  28.437  1.00  0.00     0.160 A 
ATOM     19  C   UNL     1      27.186 -26.785  27.633  1.00  0.00     0.050 A 
ATOM     20  C   UNL     1      25.808 -26.558  27.517  1.00  0.00     0.157 A 
BRANCH  18  21
ATOM     21  O   UNL     1      23.548 -26.873  28.294  1.00  0.00    -0.493 OA
ATOM     22  C   UNL     1      22.875 -25.753  28.862  1.00  0.00     0.278 C 
ENDBRANCH  18  21
BRANCH  20  23
ATOM     23  O   UNL     1      25.311 -25.756  26.491  1.00  0.00    -0.504 OA
ATOM     24  H   UNL     1      25.741 -24.870  26.253  1.00  0.00     0.293 HD
ENDBRANCH  20  23
ENDBRANCH  14  15
ENDBRANCH  12  14
ENDBRANCH   9  10
ENDBRANCH   1   9
TORSDOF 10
ENDMDL
MODEL 4
REMARK VINA RESULT:    -5.688      3.381      6.308
REMARK INTER + INTRA:         -10.548
REMARK INTER:                  -9.782
REMARK INTRA:                  -0.767
REMARK UNBOUND:                -1.701
REMARK SMILES COc1cc(CNC(=O)CCCCC=CC(C)C)ccc1O
REMARK SMILES IDX 11 1 12 2 13 3 14 4 15 5 16 6 17 7 18 8 10 9 8 10 9 11 7 12
REMARK SMILES IDX 6 14 5 15 4 16 19 17 3 18 20 19 21 20 2 21 1 22 22 23
REMARK H PARENT 7 13 22 24
REMARK Flexibility Score: inf
ROOT
ATOM      1  C   UNL     1      29.747 -27.238  33.987  1.00  0.00     0.010 C 
ENDROOT
BRANCH   1   2
ATOM      2  C   UNL     1      29.472 -27.270  35.500  1.00  0.00     0.005 C 
BRANCH   2   3
ATOM      3  C   UNL     1      28.711 -26.037  36.027  1.00  0.00     0.027 C 
BRANCH   3   4
ATOM      4  C   UNL     1      27.663 -26.393  37.049  1.00  0.00    -0.031 C 
ATOM      5  C   UNL     1      27.358 -27.671  37.330  1.00  0.00    -0.028 C 
BRANCH   5   6
ATOM      6  C   UNL     1      26.274 -28.052  38.311  1.00  0.00     0.005 C 
ATOM      7  C   UNL     1      26.078 -29.571  38.372  1.00  0.00     0.012 C 
ATOM      8  C   UNL     1      26.558 -27.472  39.704  1.00  0.00     0.012 C 
ENDBRANCH   5   6
ENDBRANCH   3   4
ENDBRANCH   2   3
ENDBRANCH   1   2
BRANCH   1   9
ATOM      9  C   UNL     1      28.612 -26.599  33.178  1.00  0.00     0.100 C 
BRANCH   9  10
ATOM     10  C   UNL     1      27.908 -27.636  32.359  1.00  0.00     0.220 C 
ATOM     11  O   UNL     1      26.982 -28.315  32.880  1.00  0.00    -0.275 OA
ATOM     12  N   UNL     1      28.251 -27.817  30.978  1.00  0.00    -0.352 N 
ATOM     13  H   UNL     1      28.991 -27.208  30.561  1.00  0.00     0.163 HD
BRANCH  12  14
ATOM     14  C   UNL     1      27.458 -28.646  30.074  1.00  0.00     0.151 C 
BRANCH  14  15
ATOM     15  C   UNL     1      26.751 -27.775  29.074  1.00  0.00    -0.025 A 
ATOM     16  C   UNL     1      27.477 -26.874  28.278  1.00  0.00     0.056 A 
ATOM     17  C   UNL     1      25.370 -27.911  28.877  1.00  0.00     0.009 A 
ATOM     18  C   UNL     1      26.823 -26.093  27.303  1.00  0.00     0.160 A 
ATOM     19  C   UNL     1      24.717 -27.139  27.914  1.00  0.00     0.050 A 
ATOM     20  C   UNL     1      25.439 -26.231  27.128  1.00  0.00     0.157 A 
BRANCH  18  21
ATOM     21  O   UNL     1      27.511 -25.180  26.489  1.00  0.00    -0.493 OA
ATOM     22  C   UNL     1      27.910 -23.876  26.899  1.00  0.00     0.278 C 
ENDBRANCH  18  21
BRANCH  20  23
ATOM     23  O   UNL     1      24.787 -25.463  26.164  1.00  0.00    -0.504 OA
ATOM     24  H   UNL     1      25.091 -24.525  25.936  1.00  0.00     0.293 HD
ENDBRANCH  20  23
ENDBRANCH  14  15
ENDBRANCH  12  14
ENDBRANCH   9  10
ENDBRANCH   1   9
TORSDOF 10
ENDMDL
MODEL 5
REMARK VINA RESULT:    -5.652      1.993      3.443
REMARK INTER + INTRA:         -10.492
REMARK INTER:                  -8.797
REMARK INTRA:                  -1.695
REMARK UNBOUND:                -1.701
REMARK SMILES COc1cc(CNC(=O)CCCCC=CC(C)C)ccc1O
REMARK SMILES IDX 11 1 12 2 13 3 14 4 15 5 16 6 17 7 18 8 10 9 8 10 9 11 7 12
REMARK SMILES IDX 6 14 5 15 4 16 19 17 3 18 20 19 21 20 2 21 1 22 22 23
REMARK H PARENT 7 13 22 24
REMARK Flexibility Score: inf
ROOT
ATOM      1  C   UNL     1      25.739 -26.638  40.746  1.00  0.00     0.010 C 
ENDROOT
BRANCH   1   2
ATOM      2  C   UNL     1      25.748 -25.102  40.824  1.00  0.00     0.005 C 
BRANCH   2   3
ATOM      3  C   UNL     1      27.130 -24.467  40.572  1.00  0.00     0.027 C 
BRANCH   3   4
ATOM      4  C   UNL     1      27.586 -24.612  39.144  1.00  0.00    -0.031 C 
ATOM      5  C   UNL     1      26.867 -24.118  38.121  1.00  0.00    -0.028 C 
BRANCH   5   6
ATOM      6  C   UNL     1      27.276 -24.297  36.678  1.00  0.00     0.005 C 
ATOM      7  C   UNL     1      28.648 -24.969  36.561  1.00  0.00     0.012 C 
ATOM      8  C   UNL     1      26.209 -25.072  35.892  1.00  0.00     0.012 C 
ENDBRANCH   5   6
ENDBRANCH   3   4
ENDBRANCH   2   3
ENDBRANCH   1   2
BRANCH   1   9
ATOM      9  C   UNL     1      25.036 -27.178  39.495  1.00  0.00     0.100 C 
BRANCH   9  10
ATOM     10  C   UNL     1      25.814 -28.316  38.910  1.00  0.00     0.220 C 
ATOM     11  O   UNL     1      25.449 -29.500  39.143  1.00  0.00    -0.275 OA
ATOM     12  N   UNL     1      26.932 -28.057  38.050  1.00  0.00    -0.352 N 
ATOM     13  H   UNL     1      27.183 -27.065  37.838  1.00  0.00     0.163 HD
BRANCH  12  14
ATOM     14  C   UNL     1      27.587 -29.108  37.277  1.00  0.00     0.151 C 
BRANCH  14  15
ATOM     15  C   UNL     1      27.825 -28.632  35.871  1.00  0.00    -0.025 A 
ATOM     16  C   UNL     1      26.754 -28.511  34.971  1.00  0.00     0.056 A 
ATOM     17  C   UNL     1      29.109 -28.233  35.473  1.00  0.00     0.009 A 
ATOM     18  C   UNL     1      26.967 -28.015  33.668  1.00  0.00     0.160 A 
ATOM     19  C   UNL     1      29.325 -27.743  34.184  1.00  0.00     0.050 A 
ATOM     20  C   UNL     1      28.259 -27.634  33.282  1.00  0.00     0.157 A 
BRANCH  18  21
ATOM     21  O   UNL     1      25.924 -27.881  32.739  1.00  0.00    -0.493 OA
ATOM     22  C   UNL     1      25.178 -28.969  32.201  1.00  0.00     0.278 C 
ENDBRANCH  18  21
BRANCH  20  23
ATOM     23  O   UNL     1      28.474 -27.140  31.995  1.00  0.00    -0.504 OA
ATOM     24  H   UNL     1      29.186 -27.528  31.389  1.00  0.00     0.293 HD
ENDBRANCH  20  23
ENDBRANCH  14  15
ENDBRANCH  12  14
ENDBRANCH   9  10
ENDBRANCH   1   9
TORSDOF 10
ENDMDL
MODEL 6
REMARK VINA RESULT:    -5.647      2.741      6.307
REMARK INTER + INTRA:         -10.484
REMARK INTER:                  -8.965
REMARK INTRA:                  -1.520
REMARK UNBOUND:                -1.701
REMARK SMILES COc1cc(CNC(=O)CCCCC=CC(C)C)ccc1O
REMARK SMILES IDX 11 1 12 2 13 3 14 4 15 5 16 6 17 7 18 8 10 9 8 10 9 11 7 12
REMARK SMILES IDX 6 14 5 15 4 16 19 17 3 18 20 19 21 20 2 21 1 22 22 23
REMARK H PARENT 7 13 22 24
REMARK Flexibility Score: inf
ROOT
ATOM      1  C   UNL     1      29.457 -27.586  33.790  1.00  0.00     0.010 C 
ENDROOT
BRANCH   1   2
ATOM      2  C   UNL     1      29.580 -27.058  35.230  1.00  0.00     0.005 C 
BRANCH   2   3
ATOM      3  C   UNL     1      28.979 -25.655  35.439  1.00  0.00     0.027 C 
BRANCH   3   4
ATOM      4  C   UNL     1      28.707 -25.347  36.887  1.00  0.00    -0.031 C 
ATOM      5  C   UNL     1      27.516 -24.877  37.296  1.00  0.00    -0.028 C 
BRANCH   5   6
ATOM      6  C   UNL     1      27.237 -24.510  38.735  1.00  0.00     0.005 C 
ATOM      7  C   UNL     1      26.164 -23.422  38.841  1.00  0.00     0.012 C 
ATOM      8  C   UNL     1      26.854 -25.749  39.558  1.00  0.00     0.012 C 
ENDBRANCH   5   6
ENDBRANCH   3   4
ENDBRANCH   2   3
ENDBRANCH   1   2
BRANCH   1   9
ATOM      9  C   UNL     1      28.276 -26.981  33.022  1.00  0.00     0.100 C 
BRANCH   9  10
ATOM     10  C   UNL     1      27.021 -27.747  33.309  1.00  0.00     0.220 C 
ATOM     11  O   UNL     1      26.728 -28.744  32.597  1.00  0.00    -0.275 OA
ATOM     12  N   UNL     1      26.190 -27.377  34.418  1.00  0.00    -0.352 N 
ATOM     13  H   UNL     1      26.483 -26.573  35.019  1.00  0.00     0.163 HD
BRANCH  12  14
ATOM     14  C   UNL     1      25.084 -28.211  34.883  1.00  0.00     0.151 C 
BRANCH  14  15
ATOM     15  C   UNL     1      25.387 -28.736  36.258  1.00  0.00    -0.025 A 
ATOM     16  C   UNL     1      24.456 -29.544  36.931  1.00  0.00     0.056 A 
ATOM     17  C   UNL     1      26.633 -28.484  36.847  1.00  0.00     0.009 A 
ATOM     18  C   UNL     1      24.758 -30.081  38.199  1.00  0.00     0.160 A 
ATOM     19  C   UNL     1      26.937 -29.011  38.104  1.00  0.00     0.050 A 
ATOM     20  C   UNL     1      26.004 -29.807  38.780  1.00  0.00     0.157 A 
BRANCH  18  21
ATOM     21  O   UNL     1      23.855 -30.891  38.904  1.00  0.00    -0.493 OA
ATOM     22  C   UNL     1      22.853 -30.400  39.789  1.00  0.00     0.278 C 
ENDBRANCH  18  21
BRANCH  20  23
ATOM     23  O   UNL     1      26.310 -30.337  40.033  1.00  0.00    -0.504 OA
ATOM     24  H   UNL     1      26.472 -29.743  40.837  1.00  0.00     0.293 HD
ENDBRANCH  20  23
ENDBRANCH  14  15
ENDBRANCH  12  14
ENDBRANCH   9  10
ENDBRANCH   1   9
TORSDOF 10
ENDMDL
MODEL 7
REMARK VINA RESULT:    -5.598      1.423      2.055
REMARK INTER + INTRA:         -10.408
REMARK INTER:                  -9.207
REMARK INTRA:                  -1.202
REMARK UNBOUND:                -1.701
REMARK SMILES COc1cc(CNC(=O)CCCCC=CC(C)C)ccc1O
REMARK SMILES IDX 11 1 12 2 13 3 14 4 15 5 16 6 17 7 18 8 10 9 8 10 9 11 7 12
REMARK SMILES IDX 6 14 5 15 4 16 19 17 3 18 20 19 21 20 2 21 1 22 22 23
REMARK H PARENT 7 13 22 24
REMARK Flexibility Score: inf
ROOT
ATOM      1  C   UNL     1      26.186 -23.009  38.993  1.00  0.00     0.010 C 
ENDROOT
BRANCH   1   2
ATOM      2  C   UNL     1      26.814 -23.860  40.111  1.00  0.00     0.005 C 
BRANCH   2   3
ATOM      3  C   UNL     1      25.843 -24.869  40.754  1.00  0.00     0.027 C 
BRANCH   3   4
ATOM      4  C   UNL     1      26.368 -26.280  40.728  1.00  0.00    -0.031 C 
ATOM      5  C   UNL     1      26.047 -27.133  39.739  1.00  0.00    -0.028 C 
BRANCH   5   6
ATOM      6  C   UNL     1      26.518 -28.569  39.719  1.00  0.00     0.005 C 
ATOM      7  C   UNL     1      25.699 -29.443  40.674  1.00  0.00     0.012 C 
ATOM      8  C   UNL     1      26.501 -29.137  38.293  1.00  0.00     0.012 C 
ENDBRANCH   5   6
ENDBRANCH   3   4
ENDBRANCH   2   3
ENDBRANCH   1   2
BRANCH   1   9
ATOM      9  C   UNL     1      25.623 -23.846  37.839  1.00  0.00     0.100 C 
BRANCH   9  10
ATOM     10  C   UNL     1      26.716 -24.218  36.885  1.00  0.00     0.220 C 
ATOM     11  O   UNL     1      26.976 -23.458  35.913  1.00  0.00    -0.275 OA
ATOM     12  N   UNL     1      27.493 -25.403  37.108  1.00  0.00    -0.352 N 
ATOM     13  H   UNL     1      27.284 -25.990  37.948  1.00  0.00     0.163 HD
BRANCH  12  14
ATOM     14  C   UNL     1      28.706 -25.701  36.350  1.00  0.00     0.151 C 
BRANCH  14  15
ATOM     15  C   UNL     1      28.464 -26.877  35.446  1.00  0.00    -0.025 A 
ATOM     16  C   UNL     1      27.796 -26.707  34.223  1.00  0.00     0.056 A 
ATOM     17  C   UNL     1      28.972 -28.138  35.786  1.00  0.00     0.009 A 
ATOM     18  C   UNL     1      27.614 -27.799  33.350  1.00  0.00     0.160 A 
ATOM     19  C   UNL     1      28.793 -29.223  34.925  1.00  0.00     0.050 A 
ATOM     20  C   UNL     1      28.115 -29.057  33.711  1.00  0.00     0.157 A 
BRANCH  18  21
ATOM     21  O   UNL     1      26.950 -27.671  32.120  1.00  0.00    -0.493 OA
ATOM     22  C   UNL     1      27.586 -27.338  30.890  1.00  0.00     0.278 C 
ENDBRANCH  18  21
BRANCH  20  23
ATOM     23  O   UNL     1      27.941 -30.140  32.849  1.00  0.00    -0.504 OA
ATOM     24  H   UNL     1      28.053 -31.096  33.166  1.00  0.00     0.293 HD
ENDBRANCH  20  23
ENDBRANCH  14  15
ENDBRANCH  12  14
ENDBRANCH   9  10
ENDBRANCH   1   9
TORSDOF 10
ENDMDL
MODEL 8
REMARK VINA RESULT:    -5.578      1.799      3.521
REMARK INTER + INTRA:         -10.376
REMARK INTER:                  -8.640
REMARK INTRA:                  -1.737
REMARK UNBOUND:                -1.701
REMARK SMILES COc1cc(CNC(=O)CCCCC=CC(C)C)ccc1O
REMARK SMILES IDX 11 1 12 2 13 3 14 4 15 5 16 6 17 7 18 8 10 9 8 10 9 11 7 12
REMARK SMILES IDX 6 14 5 15 4 16 19 17 3 18 20 19 21 20 2 21 1 22 22 23
REMARK H PARENT 7 13 22 24
REMARK Flexibility Score: inf
ROOT
ATOM      1  C   UNL     1      25.911 -24.687  40.490  1.00  0.00     0.010 C 
ENDROOT
BRANCH   1   2
ATOM      2  C   UNL     1      25.929 -24.200  39.031  1.00  0.00     0.005 C 
BRANCH   2   3
ATOM      3  C   UNL     1      27.306 -24.313  38.348  1.00  0.00     0.027 C 
BRANCH   3   4
ATOM      4  C   UNL     1      27.218 -24.855  36.946  1.00  0.00    -0.031 C 
ATOM      5  C   UNL     1      28.305 -24.963  36.162  1.00  0.00    -0.028 C 
BRANCH   5   6
ATOM      6  C   UNL     1      28.234 -25.454  34.735  1.00  0.00     0.005 C 
ATOM      7  C   UNL     1      27.227 -24.645  33.911  1.00  0.00     0.012 C 
ATOM      8  C   UNL     1      29.621 -25.450  34.078  1.00  0.00     0.012 C 
ENDBRANCH   5   6
ENDBRANCH   3   4
ENDBRANCH   2   3
ENDBRANCH   1   2
BRANCH   1   9
ATOM      9  C   UNL     1      26.386 -26.136  40.651  1.00  0.00     0.100 C 
BRANCH   9  10
ATOM     10  C   UNL     1      25.636 -27.036  39.718  1.00  0.00     0.220 C 
ATOM     11  O   UNL     1      24.387 -27.151  39.838  1.00  0.00    -0.275 OA
ATOM     12  N   UNL     1      26.330 -27.719  38.664  1.00  0.00    -0.352 N 
ATOM     13  H   UNL     1      27.359 -27.569  38.561  1.00  0.00     0.163 HD
BRANCH  12  14
ATOM     14  C   UNL     1      25.631 -28.427  37.594  1.00  0.00     0.151 C 
BRANCH  14  15
ATOM     15  C   UNL     1      26.568 -28.657  36.441  1.00  0.00    -0.025 A 
ATOM     16  C   UNL     1      26.079 -28.694  35.125  1.00  0.00     0.056 A 
ATOM     17  C   UNL     1      27.947 -28.761  36.668  1.00  0.00     0.009 A 
ATOM     18  C   UNL     1      26.962 -28.858  34.039  1.00  0.00     0.160 A 
ATOM     19  C   UNL     1      28.826 -28.926  35.596  1.00  0.00     0.050 A 
ATOM     20  C   UNL     1      28.338 -28.975  34.283  1.00  0.00     0.157 A 
BRANCH  18  21
ATOM     21  O   UNL     1      26.514 -28.902  32.710  1.00  0.00    -0.493 OA
ATOM     22  C   UNL     1      25.168 -28.670  32.304  1.00  0.00     0.278 C 
ENDBRANCH  18  21
BRANCH  20  23
ATOM     23  O   UNL     1      29.216 -29.134  33.212  1.00  0.00    -0.504 OA
ATOM     24  H   UNL     1      28.998 -28.781  32.288  1.00  0.00     0.293 HD
ENDBRANCH  20  23
ENDBRANCH  14  15
ENDBRANCH  12  14
ENDBRANCH   9  10
ENDBRANCH   1   9
TORSDOF 10
ENDMDL
MODEL 9
REMARK VINA RESULT:    -5.577      2.550      5.602
REMARK INTER + INTRA:         -10.376
REMARK INTER:                  -8.458
REMARK INTRA:                  -1.918
REMARK UNBOUND:                -1.701
REMARK SMILES COc1cc(CNC(=O)CCCCC=CC(C)C)ccc1O
REMARK SMILES IDX 11 1 12 2 13 3 14 4 15 5 16 6 17 7 18 8 10 9 8 10 9 11 7 12
REMARK SMILES IDX 6 14 5 15 4 16 19 17 3 18 20 19 21 20 2 21 1 22 22 23
REMARK H PARENT 7 13 22 24
REMARK Flexibility Score: inf
ROOT
ATOM      1  C   UNL     1      29.947 -26.764  34.259  1.00  0.00     0.010 C 
ENDROOT
BRANCH   1   2
ATOM      2  C   UNL     1      29.145 -27.903  33.606  1.00  0.00     0.005 C 
BRANCH   2   3
ATOM      3  C   UNL     1      28.066 -27.423  32.615  1.00  0.00     0.027 C 
BRANCH   3   4
ATOM      4  C   UNL     1      26.669 -27.749  33.072  1.00  0.00    -0.031 C 
ATOM      5  C   UNL     1      26.429 -28.726  33.964  1.00  0.00    -0.028 C 
BRANCH   5   6
ATOM      6  C   UNL     1      25.033 -29.108  34.398  1.00  0.00     0.005 C 
ATOM      7  C   UNL     1      24.377 -27.998  35.225  1.00  0.00     0.012 C 
ATOM      8  C   UNL     1      24.163 -29.490  33.191  1.00  0.00     0.012 C 
ENDBRANCH   5   6
ENDBRANCH   3   4
ENDBRANCH   2   3
ENDBRANCH   1   2
BRANCH   1   9
ATOM      9  C   UNL     1      29.355 -25.375  33.994  1.00  0.00     0.100 C 
BRANCH   9  10
ATOM     10  C   UNL     1      28.382 -25.009  35.072  1.00  0.00     0.220 C 
ATOM     11  O   UNL     1      27.363 -24.328  34.782  1.00  0.00    -0.275 OA
ATOM     12  N   UNL     1      28.586 -25.476  36.413  1.00  0.00    -0.352 N 
ATOM     13  H   UNL     1      29.417 -26.077  36.615  1.00  0.00     0.163 HD
BRANCH  12  14
ATOM     14  C   UNL     1      27.569 -25.343  37.453  1.00  0.00     0.151 C 
BRANCH  14  15
ATOM     15  C   UNL     1      27.073 -26.705  37.855  1.00  0.00    -0.025 A 
ATOM     16  C   UNL     1      26.030 -26.834  38.786  1.00  0.00     0.056 A 
ATOM     17  C   UNL     1      27.600 -27.851  37.245  1.00  0.00     0.009 A 
ATOM     18  C   UNL     1      25.528 -28.107  39.125  1.00  0.00     0.160 A 
ATOM     19  C   UNL     1      27.109 -29.114  37.580  1.00  0.00     0.050 A 
ATOM     20  C   UNL     1      26.076 -29.245  38.517  1.00  0.00     0.157 A 
BRANCH  18  21
ATOM     21  O   UNL     1      24.489 -28.279  40.052  1.00  0.00    -0.493 OA
ATOM     22  C   UNL     1      23.103 -28.221  39.730  1.00  0.00     0.278 C 
ENDBRANCH  18  21
BRANCH  20  23
ATOM     23  O   UNL     1      25.582 -30.507  38.847  1.00  0.00    -0.504 OA
ATOM     24  H   UNL     1      26.031 -31.088  39.545  1.00  0.00     0.293 HD
ENDBRANCH  20  23
ENDBRANCH  14  15
ENDBRANCH  12  14
ENDBRANCH   9  10
ENDBRANCH   1   9
TORSDOF 10
ENDMDL
