MODEL 1
REMARK VINA RESULT:    -3.472      0.000      0.000
REMARK INTER + INTRA:          -3.795
REMARK INTER:                  -3.776
REMARK INTRA:                  -0.019
REMARK UNBOUND:                -0.019
REMARK SMILES OCc1ccco1
REMARK SMILES IDX 2 1 3 2 5 3 6 4 4 5 7 6 1 7
REMARK H PARENT 1 8
REMARK Flexibility Score: inf
ROOT
ATOM      1  C   UNL     1       0.043 -22.333 -22.914  1.00  0.00     0.231 C 
ENDROOT
BRANCH   1   2
ATOM      2  C   UNL     1       1.409 -21.729 -22.975  1.00  0.00     0.129 A 
ATOM      3  C   UNL     1       3.580 -21.424 -22.827  1.00  0.00     0.042 A 
ATOM      4  C   UNL     1       2.962 -20.332 -23.405  1.00  0.00     0.195 A 
ATOM      5  C   UNL     1       2.578 -22.329 -22.552  1.00  0.00     0.048 A 
ATOM      6  O   UNL     1       1.669 -20.546 -23.482  1.00  0.00    -0.467 OA
ENDBRANCH   1   2
BRANCH   1   7
ATOM      7  O   UNL     1      -0.906 -21.345 -22.621  1.00  0.00    -0.388 OA
ATOM      8  H   UNL     1      -1.796 -21.784 -22.671  1.00  0.00     0.211 HD
ENDBRANCH   1   7
TORSDOF 2
ENDMDL
MODEL 2
REMARK VINA RESULT:    -3.277      1.492      3.231
REMARK INTER + INTRA:          -3.583
REMARK INTER:                  -3.563
REMARK INTRA:                  -0.020
REMARK UNBOUND:                -0.019
REMARK SMILES OCc1ccco1
REMARK SMILES IDX 2 1 3 2 5 3 6 4 4 5 7 6 1 7
REMARK H PARENT 1 8
REMARK Flexibility Score: inf
ROOT
ATOM      1  C   UNL     1       4.453 -20.511 -23.759  1.00  0.00     0.231 C 
ENDROOT
BRANCH   1   2
ATOM      2  C   UNL     1       3.097 -20.914 -23.275  1.00  0.00     0.129 A 
ATOM      3  C   UNL     1       1.462 -21.820 -22.120  1.00  0.00     0.042 A 
ATOM      4  C   UNL     1       0.972 -20.992 -23.110  1.00  0.00     0.195 A 
ATOM      5  C   UNL     1       2.835 -21.768 -22.222  1.00  0.00     0.048 A 
ATOM      6  O   UNL     1       1.971 -20.463 -23.779  1.00  0.00    -0.467 OA
ENDBRANCH   1   2
BRANCH   1   7
ATOM      7  O   UNL     1       4.445 -19.164 -24.141  1.00  0.00    -0.388 OA
ATOM      8  H   UNL     1       4.523 -18.632 -23.306  1.00  0.00     0.211 HD
ENDBRANCH   1   7
TORSDOF 2
ENDMDL
MODEL 3
REMARK VINA RESULT:    -3.104     10.561     11.314
REMARK INTER + INTRA:          -3.395
REMARK INTER:                  -3.381
REMARK INTRA:                  -0.014
REMARK UNBOUND:                -0.019
REMARK SMILES OCc1ccco1
REMARK SMILES IDX 2 1 3 2 5 3 6 4 4 5 7 6 1 7
REMARK H PARENT 1 8
REMARK Flexibility Score: inf
ROOT
ATOM      1  C   UNL     1       2.151 -13.770 -31.577  1.00  0.00     0.231 C 
ENDROOT
BRANCH   1   2
ATOM      2  C   UNL     1       2.441 -12.994 -30.333  1.00  0.00     0.129 A 
ATOM      3  C   UNL     1       3.175 -11.471 -28.931  1.00  0.00     0.042 A 
ATOM      4  C   UNL     1       2.383 -12.400 -28.286  1.00  0.00     0.195 A 
ATOM      5  C   UNL     1       3.211 -11.852 -30.254  1.00  0.00     0.048 A 
ATOM      6  O   UNL     1       1.957 -13.294 -29.149  1.00  0.00    -0.467 OA
ENDBRANCH   1   2
BRANCH   1   7
ATOM      7  O   UNL     1       2.829 -14.995 -31.549  1.00  0.00    -0.388 OA
ATOM      8  H   UNL     1       2.152 -15.699 -31.727  1.00  0.00     0.211 HD
ENDBRANCH   1   7
TORSDOF 2
ENDMDL
MODEL 4
REMARK VINA RESULT:    -3.029     12.133     13.237
REMARK INTER + INTRA:          -3.313
REMARK INTER:                  -3.299
REMARK INTRA:                  -0.014
REMARK UNBOUND:                -0.019
REMARK SMILES OCc1ccco1
REMARK SMILES IDX 2 1 3 2 5 3 6 4 4 5 7 6 1 7
REMARK H PARENT 1 8
REMARK Flexibility Score: inf
ROOT
ATOM      1  C   UNL     1       2.246 -13.803 -31.553  1.00  0.00     0.231 C 
ENDROOT
BRANCH   1   2
ATOM      2  C   UNL     1       2.940 -12.928 -32.547  1.00  0.00     0.129 A 
ATOM      3  C   UNL     1       4.429 -11.672 -33.560  1.00  0.00     0.042 A 
ATOM      4  C   UNL     1       3.316 -11.863 -34.355  1.00  0.00     0.195 A 
ATOM      5  C   UNL     1       4.189 -12.363 -32.393  1.00  0.00     0.048 A 
ATOM      6  O   UNL     1       2.447 -12.619 -33.725  1.00  0.00    -0.467 OA
ENDBRANCH   1   2
BRANCH   1   7
ATOM      7  O   UNL     1       2.825 -15.079 -31.550  1.00  0.00    -0.388 OA
ATOM      8  H   UNL     1       2.357 -15.604 -32.250  1.00  0.00     0.211 HD
ENDBRANCH   1   7
TORSDOF 2
ENDMDL
MODEL 5
REMARK VINA RESULT:    -2.875     16.143     17.094
REMARK INTER + INTRA:          -3.145
REMARK INTER:                  -3.129
REMARK INTRA:                  -0.016
REMARK UNBOUND:                -0.019
REMARK SMILES OCc1ccco1
REMARK SMILES IDX 2 1 3 2 5 3 6 4 4 5 7 6 1 7
REMARK H PARENT 1 8
REMARK Flexibility Score: inf
ROOT
ATOM      1  C   UNL     1      12.428 -22.427 -33.650  1.00  0.00     0.231 C 
ENDROOT
BRANCH   1   2
ATOM      2  C   UNL     1      13.458 -22.368 -34.732  1.00  0.00     0.129 A 
ATOM      3  C   UNL     1      14.498 -21.951 -36.622  1.00  0.00     0.042 A 
ATOM      4  C   UNL     1      15.332 -22.589 -35.725  1.00  0.00     0.195 A 
ATOM      5  C   UNL     1      13.287 -21.804 -35.980  1.00  0.00     0.048 A 
ATOM      6  O   UNL     1      14.684 -22.821 -34.607  1.00  0.00    -0.467 OA
ENDBRANCH   1   2
BRANCH   1   7
ATOM      7  O   UNL     1      11.173 -22.076 -34.163  1.00  0.00    -0.388 OA
ATOM      8  H   UNL     1      10.500 -22.391 -33.505  1.00  0.00     0.211 HD
ENDBRANCH   1   7
TORSDOF 2
ENDMDL
MODEL 6
REMARK VINA RESULT:    -2.850     11.900     12.381
REMARK INTER + INTRA:          -3.119
REMARK INTER:                  -3.104
REMARK INTRA:                  -0.014
REMARK UNBOUND:                -0.019
REMARK SMILES OCc1ccco1
REMARK SMILES IDX 2 1 3 2 5 3 6 4 4 5 7 6 1 7
REMARK H PARENT 1 8
REMARK Flexibility Score: inf
ROOT
ATOM      1  C   UNL     1       0.291 -11.546 -31.124  1.00  0.00     0.231 C 
ENDROOT
BRANCH   1   2
ATOM      2  C   UNL     1       1.501 -12.387 -31.374  1.00  0.00     0.129 A 
ATOM      3  C   UNL     1       2.843 -14.101 -31.671  1.00  0.00     0.042 A 
ATOM      4  C   UNL     1       3.512 -12.907 -31.859  1.00  0.00     0.195 A 
ATOM      5  C   UNL     1       1.543 -13.767 -31.361  1.00  0.00     0.048 A 
ATOM      6  O   UNL     1       2.684 -11.904 -31.678  1.00  0.00    -0.467 OA
ENDBRANCH   1   2
BRANCH   1   7
ATOM      7  O   UNL     1      -0.735 -11.907 -32.006  1.00  0.00    -0.388 OA
ATOM      8  H   UNL     1      -1.589 -11.669 -31.560  1.00  0.00     0.211 HD
ENDBRANCH   1   7
TORSDOF 2
ENDMDL
MODEL 7
REMARK VINA RESULT:    -2.842     20.518     21.037
REMARK INTER + INTRA:          -3.109
REMARK INTER:                  -3.094
REMARK INTRA:                  -0.016
REMARK UNBOUND:                -0.019
REMARK SMILES OCc1ccco1
REMARK SMILES IDX 2 1 3 2 5 3 6 4 4 5 7 6 1 7
REMARK H PARENT 1 8
REMARK Flexibility Score: inf
ROOT
ATOM      1  C   UNL     1      11.828  -7.048 -35.091  1.00  0.00     0.231 C 
ENDROOT
BRANCH   1   2
ATOM      2  C   UNL     1      10.405  -7.051 -35.550  1.00  0.00     0.129 A 
ATOM      3  C   UNL     1       8.353  -6.434 -36.034  1.00  0.00     0.042 A 
ATOM      4  C   UNL     1       8.588  -7.736 -36.430  1.00  0.00     0.195 A 
ATOM      5  C   UNL     1       9.528  -5.988 -35.469  1.00  0.00     0.048 A 
ATOM      6  O   UNL     1       9.821  -8.074 -36.130  1.00  0.00    -0.467 OA
ENDBRANCH   1   2
BRANCH   1   7
ATOM      7  O   UNL     1      12.032  -8.070 -34.155  1.00  0.00    -0.388 OA
ATOM      8  H   UNL     1      11.224  -8.093 -33.579  1.00  0.00     0.211 HD
ENDBRANCH   1   7
TORSDOF 2
ENDMDL
MODEL 8
REMARK VINA RESULT:    -2.806     11.501     12.742
REMARK INTER + INTRA:          -3.071
REMARK INTER:                  -3.052
REMARK INTRA:                  -0.019
REMARK UNBOUND:                -0.019
REMARK SMILES OCc1ccco1
REMARK SMILES IDX 2 1 3 2 5 3 6 4 4 5 7 6 1 7
REMARK H PARENT 1 8
REMARK Flexibility Score: inf
ROOT
ATOM      1  C   UNL     1       4.495 -11.464 -32.026  1.00  0.00     0.231 C 
ENDROOT
BRANCH   1   2
ATOM      2  C   UNL     1       3.388 -12.262 -31.415  1.00  0.00     0.129 A 
ATOM      3  C   UNL     1       1.931 -13.086 -29.993  1.00  0.00     0.042 A 
ATOM      4  C   UNL     1       1.735 -13.600 -31.259  1.00  0.00     0.195 A 
ATOM      5  C   UNL     1       2.997 -12.218 -30.092  1.00  0.00     0.048 A 
ATOM      6  O   UNL     1       2.618 -13.086 -32.086  1.00  0.00    -0.467 OA
ENDBRANCH   1   2
BRANCH   1   7
ATOM      7  O   UNL     1       5.098 -12.193 -33.059  1.00  0.00    -0.388 OA
ATOM      8  H   UNL     1       5.105 -13.143 -32.769  1.00  0.00     0.211 HD
ENDBRANCH   1   7
TORSDOF 2
ENDMDL
MODEL 9
REMARK VINA RESULT:    -2.781     10.132     11.218
REMARK INTER + INTRA:          -3.043
REMARK INTER:                  -3.029
REMARK INTRA:                  -0.014
REMARK UNBOUND:                -0.019
REMARK SMILES OCc1ccco1
REMARK SMILES IDX 2 1 3 2 5 3 6 4 4 5 7 6 1 7
REMARK H PARENT 1 8
REMARK Flexibility Score: inf
ROOT
ATOM      1  C   UNL     1       1.580 -12.828 -28.596  1.00  0.00     0.231 C 
ENDROOT
BRANCH   1   2
ATOM      2  C   UNL     1       2.186 -12.960 -29.957  1.00  0.00     0.129 A 
ATOM      3  C   UNL     1       3.481 -12.707 -31.712  1.00  0.00     0.042 A 
ATOM      4  C   UNL     1       2.545 -13.700 -31.924  1.00  0.00     0.195 A 
ATOM      5  C   UNL     1       3.253 -12.230 -30.440  1.00  0.00     0.048 A 
ATOM      6  O   UNL     1       1.789 -13.829 -30.858  1.00  0.00    -0.467 OA
ENDBRANCH   1   2
BRANCH   1   7
ATOM      7  O   UNL     1       2.203 -13.713 -27.707  1.00  0.00    -0.388 OA
ATOM      8  H   UNL     1       1.477 -14.157 -27.195  1.00  0.00     0.211 HD
ENDBRANCH   1   7
TORSDOF 2
ENDMDL
