MODEL 1
REMARK VINA RESULT:    -3.303      0.000      0.000
REMARK INTER + INTRA:          -6.422
REMARK INTER:                  -5.620
REMARK INTRA:                  -0.802
REMARK UNBOUND:                -0.802
REMARK SMILES CCCCCCCCCCCCCC(=O)[O-]
REMARK SMILES IDX 8 1 9 2 10 3 11 4 12 5 13 6 14 7 15 8 16 9 7 10 6 11 5 12
REMARK SMILES IDX 4 13 3 14 2 15 1 16
REMARK H PARENT
REMARK Flexibility Score: inf
ROOT
ATOM      1  C   UNL     1      -0.243  -0.265  -0.016  1.00  0.00     0.000 C 
ENDROOT
BRANCH   1   2
ATOM      2  C   UNL     1       0.263   1.002  -0.727  1.00  0.00     0.000 C 
BRANCH   2   3
ATOM      3  C   UNL     1       1.404   0.710  -1.714  1.00  0.00     0.000 C 
BRANCH   3   4
ATOM      4  C   UNL     1       2.783   1.097  -1.152  1.00  0.00     0.000 C 
BRANCH   4   5
ATOM      5  C   UNL     1       3.102   2.593  -1.344  1.00  0.00     0.006 C 
BRANCH   5   6
ATOM      6  C   UNL     1       2.833   3.448  -0.093  1.00  0.00     0.053 C 
BRANCH   6   7
ATOM      7  C   UNL     1       2.165   4.747  -0.419  1.00  0.00     0.041 C 
ATOM      8  O   UNL     1       0.915   4.865  -0.300  1.00  0.00    -0.550 OA
ATOM      9  O   UNL     1       2.923   5.835  -0.840  1.00  0.00    -0.550 OA
ENDBRANCH   6   7
ENDBRANCH   5   6
ENDBRANCH   4   5
ENDBRANCH   3   4
ENDBRANCH   2   3
ENDBRANCH   1   2
BRANCH   1  10
ATOM     10  C   UNL     1      -0.649  -1.379  -0.995  1.00  0.00     0.000 C 
BRANCH  10  11
ATOM     11  C   UNL     1      -1.917  -1.049  -1.813  1.00  0.00    -0.000 C 
BRANCH  11  12
ATOM     12  C   UNL     1      -3.066  -2.033  -1.528  1.00  0.00    -0.000 C 
BRANCH  12  13
ATOM     13  C   UNL     1      -2.769  -2.967  -0.342  1.00  0.00    -0.000 C 
BRANCH  13  14
ATOM     14  C   UNL     1      -3.280  -4.399  -0.574  1.00  0.00    -0.000 C 
BRANCH  14  15
ATOM     15  C   UNL     1      -2.139  -5.402  -0.806  1.00  0.00    -0.003 C 
ATOM     16  C   UNL     1      -0.767  -4.833  -0.443  1.00  0.00     0.004 C 
ENDBRANCH  14  15
ENDBRANCH  13  14
ENDBRANCH  12  13
ENDBRANCH  11  12
ENDBRANCH  10  11
ENDBRANCH   1  10
TORSDOF 12
ENDMDL
MODEL 2
REMARK VINA RESULT:    -3.295      3.848      8.109
REMARK INTER + INTRA:          -6.408
REMARK INTER:                  -5.482
REMARK INTRA:                  -0.926
REMARK UNBOUND:                -0.802
REMARK SMILES CCCCCCCCCCCCCC(=O)[O-]
REMARK SMILES IDX 8 1 9 2 10 3 11 4 12 5 13 6 14 7 15 8 16 9 7 10 6 11 5 12
REMARK SMILES IDX 4 13 3 14 2 15 1 16
REMARK H PARENT
REMARK Flexibility Score: inf
ROOT
ATOM      1  C   UNL     1       0.344  -0.289  -0.160  1.00  0.00     0.000 C 
ENDROOT
BRANCH   1   2
ATOM      2  C   UNL     1      -0.349  -1.401  -0.966  1.00  0.00     0.000 C 
BRANCH   2   3
ATOM      3  C   UNL     1      -1.616  -0.910  -1.683  1.00  0.00     0.000 C 
BRANCH   3   4
ATOM      4  C   UNL     1      -2.906  -1.366  -0.979  1.00  0.00     0.000 C 
BRANCH   4   5
ATOM      5  C   UNL     1      -3.357  -2.772  -1.421  1.00  0.00     0.006 C 
BRANCH   5   6
ATOM      6  C   UNL     1      -3.263  -3.830  -0.307  1.00  0.00     0.053 C 
BRANCH   6   7
ATOM      7  C   UNL     1      -2.310  -4.934  -0.644  1.00  0.00     0.041 C 
ATOM      8  O   UNL     1      -2.738  -6.014  -1.136  1.00  0.00    -0.550 OA
ATOM      9  O   UNL     1      -0.946  -4.767  -0.431  1.00  0.00    -0.550 OA
ENDBRANCH   6   7
ENDBRANCH   5   6
ENDBRANCH   4   5
ENDBRANCH   3   4
ENDBRANCH   2   3
ENDBRANCH   1   2
BRANCH   1  10
ATOM     10  C   UNL     1       0.591   0.983  -0.987  1.00  0.00     0.000 C 
BRANCH  10  11
ATOM     11  C   UNL     1       1.809   0.878  -1.931  1.00  0.00    -0.000 C 
BRANCH  11  12
ATOM     12  C   UNL     1       2.959   1.809  -1.504  1.00  0.00    -0.000 C 
BRANCH  12  13
ATOM     13  C   UNL     1       2.621   2.634  -0.250  1.00  0.00    -0.000 C 
BRANCH  13  14
ATOM     14  C   UNL     1       3.004   4.116  -0.398  1.00  0.00    -0.000 C 
BRANCH  14  15
ATOM     15  C   UNL     1       1.798   5.005  -0.739  1.00  0.00    -0.003 C 
ATOM     16  C   UNL     1       0.496   4.505  -0.114  1.00  0.00     0.004 C 
ENDBRANCH  14  15
ENDBRANCH  13  14
ENDBRANCH  12  13
ENDBRANCH  11  12
ENDBRANCH  10  11
ENDBRANCH   1  10
TORSDOF 12
ENDMDL
MODEL 3
REMARK VINA RESULT:    -2.841      4.504      8.475
REMARK INTER + INTRA:          -5.637
REMARK INTER:                  -4.977
REMARK INTRA:                  -0.660
REMARK UNBOUND:                -0.802
REMARK SMILES CCCCCCCCCCCCCC(=O)[O-]
REMARK SMILES IDX 8 1 9 2 10 3 11 4 12 5 13 6 14 7 15 8 16 9 7 10 6 11 5 12
REMARK SMILES IDX 4 13 3 14 2 15 1 16
REMARK H PARENT
REMARK Flexibility Score: inf
ROOT
ATOM      1  C   UNL     1       0.111  -0.487  -0.467  1.00  0.00     0.000 C 
ENDROOT
BRANCH   1   2
ATOM      2  C   UNL     1      -1.085   0.319  -1.001  1.00  0.00     0.000 C 
BRANCH   2   3
ATOM      3  C   UNL     1      -2.061  -0.543  -1.818  1.00  0.00     0.000 C 
BRANCH   3   4
ATOM      4  C   UNL     1      -2.900  -1.482  -0.935  1.00  0.00     0.000 C 
BRANCH   4   5
ATOM      5  C   UNL     1      -2.917  -2.932  -1.460  1.00  0.00     0.006 C 
BRANCH   5   6
ATOM      6  C   UNL     1      -2.493  -3.974  -0.411  1.00  0.00     0.053 C 
BRANCH   6   7
ATOM      7  C   UNL     1      -3.288  -5.239  -0.505  1.00  0.00     0.041 C 
ATOM      8  O   UNL     1      -4.437  -5.306   0.010  1.00  0.00    -0.550 OA
ATOM      9  O   UNL     1      -2.769  -6.341  -1.177  1.00  0.00    -0.550 OA
ENDBRANCH   6   7
ENDBRANCH   5   6
ENDBRANCH   4   5
ENDBRANCH   3   4
ENDBRANCH   2   3
ENDBRANCH   1   2
BRANCH   1  10
ATOM     10  C   UNL     1       1.257  -0.604  -1.487  1.00  0.00     0.000 C 
BRANCH  10  11
ATOM     11  C   UNL     1       1.855   0.758  -1.901  1.00  0.00    -0.000 C 
BRANCH  11  12
ATOM     12  C   UNL     1       2.850   1.298  -0.858  1.00  0.00    -0.000 C 
BRANCH  12  13
ATOM     13  C   UNL     1       3.178   2.786  -1.063  1.00  0.00    -0.000 C 
BRANCH  13  14
ATOM     14  C   UNL     1       2.327   3.707  -0.173  1.00  0.00    -0.000 C 
BRANCH  14  15
ATOM     15  C   UNL     1       2.335   5.166  -0.657  1.00  0.00    -0.003 C 
ATOM     16  C   UNL     1       3.627   5.902  -0.302  1.00  0.00     0.004 C 
ENDBRANCH  14  15
ENDBRANCH  13  14
ENDBRANCH  12  13
ENDBRANCH  11  12
ENDBRANCH  10  11
ENDBRANCH   1  10
TORSDOF 12
ENDMDL
MODEL 4
REMARK VINA RESULT:    -1.626      0.907      2.223
REMARK INTER + INTRA:          -3.569
REMARK INTER:                  -3.096
REMARK INTRA:                  -0.472
REMARK UNBOUND:                -0.802
REMARK SMILES CCCCCCCCCCCCCC(=O)[O-]
REMARK SMILES IDX 8 1 9 2 10 3 11 4 12 5 13 6 14 7 15 8 16 9 7 10 6 11 5 12
REMARK SMILES IDX 4 13 3 14 2 15 1 16
REMARK H PARENT
REMARK Flexibility Score: inf
ROOT
ATOM      1  C   UNL     1      -0.357  -1.232  -1.348  1.00  0.00     0.000 C 
ENDROOT
BRANCH   1   2
ATOM      2  C   UNL     1      -0.188  -0.177  -0.241  1.00  0.00     0.000 C 
BRANCH   2   3
ATOM      3  C   UNL     1       0.408   1.139  -0.765  1.00  0.00     0.000 C 
BRANCH   3   4
ATOM      4  C   UNL     1       1.837   0.964  -1.309  1.00  0.00     0.000 C 
BRANCH   4   5
ATOM      5  C   UNL     1       2.669   2.259  -1.217  1.00  0.00     0.006 C 
BRANCH   5   6
ATOM      6  C   UNL     1       2.009   3.358  -0.365  1.00  0.00     0.053 C 
BRANCH   6   7
ATOM      7  C   UNL     1       2.798   4.631  -0.360  1.00  0.00     0.041 C 
ATOM      8  O   UNL     1       3.923   4.677   0.206  1.00  0.00    -0.550 OA
ATOM      9  O   UNL     1       2.298   5.763  -0.995  1.00  0.00    -0.550 OA
ENDBRANCH   6   7
ENDBRANCH   5   6
ENDBRANCH   4   5
ENDBRANCH   3   4
ENDBRANCH   2   3
ENDBRANCH   1   2
BRANCH   1  10
ATOM     10  C   UNL     1       0.321  -2.570  -1.007  1.00  0.00     0.000 C 
BRANCH  10  11
ATOM     11  C   UNL     1      -0.503  -3.450  -0.041  1.00  0.00    -0.000 C 
BRANCH  11  12
ATOM     12  C   UNL     1      -0.807  -4.837  -0.635  1.00  0.00    -0.000 C 
BRANCH  12  13
ATOM     13  C   UNL     1      -2.312  -5.079  -0.841  1.00  0.00    -0.000 C 
BRANCH  13  14
ATOM     14  C   UNL     1      -3.176  -3.931  -0.292  1.00  0.00    -0.000 C 
BRANCH  14  15
ATOM     15  C   UNL     1      -3.411  -2.822  -1.330  1.00  0.00    -0.003 C 
ATOM     16  C   UNL     1      -3.573  -1.440  -0.695  1.00  0.00     0.004 C 
ENDBRANCH  14  15
ENDBRANCH  13  14
ENDBRANCH  12  13
ENDBRANCH  11  12
ENDBRANCH  10  11
ENDBRANCH   1  10
TORSDOF 12
ENDMDL
MODEL 5
REMARK VINA RESULT:    -1.554      3.299      7.583
REMARK INTER + INTRA:          -3.447
REMARK INTER:                  -2.904
REMARK INTRA:                  -0.543
REMARK UNBOUND:                -0.802
REMARK SMILES CCCCCCCCCCCCCC(=O)[O-]
REMARK SMILES IDX 8 1 9 2 10 3 11 4 12 5 13 6 14 7 15 8 16 9 7 10 6 11 5 12
REMARK SMILES IDX 4 13 3 14 2 15 1 16
REMARK H PARENT
REMARK Flexibility Score: inf
ROOT
ATOM      1  C   UNL     1       0.046  -1.199  -0.035  1.00  0.00     0.000 C 
ENDROOT
BRANCH   1   2
ATOM      2  C   UNL     1       0.019  -2.529  -0.808  1.00  0.00     0.000 C 
BRANCH   2   3
ATOM      3  C   UNL     1      -0.463  -3.705   0.055  1.00  0.00     0.000 C 
BRANCH   3   4
ATOM      4  C   UNL     1      -1.008  -4.871  -0.789  1.00  0.00     0.000 C 
BRANCH   4   5
ATOM      5  C   UNL     1      -2.549  -4.915  -0.813  1.00  0.00     0.006 C 
BRANCH   5   6
ATOM      6  C   UNL     1      -3.212  -3.774  -0.022  1.00  0.00     0.053 C 
BRANCH   6   7
ATOM      7  C   UNL     1      -3.412  -2.543  -0.851  1.00  0.00     0.041 C 
ATOM      8  O   UNL     1      -3.888  -1.498  -0.330  1.00  0.00    -0.550 OA
ATOM      9  O   UNL     1      -3.057  -2.542  -2.196  1.00  0.00    -0.550 OA
ENDBRANCH   6   7
ENDBRANCH   5   6
ENDBRANCH   4   5
ENDBRANCH   3   4
ENDBRANCH   2   3
ENDBRANCH   1   2
BRANCH   1  10
ATOM     10  C   UNL     1      -0.657  -0.056  -0.785  1.00  0.00     0.000 C 
BRANCH  10  11
ATOM     11  C   UNL     1       0.301   1.071  -1.229  1.00  0.00    -0.000 C 
BRANCH  11  12
ATOM     12  C   UNL     1       1.740   0.564  -1.438  1.00  0.00    -0.000 C 
BRANCH  12  13
ATOM     13  C   UNL     1       2.780   1.392  -0.665  1.00  0.00    -0.000 C 
BRANCH  13  14
ATOM     14  C   UNL     1       3.000   2.786  -1.277  1.00  0.00    -0.000 C 
BRANCH  14  15
ATOM     15  C   UNL     1       2.888   3.911  -0.236  1.00  0.00    -0.003 C 
ATOM     16  C   UNL     1       1.804   4.933  -0.581  1.00  0.00     0.004 C 
ENDBRANCH  14  15
ENDBRANCH  13  14
ENDBRANCH  12  13
ENDBRANCH  11  12
ENDBRANCH  10  11
ENDBRANCH   1  10
TORSDOF 12
ENDMDL
MODEL 6
REMARK VINA RESULT:    -1.388      4.254      7.808
REMARK INTER + INTRA:          -3.164
REMARK INTER:                  -3.038
REMARK INTRA:                  -0.126
REMARK UNBOUND:                -0.802
REMARK SMILES CCCCCCCCCCCCCC(=O)[O-]
REMARK SMILES IDX 8 1 9 2 10 3 11 4 12 5 13 6 14 7 15 8 16 9 7 10 6 11 5 12
REMARK SMILES IDX 4 13 3 14 2 15 1 16
REMARK H PARENT
REMARK Flexibility Score: inf
ROOT
ATOM      1  C   UNL     1      -0.517   1.628  -0.753  1.00  0.00     0.000 C 
ENDROOT
BRANCH   1   2
ATOM      2  C   UNL     1      -0.469   0.201  -0.178  1.00  0.00     0.000 C 
BRANCH   2   3
ATOM      3  C   UNL     1      -0.881  -0.865  -1.206  1.00  0.00     0.000 C 
BRANCH   3   4
ATOM      4  C   UNL     1      -2.402  -0.901  -1.439  1.00  0.00     0.000 C 
BRANCH   4   5
ATOM      5  C   UNL     1      -2.957  -2.338  -1.503  1.00  0.00     0.006 C 
BRANCH   5   6
ATOM      6  C   UNL     1      -2.287  -3.303  -0.509  1.00  0.00     0.053 C 
BRANCH   6   7
ATOM      7  C   UNL     1      -2.893  -4.672  -0.543  1.00  0.00     0.041 C 
ATOM      8  O   UNL     1      -4.026  -4.877  -0.028  1.00  0.00    -0.550 OA
ATOM      9  O   UNL     1      -2.214  -5.720  -1.157  1.00  0.00    -0.550 OA
ENDBRANCH   6   7
ENDBRANCH   5   6
ENDBRANCH   4   5
ENDBRANCH   3   4
ENDBRANCH   2   3
ENDBRANCH   1   2
BRANCH   1  10
ATOM     10  C   UNL     1       0.166   2.662   0.158  1.00  0.00     0.000 C 
BRANCH  10  11
ATOM     11  C   UNL     1       0.141   4.097  -0.412  1.00  0.00    -0.000 C 
BRANCH  11  12
ATOM     12  C   UNL     1       1.557   4.660  -0.632  1.00  0.00    -0.000 C 
BRANCH  12  13
ATOM     13  C   UNL     1       2.656   3.743  -0.068  1.00  0.00    -0.000 C 
BRANCH  13  14
ATOM     14  C   UNL     1       3.306   2.865  -1.151  1.00  0.00    -0.000 C 
BRANCH  14  15
ATOM     15  C   UNL     1       3.057   1.366  -0.922  1.00  0.00    -0.003 C 
ATOM     16  C   UNL     1       2.209   0.730  -2.024  1.00  0.00     0.004 C 
ENDBRANCH  14  15
ENDBRANCH  13  14
ENDBRANCH  12  13
ENDBRANCH  11  12
ENDBRANCH  10  11
ENDBRANCH   1  10
TORSDOF 12
ENDMDL
MODEL 7
REMARK VINA RESULT:    -1.304      1.751      2.488
REMARK INTER + INTRA:          -3.020
REMARK INTER:                  -2.483
REMARK INTRA:                  -0.537
REMARK UNBOUND:                -0.802
REMARK SMILES CCCCCCCCCCCCCC(=O)[O-]
REMARK SMILES IDX 8 1 9 2 10 3 11 4 12 5 13 6 14 7 15 8 16 9 7 10 6 11 5 12
REMARK SMILES IDX 4 13 3 14 2 15 1 16
REMARK H PARENT
REMARK Flexibility Score: inf
ROOT
ATOM      1  C   UNL     1      -0.421   0.842  -0.047  1.00  0.00     0.000 C 
ENDROOT
BRANCH   1   2
ATOM      2  C   UNL     1      -0.259   2.227  -0.698  1.00  0.00     0.000 C 
BRANCH   2   3
ATOM      3  C   UNL     1       0.277   3.282   0.282  1.00  0.00     0.000 C 
BRANCH   3   4
ATOM      4  C   UNL     1       0.689   4.586  -0.423  1.00  0.00     0.000 C 
BRANCH   4   5
ATOM      5  C   UNL     1       2.191   4.625  -0.767  1.00  0.00     0.006 C 
BRANCH   5   6
ATOM      6  C   UNL     1       3.018   3.545  -0.047  1.00  0.00     0.053 C 
BRANCH   6   7
ATOM      7  C   UNL     1       3.173   2.301  -0.866  1.00  0.00     0.041 C 
ATOM      8  O   UNL     1       2.814   2.288  -2.074  1.00  0.00    -0.550 OA
ATOM      9  O   UNL     1       3.729   1.158  -0.299  1.00  0.00    -0.550 OA
ENDBRANCH   6   7
ENDBRANCH   5   6
ENDBRANCH   4   5
ENDBRANCH   3   4
ENDBRANCH   2   3
ENDBRANCH   1   2
BRANCH   1  10
ATOM     10  C   UNL     1       0.392  -0.252  -0.759  1.00  0.00     0.000 C 
BRANCH  10  11
ATOM     11  C   UNL     1      -0.472  -1.210  -1.606  1.00  0.00    -0.000 C 
BRANCH  11  12
ATOM     12  C   UNL     1      -1.936  -0.743  -1.702  1.00  0.00    -0.000 C 
BRANCH  12  13
ATOM     13  C   UNL     1      -2.916  -1.715  -1.025  1.00  0.00    -0.000 C 
BRANCH  13  14
ATOM     14  C   UNL     1      -2.238  -3.020  -0.574  1.00  0.00    -0.000 C 
BRANCH  14  15
ATOM     15  C   UNL     1      -3.162  -4.241  -0.707  1.00  0.00    -0.003 C 
ATOM     16  C   UNL     1      -2.392  -5.558  -0.814  1.00  0.00     0.004 C 
ENDBRANCH  14  15
ENDBRANCH  13  14
ENDBRANCH  12  13
ENDBRANCH  11  12
ENDBRANCH  10  11
ENDBRANCH   1  10
TORSDOF 12
ENDMDL
MODEL 8
REMARK VINA RESULT:    -0.534      3.623      7.674
REMARK INTER + INTRA:          -1.711
REMARK INTER:                  -1.734
REMARK INTRA:                   0.023
REMARK UNBOUND:                -0.802
REMARK SMILES CCCCCCCCCCCCCC(=O)[O-]
REMARK SMILES IDX 8 1 9 2 10 3 11 4 12 5 13 6 14 7 15 8 16 9 7 10 6 11 5 12
REMARK SMILES IDX 4 13 3 14 2 15 1 16
REMARK H PARENT
REMARK Flexibility Score: inf
ROOT
ATOM      1  C   UNL     1       2.472   0.203  -1.699  1.00  0.00     0.000 C 
ENDROOT
BRANCH   1   2
ATOM      2  C   UNL     1       1.095  -0.448  -1.920  1.00  0.00     0.000 C 
BRANCH   2   3
ATOM      3  C   UNL     1       0.417  -0.860  -0.604  1.00  0.00     0.000 C 
BRANCH   3   4
ATOM      4  C   UNL     1      -0.906  -0.111  -0.363  1.00  0.00     0.000 C 
BRANCH   4   5
ATOM      5  C   UNL     1      -1.856  -0.183  -1.576  1.00  0.00     0.006 C 
BRANCH   5   6
ATOM      6  C   UNL     1      -2.245  -1.618  -1.972  1.00  0.00     0.053 C 
BRANCH   6   7
ATOM      7  C   UNL     1      -3.098  -2.287  -0.939  1.00  0.00     0.041 C 
ATOM      8  O   UNL     1      -3.988  -1.632  -0.331  1.00  0.00    -0.550 OA
ATOM      9  O   UNL     1      -2.923  -3.638  -0.657  1.00  0.00    -0.550 OA
ENDBRANCH   6   7
ENDBRANCH   5   6
ENDBRANCH   4   5
ENDBRANCH   3   4
ENDBRANCH   2   3
ENDBRANCH   1   2
BRANCH   1  10
ATOM     10  C   UNL     1       2.421   1.739  -1.747  1.00  0.00     0.000 C 
BRANCH  10  11
ATOM     11  C   UNL     1       2.101   2.388  -0.382  1.00  0.00    -0.000 C 
BRANCH  11  12
ATOM     12  C   UNL     1       0.672   2.957  -0.329  1.00  0.00    -0.000 C 
BRANCH  12  13
ATOM     13  C   UNL     1       0.646   4.487  -0.172  1.00  0.00    -0.000 C 
BRANCH  13  14
ATOM     14  C   UNL     1       1.875   5.166  -0.799  1.00  0.00    -0.000 C 
BRANCH  14  15
ATOM     15  C   UNL     1       3.169   4.877  -0.021  1.00  0.00    -0.003 C 
ATOM     16  C   UNL     1       4.168   6.032  -0.082  1.00  0.00     0.004 C 
ENDBRANCH  14  15
ENDBRANCH  13  14
ENDBRANCH  12  13
ENDBRANCH  11  12
ENDBRANCH  10  11
ENDBRANCH   1  10
TORSDOF 12
ENDMDL
MODEL 9
REMARK VINA RESULT:    -0.521      3.561      7.516
REMARK INTER + INTRA:          -1.689
REMARK INTER:                  -0.770
REMARK INTRA:                  -0.919
REMARK UNBOUND:                -0.802
REMARK SMILES CCCCCCCCCCCCCC(=O)[O-]
REMARK SMILES IDX 8 1 9 2 10 3 11 4 12 5 13 6 14 7 15 8 16 9 7 10 6 11 5 12
REMARK SMILES IDX 4 13 3 14 2 15 1 16
REMARK H PARENT
REMARK Flexibility Score: inf
ROOT
ATOM      1  C   UNL     1       2.658   0.643  -1.500  1.00  0.00     0.000 C 
ENDROOT
BRANCH   1   2
ATOM      2  C   UNL     1       1.172   0.334  -1.748  1.00  0.00     0.000 C 
BRANCH   2   3
ATOM      3  C   UNL     1       0.452  -0.163  -0.484  1.00  0.00     0.000 C 
BRANCH   3   4
ATOM      4  C   UNL     1      -1.054   0.150  -0.502  1.00  0.00     0.000 C 
BRANCH   4   5
ATOM      5  C   UNL     1      -1.801  -0.593  -1.627  1.00  0.00     0.006 C 
BRANCH   5   6
ATOM      6  C   UNL     1      -1.813  -2.122  -1.456  1.00  0.00     0.053 C 
BRANCH   6   7
ATOM      7  C   UNL     1      -3.055  -2.614  -0.780  1.00  0.00     0.041 C 
ATOM      8  O   UNL     1      -3.956  -1.801  -0.440  1.00  0.00    -0.550 OA
ATOM      9  O   UNL     1      -3.227  -3.974  -0.541  1.00  0.00    -0.550 OA
ENDBRANCH   6   7
ENDBRANCH   5   6
ENDBRANCH   4   5
ENDBRANCH   3   4
ENDBRANCH   2   3
ENDBRANCH   1   2
BRANCH   1  10
ATOM     10  C   UNL     1       2.955   2.151  -1.448  1.00  0.00     0.000 C 
BRANCH  10  11
ATOM     11  C   UNL     1       3.402   2.644  -0.054  1.00  0.00    -0.000 C 
BRANCH  11  12
ATOM     12  C   UNL     1       3.329   4.177   0.071  1.00  0.00    -0.000 C 
BRANCH  12  13
ATOM     13  C   UNL     1       2.268   4.800  -0.851  1.00  0.00    -0.000 C 
BRANCH  13  14
ATOM     14  C   UNL     1       0.899   4.945  -0.164  1.00  0.00    -0.000 C 
BRANCH  14  15
ATOM     15  C   UNL     1       0.159   3.604  -0.036  1.00  0.00    -0.003 C 
ATOM     16  C   UNL     1      -0.830   3.361  -1.176  1.00  0.00     0.004 C 
ENDBRANCH  14  15
ENDBRANCH  13  14
ENDBRANCH  12  13
ENDBRANCH  11  12
ENDBRANCH  10  11
ENDBRANCH   1  10
TORSDOF 12
ENDMDL
