MODEL 1
REMARK VINA RESULT:    -4.295      0.000      0.000
REMARK INTER + INTRA:          -4.295
REMARK INTER:                  -4.295
REMARK INTRA:                   0.000
REMARK UNBOUND:                 0.000
REMARK SMILES CC1=CC(=O)[C@@H]2C[C@H]1C2(C)C
REMARK SMILES IDX 1 1 2 2 3 3 4 4 5 5 6 6 7 7 8 8 9 9 10 10 11 11
REMARK H PARENT
REMARK Flexibility Score: inf
ROOT
ATOM      1  C   UNL     1      -2.275  25.799  51.752  1.00  0.00     0.040 C 
ATOM      2  C   UNL     1      -1.325  26.692  52.485  1.00  0.00    -0.066 C 
ATOM      3  C   UNL     1      -1.126  27.983  52.100  1.00  0.00     0.047 C 
ATOM      4  C   UNL     1      -0.174  28.784  52.935  1.00  0.00     0.159 C 
ATOM      5  O   UNL     1       0.064  29.999  52.706  1.00  0.00    -0.295 OA
ATOM      6  C   UNL     1       0.488  28.025  54.085  1.00  0.00     0.067 C 
ATOM      7  C   UNL     1       0.930  26.688  53.449  1.00  0.00     0.021 C 
ATOM      8  C   UNL     1      -0.512  26.192  53.698  1.00  0.00     0.022 C 
ATOM      9  C   UNL     1      -0.610  27.233  54.851  1.00  0.00    -0.019 C 
ATOM     10  C   UNL     1      -0.096  26.669  56.200  1.00  0.00     0.012 C 
ATOM     11  C   UNL     1      -1.979  27.925  55.103  1.00  0.00     0.012 C 
ENDROOT
TORSDOF 0
ENDMDL
MODEL 2
REMARK VINA RESULT:    -4.107      1.623      2.913
REMARK INTER + INTRA:          -4.107
REMARK INTER:                  -4.107
REMARK INTRA:                   0.000
REMARK UNBOUND:                 0.000
REMARK SMILES CC1=CC(=O)[C@@H]2C[C@H]1C2(C)C
REMARK SMILES IDX 1 1 2 2 3 3 4 4 5 5 6 6 7 7 8 8 9 9 10 10 11 11
REMARK H PARENT
REMARK Flexibility Score: inf
ROOT
ATOM      1  C   UNL     1      -1.736  25.882  51.358  1.00  0.00     0.040 C 
ATOM      2  C   UNL     1      -1.358  26.689  52.559  1.00  0.00    -0.066 C 
ATOM      3  C   UNL     1      -0.291  26.346  53.335  1.00  0.00     0.047 C 
ATOM      4  C   UNL     1       0.004  27.252  54.492  1.00  0.00     0.159 C 
ATOM      5  O   UNL     1       0.985  27.065  55.259  1.00  0.00    -0.295 OA
ATOM      6  C   UNL     1      -0.968  28.418  54.676  1.00  0.00     0.067 C 
ATOM      7  C   UNL     1      -2.363  27.775  54.515  1.00  0.00     0.021 C 
ATOM      8  C   UNL     1      -2.164  27.932  52.990  1.00  0.00     0.022 C 
ATOM      9  C   UNL     1      -1.184  29.103  53.297  1.00  0.00    -0.019 C 
ATOM     10  C   UNL     1      -1.914  30.464  53.424  1.00  0.00     0.012 C 
ATOM     11  C   UNL     1       0.046  29.296  52.366  1.00  0.00     0.012 C 
ENDROOT
TORSDOF 0
ENDMDL
MODEL 3
REMARK VINA RESULT:    -4.060      1.401      3.187
REMARK INTER + INTRA:          -4.060
REMARK INTER:                  -4.060
REMARK INTRA:                   0.000
REMARK UNBOUND:                 0.000
REMARK SMILES CC1=CC(=O)[C@@H]2C[C@H]1C2(C)C
REMARK SMILES IDX 1 1 2 2 3 3 4 4 5 5 6 6 7 7 8 8 9 9 10 10 11 11
REMARK H PARENT
REMARK Flexibility Score: inf
ROOT
ATOM      1  C   UNL     1      -3.003  28.125  55.492  1.00  0.00     0.040 C 
ATOM      2  C   UNL     1      -2.356  28.212  54.146  1.00  0.00    -0.066 C 
ATOM      3  C   UNL     1      -1.403  29.148  53.878  1.00  0.00     0.047 C 
ATOM      4  C   UNL     1      -0.808  29.113  52.503  1.00  0.00     0.159 C 
ATOM      5  O   UNL     1       0.108  29.899  52.145  1.00  0.00    -0.295 OA
ATOM      6  C   UNL     1      -1.390  28.055  51.564  1.00  0.00     0.067 C 
ATOM      7  C   UNL     1      -2.917  28.177  51.759  1.00  0.00     0.021 C 
ATOM      8  C   UNL     1      -2.746  27.263  52.993  1.00  0.00     0.022 C 
ATOM      9  C   UNL     1      -1.456  26.701  52.327  1.00  0.00    -0.019 C 
ATOM     10  C   UNL     1      -1.753  25.508  51.383  1.00  0.00     0.012 C 
ATOM     11  C   UNL     1      -0.265  26.310  53.245  1.00  0.00     0.012 C 
ENDROOT
TORSDOF 0
ENDMDL
MODEL 4
REMARK VINA RESULT:    -3.979      1.460      3.443
REMARK INTER + INTRA:          -3.979
REMARK INTER:                  -3.979
REMARK INTRA:                   0.000
REMARK UNBOUND:                 0.000
REMARK SMILES CC1=CC(=O)[C@@H]2C[C@H]1C2(C)C
REMARK SMILES IDX 1 1 2 2 3 3 4 4 5 5 6 6 7 7 8 8 9 9 10 10 11 11
REMARK H PARENT
REMARK Flexibility Score: inf
ROOT
ATOM      1  C   UNL     1      -3.568  28.110  55.045  1.00  0.00     0.040 C 
ATOM      2  C   UNL     1      -2.279  28.266  54.303  1.00  0.00    -0.066 C 
ATOM      3  C   UNL     1      -1.095  27.871  54.850  1.00  0.00     0.047 C 
ATOM      4  C   UNL     1       0.123  28.052  53.996  1.00  0.00     0.159 C 
ATOM      5  O   UNL     1       1.268  27.689  54.371  1.00  0.00    -0.295 OA
ATOM      6  C   UNL     1      -0.123  28.704  52.635  1.00  0.00     0.067 C 
ATOM      7  C   UNL     1      -1.047  29.900  52.952  1.00  0.00     0.021 C 
ATOM      8  C   UNL     1      -2.221  28.897  52.897  1.00  0.00     0.022 C 
ATOM      9  C   UNL     1      -1.344  28.010  51.966  1.00  0.00    -0.019 C 
ATOM     10  C   UNL     1      -1.494  28.393  50.472  1.00  0.00     0.012 C 
ATOM     11  C   UNL     1      -1.473  26.465  52.088  1.00  0.00     0.012 C 
ENDROOT
TORSDOF 0
ENDMDL
MODEL 5
REMARK VINA RESULT:    -3.976      1.548      3.528
REMARK INTER + INTRA:          -3.976
REMARK INTER:                  -3.976
REMARK INTRA:                   0.000
REMARK UNBOUND:                 0.000
REMARK SMILES CC1=CC(=O)[C@@H]2C[C@H]1C2(C)C
REMARK SMILES IDX 1 1 2 2 3 3 4 4 5 5 6 6 7 7 8 8 9 9 10 10 11 11
REMARK H PARENT
REMARK Flexibility Score: inf
ROOT
ATOM      1  C   UNL     1       0.928  26.202  53.938  1.00  0.00     0.040 C 
ATOM      2  C   UNL     1      -0.341  26.930  53.630  1.00  0.00    -0.066 C 
ATOM      3  C   UNL     1      -0.968  27.690  54.571  1.00  0.00     0.047 C 
ATOM      4  C   UNL     1      -2.215  28.395  54.130  1.00  0.00     0.159 C 
ATOM      5  O   UNL     1      -2.863  29.157  54.895  1.00  0.00    -0.295 OA
ATOM      6  C   UNL     1      -2.645  28.126  52.688  1.00  0.00     0.067 C 
ATOM      7  C   UNL     1      -2.509  26.596  52.534  1.00  0.00     0.021 C 
ATOM      8  C   UNL     1      -1.012  26.844  52.243  1.00  0.00     0.022 C 
ATOM      9  C   UNL     1      -1.401  28.274  51.766  1.00  0.00    -0.019 C 
ATOM     10  C   UNL     1      -1.782  28.311  50.264  1.00  0.00     0.012 C 
ATOM     11  C   UNL     1      -0.408  29.437  52.044  1.00  0.00     0.012 C 
ENDROOT
TORSDOF 0
ENDMDL
MODEL 6
REMARK VINA RESULT:    -3.973      2.341      3.547
REMARK INTER + INTRA:          -3.973
REMARK INTER:                  -3.973
REMARK INTRA:                   0.000
REMARK UNBOUND:                 0.000
REMARK SMILES CC1=CC(=O)[C@@H]2C[C@H]1C2(C)C
REMARK SMILES IDX 1 1 2 2 3 3 4 4 5 5 6 6 7 7 8 8 9 9 10 10 11 11
REMARK H PARENT
REMARK Flexibility Score: inf
ROOT
ATOM      1  C   UNL     1      -1.428  29.383  49.633  1.00  0.00     0.040 C 
ATOM      2  C   UNL     1      -1.958  28.720  50.865  1.00  0.00    -0.066 C 
ATOM      3  C   UNL     1      -3.285  28.450  51.009  1.00  0.00     0.047 C 
ATOM      4  C   UNL     1      -3.686  27.755  52.275  1.00  0.00     0.159 C 
ATOM      5  O   UNL     1      -4.876  27.416  52.508  1.00  0.00    -0.295 OA
ATOM      6  C   UNL     1      -2.550  27.486  53.262  1.00  0.00     0.067 C 
ATOM      7  C   UNL     1      -1.767  28.816  53.308  1.00  0.00     0.021 C 
ATOM      8  C   UNL     1      -1.034  28.328  52.038  1.00  0.00     0.022 C 
ATOM      9  C   UNL     1      -1.353  26.871  52.483  1.00  0.00    -0.019 C 
ATOM     10  C   UNL     1      -0.269  26.293  53.428  1.00  0.00     0.012 C 
ATOM     11  C   UNL     1      -1.651  25.815  51.382  1.00  0.00     0.012 C 
ENDROOT
TORSDOF 0
ENDMDL
MODEL 7
REMARK VINA RESULT:    -3.937      1.836      3.208
REMARK INTER + INTRA:          -3.937
REMARK INTER:                  -3.937
REMARK INTRA:                   0.000
REMARK UNBOUND:                 0.000
REMARK SMILES CC1=CC(=O)[C@@H]2C[C@H]1C2(C)C
REMARK SMILES IDX 1 1 2 2 3 3 4 4 5 5 6 6 7 7 8 8 9 9 10 10 11 11
REMARK H PARENT
REMARK Flexibility Score: inf
ROOT
ATOM      1  C   UNL     1       1.841  27.129  54.354  1.00  0.00     0.040 C 
ATOM      2  C   UNL     1       0.492  27.371  53.755  1.00  0.00    -0.066 C 
ATOM      3  C   UNL     1      -0.265  26.343  53.277  1.00  0.00     0.047 C 
ATOM      4  C   UNL     1      -1.611  26.711  52.730  1.00  0.00     0.159 C 
ATOM      5  O   UNL     1      -2.419  25.848  52.296  1.00  0.00    -0.295 OA
ATOM      6  C   UNL     1      -1.935  28.205  52.736  1.00  0.00     0.067 C 
ATOM      7  C   UNL     1      -0.653  28.871  52.189  1.00  0.00     0.021 C 
ATOM      8  C   UNL     1      -0.100  28.790  53.630  1.00  0.00     0.022 C 
ATOM      9  C   UNL     1      -1.573  28.783  54.134  1.00  0.00    -0.019 C 
ATOM     10  C   UNL     1      -2.131  30.214  54.342  1.00  0.00     0.012 C 
ATOM     11  C   UNL     1      -1.914  27.940  55.395  1.00  0.00     0.012 C 
ENDROOT
TORSDOF 0
ENDMDL
MODEL 8
REMARK VINA RESULT:    -3.898      1.204      2.979
REMARK INTER + INTRA:          -3.898
REMARK INTER:                  -3.898
REMARK INTRA:                   0.000
REMARK UNBOUND:                 0.000
REMARK SMILES CC1=CC(=O)[C@@H]2C[C@H]1C2(C)C
REMARK SMILES IDX 1 1 2 2 3 3 4 4 5 5 6 6 7 7 8 8 9 9 10 10 11 11
REMARK H PARENT
REMARK Flexibility Score: inf
ROOT
ATOM      1  C   UNL     1       0.845  26.359  55.273  1.00  0.00     0.040 C 
ATOM      2  C   UNL     1       0.090  27.355  54.452  1.00  0.00    -0.066 C 
ATOM      3  C   UNL     1       0.731  28.196  53.593  1.00  0.00     0.047 C 
ATOM      4  C   UNL     1      -0.140  29.126  52.804  1.00  0.00     0.159 C 
ATOM      5  O   UNL     1       0.328  29.923  51.949  1.00  0.00    -0.295 OA
ATOM      6  C   UNL     1      -1.636  29.038  53.106  1.00  0.00     0.067 C 
ATOM      7  C   UNL     1      -1.708  29.011  54.649  1.00  0.00     0.021 C 
ATOM      8  C   UNL     1      -1.444  27.492  54.549  1.00  0.00     0.022 C 
ATOM      9  C   UNL     1      -2.051  27.539  53.116  1.00  0.00    -0.019 C 
ATOM     10  C   UNL     1      -3.590  27.354  53.122  1.00  0.00     0.012 C 
ATOM     11  C   UNL     1      -1.452  26.599  52.032  1.00  0.00     0.012 C 
ENDROOT
TORSDOF 0
ENDMDL
MODEL 9
REMARK VINA RESULT:    -3.854      2.271      4.338
REMARK INTER + INTRA:          -3.854
REMARK INTER:                  -3.854
REMARK INTRA:                   0.000
REMARK UNBOUND:                 0.000
REMARK SMILES CC1=CC(=O)[C@@H]2C[C@H]1C2(C)C
REMARK SMILES IDX 1 1 2 2 3 3 4 4 5 5 6 6 7 7 8 8 9 9 10 10 11 11
REMARK H PARENT
REMARK Flexibility Score: inf
ROOT
ATOM      1  C   UNL     1      -1.730  25.895  51.386  1.00  0.00     0.040 C 
ATOM      2  C   UNL     1      -1.847  27.378  51.532  1.00  0.00    -0.066 C 
ATOM      3  C   UNL     1      -0.996  28.080  52.333  1.00  0.00     0.047 C 
ATOM      4  C   UNL     1      -1.196  29.564  52.372  1.00  0.00     0.159 C 
ATOM      5  O   UNL     1      -0.451  30.326  53.042  1.00  0.00    -0.295 OA
ATOM      6  C   UNL     1      -2.366  30.090  51.540  1.00  0.00     0.067 C 
ATOM      7  C   UNL     1      -3.528  29.130  51.876  1.00  0.00     0.021 C 
ATOM      8  C   UNL     1      -2.942  28.184  50.803  1.00  0.00     0.022 C 
ATOM      9  C   UNL     1      -2.304  29.434  50.131  1.00  0.00    -0.019 C 
ATOM     10  C   UNL     1      -3.265  30.115  49.122  1.00  0.00     0.012 C 
ATOM     11  C   UNL     1      -0.916  29.275  49.449  1.00  0.00     0.012 C 
ENDROOT
TORSDOF 0
ENDMDL
