MODEL 1
REMARK VINA RESULT:    -4.868      0.000      0.000
REMARK INTER + INTRA:          -9.268
REMARK INTER:                  -8.567
REMARK INTRA:                  -0.701
REMARK UNBOUND:                -0.701
REMARK SMILES CCCCCCC=CCCCCCCCC(=O)[O-]
REMARK SMILES IDX 10 1 11 2 12 3 13 4 14 5 15 6 16 7 17 8 18 9 9 10 8 11 7 12
REMARK SMILES IDX 6 13 5 14 4 15 3 16 2 17 1 18
REMARK H PARENT
REMARK Flexibility Score: inf
ROOT
ATOM      1  C   UNL     1     -43.758  27.091   0.373  1.00  0.00     0.004 C 
ENDROOT
BRANCH   1   2
ATOM      2  C   UNL     1     -42.518  27.993   0.506  1.00  0.00     0.000 C 
BRANCH   2   3
ATOM      3  C   UNL     1     -42.861  29.361   1.133  1.00  0.00     0.000 C 
BRANCH   3   4
ATOM      4  C   UNL     1     -43.759  29.258   2.378  1.00  0.00     0.000 C 
BRANCH   4   5
ATOM      5  C   UNL     1     -42.982  28.903   3.653  1.00  0.00     0.006 C 
BRANCH   5   6
ATOM      6  C   UNL     1     -43.877  28.183   4.664  1.00  0.00     0.053 C 
BRANCH   6   7
ATOM      7  C   UNL     1     -44.745  27.180   3.972  1.00  0.00     0.041 C 
ATOM      8  O   UNL     1     -45.967  27.421   3.784  1.00  0.00    -0.550 OA
ATOM      9  O   UNL     1     -44.195  26.000   3.488  1.00  0.00    -0.550 OA
ENDBRANCH   6   7
ENDBRANCH   5   6
ENDBRANCH   4   5
ENDBRANCH   3   4
ENDBRANCH   2   3
ENDBRANCH   1   2
BRANCH   1  10
ATOM     10  C   UNL     1     -44.524  27.342  -0.934  1.00  0.00     0.027 C 
BRANCH  10  11
ATOM     11  C   UNL     1     -45.125  26.072  -1.484  1.00  0.00    -0.031 C 
ATOM     12  C   UNL     1     -45.957  26.009  -2.541  1.00  0.00    -0.031 C 
BRANCH  12  13
ATOM     13  C   UNL     1     -46.514  27.207  -3.271  1.00  0.00     0.027 C 
BRANCH  13  14
ATOM     14  C   UNL     1     -46.371  27.064  -4.793  1.00  0.00     0.004 C 
BRANCH  14  15
ATOM     15  C   UNL     1     -45.955  28.384  -5.464  1.00  0.00     0.000 C 
BRANCH  15  16
ATOM     16  C   UNL     1     -45.526  28.179  -6.933  1.00  0.00    -0.000 C 
BRANCH  16  17
ATOM     17  C   UNL     1     -45.565  26.710  -7.384  1.00  0.00    -0.003 C 
ATOM     18  C   UNL     1     -46.692  26.415  -8.373  1.00  0.00     0.004 C 
ENDBRANCH  16  17
ENDBRANCH  15  16
ENDBRANCH  14  15
ENDBRANCH  13  14
ENDBRANCH  12  13
ENDBRANCH  10  11
ENDBRANCH   1  10
TORSDOF 13
ENDMDL
MODEL 2
REMARK VINA RESULT:    -4.687      1.944      2.922
REMARK INTER + INTRA:          -8.949
REMARK INTER:                  -8.081
REMARK INTRA:                  -0.868
REMARK UNBOUND:                -0.701
REMARK SMILES CCCCCCC=CCCCCCCCC(=O)[O-]
REMARK SMILES IDX 10 1 11 2 12 3 13 4 14 5 15 6 16 7 17 8 18 9 9 10 8 11 7 12
REMARK SMILES IDX 6 13 5 14 4 15 3 16 2 17 1 18
REMARK H PARENT
REMARK Flexibility Score: inf
ROOT
ATOM      1  C   UNL     1     -42.695  27.233   1.352  1.00  0.00     0.004 C 
ENDROOT
BRANCH   1   2
ATOM      2  C   UNL     1     -43.490  28.022   2.408  1.00  0.00     0.000 C 
BRANCH   2   3
ATOM      3  C   UNL     1     -44.367  27.101   3.282  1.00  0.00     0.000 C 
BRANCH   3   4
ATOM      4  C   UNL     1     -45.465  27.853   4.055  1.00  0.00     0.000 C 
BRANCH   4   5
ATOM      5  C   UNL     1     -45.202  27.913   5.566  1.00  0.00     0.006 C 
BRANCH   5   6
ATOM      6  C   UNL     1     -44.036  27.003   5.960  1.00  0.00     0.053 C 
BRANCH   6   7
ATOM      7  C   UNL     1     -43.306  27.570   7.136  1.00  0.00     0.041 C 
ATOM      8  O   UNL     1     -43.785  27.457   8.295  1.00  0.00    -0.550 OA
ATOM      9  O   UNL     1     -42.069  28.178   6.960  1.00  0.00    -0.550 OA
ENDBRANCH   6   7
ENDBRANCH   5   6
ENDBRANCH   4   5
ENDBRANCH   3   4
ENDBRANCH   2   3
ENDBRANCH   1   2
BRANCH   1  10
ATOM     10  C   UNL     1     -42.688  27.932  -0.015  1.00  0.00     0.027 C 
BRANCH  10  11
ATOM     11  C   UNL     1     -44.058  28.443  -0.389  1.00  0.00    -0.031 C 
ATOM     12  C   UNL     1     -45.025  27.703  -0.964  1.00  0.00    -0.031 C 
BRANCH  12  13
ATOM     13  C   UNL     1     -44.855  26.279  -1.433  1.00  0.00     0.027 C 
BRANCH  13  14
ATOM     14  C   UNL     1     -46.016  25.835  -2.335  1.00  0.00     0.004 C 
BRANCH  14  15
ATOM     15  C   UNL     1     -46.484  26.960  -3.275  1.00  0.00     0.000 C 
BRANCH  15  16
ATOM     16  C   UNL     1     -46.752  26.447  -4.706  1.00  0.00    -0.000 C 
BRANCH  16  17
ATOM     17  C   UNL     1     -46.093  27.305  -5.799  1.00  0.00    -0.003 C 
ATOM     18  C   UNL     1     -45.675  26.498  -7.026  1.00  0.00     0.004 C 
ENDBRANCH  16  17
ENDBRANCH  15  16
ENDBRANCH  14  15
ENDBRANCH  13  14
ENDBRANCH  12  13
ENDBRANCH  10  11
ENDBRANCH   1  10
TORSDOF 13
ENDMDL
MODEL 3
REMARK VINA RESULT:    -4.663      0.849      1.535
REMARK INTER + INTRA:          -8.907
REMARK INTER:                  -7.959
REMARK INTRA:                  -0.948
REMARK UNBOUND:                -0.701
REMARK SMILES CCCCCCC=CCCCCCCCC(=O)[O-]
REMARK SMILES IDX 10 1 11 2 12 3 13 4 14 5 15 6 16 7 17 8 18 9 9 10 8 11 7 12
REMARK SMILES IDX 6 13 5 14 4 15 3 16 2 17 1 18
REMARK H PARENT
REMARK Flexibility Score: inf
ROOT
ATOM      1  C   UNL     1     -43.690  27.554  -0.213  1.00  0.00     0.004 C 
ENDROOT
BRANCH   1   2
ATOM      2  C   UNL     1     -43.425  29.068  -0.305  1.00  0.00     0.000 C 
BRANCH   2   3
ATOM      3  C   UNL     1     -42.682  29.603   0.937  1.00  0.00     0.000 C 
BRANCH   3   4
ATOM      4  C   UNL     1     -43.568  29.692   2.191  1.00  0.00     0.000 C 
BRANCH   4   5
ATOM      5  C   UNL     1     -43.037  28.855   3.362  1.00  0.00     0.006 C 
BRANCH   5   6
ATOM      6  C   UNL     1     -44.156  28.517   4.352  1.00  0.00     0.053 C 
BRANCH   6   7
ATOM      7  C   UNL     1     -44.925  27.323   3.883  1.00  0.00     0.041 C 
ATOM      8  O   UNL     1     -44.361  26.440   3.184  1.00  0.00    -0.550 OA
ATOM      9  O   UNL     1     -46.251  27.157   4.262  1.00  0.00    -0.550 OA
ENDBRANCH   6   7
ENDBRANCH   5   6
ENDBRANCH   4   5
ENDBRANCH   3   4
ENDBRANCH   2   3
ENDBRANCH   1   2
BRANCH   1  10
ATOM     10  C   UNL     1     -45.131  27.190  -0.600  1.00  0.00     0.027 C 
BRANCH  10  11
ATOM     11  C   UNL     1     -45.182  25.962  -1.477  1.00  0.00    -0.031 C 
ATOM     12  C   UNL     1     -45.676  25.932  -2.728  1.00  0.00    -0.031 C 
BRANCH  12  13
ATOM     13  C   UNL     1     -46.364  27.088  -3.412  1.00  0.00     0.027 C 
BRANCH  13  14
ATOM     14  C   UNL     1     -46.984  26.669  -4.753  1.00  0.00     0.004 C 
BRANCH  14  15
ATOM     15  C   UNL     1     -45.933  26.571  -5.873  1.00  0.00     0.000 C 
BRANCH  15  16
ATOM     16  C   UNL     1     -46.217  27.560  -7.024  1.00  0.00    -0.000 C 
BRANCH  16  17
ATOM     17  C   UNL     1     -45.241  28.747  -7.068  1.00  0.00    -0.003 C 
ATOM     18  C   UNL     1     -45.550  29.818  -6.025  1.00  0.00     0.004 C 
ENDBRANCH  16  17
ENDBRANCH  15  16
ENDBRANCH  14  15
ENDBRANCH  13  14
ENDBRANCH  12  13
ENDBRANCH  10  11
ENDBRANCH   1  10
TORSDOF 13
ENDMDL
MODEL 4
REMARK VINA RESULT:    -4.656      1.552      2.029
REMARK INTER + INTRA:          -8.895
REMARK INTER:                  -8.093
REMARK INTRA:                  -0.801
REMARK UNBOUND:                -0.701
REMARK SMILES CCCCCCC=CCCCCCCCC(=O)[O-]
REMARK SMILES IDX 10 1 11 2 12 3 13 4 14 5 15 6 16 7 17 8 18 9 9 10 8 11 7 12
REMARK SMILES IDX 6 13 5 14 4 15 3 16 2 17 1 18
REMARK H PARENT
REMARK Flexibility Score: inf
ROOT
ATOM      1  C   UNL     1     -43.095  27.869  -0.314  1.00  0.00     0.004 C 
ENDROOT
BRANCH   1   2
ATOM      2  C   UNL     1     -42.878  28.150   1.184  1.00  0.00     0.000 C 
BRANCH   2   3
ATOM      3  C   UNL     1     -43.560  27.093   2.078  1.00  0.00     0.000 C 
BRANCH   3   4
ATOM      4  C   UNL     1     -44.483  27.700   3.149  1.00  0.00     0.000 C 
BRANCH   4   5
ATOM      5  C   UNL     1     -43.776  28.735   4.034  1.00  0.00     0.006 C 
BRANCH   5   6
ATOM      6  C   UNL     1     -44.224  28.613   5.493  1.00  0.00     0.053 C 
BRANCH   6   7
ATOM      7  C   UNL     1     -43.342  27.657   6.232  1.00  0.00     0.041 C 
ATOM      8  O   UNL     1     -43.637  26.433   6.285  1.00  0.00    -0.550 OA
ATOM      9  O   UNL     1     -42.165  28.105   6.817  1.00  0.00    -0.550 OA
ENDBRANCH   6   7
ENDBRANCH   5   6
ENDBRANCH   4   5
ENDBRANCH   3   4
ENDBRANCH   2   3
ENDBRANCH   1   2
BRANCH   1  10
ATOM     10  C   UNL     1     -44.568  27.591  -0.647  1.00  0.00     0.027 C 
BRANCH  10  11
ATOM     11  C   UNL     1     -44.759  26.216  -1.239  1.00  0.00    -0.031 C 
ATOM     12  C   UNL     1     -45.698  25.893  -2.147  1.00  0.00    -0.031 C 
BRANCH  12  13
ATOM     13  C   UNL     1     -46.784  26.823  -2.632  1.00  0.00     0.027 C 
BRANCH  13  14
ATOM     14  C   UNL     1     -46.434  27.447  -3.991  1.00  0.00     0.004 C 
BRANCH  14  15
ATOM     15  C   UNL     1     -46.742  26.498  -5.162  1.00  0.00     0.000 C 
BRANCH  15  16
ATOM     16  C   UNL     1     -45.700  26.616  -6.295  1.00  0.00    -0.000 C 
BRANCH  16  17
ATOM     17  C   UNL     1     -46.045  27.694  -7.335  1.00  0.00    -0.003 C 
ATOM     18  C   UNL     1     -45.241  28.981  -7.157  1.00  0.00     0.004 C 
ENDBRANCH  16  17
ENDBRANCH  15  16
ENDBRANCH  14  15
ENDBRANCH  13  14
ENDBRANCH  12  13
ENDBRANCH  10  11
ENDBRANCH   1  10
TORSDOF 13
ENDMDL
MODEL 5
REMARK VINA RESULT:    -4.539      2.454      3.809
REMARK INTER + INTRA:          -8.688
REMARK INTER:                  -6.838
REMARK INTRA:                  -1.850
REMARK UNBOUND:                -0.701
REMARK SMILES CCCCCCC=CCCCCCCCC(=O)[O-]
REMARK SMILES IDX 10 1 11 2 12 3 13 4 14 5 15 6 16 7 17 8 18 9 9 10 8 11 7 12
REMARK SMILES IDX 6 13 5 14 4 15 3 16 2 17 1 18
REMARK H PARENT
REMARK Flexibility Score: inf
ROOT
ATOM      1  C   UNL     1     -42.345  27.670   1.195  1.00  0.00     0.004 C 
ENDROOT
BRANCH   1   2
ATOM      2  C   UNL     1     -43.609  27.115   1.877  1.00  0.00     0.000 C 
BRANCH   2   3
ATOM      3  C   UNL     1     -44.131  28.054   2.985  1.00  0.00     0.000 C 
BRANCH   3   4
ATOM      4  C   UNL     1     -43.073  29.050   3.493  1.00  0.00     0.000 C 
BRANCH   4   5
ATOM      5  C   UNL     1     -43.126  29.259   5.012  1.00  0.00     0.006 C 
BRANCH   5   6
ATOM      6  C   UNL     1     -43.590  27.988   5.729  1.00  0.00     0.053 C 
BRANCH   6   7
ATOM      7  C   UNL     1     -43.094  27.975   7.141  1.00  0.00     0.041 C 
ATOM      8  O   UNL     1     -43.684  27.283   8.013  1.00  0.00    -0.550 OA
ATOM      9  O   UNL     1     -41.950  28.683   7.483  1.00  0.00    -0.550 OA
ENDBRANCH   6   7
ENDBRANCH   5   6
ENDBRANCH   4   5
ENDBRANCH   3   4
ENDBRANCH   2   3
ENDBRANCH   1   2
BRANCH   1  10
ATOM     10  C   UNL     1     -42.629  28.188  -0.223  1.00  0.00     0.027 C 
BRANCH  10  11
ATOM     11  C   UNL     1     -43.109  29.619  -0.211  1.00  0.00    -0.031 C 
ATOM     12  C   UNL     1     -44.304  30.032  -0.672  1.00  0.00    -0.031 C 
BRANCH  12  13
ATOM     13  C   UNL     1     -45.306  29.153  -1.382  1.00  0.00     0.027 C 
BRANCH  13  14
ATOM     14  C   UNL     1     -46.345  28.575  -0.410  1.00  0.00     0.004 C 
BRANCH  14  15
ATOM     15  C   UNL     1     -46.336  27.037  -0.398  1.00  0.00     0.000 C 
BRANCH  15  16
ATOM     16  C   UNL     1     -45.534  26.451  -1.580  1.00  0.00    -0.000 C 
BRANCH  16  17
ATOM     17  C   UNL     1     -46.420  25.856  -2.687  1.00  0.00    -0.003 C 
ATOM     18  C   UNL     1     -46.350  26.636  -3.999  1.00  0.00     0.004 C 
ENDBRANCH  16  17
ENDBRANCH  15  16
ENDBRANCH  14  15
ENDBRANCH  13  14
ENDBRANCH  12  13
ENDBRANCH  10  11
ENDBRANCH   1  10
TORSDOF 13
ENDMDL
MODEL 6
REMARK VINA RESULT:    -4.405      3.806      8.688
REMARK INTER + INTRA:          -8.454
REMARK INTER:                  -7.236
REMARK INTRA:                  -1.218
REMARK UNBOUND:                -0.701
REMARK SMILES CCCCCCC=CCCCCCCCC(=O)[O-]
REMARK SMILES IDX 10 1 11 2 12 3 13 4 14 5 15 6 16 7 17 8 18 9 9 10 8 11 7 12
REMARK SMILES IDX 6 13 5 14 4 15 3 16 2 17 1 18
REMARK H PARENT
REMARK Flexibility Score: inf
ROOT
ATOM      1  C   UNL     1     -44.671  26.758  -0.844  1.00  0.00     0.004 C 
ENDROOT
BRANCH   1   2
ATOM      2  C   UNL     1     -45.566  27.923  -1.304  1.00  0.00     0.000 C 
BRANCH   2   3
ATOM      3  C   UNL     1     -46.532  27.502  -2.431  1.00  0.00     0.000 C 
BRANCH   3   4
ATOM      4  C   UNL     1     -45.997  26.350  -3.300  1.00  0.00     0.000 C 
BRANCH   4   5
ATOM      5  C   UNL     1     -46.421  26.459  -4.770  1.00  0.00     0.006 C 
BRANCH   5   6
ATOM      6  C   UNL     1     -46.010  27.808  -5.366  1.00  0.00     0.053 C 
BRANCH   6   7
ATOM      7  C   UNL     1     -45.620  27.647  -6.801  1.00  0.00     0.041 C 
ATOM      8  O   UNL     1     -45.455  28.661  -7.531  1.00  0.00    -0.550 OA
ATOM      9  O   UNL     1     -45.386  26.381  -7.322  1.00  0.00    -0.550 OA
ENDBRANCH   6   7
ENDBRANCH   5   6
ENDBRANCH   4   5
ENDBRANCH   3   4
ENDBRANCH   2   3
ENDBRANCH   1   2
BRANCH   1  10
ATOM     10  C   UNL     1     -43.749  27.155   0.317  1.00  0.00     0.027 C 
BRANCH  10  11
ATOM     11  C   UNL     1     -42.655  28.093  -0.131  1.00  0.00    -0.031 C 
ATOM     12  C   UNL     1     -42.454  29.330   0.361  1.00  0.00    -0.031 C 
BRANCH  12  13
ATOM     13  C   UNL     1     -43.359  30.021   1.351  1.00  0.00     0.027 C 
BRANCH  13  14
ATOM     14  C   UNL     1     -42.710  30.125   2.739  1.00  0.00     0.004 C 
BRANCH  14  15
ATOM     15  C   UNL     1     -42.989  28.884   3.604  1.00  0.00     0.000 C 
BRANCH  15  16
ATOM     16  C   UNL     1     -44.487  28.513   3.622  1.00  0.00    -0.000 C 
BRANCH  16  17
ATOM     17  C   UNL     1     -44.773  27.146   4.265  1.00  0.00    -0.003 C 
ATOM     18  C   UNL     1     -44.204  27.014   5.677  1.00  0.00     0.004 C 
ENDBRANCH  16  17
ENDBRANCH  15  16
ENDBRANCH  14  15
ENDBRANCH  13  14
ENDBRANCH  12  13
ENDBRANCH  10  11
ENDBRANCH   1  10
TORSDOF 13
ENDMDL
MODEL 7
REMARK VINA RESULT:    -4.367      1.477      1.649
REMARK INTER + INTRA:          -8.386
REMARK INTER:                  -7.826
REMARK INTRA:                  -0.561
REMARK UNBOUND:                -0.701
REMARK SMILES CCCCCCC=CCCCCCCCC(=O)[O-]
REMARK SMILES IDX 10 1 11 2 12 3 13 4 14 5 15 6 16 7 17 8 18 9 9 10 8 11 7 12
REMARK SMILES IDX 6 13 5 14 4 15 3 16 2 17 1 18
REMARK H PARENT
REMARK Flexibility Score: inf
ROOT
ATOM      1  C   UNL     1     -44.141  27.114   0.488  1.00  0.00     0.004 C 
ENDROOT
BRANCH   1   2
ATOM      2  C   UNL     1     -42.784  27.766   0.811  1.00  0.00     0.000 C 
BRANCH   2   3
ATOM      3  C   UNL     1     -42.949  29.158   1.456  1.00  0.00     0.000 C 
BRANCH   3   4
ATOM      4  C   UNL     1     -43.974  29.184   2.604  1.00  0.00     0.000 C 
BRANCH   4   5
ATOM      5  C   UNL     1     -43.621  28.221   3.745  1.00  0.00     0.006 C 
BRANCH   5   6
ATOM      6  C   UNL     1     -43.009  28.969   4.932  1.00  0.00     0.053 C 
BRANCH   6   7
ATOM      7  C   UNL     1     -43.023  28.109   6.155  1.00  0.00     0.041 C 
ATOM      8  O   UNL     1     -42.140  28.253   7.042  1.00  0.00    -0.550 OA
ATOM      9  O   UNL     1     -44.042  27.184   6.344  1.00  0.00    -0.550 OA
ENDBRANCH   6   7
ENDBRANCH   5   6
ENDBRANCH   4   5
ENDBRANCH   3   4
ENDBRANCH   2   3
ENDBRANCH   1   2
BRANCH   1  10
ATOM     10  C   UNL     1     -44.462  27.151  -1.013  1.00  0.00     0.027 C 
BRANCH  10  11
ATOM     11  C   UNL     1     -45.262  25.945  -1.445  1.00  0.00    -0.031 C 
ATOM     12  C   UNL     1     -46.072  25.905  -2.519  1.00  0.00    -0.031 C 
BRANCH  12  13
ATOM     13  C   UNL     1     -46.403  27.089  -3.395  1.00  0.00     0.027 C 
BRANCH  13  14
ATOM     14  C   UNL     1     -46.124  26.796  -4.876  1.00  0.00     0.004 C 
BRANCH  14  15
ATOM     15  C   UNL     1     -45.867  28.081  -5.683  1.00  0.00     0.000 C 
BRANCH  15  16
ATOM     16  C   UNL     1     -45.804  27.810  -7.202  1.00  0.00    -0.000 C 
BRANCH  16  17
ATOM     17  C   UNL     1     -46.294  26.407  -7.596  1.00  0.00    -0.003 C 
ATOM     18  C   UNL     1     -47.123  26.398  -8.879  1.00  0.00     0.004 C 
ENDBRANCH  16  17
ENDBRANCH  15  16
ENDBRANCH  14  15
ENDBRANCH  13  14
ENDBRANCH  12  13
ENDBRANCH  10  11
ENDBRANCH   1  10
TORSDOF 13
ENDMDL
MODEL 8
REMARK VINA RESULT:    -4.327      3.353      8.370
REMARK INTER + INTRA:          -8.315
REMARK INTER:                  -6.554
REMARK INTRA:                  -1.761
REMARK UNBOUND:                -0.701
REMARK SMILES CCCCCCC=CCCCCCCCC(=O)[O-]
REMARK SMILES IDX 10 1 11 2 12 3 13 4 14 5 15 6 16 7 17 8 18 9 9 10 8 11 7 12
REMARK SMILES IDX 6 13 5 14 4 15 3 16 2 17 1 18
REMARK H PARENT
REMARK Flexibility Score: inf
ROOT
ATOM      1  C   UNL     1     -43.486  28.590   3.145  1.00  0.00     0.004 C 
ENDROOT
BRANCH   1   2
ATOM      2  C   UNL     1     -43.359  27.455   2.113  1.00  0.00     0.000 C 
BRANCH   2   3
ATOM      3  C   UNL     1     -42.517  27.873   0.890  1.00  0.00     0.000 C 
BRANCH   3   4
ATOM      4  C   UNL     1     -43.295  27.823  -0.437  1.00  0.00     0.000 C 
BRANCH   4   5
ATOM      5  C   UNL     1     -44.546  26.938  -0.367  1.00  0.00     0.006 C 
BRANCH   5   6
ATOM      6  C   UNL     1     -45.542  27.300  -1.471  1.00  0.00     0.053 C 
BRANCH   6   7
ATOM      7  C   UNL     1     -46.018  26.066  -2.170  1.00  0.00     0.041 C 
ATOM      8  O   UNL     1     -46.680  26.157  -3.238  1.00  0.00    -0.550 OA
ATOM      9  O   UNL     1     -45.686  24.813  -1.672  1.00  0.00    -0.550 OA
ENDBRANCH   6   7
ENDBRANCH   5   6
ENDBRANCH   4   5
ENDBRANCH   3   4
ENDBRANCH   2   3
ENDBRANCH   1   2
BRANCH   1  10
ATOM     10  C   UNL     1     -44.718  29.471   2.894  1.00  0.00     0.027 C 
BRANCH  10  11
ATOM     11  C   UNL     1     -45.927  28.650   2.518  1.00  0.00    -0.031 C 
ATOM     12  C   UNL     1     -46.913  28.301   3.366  1.00  0.00    -0.031 C 
BRANCH  12  13
ATOM     13  C   UNL     1     -46.909  28.572   4.850  1.00  0.00     0.027 C 
BRANCH  13  14
ATOM     14  C   UNL     1     -47.055  27.279   5.666  1.00  0.00     0.004 C 
BRANCH  14  15
ATOM     15  C   UNL     1     -45.962  27.143   6.740  1.00  0.00     0.000 C 
BRANCH  15  16
ATOM     16  C   UNL     1     -44.560  26.951   6.122  1.00  0.00    -0.000 C 
BRANCH  16  17
ATOM     17  C   UNL     1     -43.418  27.435   7.029  1.00  0.00    -0.003 C 
ATOM     18  C   UNL     1     -43.109  28.922   6.865  1.00  0.00     0.004 C 
ENDBRANCH  16  17
ENDBRANCH  15  16
ENDBRANCH  14  15
ENDBRANCH  13  14
ENDBRANCH  12  13
ENDBRANCH  10  11
ENDBRANCH   1  10
TORSDOF 13
ENDMDL
MODEL 9
REMARK VINA RESULT:    -4.299      3.522      8.747
REMARK INTER + INTRA:          -8.267
REMARK INTER:                  -6.261
REMARK INTRA:                  -2.005
REMARK UNBOUND:                -0.701
REMARK SMILES CCCCCCC=CCCCCCCCC(=O)[O-]
REMARK SMILES IDX 10 1 11 2 12 3 13 4 14 5 15 6 16 7 17 8 18 9 9 10 8 11 7 12
REMARK SMILES IDX 6 13 5 14 4 15 3 16 2 17 1 18
REMARK H PARENT
REMARK Flexibility Score: inf
ROOT
ATOM      1  C   UNL     1     -44.190  29.029   3.038  1.00  0.00     0.004 C 
ENDROOT
BRANCH   1   2
ATOM      2  C   UNL     1     -44.336  27.569   2.571  1.00  0.00     0.000 C 
BRANCH   2   3
ATOM      3  C   UNL     1     -43.170  27.133   1.658  1.00  0.00     0.000 C 
BRANCH   3   4
ATOM      4  C   UNL     1     -43.006  28.017   0.409  1.00  0.00     0.000 C 
BRANCH   4   5
ATOM      5  C   UNL     1     -44.272  28.076  -0.456  1.00  0.00     0.006 C 
BRANCH   5   6
ATOM      6  C   UNL     1     -44.596  26.705  -1.055  1.00  0.00     0.053 C 
BRANCH   6   7
ATOM      7  C   UNL     1     -46.071  26.454  -1.015  1.00  0.00     0.041 C 
ATOM      8  O   UNL     1     -46.661  25.983  -2.023  1.00  0.00    -0.550 OA
ATOM      9  O   UNL     1     -46.786  26.690   0.152  1.00  0.00    -0.550 OA
ENDBRANCH   6   7
ENDBRANCH   5   6
ENDBRANCH   4   5
ENDBRANCH   3   4
ENDBRANCH   2   3
ENDBRANCH   1   2
BRANCH   1  10
ATOM     10  C   UNL     1     -42.970  29.230   3.949  1.00  0.00     0.027 C 
BRANCH  10  11
ATOM     11  C   UNL     1     -43.307  30.067   5.159  1.00  0.00    -0.031 C 
ATOM     12  C   UNL     1     -43.123  29.683   6.436  1.00  0.00    -0.031 C 
BRANCH  12  13
ATOM     13  C   UNL     1     -42.664  28.310   6.865  1.00  0.00     0.027 C 
BRANCH  13  14
ATOM     14  C   UNL     1     -43.828  27.463   7.401  1.00  0.00     0.004 C 
BRANCH  14  15
ATOM     15  C   UNL     1     -44.670  26.852   6.268  1.00  0.00     0.000 C 
BRANCH  15  16
ATOM     16  C   UNL     1     -46.177  27.133   6.448  1.00  0.00    -0.000 C 
BRANCH  16  17
ATOM     17  C   UNL     1     -46.636  28.453   5.807  1.00  0.00    -0.003 C 
ATOM     18  C   UNL     1     -46.887  29.562   6.827  1.00  0.00     0.004 C 
ENDBRANCH  16  17
ENDBRANCH  15  16
ENDBRANCH  14  15
ENDBRANCH  13  14
ENDBRANCH  12  13
ENDBRANCH  10  11
ENDBRANCH   1  10
TORSDOF 13
ENDMDL
