MODEL 1
REMARK VINA RESULT:    -8.056      0.000      0.000
REMARK INTER + INTRA:          -9.567
REMARK INTER:                  -9.468
REMARK INTRA:                  -0.098
REMARK UNBOUND:                -0.098
REMARK SMILES O=c1c(O)c(-c2ccc(O)cc2)oc2cc(O)cc(O)c12
REMARK SMILES IDX 5 1 3 2 2 3 1 4 21 5 19 6 18 7 16 8 15 9 14 10 13 11 6 12
REMARK SMILES IDX 7 13 8 14 9 15 12 16 11 17 10 18 4 20 20 22 17 24
REMARK H PARENT 10 19 4 21 20 23 17 25
REMARK Flexibility Score: inf
ROOT
ATOM      1  C   UNL     1      13.140  45.328   6.137  1.00  0.00     0.180 A 
ATOM      2  C   UNL     1      13.412  44.888   4.830  1.00  0.00     0.208 A 
ATOM      3  C   UNL     1      14.666  44.324   4.548  1.00  0.00     0.238 A 
ATOM      4  O   UNL     1      14.883  43.881   3.390  1.00  0.00    -0.285 OA
ATOM      5  C   UNL     1      15.639  44.222   5.572  1.00  0.00     0.111 A 
ATOM      6  C   UNL     1      16.957  43.704   5.388  1.00  0.00     0.134 A 
ATOM      7  C   UNL     1      17.790  43.530   6.499  1.00  0.00     0.093 A 
ATOM      8  C   UNL     1      17.378  43.915   7.777  1.00  0.00     0.123 A 
ATOM      9  C   UNL     1      16.116  44.477   7.957  1.00  0.00     0.094 A 
ATOM     10  C   UNL     1      15.248  44.630   6.873  1.00  0.00     0.146 A 
ATOM     11  O   UNL     1      14.050  45.159   7.090  1.00  0.00    -0.452 OA
ENDROOT
BRANCH   1  12
ATOM     12  C   UNL     1      11.851  45.956   6.506  1.00  0.00     0.021 A 
ATOM     13  C   UNL     1      11.090  45.409   7.553  1.00  0.00     0.016 A 
ATOM     14  C   UNL     1       9.880  46.000   7.932  1.00  0.00     0.047 A 
ATOM     15  C   UNL     1       9.425  47.152   7.280  1.00  0.00     0.115 A 
ATOM     16  C   UNL     1      11.397  47.125   5.868  1.00  0.00     0.016 A 
ATOM     17  C   UNL     1      10.187  47.714   6.250  1.00  0.00     0.047 A 
BRANCH  15  18
ATOM     18  O   UNL     1       8.221  47.749   7.648  1.00  0.00    -0.508 OA
ATOM     19  H   UNL     1       8.184  48.705   7.981  1.00  0.00     0.293 HD
ENDBRANCH  15  18
ENDBRANCH   1  12
BRANCH   2  20
ATOM     20  O   UNL     1      12.429  44.977   3.840  1.00  0.00    -0.502 OA
ATOM     21  H   UNL     1      11.529  45.409   4.005  1.00  0.00     0.293 HD
ENDBRANCH   2  20
BRANCH   6  22
ATOM     22  O   UNL     1      17.500  43.375   4.142  1.00  0.00    -0.507 OA
ATOM     23  H   UNL     1      17.352  43.900   3.294  1.00  0.00     0.293 HD
ENDBRANCH   6  22
BRANCH   8  24
ATOM     24  O   UNL     1      18.220  43.753   8.875  1.00  0.00    -0.508 OA
ATOM     25  H   UNL     1      19.228  43.725   8.771  1.00  0.00     0.293 HD
ENDBRANCH   8  24
TORSDOF 5
ENDMDL
MODEL 2
REMARK VINA RESULT:    -7.705      2.548      4.230
REMARK INTER + INTRA:          -9.155
REMARK INTER:                  -8.886
REMARK INTRA:                  -0.269
REMARK UNBOUND:                -0.098
REMARK SMILES O=c1c(O)c(-c2ccc(O)cc2)oc2cc(O)cc(O)c12
REMARK SMILES IDX 5 1 3 2 2 3 1 4 21 5 19 6 18 7 16 8 15 9 14 10 13 11 6 12
REMARK SMILES IDX 7 13 8 14 9 15 12 16 11 17 10 18 4 20 20 22 17 24
REMARK H PARENT 10 19 4 21 20 23 17 25
REMARK Flexibility Score: inf
ROOT
ATOM      1  C   UNL     1      11.859  44.717   7.464  1.00  0.00     0.180 A 
ATOM      2  C   UNL     1      13.072  45.427   7.490  1.00  0.00     0.208 A 
ATOM      3  C   UNL     1      13.987  45.251   6.440  1.00  0.00     0.238 A 
ATOM      4  O   UNL     1      15.047  45.930   6.441  1.00  0.00    -0.285 OA
ATOM      5  C   UNL     1      13.687  44.354   5.386  1.00  0.00     0.111 A 
ATOM      6  C   UNL     1      14.559  44.068   4.292  1.00  0.00     0.134 A 
ATOM      7  C   UNL     1      14.104  43.266   3.239  1.00  0.00     0.093 A 
ATOM      8  C   UNL     1      12.834  42.686   3.272  1.00  0.00     0.123 A 
ATOM      9  C   UNL     1      11.998  42.910   4.363  1.00  0.00     0.094 A 
ATOM     10  C   UNL     1      12.410  43.737   5.412  1.00  0.00     0.146 A 
ATOM     11  O   UNL     1      11.579  43.934   6.428  1.00  0.00    -0.452 OA
ENDROOT
BRANCH   1  12
ATOM     12  C   UNL     1      10.855  44.831   8.546  1.00  0.00     0.021 A 
ATOM     13  C   UNL     1       9.691  45.587   8.332  1.00  0.00     0.016 A 
ATOM     14  C   UNL     1       8.719  45.689   9.333  1.00  0.00     0.047 A 
ATOM     15  C   UNL     1       8.893  45.024  10.553  1.00  0.00     0.115 A 
ATOM     16  C   UNL     1      11.013  44.149   9.766  1.00  0.00     0.016 A 
ATOM     17  C   UNL     1      10.040  44.252  10.765  1.00  0.00     0.047 A 
BRANCH  15  18
ATOM     18  O   UNL     1       7.932  45.119  11.557  1.00  0.00    -0.508 OA
ATOM     19  H   UNL     1       7.182  45.798  11.510  1.00  0.00     0.293 HD
ENDBRANCH  15  18
ENDBRANCH   1  12
BRANCH   2  20
ATOM     20  O   UNL     1      13.339  46.323   8.528  1.00  0.00    -0.502 OA
ATOM     21  H   UNL     1      14.265  46.694   8.702  1.00  0.00     0.293 HD
ENDBRANCH   2  20
BRANCH   6  22
ATOM     22  O   UNL     1      15.879  44.522   4.207  1.00  0.00    -0.507 OA
ATOM     23  H   UNL     1      16.410  44.891   4.980  1.00  0.00     0.293 HD
ENDBRANCH   6  22
BRANCH   8  24
ATOM     24  O   UNL     1      12.395  41.875   2.227  1.00  0.00    -0.508 OA
ATOM     25  H   UNL     1      12.689  40.908   2.147  1.00  0.00     0.293 HD
ENDBRANCH   8  24
TORSDOF 5
ENDMDL
MODEL 3
REMARK VINA RESULT:    -7.687      1.458      6.509
REMARK INTER + INTRA:          -9.134
REMARK INTER:                  -8.851
REMARK INTRA:                  -0.282
REMARK UNBOUND:                -0.098
REMARK SMILES O=c1c(O)c(-c2ccc(O)cc2)oc2cc(O)cc(O)c12
REMARK SMILES IDX 5 1 3 2 2 3 1 4 21 5 19 6 18 7 16 8 15 9 14 10 13 11 6 12
REMARK SMILES IDX 7 13 8 14 9 15 12 16 11 17 10 18 4 20 20 22 17 24
REMARK H PARENT 10 19 4 21 20 23 17 25
REMARK Flexibility Score: inf
ROOT
ATOM      1  C   UNL     1      13.836  45.323   6.482  1.00  0.00     0.180 A 
ATOM      2  C   UNL     1      13.809  45.795   5.158  1.00  0.00     0.208 A 
ATOM      3  C   UNL     1      12.654  46.439   4.688  1.00  0.00     0.238 A 
ATOM      4  O   UNL     1      12.656  46.908   3.520  1.00  0.00    -0.285 OA
ATOM      5  C   UNL     1      11.534  46.588   5.541  1.00  0.00     0.111 A 
ATOM      6  C   UNL     1      10.297  47.189   5.156  1.00  0.00     0.134 A 
ATOM      7  C   UNL     1       9.304  47.402   6.120  1.00  0.00     0.093 A 
ATOM      8  C   UNL     1       9.478  46.977   7.440  1.00  0.00     0.123 A 
ATOM      9  C   UNL     1      10.658  46.336   7.810  1.00  0.00     0.094 A 
ATOM     10  C   UNL     1      11.682  46.142   6.880  1.00  0.00     0.146 A 
ATOM     11  O   UNL     1      12.794  45.537   7.277  1.00  0.00    -0.452 OA
ENDROOT
BRANCH   1  12
ATOM     12  C   UNL     1      15.008  44.612   7.042  1.00  0.00     0.021 A 
ATOM     13  C   UNL     1      15.899  45.301   7.883  1.00  0.00     0.016 A 
ATOM     14  C   UNL     1      16.999  44.643   8.440  1.00  0.00     0.047 A 
ATOM     15  C   UNL     1      17.214  43.284   8.177  1.00  0.00     0.115 A 
ATOM     16  C   UNL     1      15.219  43.243   6.798  1.00  0.00     0.016 A 
ATOM     17  C   UNL     1      16.320  42.587   7.357  1.00  0.00     0.047 A 
BRANCH  15  18
ATOM     18  O   UNL     1      18.307  42.618   8.726  1.00  0.00    -0.508 OA
ATOM     19  H   UNL     1      18.435  41.620   8.604  1.00  0.00     0.293 HD
ENDBRANCH  15  18
ENDBRANCH   1  12
BRANCH   2  20
ATOM     20  O   UNL     1      14.934  45.657   4.340  1.00  0.00    -0.502 OA
ATOM     21  H   UNL     1      15.582  46.416   4.174  1.00  0.00     0.293 HD
ENDBRANCH   2  20
BRANCH   6  22
ATOM     22  O   UNL     1       9.986  47.566   3.846  1.00  0.00    -0.507 OA
ATOM     23  H   UNL     1      10.233  48.451   3.429  1.00  0.00     0.293 HD
ENDBRANCH   6  22
BRANCH   8  24
ATOM     24  O   UNL     1       8.479  47.178   8.389  1.00  0.00    -0.508 OA
ATOM     25  H   UNL     1       8.559  46.810   9.330  1.00  0.00     0.293 HD
ENDBRANCH   8  24
TORSDOF 5
ENDMDL
MODEL 4
REMARK VINA RESULT:    -7.627      1.840      7.157
REMARK INTER + INTRA:          -9.063
REMARK INTER:                  -8.767
REMARK INTRA:                  -0.296
REMARK UNBOUND:                -0.098
REMARK SMILES O=c1c(O)c(-c2ccc(O)cc2)oc2cc(O)cc(O)c12
REMARK SMILES IDX 5 1 3 2 2 3 1 4 21 5 19 6 18 7 16 8 15 9 14 10 13 11 6 12
REMARK SMILES IDX 7 13 8 14 9 15 12 16 11 17 10 18 4 20 20 22 17 24
REMARK H PARENT 10 19 4 21 20 23 17 25
REMARK Flexibility Score: inf
ROOT
ATOM      1  C   UNL     1      13.356  45.045   7.613  1.00  0.00     0.180 A 
ATOM      2  C   UNL     1      12.588  44.489   8.650  1.00  0.00     0.208 A 
ATOM      3  C   UNL     1      11.278  44.951   8.852  1.00  0.00     0.238 A 
ATOM      4  O   UNL     1      10.577  44.411   9.746  1.00  0.00    -0.285 OA
ATOM      5  C   UNL     1      10.758  45.976   8.025  1.00  0.00     0.111 A 
ATOM      6  C   UNL     1       9.457  46.548   8.165  1.00  0.00     0.134 A 
ATOM      7  C   UNL     1       8.999  47.463   7.209  1.00  0.00     0.093 A 
ATOM      8  C   UNL     1       9.818  47.875   6.155  1.00  0.00     0.123 A 
ATOM      9  C   UNL     1      11.111  47.368   6.044  1.00  0.00     0.094 A 
ATOM     10  C   UNL     1      11.583  46.425   6.962  1.00  0.00     0.146 A 
ATOM     11  O   UNL     1      12.817  45.958   6.813  1.00  0.00    -0.452 OA
ENDROOT
BRANCH   1  12
ATOM     12  C   UNL     1      14.753  44.628   7.354  1.00  0.00     0.021 A 
ATOM     13  C   UNL     1      15.008  43.601   6.429  1.00  0.00     0.016 A 
ATOM     14  C   UNL     1      16.321  43.207   6.154  1.00  0.00     0.047 A 
ATOM     15  C   UNL     1      17.395  43.844   6.788  1.00  0.00     0.115 A 
ATOM     16  C   UNL     1      15.837  45.276   7.973  1.00  0.00     0.016 A 
ATOM     17  C   UNL     1      17.149  44.880   7.695  1.00  0.00     0.047 A 
BRANCH  15  18
ATOM     18  O   UNL     1      18.707  43.459   6.522  1.00  0.00    -0.508 OA
ATOM     19  H   UNL     1      18.920  42.570   6.086  1.00  0.00     0.293 HD
ENDBRANCH  15  18
ENDBRANCH   1  12
BRANCH   2  20
ATOM     20  O   UNL     1      13.113  43.463   9.441  1.00  0.00    -0.502 OA
ATOM     21  H   UNL     1      13.327  42.545   9.070  1.00  0.00     0.293 HD
ENDBRANCH   2  20
BRANCH   6  22
ATOM     22  O   UNL     1       8.594  46.275   9.231  1.00  0.00    -0.507 OA
ATOM     23  H   UNL     1       8.879  45.875  10.112  1.00  0.00     0.293 HD
ENDBRANCH   6  22
BRANCH   8  24
ATOM     24  O   UNL     1       9.361  48.798   5.218  1.00  0.00    -0.508 OA
ATOM     25  H   UNL     1       8.377  48.874   4.984  1.00  0.00     0.293 HD
ENDBRANCH   8  24
TORSDOF 5
ENDMDL
MODEL 5
REMARK VINA RESULT:    -7.576      2.278      3.146
REMARK INTER + INTRA:          -9.004
REMARK INTER:                  -8.905
REMARK INTRA:                  -0.099
REMARK UNBOUND:                -0.098
REMARK SMILES O=c1c(O)c(-c2ccc(O)cc2)oc2cc(O)cc(O)c12
REMARK SMILES IDX 5 1 3 2 2 3 1 4 21 5 19 6 18 7 16 8 15 9 14 10 13 11 6 12
REMARK SMILES IDX 7 13 8 14 9 15 12 16 11 17 10 18 4 20 20 22 17 24
REMARK H PARENT 10 19 4 21 20 23 17 25
REMARK Flexibility Score: inf
ROOT
ATOM      1  C   UNL     1      13.939  44.714   7.027  1.00  0.00     0.180 A 
ATOM      2  C   UNL     1      15.255  45.189   6.901  1.00  0.00     0.208 A 
ATOM      3  C   UNL     1      16.312  44.411   7.400  1.00  0.00     0.238 A 
ATOM      4  O   UNL     1      17.492  44.816   7.234  1.00  0.00    -0.285 OA
ATOM      5  C   UNL     1      16.038  43.176   8.034  1.00  0.00     0.111 A 
ATOM      6  C   UNL     1      17.028  42.324   8.613  1.00  0.00     0.134 A 
ATOM      7  C   UNL     1      16.657  41.065   9.097  1.00  0.00     0.093 A 
ATOM      8  C   UNL     1      15.322  40.652   9.084  1.00  0.00     0.123 A 
ATOM      9  C   UNL     1      14.341  41.500   8.577  1.00  0.00     0.094 A 
ATOM     10  C   UNL     1      14.685  42.748   8.053  1.00  0.00     0.146 A 
ATOM     11  O   UNL     1      13.720  43.521   7.568  1.00  0.00    -0.452 OA
ENDROOT
BRANCH   1  12
ATOM     12  C   UNL     1      12.771  45.488   6.549  1.00  0.00     0.021 A 
ATOM     13  C   UNL     1      11.824  45.957   7.476  1.00  0.00     0.016 A 
ATOM     14  C   UNL     1      10.726  46.709   7.047  1.00  0.00     0.047 A 
ATOM     15  C   UNL     1      10.568  47.014   5.689  1.00  0.00     0.115 A 
ATOM     16  C   UNL     1      12.617  45.815   5.189  1.00  0.00     0.016 A 
ATOM     17  C   UNL     1      11.517  46.568   4.764  1.00  0.00     0.047 A 
BRANCH  15  18
ATOM     18  O   UNL     1       9.478  47.761   5.251  1.00  0.00    -0.508 OA
ATOM     19  H   UNL     1       9.467  48.195   4.335  1.00  0.00     0.293 HD
ENDBRANCH  15  18
ENDBRANCH   1  12
BRANCH   2  20
ATOM     20  O   UNL     1      15.505  46.401   6.251  1.00  0.00    -0.502 OA
ATOM     21  H   UNL     1      15.538  46.481   5.242  1.00  0.00     0.293 HD
ENDBRANCH   2  20
BRANCH   6  22
ATOM     22  O   UNL     1      18.373  42.678   8.758  1.00  0.00    -0.507 OA
ATOM     23  H   UNL     1      19.135  42.258   8.250  1.00  0.00     0.293 HD
ENDBRANCH   6  22
BRANCH   8  24
ATOM     24  O   UNL     1      14.960  39.403   9.583  1.00  0.00    -0.508 OA
ATOM     25  H   UNL     1      14.115  39.275  10.129  1.00  0.00     0.293 HD
ENDBRANCH   8  24
TORSDOF 5
ENDMDL
MODEL 6
REMARK VINA RESULT:    -7.299      2.108      3.319
REMARK INTER + INTRA:          -8.678
REMARK INTER:                  -8.754
REMARK INTRA:                   0.076
REMARK UNBOUND:                -0.098
REMARK SMILES O=c1c(O)c(-c2ccc(O)cc2)oc2cc(O)cc(O)c12
REMARK SMILES IDX 5 1 3 2 2 3 1 4 21 5 19 6 18 7 16 8 15 9 14 10 13 11 6 12
REMARK SMILES IDX 7 13 8 14 9 15 12 16 11 17 10 18 4 20 20 22 17 24
REMARK H PARENT 10 19 4 21 20 23 17 25
REMARK Flexibility Score: inf
ROOT
ATOM      1  C   UNL     1      10.410  47.002   6.825  1.00  0.00     0.180 A 
ATOM      2  C   UNL     1      10.752  47.107   5.467  1.00  0.00     0.208 A 
ATOM      3  C   UNL     1      12.030  46.697   5.052  1.00  0.00     0.238 A 
ATOM      4  O   UNL     1      12.311  46.742   3.826  1.00  0.00    -0.285 OA
ATOM      5  C   UNL     1      12.955  46.205   6.003  1.00  0.00     0.111 A 
ATOM      6  C   UNL     1      14.291  45.800   5.701  1.00  0.00     0.134 A 
ATOM      7  C   UNL     1      15.074  45.206   6.697  1.00  0.00     0.093 A 
ATOM      8  C   UNL     1      14.593  45.061   8.001  1.00  0.00     0.123 A 
ATOM      9  C   UNL     1      13.314  45.508   8.320  1.00  0.00     0.094 A 
ATOM     10  C   UNL     1      12.494  46.072   7.339  1.00  0.00     0.146 A 
ATOM     11  O   UNL     1      11.277  46.474   7.682  1.00  0.00    -0.452 OA
ENDROOT
BRANCH   1  12
ATOM     12  C   UNL     1       9.092  47.435   7.343  1.00  0.00     0.021 A 
ATOM     13  C   UNL     1       8.424  46.638   8.288  1.00  0.00     0.016 A 
ATOM     14  C   UNL     1       7.189  47.040   8.806  1.00  0.00     0.047 A 
ATOM     15  C   UNL     1       6.615  48.251   8.398  1.00  0.00     0.115 A 
ATOM     16  C   UNL     1       8.519  48.659   6.953  1.00  0.00     0.016 A 
ATOM     17  C   UNL     1       7.284  49.059   7.473  1.00  0.00     0.047 A 
BRANCH  15  18
ATOM     18  O   UNL     1       5.385  48.661   8.907  1.00  0.00    -0.508 OA
ATOM     19  H   UNL     1       5.074  49.622   8.829  1.00  0.00     0.293 HD
ENDBRANCH  15  18
ENDBRANCH   1  12
BRANCH   2  20
ATOM     20  O   UNL     1       9.816  47.575   4.540  1.00  0.00    -0.502 OA
ATOM     21  H   UNL     1      10.008  47.615   3.547  1.00  0.00     0.293 HD
ENDBRANCH   2  20
BRANCH   6  22
ATOM     22  O   UNL     1      14.899  45.983   4.455  1.00  0.00    -0.507 OA
ATOM     23  H   UNL     1      14.655  46.709   3.798  1.00  0.00     0.293 HD
ENDBRANCH   6  22
BRANCH   8  24
ATOM     24  O   UNL     1      15.386  44.483   8.991  1.00  0.00    -0.508 OA
ATOM     25  H   UNL     1      16.217  44.945   9.342  1.00  0.00     0.293 HD
ENDBRANCH   8  24
TORSDOF 5
ENDMDL
MODEL 7
REMARK VINA RESULT:    -7.280      1.222      2.862
REMARK INTER + INTRA:          -8.655
REMARK INTER:                  -8.389
REMARK INTRA:                  -0.266
REMARK UNBOUND:                -0.098
REMARK SMILES O=c1c(O)c(-c2ccc(O)cc2)oc2cc(O)cc(O)c12
REMARK SMILES IDX 5 1 3 2 2 3 1 4 21 5 19 6 18 7 16 8 15 9 14 10 13 11 6 12
REMARK SMILES IDX 7 13 8 14 9 15 12 16 11 17 10 18 4 20 20 22 17 24
REMARK H PARENT 10 19 4 21 20 23 17 25
REMARK Flexibility Score: inf
ROOT
ATOM      1  C   UNL     1      13.140  45.452   6.640  1.00  0.00     0.180 A 
ATOM      2  C   UNL     1      13.892  45.620   7.814  1.00  0.00     0.208 A 
ATOM      3  C   UNL     1      15.201  45.114   7.863  1.00  0.00     0.238 A 
ATOM      4  O   UNL     1      15.889  45.316   8.898  1.00  0.00    -0.285 OA
ATOM      5  C   UNL     1      15.735  44.432   6.743  1.00  0.00     0.111 A 
ATOM      6  C   UNL     1      17.036  43.844   6.697  1.00  0.00     0.134 A 
ATOM      7  C   UNL     1      17.508  43.309   5.493  1.00  0.00     0.093 A 
ATOM      8  C   UNL     1      16.704  43.283   4.351  1.00  0.00     0.123 A 
ATOM      9  C   UNL     1      15.412  43.800   4.403  1.00  0.00     0.094 A 
ATOM     10  C   UNL     1      14.925  44.374   5.580  1.00  0.00     0.146 A 
ATOM     11  O   UNL     1      13.692  44.866   5.583  1.00  0.00    -0.452 OA
ENDROOT
BRANCH   1  12
ATOM     12  C   UNL     1      11.745  45.935   6.520  1.00  0.00     0.021 A 
ATOM     13  C   UNL     1      10.701  45.178   7.078  1.00  0.00     0.016 A 
ATOM     14  C   UNL     1       9.379  45.628   6.995  1.00  0.00     0.047 A 
ATOM     15  C   UNL     1       9.087  46.845   6.369  1.00  0.00     0.115 A 
ATOM     16  C   UNL     1      11.447  47.167   5.910  1.00  0.00     0.016 A 
ATOM     17  C   UNL     1      10.124  47.614   5.830  1.00  0.00     0.047 A 
BRANCH  15  18
ATOM     18  O   UNL     1       7.774  47.303   6.280  1.00  0.00    -0.508 OA
ATOM     19  H   UNL     1       7.221  47.488   7.109  1.00  0.00     0.293 HD
ENDBRANCH  15  18
ENDBRANCH   1  12
BRANCH   2  20
ATOM     20  O   UNL     1      13.354  46.315   8.901  1.00  0.00    -0.502 OA
ATOM     21  H   UNL     1      13.266  45.903   9.821  1.00  0.00     0.293 HD
ENDBRANCH   2  20
BRANCH   6  22
ATOM     22  O   UNL     1      17.883  43.736   7.804  1.00  0.00    -0.507 OA
ATOM     23  H   UNL     1      18.222  44.516   8.346  1.00  0.00     0.293 HD
ENDBRANCH   6  22
BRANCH   8  24
ATOM     24  O   UNL     1      17.177  42.735   3.161  1.00  0.00    -0.508 OA
ATOM     25  H   UNL     1      16.982  41.773   2.906  1.00  0.00     0.293 HD
ENDBRANCH   8  24
TORSDOF 5
ENDMDL
MODEL 8
REMARK VINA RESULT:    -7.230      1.461      2.900
REMARK INTER + INTRA:          -8.597
REMARK INTER:                  -8.590
REMARK INTRA:                  -0.007
REMARK UNBOUND:                -0.098
REMARK SMILES O=c1c(O)c(-c2ccc(O)cc2)oc2cc(O)cc(O)c12
REMARK SMILES IDX 5 1 3 2 2 3 1 4 21 5 19 6 18 7 16 8 15 9 14 10 13 11 6 12
REMARK SMILES IDX 7 13 8 14 9 15 12 16 11 17 10 18 4 20 20 22 17 24
REMARK H PARENT 10 19 4 21 20 23 17 25
REMARK Flexibility Score: inf
ROOT
ATOM      1  C   UNL     1      12.814  45.094   6.940  1.00  0.00     0.180 A 
ATOM      2  C   UNL     1      13.198  44.565   8.184  1.00  0.00     0.208 A 
ATOM      3  C   UNL     1      14.389  43.826   8.271  1.00  0.00     0.238 A 
ATOM      4  O   UNL     1      14.756  43.402   9.398  1.00  0.00    -0.285 OA
ATOM      5  C   UNL     1      15.171  43.610   7.110  1.00  0.00     0.111 A 
ATOM      6  C   UNL     1      16.374  42.842   7.075  1.00  0.00     0.134 A 
ATOM      7  C   UNL     1      17.134  42.805   5.900  1.00  0.00     0.093 A 
ATOM      8  C   UNL     1      16.702  43.454   4.741  1.00  0.00     0.123 A 
ATOM      9  C   UNL     1      15.499  44.156   4.749  1.00  0.00     0.094 A 
ATOM     10  C   UNL     1      14.736  44.242   5.916  1.00  0.00     0.146 A 
ATOM     11  O   UNL     1      13.602  44.931   5.884  1.00  0.00    -0.452 OA
ENDROOT
BRANCH   1  12
ATOM     12  C   UNL     1      11.561  45.863   6.764  1.00  0.00     0.021 A 
ATOM     13  C   UNL     1      10.341  45.304   7.183  1.00  0.00     0.016 A 
ATOM     14  C   UNL     1       9.149  46.022   7.045  1.00  0.00     0.047 A 
ATOM     15  C   UNL     1       9.163  47.313   6.502  1.00  0.00     0.115 A 
ATOM     16  C   UNL     1      11.570  47.167   6.237  1.00  0.00     0.016 A 
ATOM     17  C   UNL     1      10.376  47.884   6.102  1.00  0.00     0.047 A 
BRANCH  15  18
ATOM     18  O   UNL     1       7.982  48.037   6.360  1.00  0.00    -0.508 OA
ATOM     19  H   UNL     1       7.558  48.519   7.144  1.00  0.00     0.293 HD
ENDBRANCH  15  18
ENDBRANCH   1  12
BRANCH   2  20
ATOM     20  O   UNL     1      12.424  44.809   9.321  1.00  0.00    -0.502 OA
ATOM     21  H   UNL     1      11.651  44.212   9.591  1.00  0.00     0.293 HD
ENDBRANCH   2  20
BRANCH   6  22
ATOM     22  O   UNL     1      16.847  42.082   8.149  1.00  0.00    -0.507 OA
ATOM     23  H   UNL     1      17.033  41.092   8.114  1.00  0.00     0.293 HD
ENDBRANCH   6  22
BRANCH   8  24
ATOM     24  O   UNL     1      17.457  43.398   3.572  1.00  0.00    -0.508 OA
ATOM     25  H   UNL     1      17.434  44.148   2.889  1.00  0.00     0.293 HD
ENDBRANCH   8  24
TORSDOF 5
ENDMDL
MODEL 9
REMARK VINA RESULT:    -7.036      2.068      6.805
REMARK INTER + INTRA:          -8.369
REMARK INTER:                  -8.081
REMARK INTRA:                  -0.288
REMARK UNBOUND:                -0.098
REMARK SMILES O=c1c(O)c(-c2ccc(O)cc2)oc2cc(O)cc(O)c12
REMARK SMILES IDX 5 1 3 2 2 3 1 4 21 5 19 6 18 7 16 8 15 9 14 10 13 11 6 12
REMARK SMILES IDX 7 13 8 14 9 15 12 16 11 17 10 18 4 20 20 22 17 24
REMARK H PARENT 10 19 4 21 20 23 17 25
REMARK Flexibility Score: inf
ROOT
ATOM      1  C   UNL     1      13.296  45.032   7.592  1.00  0.00     0.180 A 
ATOM      2  C   UNL     1      12.665  46.028   6.828  1.00  0.00     0.208 A 
ATOM      3  C   UNL     1      11.333  46.366   7.116  1.00  0.00     0.238 A 
ATOM      4  O   UNL     1      10.791  47.297   6.465  1.00  0.00    -0.285 OA
ATOM      5  C   UNL     1      10.643  45.692   8.152  1.00  0.00     0.111 A 
ATOM      6  C   UNL     1       9.279  45.925   8.503  1.00  0.00     0.134 A 
ATOM      7  C   UNL     1       8.739  45.294   9.630  1.00  0.00     0.093 A 
ATOM      8  C   UNL     1       9.494  44.389  10.380  1.00  0.00     0.123 A 
ATOM      9  C   UNL     1      10.807  44.109  10.010  1.00  0.00     0.094 A 
ATOM     10  C   UNL     1      11.386  44.751   8.912  1.00  0.00     0.146 A 
ATOM     11  O   UNL     1      12.644  44.465   8.600  1.00  0.00    -0.452 OA
ENDROOT
BRANCH   1  12
ATOM     12  C   UNL     1      14.690  44.604   7.332  1.00  0.00     0.021 A 
ATOM     13  C   UNL     1      14.935  43.554   6.431  1.00  0.00     0.016 A 
ATOM     14  C   UNL     1      16.244  43.149   6.155  1.00  0.00     0.047 A 
ATOM     15  C   UNL     1      17.325  43.797   6.765  1.00  0.00     0.115 A 
ATOM     16  C   UNL     1      15.781  45.263   7.926  1.00  0.00     0.016 A 
ATOM     17  C   UNL     1      17.090  44.856   7.648  1.00  0.00     0.047 A 
BRANCH  15  18
ATOM     18  O   UNL     1      18.634  43.401   6.498  1.00  0.00    -0.508 OA
ATOM     19  H   UNL     1      19.349  43.421   7.215  1.00  0.00     0.293 HD
ENDBRANCH  15  18
ENDBRANCH   1  12
BRANCH   2  20
ATOM     20  O   UNL     1      13.371  46.697   5.824  1.00  0.00    -0.502 OA
ATOM     21  H   UNL     1      13.488  46.315   4.894  1.00  0.00     0.293 HD
ENDBRANCH   2  20
BRANCH   6  22
ATOM     22  O   UNL     1       8.412  46.739   7.768  1.00  0.00    -0.507 OA
ATOM     23  H   UNL     1       8.448  46.860   6.768  1.00  0.00     0.293 HD
ENDBRANCH   6  22
BRANCH   8  24
ATOM     24  O   UNL     1       8.944  43.753  11.491  1.00  0.00    -0.508 OA
ATOM     25  H   UNL     1       9.528  43.351  12.216  1.00  0.00     0.293 HD
ENDBRANCH   8  24
TORSDOF 5
ENDMDL
