MODEL 1
REMARK VINA RESULT:    -6.183      0.000      0.000
REMARK INTER + INTRA:          -6.183
REMARK INTER:                  -6.183
REMARK INTRA:                   0.000
REMARK UNBOUND:                 0.000
REMARK SMILES CC1=CC(=O)[C@H]2C[C@@H]1C2(C)C
REMARK SMILES IDX 1 1 2 2 3 3 4 4 5 5 6 6 7 7 8 8 9 9 10 10 11 11
REMARK H PARENT
REMARK Flexibility Score: inf
ROOT
ATOM      1  C   UNL     1      -6.139 -14.368  28.751  1.00  0.00     0.040 C 
ATOM      2  C   UNL     1      -4.783 -13.765  28.941  1.00  0.00    -0.066 C 
ATOM      3  C   UNL     1      -4.233 -13.630  30.179  1.00  0.00     0.047 C 
ATOM      4  C   UNL     1      -2.884 -12.983  30.239  1.00  0.00     0.159 C 
ATOM      5  O   UNL     1      -2.289 -12.767  31.327  1.00  0.00    -0.295 OA
ATOM      6  C   UNL     1      -2.280 -12.600  28.887  1.00  0.00     0.067 C 
ATOM      7  C   UNL     1      -2.518 -13.844  28.003  1.00  0.00     0.021 C 
ATOM      8  C   UNL     1      -3.934 -13.282  27.745  1.00  0.00     0.022 C 
ATOM      9  C   UNL     1      -3.366 -11.865  28.050  1.00  0.00    -0.019 C 
ATOM     10  C   UNL     1      -4.288 -10.844  28.773  1.00  0.00     0.012 C 
ATOM     11  C   UNL     1      -2.776 -11.182  26.791  1.00  0.00     0.012 C 
ENDROOT
TORSDOF 0
ENDMDL
MODEL 2
REMARK VINA RESULT:    -5.908      1.440      3.144
REMARK INTER + INTRA:          -5.908
REMARK INTER:                  -5.908
REMARK INTRA:                   0.000
REMARK UNBOUND:                 0.000
REMARK SMILES CC1=CC(=O)[C@H]2C[C@@H]1C2(C)C
REMARK SMILES IDX 1 1 2 2 3 3 4 4 5 5 6 6 7 7 8 8 9 9 10 10 11 11
REMARK H PARENT
REMARK Flexibility Score: inf
ROOT
ATOM      1  C   UNL     1      -0.456 -14.137  28.639  1.00  0.00     0.040 C 
ATOM      2  C   UNL     1      -1.639 -13.223  28.602  1.00  0.00    -0.066 C 
ATOM      3  C   UNL     1      -1.592 -11.979  29.155  1.00  0.00     0.047 C 
ATOM      4  C   UNL     1      -2.852 -11.172  29.081  1.00  0.00     0.159 C 
ATOM      5  O   UNL     1      -2.948 -10.024  29.589  1.00  0.00    -0.295 OA
ATOM      6  C   UNL     1      -4.015 -11.840  28.346  1.00  0.00     0.067 C 
ATOM      7  C   UNL     1      -3.372 -12.415  27.065  1.00  0.00     0.021 C 
ATOM      8  C   UNL     1      -2.963 -13.634  27.923  1.00  0.00     0.022 C 
ATOM      9  C   UNL     1      -4.156 -13.299  28.866  1.00  0.00    -0.019 C 
ATOM     10  C   UNL     1      -3.984 -13.561  30.388  1.00  0.00     0.012 C 
ATOM     11  C   UNL     1      -5.477 -13.965  28.404  1.00  0.00     0.012 C 
ENDROOT
TORSDOF 0
ENDMDL
MODEL 3
REMARK VINA RESULT:    -5.891      1.287      2.574
REMARK INTER + INTRA:          -5.891
REMARK INTER:                  -5.891
REMARK INTRA:                   0.000
REMARK UNBOUND:                 0.000
REMARK SMILES CC1=CC(=O)[C@H]2C[C@@H]1C2(C)C
REMARK SMILES IDX 1 1 2 2 3 3 4 4 5 5 6 6 7 7 8 8 9 9 10 10 11 11
REMARK H PARENT
REMARK Flexibility Score: inf
ROOT
ATOM      1  C   UNL     1      -4.986  -9.875  29.560  1.00  0.00     0.040 C 
ATOM      2  C   UNL     1      -4.093 -11.059  29.365  1.00  0.00    -0.066 C 
ATOM      3  C   UNL     1      -2.783 -11.027  29.735  1.00  0.00     0.047 C 
ATOM      4  C   UNL     1      -1.985 -12.265  29.458  1.00  0.00     0.159 C 
ATOM      5  O   UNL     1      -0.756 -12.346  29.718  1.00  0.00    -0.295 OA
ATOM      6  C   UNL     1      -2.768 -13.423  28.836  1.00  0.00     0.067 C 
ATOM      7  C   UNL     1      -4.065 -13.492  29.671  1.00  0.00     0.021 C 
ATOM      8  C   UNL     1      -4.613 -12.377  28.752  1.00  0.00     0.022 C 
ATOM      9  C   UNL     1      -3.619 -12.868  27.658  1.00  0.00    -0.019 C 
ATOM     10  C   UNL     1      -2.978 -11.808  26.719  1.00  0.00     0.012 C 
ATOM     11  C   UNL     1      -4.218 -13.997  26.782  1.00  0.00     0.012 C 
ENDROOT
TORSDOF 0
ENDMDL
MODEL 4
REMARK VINA RESULT:    -5.815      1.724      3.090
REMARK INTER + INTRA:          -5.815
REMARK INTER:                  -5.815
REMARK INTRA:                   0.000
REMARK UNBOUND:                 0.000
REMARK SMILES CC1=CC(=O)[C@H]2C[C@@H]1C2(C)C
REMARK SMILES IDX 1 1 2 2 3 3 4 4 5 5 6 6 7 7 8 8 9 9 10 10 11 11
REMARK H PARENT
REMARK Flexibility Score: inf
ROOT
ATOM      1  C   UNL     1      -5.609 -14.125  28.875  1.00  0.00     0.040 C 
ATOM      2  C   UNL     1      -4.626 -13.111  29.366  1.00  0.00    -0.066 C 
ATOM      3  C   UNL     1      -4.471 -11.911  28.741  1.00  0.00     0.047 C 
ATOM      4  C   UNL     1      -3.432 -10.995  29.311  1.00  0.00     0.159 C 
ATOM      5  O   UNL     1      -3.167  -9.875  28.799  1.00  0.00    -0.295 OA
ATOM      6  C   UNL     1      -2.713 -11.515  30.557  1.00  0.00     0.067 C 
ATOM      7  C   UNL     1      -3.849 -12.066  31.445  1.00  0.00     0.021 C 
ATOM      8  C   UNL     1      -3.751 -13.365  30.614  1.00  0.00     0.022 C 
ATOM      9  C   UNL     1      -2.275 -12.985  30.298  1.00  0.00    -0.019 C 
ATOM     10  C   UNL     1      -1.705 -13.350  28.899  1.00  0.00     0.012 C 
ATOM     11  C   UNL     1      -1.290 -13.504  31.375  1.00  0.00     0.012 C 
ENDROOT
TORSDOF 0
ENDMDL
MODEL 5
REMARK VINA RESULT:    -5.757      1.499      3.050
REMARK INTER + INTRA:          -5.757
REMARK INTER:                  -5.757
REMARK INTRA:                   0.000
REMARK UNBOUND:                 0.000
REMARK SMILES CC1=CC(=O)[C@H]2C[C@@H]1C2(C)C
REMARK SMILES IDX 1 1 2 2 3 3 4 4 5 5 6 6 7 7 8 8 9 9 10 10 11 11
REMARK H PARENT
REMARK Flexibility Score: inf
ROOT
ATOM      1  C   UNL     1      -1.317 -11.991  31.397  1.00  0.00     0.040 C 
ATOM      2  C   UNL     1      -2.503 -12.296  30.538  1.00  0.00    -0.066 C 
ATOM      3  C   UNL     1      -3.397 -13.265  30.881  1.00  0.00     0.047 C 
ATOM      4  C   UNL     1      -4.525 -13.496  29.922  1.00  0.00     0.159 C 
ATOM      5  O   UNL     1      -5.392 -14.389  30.106  1.00  0.00    -0.295 OA
ATOM      6  C   UNL     1      -4.547 -12.573  28.702  1.00  0.00     0.067 C 
ATOM      7  C   UNL     1      -4.287 -11.168  29.288  1.00  0.00     0.021 C 
ATOM      8  C   UNL     1      -2.783 -11.519  29.233  1.00  0.00     0.022 C 
ATOM      9  C   UNL     1      -3.117 -12.525  28.092  1.00  0.00    -0.019 C 
ATOM     10  C   UNL     1      -2.301 -13.846  28.016  1.00  0.00     0.012 C 
ATOM     11  C   UNL     1      -3.095 -11.858  26.694  1.00  0.00     0.012 C 
ENDROOT
TORSDOF 0
ENDMDL
MODEL 6
REMARK VINA RESULT:    -5.719      1.871      3.304
REMARK INTER + INTRA:          -5.719
REMARK INTER:                  -5.719
REMARK INTRA:                   0.000
REMARK UNBOUND:                 0.000
REMARK SMILES CC1=CC(=O)[C@H]2C[C@@H]1C2(C)C
REMARK SMILES IDX 1 1 2 2 3 3 4 4 5 5 6 6 7 7 8 8 9 9 10 10 11 11
REMARK H PARENT
REMARK Flexibility Score: inf
ROOT
ATOM      1  C   UNL     1      -0.527 -13.265  29.244  1.00  0.00     0.040 C 
ATOM      2  C   UNL     1      -1.983 -13.182  28.911  1.00  0.00    -0.066 C 
ATOM      3  C   UNL     1      -2.528 -13.943  27.921  1.00  0.00     0.047 C 
ATOM      4  C   UNL     1      -3.991 -13.746  27.662  1.00  0.00     0.159 C 
ATOM      5  O   UNL     1      -4.601 -14.360  26.749  1.00  0.00    -0.295 OA
ATOM      6  C   UNL     1      -4.690 -12.746  28.584  1.00  0.00     0.067 C 
ATOM      7  C   UNL     1      -4.182 -13.115  29.995  1.00  0.00     0.021 C 
ATOM      8  C   UNL     1      -2.942 -12.248  29.681  1.00  0.00     0.022 C 
ATOM      9  C   UNL     1      -3.821 -11.458  28.668  1.00  0.00    -0.019 C 
ATOM     10  C   UNL     1      -3.151 -10.934  27.367  1.00  0.00     0.012 C 
ATOM     11  C   UNL     1      -4.575 -10.281  29.335  1.00  0.00     0.012 C 
ENDROOT
TORSDOF 0
ENDMDL
MODEL 7
REMARK VINA RESULT:    -5.692      1.549      2.707
REMARK INTER + INTRA:          -5.692
REMARK INTER:                  -5.692
REMARK INTRA:                   0.000
REMARK UNBOUND:                 0.000
REMARK SMILES CC1=CC(=O)[C@H]2C[C@@H]1C2(C)C
REMARK SMILES IDX 1 1 2 2 3 3 4 4 5 5 6 6 7 7 8 8 9 9 10 10 11 11
REMARK H PARENT
REMARK Flexibility Score: inf
ROOT
ATOM      1  C   UNL     1      -5.778 -14.032  28.384  1.00  0.00     0.040 C 
ATOM      2  C   UNL     1      -4.550 -13.239  28.701  1.00  0.00    -0.066 C 
ATOM      3  C   UNL     1      -3.317 -13.646  28.289  1.00  0.00     0.047 C 
ATOM      4  C   UNL     1      -2.163 -12.782  28.697  1.00  0.00     0.159 C 
ATOM      5  O   UNL     1      -0.971 -13.072  28.412  1.00  0.00    -0.295 OA
ATOM      6  C   UNL     1      -2.532 -11.524  29.484  1.00  0.00     0.067 C 
ATOM      7  C   UNL     1      -3.725 -10.929  28.705  1.00  0.00     0.021 C 
ATOM      8  C   UNL     1      -4.619 -11.914  29.491  1.00  0.00     0.022 C 
ATOM      9  C   UNL     1      -3.533 -11.920  30.607  1.00  0.00    -0.019 C 
ATOM     10  C   UNL     1      -3.285 -13.242  31.385  1.00  0.00     0.012 C 
ATOM     11  C   UNL     1      -3.742 -10.781  31.638  1.00  0.00     0.012 C 
ENDROOT
TORSDOF 0
ENDMDL
MODEL 8
REMARK VINA RESULT:    -5.601      1.555      2.201
REMARK INTER + INTRA:          -5.601
REMARK INTER:                  -5.601
REMARK INTRA:                   0.000
REMARK UNBOUND:                 0.000
REMARK SMILES CC1=CC(=O)[C@H]2C[C@@H]1C2(C)C
REMARK SMILES IDX 1 1 2 2 3 3 4 4 5 5 6 6 7 7 8 8 9 9 10 10 11 11
REMARK H PARENT
REMARK Flexibility Score: inf
ROOT
ATOM      1  C   UNL     1      -5.382 -14.750  31.948  1.00  0.00     0.040 C 
ATOM      2  C   UNL     1      -4.266 -13.973  31.325  1.00  0.00    -0.066 C 
ATOM      3  C   UNL     1      -3.027 -13.936  31.889  1.00  0.00     0.047 C 
ATOM      4  C   UNL     1      -2.004 -13.097  31.185  1.00  0.00     0.159 C 
ATOM      5  O   UNL     1      -0.835 -12.951  31.628  1.00  0.00    -0.295 OA
ATOM      6  C   UNL     1      -2.479 -12.430  29.894  1.00  0.00     0.067 C 
ATOM      7  C   UNL     1      -3.228 -13.552  29.143  1.00  0.00     0.021 C 
ATOM      8  C   UNL     1      -4.457 -13.191  30.007  1.00  0.00     0.022 C 
ATOM      9  C   UNL     1      -3.859 -11.762  30.161  1.00  0.00    -0.019 C 
ATOM     10  C   UNL     1      -4.071 -11.018  31.509  1.00  0.00     0.012 C 
ATOM     11  C   UNL     1      -4.288 -10.817  29.010  1.00  0.00     0.012 C 
ENDROOT
TORSDOF 0
ENDMDL
MODEL 9
REMARK VINA RESULT:    -5.569      1.559      3.603
REMARK INTER + INTRA:          -5.569
REMARK INTER:                  -5.569
REMARK INTRA:                   0.000
REMARK UNBOUND:                 0.000
REMARK SMILES CC1=CC(=O)[C@H]2C[C@@H]1C2(C)C
REMARK SMILES IDX 1 1 2 2 3 3 4 4 5 5 6 6 7 7 8 8 9 9 10 10 11 11
REMARK H PARENT
REMARK Flexibility Score: inf
ROOT
ATOM      1  C   UNL     1      -4.715 -10.112  29.491  1.00  0.00     0.040 C 
ATOM      2  C   UNL     1      -3.944 -11.371  29.733  1.00  0.00    -0.066 C 
ATOM      3  C   UNL     1      -3.176 -11.931  28.757  1.00  0.00     0.047 C 
ATOM      4  C   UNL     1      -2.478 -13.208  29.114  1.00  0.00     0.159 C 
ATOM      5  O   UNL     1      -1.772 -13.842  28.287  1.00  0.00    -0.295 OA
ATOM      6  C   UNL     1      -2.684 -13.687  30.552  1.00  0.00     0.067 C 
ATOM      7  C   UNL     1      -2.485 -12.415  31.405  1.00  0.00     0.021 C 
ATOM      8  C   UNL     1      -3.964 -12.086  31.101  1.00  0.00     0.022 C 
ATOM      9  C   UNL     1      -4.201 -13.609  30.887  1.00  0.00    -0.019 C 
ATOM     10  C   UNL     1      -5.220 -14.048  29.799  1.00  0.00     0.012 C 
ATOM     11  C   UNL     1      -4.550 -14.343  32.206  1.00  0.00     0.012 C 
ENDROOT
TORSDOF 0
ENDMDL
