MODEL 1
REMARK VINA RESULT:    -7.264      0.000      0.000
REMARK INTER + INTRA:          -7.901
REMARK INTER:                  -7.901
REMARK INTRA:                   0.000
REMARK UNBOUND:                 0.000
REMARK SMILES Cc1cc(O)c2c(c1)C(=O)c1cc(O)cc(O)c1C2=O
REMARK SMILES IDX 1 1 2 2 8 3 7 4 6 5 4 6 3 7 19 8 20 9 18 10 11 11 9 12 10 13
REMARK SMILES IDX 12 14 13 15 15 16 16 17 5 18 17 20 14 22
REMARK H PARENT 5 19 17 21 14 23
REMARK Flexibility Score: inf
ROOT
ATOM      1  C   UNL     1      33.753  47.801  82.402  1.00  0.00     0.044 C 
ATOM      2  C   UNL     1      33.520  46.369  82.786  1.00  0.00    -0.047 A 
ATOM      3  C   UNL     1      34.590  45.469  82.829  1.00  0.00     0.016 A 
ATOM      4  C   UNL     1      34.388  44.133  83.215  1.00  0.00     0.038 A 
ATOM      5  C   UNL     1      33.093  43.691  83.565  1.00  0.00     0.076 A 
ATOM      6  C   UNL     1      32.029  44.629  83.602  1.00  0.00     0.127 A 
ATOM      7  C   UNL     1      32.250  45.948  83.193  1.00  0.00     0.050 A 
ATOM      8  C   UNL     1      32.891  42.242  83.824  1.00  0.00     0.201 C 
ATOM      9  O   UNL     1      31.776  41.711  83.575  1.00  0.00    -0.288 OA
ATOM     10  C   UNL     1      34.050  41.390  84.194  1.00  0.00     0.076 A 
ATOM     11  C   UNL     1      35.345  41.836  83.844  1.00  0.00     0.041 A 
ATOM     12  C   UNL     1      35.529  43.188  83.265  1.00  0.00     0.194 C 
ATOM     13  O   UNL     1      36.662  43.542  82.835  1.00  0.00    -0.289 OA
ATOM     14  C   UNL     1      36.453  40.998  84.053  1.00  0.00     0.059 A 
ATOM     15  C   UNL     1      36.287  39.731  84.618  1.00  0.00     0.120 A 
ATOM     16  C   UNL     1      35.017  39.304  85.000  1.00  0.00     0.093 A 
ATOM     17  C   UNL     1      33.901  40.127  84.823  1.00  0.00     0.131 A 
ENDROOT
BRANCH   6  18
ATOM     18  O   UNL     1      30.752  44.305  84.069  1.00  0.00    -0.507 OA
ATOM     19  H   UNL     1      30.296  44.791  84.829  1.00  0.00     0.293 HD
ENDBRANCH   6  18
BRANCH  17  20
ATOM     20  O   UNL     1      32.677  39.667  85.314  1.00  0.00    -0.507 OA
ATOM     21  H   UNL     1      32.050  40.232  85.871  1.00  0.00     0.293 HD
ENDBRANCH  17  20
BRANCH  15  22
ATOM     22  O   UNL     1      37.383  38.892  84.815  1.00  0.00    -0.508 OA
ATOM     23  H   UNL     1      37.805  38.779  85.729  1.00  0.00     0.293 HD
ENDBRANCH  15  22
TORSDOF 3
ENDMDL
MODEL 2
REMARK VINA RESULT:    -7.043      3.192      4.325
REMARK INTER + INTRA:          -7.660
REMARK INTER:                  -7.660
REMARK INTRA:                   0.000
REMARK UNBOUND:                 0.000
REMARK SMILES Cc1cc(O)c2c(c1)C(=O)c1cc(O)cc(O)c1C2=O
REMARK SMILES IDX 1 1 2 2 8 3 7 4 6 5 4 6 3 7 19 8 20 9 18 10 11 11 9 12 10 13
REMARK SMILES IDX 12 14 13 15 15 16 16 17 5 18 17 20 14 22
REMARK H PARENT 5 19 17 21 14 23
REMARK Flexibility Score: inf
ROOT
ATOM      1  C   UNL     1      29.844  44.282  87.324  1.00  0.00     0.044 C 
ATOM      2  C   UNL     1      31.253  43.809  87.110  1.00  0.00    -0.047 A 
ATOM      3  C   UNL     1      31.496  42.584  86.482  1.00  0.00     0.016 A 
ATOM      4  C   UNL     1      32.811  42.146  86.252  1.00  0.00     0.038 A 
ATOM      5  C   UNL     1      33.901  42.948  86.658  1.00  0.00     0.076 A 
ATOM      6  C   UNL     1      33.647  44.227  87.216  1.00  0.00     0.127 A 
ATOM      7  C   UNL     1      32.329  44.632  87.455  1.00  0.00     0.050 A 
ATOM      8  C   UNL     1      35.271  42.388  86.533  1.00  0.00     0.201 C 
ATOM      9  O   UNL     1      36.169  42.744  87.341  1.00  0.00    -0.288 OA
ATOM     10  C   UNL     1      35.530  41.276  85.582  1.00  0.00     0.076 A 
ATOM     11  C   UNL     1      34.437  40.476  85.176  1.00  0.00     0.041 A 
ATOM     12  C   UNL     1      33.061  40.848  85.579  1.00  0.00     0.194 C 
ATOM     13  O   UNL     1      32.098  40.072  85.327  1.00  0.00    -0.289 OA
ATOM     14  C   UNL     1      34.662  39.335  84.389  1.00  0.00     0.059 A 
ATOM     15  C   UNL     1      35.956  38.991  83.990  1.00  0.00     0.120 A 
ATOM     16  C   UNL     1      37.031  39.800  84.354  1.00  0.00     0.093 A 
ATOM     17  C   UNL     1      36.833  40.953  85.120  1.00  0.00     0.131 A 
ENDROOT
BRANCH   6  18
ATOM     18  O   UNL     1      34.665  45.137  87.515  1.00  0.00    -0.507 OA
ATOM     19  H   UNL     1      34.562  45.890  88.181  1.00  0.00     0.293 HD
ENDBRANCH   6  18
BRANCH  17  20
ATOM     20  O   UNL     1      37.945  41.760  85.368  1.00  0.00    -0.507 OA
ATOM     21  H   UNL     1      38.453  41.759  86.242  1.00  0.00     0.293 HD
ENDBRANCH  17  20
BRANCH  15  22
ATOM     22  O   UNL     1      36.183  37.853  83.218  1.00  0.00    -0.508 OA
ATOM     23  H   UNL     1      37.112  37.609  82.895  1.00  0.00     0.293 HD
ENDBRANCH  15  22
TORSDOF 3
ENDMDL
MODEL 3
REMARK VINA RESULT:    -6.869      1.855      2.960
REMARK INTER + INTRA:          -7.471
REMARK INTER:                  -7.471
REMARK INTRA:                   0.000
REMARK UNBOUND:                 0.000
REMARK SMILES Cc1cc(O)c2c(c1)C(=O)c1cc(O)cc(O)c1C2=O
REMARK SMILES IDX 1 1 2 2 8 3 7 4 6 5 4 6 3 7 19 8 20 9 18 10 11 11 9 12 10 13
REMARK SMILES IDX 12 14 13 15 15 16 16 17 5 18 17 20 14 22
REMARK H PARENT 5 19 17 21 14 23
REMARK Flexibility Score: inf
ROOT
ATOM      1  C   UNL     1      30.418  45.883  82.522  1.00  0.00     0.044 C 
ATOM      2  C   UNL     1      31.590  45.198  83.161  1.00  0.00    -0.047 A 
ATOM      3  C   UNL     1      31.822  43.838  82.931  1.00  0.00     0.016 A 
ATOM      4  C   UNL     1      32.932  43.194  83.501  1.00  0.00     0.038 A 
ATOM      5  C   UNL     1      33.827  43.924  84.315  1.00  0.00     0.076 A 
ATOM      6  C   UNL     1      33.634  45.320  84.475  1.00  0.00     0.127 A 
ATOM      7  C   UNL     1      32.509  45.935  83.914  1.00  0.00     0.050 A 
ATOM      8  C   UNL     1      34.903  43.180  85.019  1.00  0.00     0.201 C 
ATOM      9  O   UNL     1      35.332  43.599  86.127  1.00  0.00    -0.288 OA
ATOM     10  C   UNL     1      35.335  41.851  84.513  1.00  0.00     0.076 A 
ATOM     11  C   UNL     1      34.438  41.125  83.697  1.00  0.00     0.041 A 
ATOM     12  C   UNL     1      33.175  41.753  83.246  1.00  0.00     0.194 C 
ATOM     13  O   UNL     1      32.315  41.069  82.624  1.00  0.00    -0.289 OA
ATOM     14  C   UNL     1      34.753  39.810  83.312  1.00  0.00     0.059 A 
ATOM     15  C   UNL     1      35.952  39.220  83.718  1.00  0.00     0.120 A 
ATOM     16  C   UNL     1      36.857  39.948  84.489  1.00  0.00     0.093 A 
ATOM     17  C   UNL     1      36.577  41.265  84.868  1.00  0.00     0.131 A 
ENDROOT
BRANCH   6  18
ATOM     18  O   UNL     1      34.546  46.137  85.148  1.00  0.00    -0.507 OA
ATOM     19  H   UNL     1      35.525  46.198  84.904  1.00  0.00     0.293 HD
ENDBRANCH   6  18
BRANCH  17  20
ATOM     20  O   UNL     1      37.570  41.960  85.563  1.00  0.00    -0.507 OA
ATOM     21  H   UNL     1      38.083  41.571  86.342  1.00  0.00     0.293 HD
ENDBRANCH  17  20
BRANCH  15  22
ATOM     22  O   UNL     1      36.262  37.912  83.348  1.00  0.00    -0.508 OA
ATOM     23  H   UNL     1      35.594  37.328  82.860  1.00  0.00     0.293 HD
ENDBRANCH  15  22
TORSDOF 3
ENDMDL
MODEL 4
REMARK VINA RESULT:    -6.757      3.728      4.018
REMARK INTER + INTRA:          -7.349
REMARK INTER:                  -7.349
REMARK INTRA:                   0.000
REMARK UNBOUND:                 0.000
REMARK SMILES Cc1cc(O)c2c(c1)C(=O)c1cc(O)cc(O)c1C2=O
REMARK SMILES IDX 1 1 2 2 8 3 7 4 6 5 4 6 3 7 19 8 20 9 18 10 11 11 9 12 10 13
REMARK SMILES IDX 12 14 13 15 15 16 16 17 5 18 17 20 14 22
REMARK H PARENT 5 19 17 21 14 23
REMARK Flexibility Score: inf
ROOT
ATOM      1  C   UNL     1      35.571  46.333  90.032  1.00  0.00     0.044 C 
ATOM      2  C   UNL     1      35.046  45.221  89.172  1.00  0.00    -0.047 A 
ATOM      3  C   UNL     1      35.892  44.571  88.268  1.00  0.00     0.016 A 
ATOM      4  C   UNL     1      35.418  43.510  87.479  1.00  0.00     0.038 A 
ATOM      5  C   UNL     1      34.074  43.092  87.597  1.00  0.00     0.076 A 
ATOM      6  C   UNL     1      33.245  43.698  88.576  1.00  0.00     0.127 A 
ATOM      7  C   UNL     1      33.734  44.766  89.335  1.00  0.00     0.050 A 
ATOM      8  C   UNL     1      33.569  42.069  86.645  1.00  0.00     0.201 C 
ATOM      9  O   UNL     1      32.355  42.071  86.309  1.00  0.00    -0.288 OA
ATOM     10  C   UNL     1      34.528  41.172  85.949  1.00  0.00     0.076 A 
ATOM     11  C   UNL     1      35.872  41.592  85.834  1.00  0.00     0.041 A 
ATOM     12  C   UNL     1      36.324  42.821  86.528  1.00  0.00     0.194 C 
ATOM     13  O   UNL     1      37.487  43.269  86.327  1.00  0.00    -0.289 OA
ATOM     14  C   UNL     1      36.777  40.839  85.067  1.00  0.00     0.059 A 
ATOM     15  C   UNL     1      36.361  39.668  84.428  1.00  0.00     0.120 A 
ATOM     16  C   UNL     1      35.046  39.229  84.572  1.00  0.00     0.093 A 
ATOM     17  C   UNL     1      34.131  39.949  85.347  1.00  0.00     0.131 A 
ENDROOT
BRANCH   6  18
ATOM     18  O   UNL     1      31.950  43.251  88.851  1.00  0.00    -0.507 OA
ATOM     19  H   UNL     1      31.598  42.348  88.563  1.00  0.00     0.293 HD
ENDBRANCH   6  18
BRANCH  17  20
ATOM     20  O   UNL     1      32.859  39.400  85.518  1.00  0.00    -0.507 OA
ATOM     21  H   UNL     1      32.694  38.420  85.709  1.00  0.00     0.293 HD
ENDBRANCH  17  20
BRANCH  15  22
ATOM     22  O   UNL     1      37.252  38.924  83.656  1.00  0.00    -0.508 OA
ATOM     23  H   UNL     1      37.009  38.605  82.726  1.00  0.00     0.293 HD
ENDBRANCH  15  22
TORSDOF 3
ENDMDL
MODEL 5
REMARK VINA RESULT:    -6.748      7.859     10.711
REMARK INTER + INTRA:          -7.340
REMARK INTER:                  -7.340
REMARK INTRA:                   0.000
REMARK UNBOUND:                 0.000
REMARK SMILES Cc1cc(O)c2c(c1)C(=O)c1cc(O)cc(O)c1C2=O
REMARK SMILES IDX 1 1 2 2 8 3 7 4 6 5 4 6 3 7 19 8 20 9 18 10 11 11 9 12 10 13
REMARK SMILES IDX 12 14 13 15 15 16 16 17 5 18 17 20 14 22
REMARK H PARENT 5 19 17 21 14 23
REMARK Flexibility Score: inf
ROOT
ATOM      1  C   UNL     1      20.742  41.843  88.035  1.00  0.00     0.044 C 
ATOM      2  C   UNL     1      21.828  42.158  87.049  1.00  0.00    -0.047 A 
ATOM      3  C   UNL     1      22.585  43.326  87.185  1.00  0.00     0.016 A 
ATOM      4  C   UNL     1      23.623  43.616  86.283  1.00  0.00     0.038 A 
ATOM      5  C   UNL     1      23.909  42.721  85.228  1.00  0.00     0.076 A 
ATOM      6  C   UNL     1      23.195  41.498  85.147  1.00  0.00     0.127 A 
ATOM      7  C   UNL     1      22.151  41.241  86.043  1.00  0.00     0.050 A 
ATOM      8  C   UNL     1      24.911  43.130  84.211  1.00  0.00     0.201 C 
ATOM      9  O   UNL     1      24.807  42.715  83.026  1.00  0.00    -0.288 OA
ATOM     10  C   UNL     1      25.918  44.171  84.544  1.00  0.00     0.076 A 
ATOM     11  C   UNL     1      25.630  45.064  85.601  1.00  0.00     0.041 A 
ATOM     12  C   UNL     1      24.426  44.853  86.439  1.00  0.00     0.194 C 
ATOM     13  O   UNL     1      24.097  45.715  87.300  1.00  0.00    -0.289 OA
ATOM     14  C   UNL     1      26.491  46.144  85.857  1.00  0.00     0.059 A 
ATOM     15  C   UNL     1      27.638  46.336  85.083  1.00  0.00     0.120 A 
ATOM     16  C   UNL     1      27.946  45.434  84.066  1.00  0.00     0.093 A 
ATOM     17  C   UNL     1      27.117  44.339  83.804  1.00  0.00     0.131 A 
ENDROOT
BRANCH   6  18
ATOM     18  O   UNL     1      23.508  40.500  84.221  1.00  0.00    -0.507 OA
ATOM     19  H   UNL     1      23.182  40.505  83.264  1.00  0.00     0.293 HD
ENDBRANCH   6  18
BRANCH  17  20
ATOM     20  O   UNL     1      27.539  43.430  82.831  1.00  0.00    -0.507 OA
ATOM     21  H   UNL     1      28.130  43.682  82.050  1.00  0.00     0.293 HD
ENDBRANCH  17  20
BRANCH  15  22
ATOM     22  O   UNL     1      28.488  47.413  85.326  1.00  0.00    -0.508 OA
ATOM     23  H   UNL     1      28.164  48.247  85.802  1.00  0.00     0.293 HD
ENDBRANCH  15  22
TORSDOF 3
ENDMDL
MODEL 6
REMARK VINA RESULT:    -6.724      2.693      3.415
REMARK INTER + INTRA:          -7.314
REMARK INTER:                  -7.314
REMARK INTRA:                   0.000
REMARK UNBOUND:                 0.000
REMARK SMILES Cc1cc(O)c2c(c1)C(=O)c1cc(O)cc(O)c1C2=O
REMARK SMILES IDX 1 1 2 2 8 3 7 4 6 5 4 6 3 7 19 8 20 9 18 10 11 11 9 12 10 13
REMARK SMILES IDX 12 14 13 15 15 16 16 17 5 18 17 20 14 22
REMARK H PARENT 5 19 17 21 14 23
REMARK Flexibility Score: inf
ROOT
ATOM      1  C   UNL     1      30.191  44.767  88.342  1.00  0.00     0.044 C 
ATOM      2  C   UNL     1      30.908  44.068  87.224  1.00  0.00    -0.047 A 
ATOM      3  C   UNL     1      32.159  43.483  87.447  1.00  0.00     0.016 A 
ATOM      4  C   UNL     1      32.825  42.802  86.414  1.00  0.00     0.038 A 
ATOM      5  C   UNL     1      32.229  42.704  85.137  1.00  0.00     0.076 A 
ATOM      6  C   UNL     1      30.924  43.225  84.942  1.00  0.00     0.127 A 
ATOM      7  C   UNL     1      30.290  43.917  85.979  1.00  0.00     0.050 A 
ATOM      8  C   UNL     1      33.025  42.107  84.034  1.00  0.00     0.201 C 
ATOM      9  O   UNL     1      32.833  42.486  82.848  1.00  0.00    -0.288 OA
ATOM     10  C   UNL     1      34.167  41.211  84.348  1.00  0.00     0.076 A 
ATOM     11  C   UNL     1      34.760  41.310  85.628  1.00  0.00     0.041 A 
ATOM     12  C   UNL     1      34.148  42.178  86.660  1.00  0.00     0.194 C 
ATOM     13  O   UNL     1      34.741  42.368  87.758  1.00  0.00    -0.289 OA
ATOM     14  C   UNL     1      35.925  40.580  85.916  1.00  0.00     0.059 A 
ATOM     15  C   UNL     1      36.495  39.744  84.952  1.00  0.00     0.120 A 
ATOM     16  C   UNL     1      35.890  39.613  83.703  1.00  0.00     0.093 A 
ATOM     17  C   UNL     1      34.718  40.313  83.398  1.00  0.00     0.131 A 
ENDROOT
BRANCH   6  18
ATOM     18  O   UNL     1      30.210  43.048  83.754  1.00  0.00    -0.507 OA
ATOM     19  H   UNL     1      30.207  42.186  83.228  1.00  0.00     0.293 HD
ENDBRANCH   6  18
BRANCH  17  20
ATOM     20  O   UNL     1      34.122  40.061  82.161  1.00  0.00    -0.507 OA
ATOM     21  H   UNL     1      34.252  40.648  81.348  1.00  0.00     0.293 HD
ENDBRANCH  17  20
BRANCH  15  22
ATOM     22  O   UNL     1      37.658  39.027  85.230  1.00  0.00    -0.508 OA
ATOM     23  H   UNL     1      37.776  38.070  84.921  1.00  0.00     0.293 HD
ENDBRANCH  15  22
TORSDOF 3
ENDMDL
MODEL 7
REMARK VINA RESULT:    -6.708      2.559      3.048
REMARK INTER + INTRA:          -7.296
REMARK INTER:                  -7.296
REMARK INTRA:                   0.000
REMARK UNBOUND:                 0.000
REMARK SMILES Cc1cc(O)c2c(c1)C(=O)c1cc(O)cc(O)c1C2=O
REMARK SMILES IDX 1 1 2 2 8 3 7 4 6 5 4 6 3 7 19 8 20 9 18 10 11 11 9 12 10 13
REMARK SMILES IDX 12 14 13 15 15 16 16 17 5 18 17 20 14 22
REMARK H PARENT 5 19 17 21 14 23
REMARK Flexibility Score: inf
ROOT
ATOM      1  C   UNL     1      29.797  45.455  83.376  1.00  0.00     0.044 C 
ATOM      2  C   UNL     1      30.857  44.687  84.109  1.00  0.00    -0.047 A 
ATOM      3  C   UNL     1      31.386  43.515  83.558  1.00  0.00     0.016 A 
ATOM      4  C   UNL     1      32.399  42.804  84.223  1.00  0.00     0.038 A 
ATOM      5  C   UNL     1      32.892  43.275  85.461  1.00  0.00     0.076 A 
ATOM      6  C   UNL     1      32.413  44.508  85.972  1.00  0.00     0.127 A 
ATOM      7  C   UNL     1      31.389  45.187  85.302  1.00  0.00     0.050 A 
ATOM      8  C   UNL     1      33.854  42.422  86.204  1.00  0.00     0.201 C 
ATOM      9  O   UNL     1      33.885  42.463  87.463  1.00  0.00    -0.288 OA
ATOM     10  C   UNL     1      34.641  41.391  85.479  1.00  0.00     0.076 A 
ATOM     11  C   UNL     1      34.146  40.924  84.240  1.00  0.00     0.041 A 
ATOM     12  C   UNL     1      32.959  41.567  83.629  1.00  0.00     0.194 C 
ATOM     13  O   UNL     1      32.439  41.074  82.590  1.00  0.00    -0.289 OA
ATOM     14  C   UNL     1      34.786  39.855  83.590  1.00  0.00     0.059 A 
ATOM     15  C   UNL     1      35.918  39.259  84.152  1.00  0.00     0.120 A 
ATOM     16  C   UNL     1      36.432  39.744  85.353  1.00  0.00     0.093 A 
ATOM     17  C   UNL     1      35.827  40.820  86.010  1.00  0.00     0.131 A 
ENDROOT
BRANCH   6  18
ATOM     18  O   UNL     1      32.945  45.111  87.114  1.00  0.00    -0.507 OA
ATOM     19  H   UNL     1      33.929  45.097  87.345  1.00  0.00     0.293 HD
ENDBRANCH   6  18
BRANCH  17  20
ATOM     20  O   UNL     1      36.451  41.307  87.159  1.00  0.00    -0.507 OA
ATOM     21  H   UNL     1      37.413  41.108  87.400  1.00  0.00     0.293 HD
ENDBRANCH  17  20
BRANCH  15  22
ATOM     22  O   UNL     1      36.549  38.191  83.516  1.00  0.00    -0.508 OA
ATOM     23  H   UNL     1      36.229  37.845  82.620  1.00  0.00     0.293 HD
ENDBRANCH  15  22
TORSDOF 3
ENDMDL
MODEL 8
REMARK VINA RESULT:    -6.603      2.874      4.321
REMARK INTER + INTRA:          -7.181
REMARK INTER:                  -7.181
REMARK INTRA:                   0.000
REMARK UNBOUND:                 0.000
REMARK SMILES Cc1cc(O)c2c(c1)C(=O)c1cc(O)cc(O)c1C2=O
REMARK SMILES IDX 1 1 2 2 8 3 7 4 6 5 4 6 3 7 19 8 20 9 18 10 11 11 9 12 10 13
REMARK SMILES IDX 12 14 13 15 15 16 16 17 5 18 17 20 14 22
REMARK H PARENT 5 19 17 21 14 23
REMARK Flexibility Score: inf
ROOT
ATOM      1  C   UNL     1      26.996  45.565  86.315  1.00  0.00     0.044 C 
ATOM      2  C   UNL     1      28.122  44.904  85.576  1.00  0.00    -0.047 A 
ATOM      3  C   UNL     1      29.098  44.187  86.275  1.00  0.00     0.016 A 
ATOM      4  C   UNL     1      30.140  43.540  85.589  1.00  0.00     0.038 A 
ATOM      5  C   UNL     1      30.206  43.612  84.180  1.00  0.00     0.076 A 
ATOM      6  C   UNL     1      29.167  44.268  83.472  1.00  0.00     0.127 A 
ATOM      7  C   UNL     1      28.151  44.923  84.178  1.00  0.00     0.050 A 
ATOM      8  C   UNL     1      31.400  43.044  83.503  1.00  0.00     0.201 C 
ATOM      9  O   UNL     1      31.800  43.542  82.417  1.00  0.00    -0.288 OA
ATOM     10  C   UNL     1      32.224  42.020  84.195  1.00  0.00     0.076 A 
ATOM     11  C   UNL     1      32.154  41.949  85.605  1.00  0.00     0.041 A 
ATOM     12  C   UNL     1      31.167  42.776  86.338  1.00  0.00     0.194 C 
ATOM     13  O   UNL     1      31.186  42.811  87.600  1.00  0.00    -0.289 OA
ATOM     14  C   UNL     1      33.018  41.090  86.305  1.00  0.00     0.059 A 
ATOM     15  C   UNL     1      33.937  40.293  85.617  1.00  0.00     0.120 A 
ATOM     16  C   UNL     1      33.980  40.330  84.224  1.00  0.00     0.093 A 
ATOM     17  C   UNL     1      33.117  41.161  83.503  1.00  0.00     0.131 A 
ENDROOT
BRANCH   6  18
ATOM     18  O   UNL     1      29.084  44.266  82.077  1.00  0.00    -0.507 OA
ATOM     19  H   UNL     1      29.653  44.853  81.484  1.00  0.00     0.293 HD
ENDBRANCH   6  18
BRANCH  17  20
ATOM     20  O   UNL     1      33.158  41.077  82.109  1.00  0.00    -0.507 OA
ATOM     21  H   UNL     1      33.733  40.415  81.606  1.00  0.00     0.293 HD
ENDBRANCH  17  20
BRANCH  15  22
ATOM     22  O   UNL     1      34.803  39.448  86.309  1.00  0.00    -0.508 OA
ATOM     23  H   UNL     1      34.899  38.471  86.061  1.00  0.00     0.293 HD
ENDBRANCH  15  22
TORSDOF 3
ENDMDL
MODEL 9
REMARK VINA RESULT:    -6.585      4.094      6.176
REMARK INTER + INTRA:          -7.162
REMARK INTER:                  -7.162
REMARK INTRA:                   0.000
REMARK UNBOUND:                 0.000
REMARK SMILES Cc1cc(O)c2c(c1)C(=O)c1cc(O)cc(O)c1C2=O
REMARK SMILES IDX 1 1 2 2 8 3 7 4 6 5 4 6 3 7 19 8 20 9 18 10 11 11 9 12 10 13
REMARK SMILES IDX 12 14 13 15 15 16 16 17 5 18 17 20 14 22
REMARK H PARENT 5 19 17 21 14 23
REMARK Flexibility Score: inf
ROOT
ATOM      1  C   UNL     1      34.012  40.525  82.115  1.00  0.00     0.044 C 
ATOM      2  C   UNL     1      34.119  41.101  83.496  1.00  0.00    -0.047 A 
ATOM      3  C   UNL     1      32.978  41.578  84.150  1.00  0.00     0.016 A 
ATOM      4  C   UNL     1      33.063  42.093  85.455  1.00  0.00     0.038 A 
ATOM      5  C   UNL     1      34.311  42.130  86.116  1.00  0.00     0.076 A 
ATOM      6  C   UNL     1      35.447  41.567  85.481  1.00  0.00     0.127 A 
ATOM      7  C   UNL     1      35.342  41.079  84.173  1.00  0.00     0.050 A 
ATOM      8  C   UNL     1      34.388  42.815  87.432  1.00  0.00     0.201 C 
ATOM      9  O   UNL     1      35.460  43.374  87.785  1.00  0.00    -0.288 OA
ATOM     10  C   UNL     1      33.156  43.001  88.242  1.00  0.00     0.076 A 
ATOM     11  C   UNL     1      31.909  42.960  87.577  1.00  0.00     0.041 A 
ATOM     12  C   UNL     1      31.848  42.590  86.144  1.00  0.00     0.194 C 
ATOM     13  O   UNL     1      30.756  42.675  85.516  1.00  0.00    -0.289 OA
ATOM     14  C   UNL     1      30.732  43.267  88.281  1.00  0.00     0.059 A 
ATOM     15  C   UNL     1      30.783  43.598  89.638  1.00  0.00     0.120 A 
ATOM     16  C   UNL     1      32.006  43.599  90.305  1.00  0.00     0.093 A 
ATOM     17  C   UNL     1      33.190  43.277  89.633  1.00  0.00     0.131 A 
ENDROOT
BRANCH   6  18
ATOM     18  O   UNL     1      36.684  41.439  86.118  1.00  0.00    -0.507 OA
ATOM     19  H   UNL     1      37.059  40.556  86.435  1.00  0.00     0.293 HD
ENDBRANCH   6  18
BRANCH  17  20
ATOM     20  O   UNL     1      34.362  43.211  90.389  1.00  0.00    -0.507 OA
ATOM     21  H   UNL     1      34.423  42.751  91.287  1.00  0.00     0.293 HD
ENDBRANCH  17  20
BRANCH  15  22
ATOM     22  O   UNL     1      29.619  43.914  90.336  1.00  0.00    -0.508 OA
ATOM     23  H   UNL     1      28.877  43.236  90.462  1.00  0.00     0.293 HD
ENDBRANCH  15  22
TORSDOF 3
ENDMDL
