MODEL 1
REMARK VINA RESULT:    -3.674      0.000      0.000
REMARK INTER + INTRA:          -8.464
REMARK INTER:                  -6.466
REMARK INTRA:                  -1.997
REMARK UNBOUND:                -1.997
REMARK SMILES CCCCCCCCCCCCCCC(=O)[O-]
REMARK SMILES IDX 9 1 10 2 11 3 12 4 13 5 14 6 15 7 16 8 17 9 8 10 7 11 6 12
REMARK SMILES IDX 5 13 4 14 3 15 2 16 1 17
REMARK H PARENT
REMARK Flexibility Score: inf
ROOT
ATOM      1  C   UNL     1       9.749 -22.662  40.619  1.00  0.00     0.000 C 
ENDROOT
BRANCH   1   2
ATOM      2  C   UNL     1      10.944 -22.368  41.543  1.00  0.00     0.000 C 
BRANCH   2   3
ATOM      3  C   UNL     1      12.189 -21.896  40.774  1.00  0.00     0.000 C 
BRANCH   3   4
ATOM      4  C   UNL     1      13.386 -22.844  40.951  1.00  0.00     0.000 C 
BRANCH   4   5
ATOM      5  C   UNL     1      14.165 -23.064  39.645  1.00  0.00     0.006 C 
BRANCH   5   6
ATOM      6  C   UNL     1      13.458 -22.390  38.465  1.00  0.00     0.053 C 
BRANCH   6   7
ATOM      7  C   UNL     1      14.363 -22.329  37.276  1.00  0.00     0.041 C 
ATOM      8  O   UNL     1      13.883 -22.200  36.120  1.00  0.00    -0.550 OA
ATOM      9  O   UNL     1      15.737 -22.464  37.440  1.00  0.00    -0.550 OA
ENDBRANCH   6   7
ENDBRANCH   5   6
ENDBRANCH   4   5
ENDBRANCH   3   4
ENDBRANCH   2   3
ENDBRANCH   1   2
BRANCH   1  10
ATOM     10  C   UNL     1       9.842 -24.024  39.899  1.00  0.00     0.000 C 
BRANCH  10  11
ATOM     11  C   UNL     1       9.692 -25.206  40.871  1.00  0.00    -0.000 C 
BRANCH  11  12
ATOM     12  C   UNL     1      10.927 -26.115  40.826  1.00  0.00    -0.000 C 
BRANCH  12  13
ATOM     13  C   UNL     1      11.730 -25.887  39.537  1.00  0.00    -0.000 C 
BRANCH  13  14
ATOM     14  C   UNL     1      13.119 -26.544  39.578  1.00  0.00    -0.000 C 
BRANCH  14  15
ATOM     15  C   UNL     1      13.649 -26.896  38.176  1.00  0.00    -0.000 C 
BRANCH  15  16
ATOM     16  C   UNL     1      14.976 -26.191  37.856  1.00  0.00    -0.003 C 
ATOM     17  C   UNL     1      15.994 -26.299  38.991  1.00  0.00     0.004 C 
ENDBRANCH  15  16
ENDBRANCH  14  15
ENDBRANCH  13  14
ENDBRANCH  12  13
ENDBRANCH  11  12
ENDBRANCH  10  11
ENDBRANCH   1  10
TORSDOF 13
ENDMDL
MODEL 2
REMARK VINA RESULT:    -3.589      2.114      4.149
REMARK INTER + INTRA:          -8.314
REMARK INTER:                  -6.582
REMARK INTRA:                  -1.732
REMARK UNBOUND:                -1.997
REMARK SMILES CCCCCCCCCCCCCCC(=O)[O-]
REMARK SMILES IDX 9 1 10 2 11 3 12 4 13 5 14 6 15 7 16 8 17 9 8 10 7 11 6 12
REMARK SMILES IDX 5 13 4 14 3 15 2 16 1 17
REMARK H PARENT
REMARK Flexibility Score: inf
ROOT
ATOM      1  C   UNL     1      12.187 -21.477  41.340  1.00  0.00     0.000 C 
ENDROOT
BRANCH   1   2
ATOM      2  C   UNL     1      13.430 -22.172  40.759  1.00  0.00     0.000 C 
BRANCH   2   3
ATOM      3  C   UNL     1      13.806 -23.455  41.518  1.00  0.00     0.000 C 
BRANCH   3   4
ATOM      4  C   UNL     1      14.207 -24.602  40.578  1.00  0.00     0.000 C 
BRANCH   4   5
ATOM      5  C   UNL     1      14.018 -24.246  39.095  1.00  0.00     0.006 C 
BRANCH   5   6
ATOM      6  C   UNL     1      13.033 -25.207  38.422  1.00  0.00     0.053 C 
BRANCH   6   7
ATOM      7  C   UNL     1      13.724 -26.015  37.371  1.00  0.00     0.041 C 
ATOM      8  O   UNL     1      13.527 -25.772  36.152  1.00  0.00    -0.550 OA
ATOM      9  O   UNL     1      14.548 -27.073  37.737  1.00  0.00    -0.550 OA
ENDBRANCH   6   7
ENDBRANCH   5   6
ENDBRANCH   4   5
ENDBRANCH   3   4
ENDBRANCH   2   3
ENDBRANCH   1   2
BRANCH   1  10
ATOM     10  C   UNL     1      11.074 -22.455  41.773  1.00  0.00     0.000 C 
BRANCH  10  11
ATOM     11  C   UNL     1      10.000 -22.630  40.689  1.00  0.00    -0.000 C 
BRANCH  11  12
ATOM     12  C   UNL     1       9.951 -24.079  40.189  1.00  0.00    -0.000 C 
BRANCH  12  13
ATOM     13  C   UNL     1      10.475 -25.047  41.261  1.00  0.00    -0.000 C 
BRANCH  13  14
ATOM     14  C   UNL     1      10.059 -26.503  41.001  1.00  0.00    -0.000 C 
BRANCH  14  15
ATOM     15  C   UNL     1       8.573 -26.635  40.625  1.00  0.00    -0.000 C 
BRANCH  15  16
ATOM     16  C   UNL     1       7.762 -27.391  41.689  1.00  0.00    -0.003 C 
ATOM     17  C   UNL     1       8.454 -28.668  42.165  1.00  0.00     0.004 C 
ENDBRANCH  15  16
ENDBRANCH  14  15
ENDBRANCH  13  14
ENDBRANCH  12  13
ENDBRANCH  11  12
ENDBRANCH  10  11
ENDBRANCH   1  10
TORSDOF 13
ENDMDL
MODEL 3
REMARK VINA RESULT:    -3.570      1.973      4.546
REMARK INTER + INTRA:          -8.280
REMARK INTER:                  -6.713
REMARK INTRA:                  -1.567
REMARK UNBOUND:                -1.997
REMARK SMILES CCCCCCCCCCCCCCC(=O)[O-]
REMARK SMILES IDX 9 1 10 2 11 3 12 4 13 5 14 6 15 7 16 8 17 9 8 10 7 11 6 12
REMARK SMILES IDX 5 13 4 14 3 15 2 16 1 17
REMARK H PARENT
REMARK Flexibility Score: inf
ROOT
ATOM      1  C   UNL     1      10.370 -27.686  40.919  1.00  0.00     0.000 C 
ENDROOT
BRANCH   1   2
ATOM      2  C   UNL     1      11.433 -28.374  41.793  1.00  0.00     0.000 C 
BRANCH   2   3
ATOM      3  C   UNL     1      12.856 -28.227  41.228  1.00  0.00     0.000 C 
BRANCH   3   4
ATOM      4  C   UNL     1      12.884 -27.480  39.886  1.00  0.00     0.000 C 
BRANCH   4   5
ATOM      5  C   UNL     1      13.543 -26.096  39.992  1.00  0.00     0.006 C 
BRANCH   5   6
ATOM      6  C   UNL     1      13.127 -25.199  38.822  1.00  0.00     0.053 C 
BRANCH   6   7
ATOM      7  C   UNL     1      14.090 -25.337  37.687  1.00  0.00     0.041 C 
ATOM      8  O   UNL     1      15.325 -25.192  37.882  1.00  0.00    -0.550 OA
ATOM      9  O   UNL     1      13.620 -25.578  36.401  1.00  0.00    -0.550 OA
ENDBRANCH   6   7
ENDBRANCH   5   6
ENDBRANCH   4   5
ENDBRANCH   3   4
ENDBRANCH   2   3
ENDBRANCH   1   2
BRANCH   1  10
ATOM     10  C   UNL     1       9.276 -26.959  41.729  1.00  0.00     0.000 C 
BRANCH  10  11
ATOM     11  C   UNL     1       8.673 -25.775  40.957  1.00  0.00    -0.000 C 
BRANCH  11  12
ATOM     12  C   UNL     1       9.543 -25.404  39.749  1.00  0.00    -0.000 C 
BRANCH  12  13
ATOM     13  C   UNL     1       9.671 -23.879  39.613  1.00  0.00    -0.000 C 
BRANCH  13  14
ATOM     14  C   UNL     1       9.599 -23.153  40.966  1.00  0.00    -0.000 C 
BRANCH  14  15
ATOM     15  C   UNL     1      10.968 -23.068  41.664  1.00  0.00    -0.000 C 
BRANCH  15  16
ATOM     16  C   UNL     1      11.802 -21.873  41.179  1.00  0.00    -0.003 C 
ATOM     17  C   UNL     1      12.847 -21.425  42.200  1.00  0.00     0.004 C 
ENDBRANCH  15  16
ENDBRANCH  14  15
ENDBRANCH  13  14
ENDBRANCH  12  13
ENDBRANCH  11  12
ENDBRANCH  10  11
ENDBRANCH   1  10
TORSDOF 13
ENDMDL
MODEL 4
REMARK VINA RESULT:    -3.506      1.622      2.040
REMARK INTER + INTRA:          -8.168
REMARK INTER:                  -6.604
REMARK INTRA:                  -1.564
REMARK UNBOUND:                -1.997
REMARK SMILES CCCCCCCCCCCCCCC(=O)[O-]
REMARK SMILES IDX 9 1 10 2 11 3 12 4 13 5 14 6 15 7 16 8 17 9 8 10 7 11 6 12
REMARK SMILES IDX 5 13 4 14 3 15 2 16 1 17
REMARK H PARENT
REMARK Flexibility Score: inf
ROOT
ATOM      1  C   UNL     1       9.710 -22.886  40.678  1.00  0.00     0.000 C 
ENDROOT
BRANCH   1   2
ATOM      2  C   UNL     1      10.760 -22.784  41.798  1.00  0.00     0.000 C 
BRANCH   2   3
ATOM      3  C   UNL     1      11.888 -21.792  41.470  1.00  0.00     0.000 C 
BRANCH   3   4
ATOM      4  C   UNL     1      12.322 -21.858  39.998  1.00  0.00     0.000 C 
BRANCH   4   5
ATOM      5  C   UNL     1      13.362 -22.958  39.735  1.00  0.00     0.006 C 
BRANCH   5   6
ATOM      6  C   UNL     1      12.880 -23.919  38.645  1.00  0.00     0.053 C 
BRANCH   6   7
ATOM      7  C   UNL     1      14.033 -24.405  37.825  1.00  0.00     0.041 C 
ATOM      8  O   UNL     1      15.194 -23.971  38.044  1.00  0.00    -0.550 OA
ATOM      9  O   UNL     1      13.818 -25.301  36.785  1.00  0.00    -0.550 OA
ENDBRANCH   6   7
ENDBRANCH   5   6
ENDBRANCH   4   5
ENDBRANCH   3   4
ENDBRANCH   2   3
ENDBRANCH   1   2
BRANCH   1  10
ATOM     10  C   UNL     1       9.640 -24.279  40.019  1.00  0.00     0.000 C 
BRANCH  10  11
ATOM     11  C   UNL     1       8.921 -25.306  40.907  1.00  0.00    -0.000 C 
BRANCH  11  12
ATOM     12  C   UNL     1       9.924 -26.248  41.584  1.00  0.00    -0.000 C 
BRANCH  12  13
ATOM     13  C   UNL     1      11.155 -26.471  40.692  1.00  0.00    -0.000 C 
BRANCH  13  14
ATOM     14  C   UNL     1      11.005 -27.689  39.766  1.00  0.00    -0.000 C 
BRANCH  14  15
ATOM     15  C   UNL     1      11.493 -27.407  38.334  1.00  0.00    -0.000 C 
BRANCH  15  16
ATOM     16  C   UNL     1      12.349 -28.551  37.769  1.00  0.00    -0.003 C 
ATOM     17  C   UNL     1      13.776 -28.551  38.317  1.00  0.00     0.004 C 
ENDBRANCH  15  16
ENDBRANCH  14  15
ENDBRANCH  13  14
ENDBRANCH  12  13
ENDBRANCH  11  12
ENDBRANCH  10  11
ENDBRANCH   1  10
TORSDOF 13
ENDMDL
MODEL 5
REMARK VINA RESULT:    -3.506      1.250      3.886
REMARK INTER + INTRA:          -8.167
REMARK INTER:                  -6.312
REMARK INTRA:                  -1.855
REMARK UNBOUND:                -1.997
REMARK SMILES CCCCCCCCCCCCCCC(=O)[O-]
REMARK SMILES IDX 9 1 10 2 11 3 12 4 13 5 14 6 15 7 16 8 17 9 8 10 7 11 6 12
REMARK SMILES IDX 5 13 4 14 3 15 2 16 1 17
REMARK H PARENT
REMARK Flexibility Score: inf
ROOT
ATOM      1  C   UNL     1      13.014 -27.072  41.119  1.00  0.00     0.000 C 
ENDROOT
BRANCH   1   2
ATOM      2  C   UNL     1      13.839 -26.191  40.164  1.00  0.00     0.000 C 
BRANCH   2   3
ATOM      3  C   UNL     1      13.284 -26.183  38.731  1.00  0.00     0.000 C 
BRANCH   3   4
ATOM      4  C   UNL     1      13.800 -24.994  37.905  1.00  0.00     0.000 C 
BRANCH   4   5
ATOM      5  C   UNL     1      14.031 -23.736  38.756  1.00  0.00     0.006 C 
BRANCH   5   6
ATOM      6  C   UNL     1      13.461 -22.494  38.065  1.00  0.00     0.053 C 
BRANCH   6   7
ATOM      7  C   UNL     1      14.339 -22.078  36.928  1.00  0.00     0.041 C 
ATOM      8  O   UNL     1      13.836 -21.800  35.808  1.00  0.00    -0.550 OA
ATOM      9  O   UNL     1      15.718 -22.044  37.091  1.00  0.00    -0.550 OA
ENDBRANCH   6   7
ENDBRANCH   5   6
ENDBRANCH   4   5
ENDBRANCH   3   4
ENDBRANCH   2   3
ENDBRANCH   1   2
BRANCH   1  10
ATOM     10  C   UNL     1      11.757 -27.685  40.467  1.00  0.00     0.000 C 
BRANCH  10  11
ATOM     11  C   UNL     1      10.534 -27.625  41.396  1.00  0.00    -0.000 C 
BRANCH  11  12
ATOM     12  C   UNL     1      10.096 -26.176  41.637  1.00  0.00    -0.000 C 
BRANCH  12  13
ATOM     13  C   UNL     1       8.933 -25.792  40.708  1.00  0.00    -0.000 C 
BRANCH  13  14
ATOM     14  C   UNL     1       9.343 -24.769  39.636  1.00  0.00    -0.000 C 
BRANCH  14  15
ATOM     15  C   UNL     1      10.615 -23.992  40.016  1.00  0.00    -0.000 C 
BRANCH  15  16
ATOM     16  C   UNL     1      10.303 -22.641  40.679  1.00  0.00    -0.003 C 
ATOM     17  C   UNL     1      11.317 -22.260  41.757  1.00  0.00     0.004 C 
ENDBRANCH  15  16
ENDBRANCH  14  15
ENDBRANCH  13  14
ENDBRANCH  12  13
ENDBRANCH  11  12
ENDBRANCH  10  11
ENDBRANCH   1  10
TORSDOF 13
ENDMDL
MODEL 6
REMARK VINA RESULT:    -3.491      1.668      2.603
REMARK INTER + INTRA:          -8.141
REMARK INTER:                  -6.547
REMARK INTRA:                  -1.594
REMARK UNBOUND:                -1.997
REMARK SMILES CCCCCCCCCCCCCCC(=O)[O-]
REMARK SMILES IDX 9 1 10 2 11 3 12 4 13 5 14 6 15 7 16 8 17 9 8 10 7 11 6 12
REMARK SMILES IDX 5 13 4 14 3 15 2 16 1 17
REMARK H PARENT
REMARK Flexibility Score: inf
ROOT
ATOM      1  C   UNL     1      10.839 -22.278  40.752  1.00  0.00     0.000 C 
ENDROOT
BRANCH   1   2
ATOM      2  C   UNL     1      11.698 -22.759  41.934  1.00  0.00     0.000 C 
BRANCH   2   3
ATOM      3  C   UNL     1      13.144 -23.088  41.526  1.00  0.00     0.000 C 
BRANCH   3   4
ATOM      4  C   UNL     1      13.233 -24.314  40.604  1.00  0.00     0.000 C 
BRANCH   4   5
ATOM      5  C   UNL     1      14.214 -24.110  39.439  1.00  0.00     0.006 C 
BRANCH   5   6
ATOM      6  C   UNL     1      13.466 -23.793  38.141  1.00  0.00     0.053 C 
BRANCH   6   7
ATOM      7  C   UNL     1      13.931 -22.491  37.572  1.00  0.00     0.041 C 
ATOM      8  O   UNL     1      14.268 -21.549  38.335  1.00  0.00    -0.550 OA
ATOM      9  O   UNL     1      13.946 -22.300  36.195  1.00  0.00    -0.550 OA
ENDBRANCH   6   7
ENDBRANCH   5   6
ENDBRANCH   4   5
ENDBRANCH   3   4
ENDBRANCH   2   3
ENDBRANCH   1   2
BRANCH   1  10
ATOM     10  C   UNL     1       9.454 -22.955  40.675  1.00  0.00     0.000 C 
BRANCH  10  11
ATOM     11  C   UNL     1       9.507 -24.302  39.938  1.00  0.00    -0.000 C 
BRANCH  11  12
ATOM     12  C   UNL     1       8.891 -25.420  40.787  1.00  0.00    -0.000 C 
BRANCH  12  13
ATOM     13  C   UNL     1       9.967 -26.133  41.621  1.00  0.00    -0.000 C 
BRANCH  13  14
ATOM     14  C   UNL     1       9.654 -27.621  41.848  1.00  0.00    -0.000 C 
BRANCH  14  15
ATOM     15  C   UNL     1      10.702 -28.548  41.207  1.00  0.00    -0.000 C 
BRANCH  15  16
ATOM     16  C   UNL     1      12.009 -27.815  40.871  1.00  0.00    -0.003 C 
ATOM     17  C   UNL     1      13.228 -28.431  41.557  1.00  0.00     0.004 C 
ENDBRANCH  15  16
ENDBRANCH  14  15
ENDBRANCH  13  14
ENDBRANCH  12  13
ENDBRANCH  11  12
ENDBRANCH  10  11
ENDBRANCH   1  10
TORSDOF 13
ENDMDL
MODEL 7
REMARK VINA RESULT:    -3.489      2.103      5.181
REMARK INTER + INTRA:          -8.138
REMARK INTER:                  -6.837
REMARK INTRA:                  -1.300
REMARK UNBOUND:                -1.997
REMARK SMILES CCCCCCCCCCCCCCC(=O)[O-]
REMARK SMILES IDX 9 1 10 2 11 3 12 4 13 5 14 6 15 7 16 8 17 9 8 10 7 11 6 12
REMARK SMILES IDX 5 13 4 14 3 15 2 16 1 17
REMARK H PARENT
REMARK Flexibility Score: inf
ROOT
ATOM      1  C   UNL     1      12.537 -28.676  38.179  1.00  0.00     0.000 C 
ENDROOT
BRANCH   1   2
ATOM      2  C   UNL     1      13.566 -29.604  38.846  1.00  0.00     0.000 C 
BRANCH   2   3
ATOM      3  C   UNL     1      15.017 -29.160  38.601  1.00  0.00     0.000 C 
BRANCH   3   4
ATOM      4  C   UNL     1      15.305 -27.753  39.150  1.00  0.00     0.000 C 
BRANCH   4   5
ATOM      5  C   UNL     1      15.756 -26.771  38.058  1.00  0.00     0.006 C 
BRANCH   5   6
ATOM      6  C   UNL     1      15.145 -25.385  38.283  1.00  0.00     0.053 C 
BRANCH   6   7
ATOM      7  C   UNL     1      13.815 -25.281  37.608  1.00  0.00     0.041 C 
ATOM      8  O   UNL     1      12.823 -24.818  38.229  1.00  0.00    -0.550 OA
ATOM      9  O   UNL     1      13.657 -25.743  36.307  1.00  0.00    -0.550 OA
ENDBRANCH   6   7
ENDBRANCH   5   6
ENDBRANCH   4   5
ENDBRANCH   3   4
ENDBRANCH   2   3
ENDBRANCH   1   2
BRANCH   1  10
ATOM     10  C   UNL     1      11.357 -28.294  39.098  1.00  0.00     0.000 C 
BRANCH  10  11
ATOM     11  C   UNL     1      11.811 -27.469  40.312  1.00  0.00    -0.000 C 
BRANCH  11  12
ATOM     12  C   UNL     1      10.786 -27.553  41.449  1.00  0.00    -0.000 C 
BRANCH  12  13
ATOM     13  C   UNL     1       9.747 -26.426  41.337  1.00  0.00    -0.000 C 
BRANCH  13  14
ATOM     14  C   UNL     1      10.386 -25.028  41.319  1.00  0.00    -0.000 C 
BRANCH  14  15
ATOM     15  C   UNL     1       9.782 -24.116  40.236  1.00  0.00    -0.000 C 
BRANCH  15  16
ATOM     16  C   UNL     1       9.776 -22.637  40.651  1.00  0.00    -0.003 C 
ATOM     17  C   UNL     1      11.059 -22.217  41.369  1.00  0.00     0.004 C 
ENDBRANCH  15  16
ENDBRANCH  14  15
ENDBRANCH  13  14
ENDBRANCH  12  13
ENDBRANCH  11  12
ENDBRANCH  10  11
ENDBRANCH   1  10
TORSDOF 13
ENDMDL
MODEL 8
REMARK VINA RESULT:    -3.449      2.461      5.725
REMARK INTER + INTRA:          -8.068
REMARK INTER:                  -6.310
REMARK INTRA:                  -1.758
REMARK UNBOUND:                -1.997
REMARK SMILES CCCCCCCCCCCCCCC(=O)[O-]
REMARK SMILES IDX 9 1 10 2 11 3 12 4 13 5 14 6 15 7 16 8 17 9 8 10 7 11 6 12
REMARK SMILES IDX 5 13 4 14 3 15 2 16 1 17
REMARK H PARENT
REMARK Flexibility Score: inf
ROOT
ATOM      1  C   UNL     1      14.412 -27.073  40.565  1.00  0.00     0.000 C 
ENDROOT
BRANCH   1   2
ATOM      2  C   UNL     1      15.391 -27.706  39.562  1.00  0.00     0.000 C 
BRANCH   2   3
ATOM      3  C   UNL     1      14.819 -28.959  38.879  1.00  0.00     0.000 C 
BRANCH   3   4
ATOM      4  C   UNL     1      13.513 -29.442  39.530  1.00  0.00     0.000 C 
BRANCH   4   5
ATOM      5  C   UNL     1      12.279 -29.170  38.655  1.00  0.00     0.006 C 
BRANCH   5   6
ATOM      6  C   UNL     1      12.687 -28.892  37.205  1.00  0.00     0.053 C 
BRANCH   6   7
ATOM      7  C   UNL     1      12.180 -27.556  36.765  1.00  0.00     0.041 C 
ATOM      8  O   UNL     1      10.975 -27.413  36.430  1.00  0.00    -0.550 OA
ATOM      9  O   UNL     1      13.051 -26.476  36.677  1.00  0.00    -0.550 OA
ENDBRANCH   6   7
ENDBRANCH   5   6
ENDBRANCH   4   5
ENDBRANCH   3   4
ENDBRANCH   2   3
ENDBRANCH   1   2
BRANCH   1  10
ATOM     10  C   UNL     1      14.344 -25.534  40.480  1.00  0.00     0.000 C 
BRANCH  10  11
ATOM     11  C   UNL     1      13.020 -25.044  39.874  1.00  0.00    -0.000 C 
BRANCH  11  12
ATOM     12  C   UNL     1      11.846 -25.916  40.337  1.00  0.00    -0.000 C 
BRANCH  12  13
ATOM     13  C   UNL     1      10.509 -25.344  39.843  1.00  0.00    -0.000 C 
BRANCH  13  14
ATOM     14  C   UNL     1       9.806 -24.477  40.900  1.00  0.00    -0.000 C 
BRANCH  14  15
ATOM     15  C   UNL     1       9.771 -22.988  40.515  1.00  0.00    -0.000 C 
BRANCH  15  16
ATOM     16  C   UNL     1      10.945 -22.198  41.115  1.00  0.00    -0.003 C 
ATOM     17  C   UNL     1      11.387 -22.735  42.476  1.00  0.00     0.004 C 
ENDBRANCH  15  16
ENDBRANCH  14  15
ENDBRANCH  13  14
ENDBRANCH  12  13
ENDBRANCH  11  12
ENDBRANCH  10  11
ENDBRANCH   1  10
TORSDOF 13
ENDMDL
MODEL 9
REMARK VINA RESULT:    -3.437      1.860      4.207
REMARK INTER + INTRA:          -8.047
REMARK INTER:                  -6.155
REMARK INTRA:                  -1.891
REMARK UNBOUND:                -1.997
REMARK SMILES CCCCCCCCCCCCCCC(=O)[O-]
REMARK SMILES IDX 9 1 10 2 11 3 12 4 13 5 14 6 15 7 16 8 17 9 8 10 7 11 6 12
REMARK SMILES IDX 5 13 4 14 3 15 2 16 1 17
REMARK H PARENT
REMARK Flexibility Score: inf
ROOT
ATOM      1  C   UNL     1       9.006 -25.520  40.915  1.00  0.00     0.000 C 
ENDROOT
BRANCH   1   2
ATOM      2  C   UNL     1      10.198 -26.236  41.572  1.00  0.00     0.000 C 
BRANCH   2   3
ATOM      3  C   UNL     1      10.233 -27.742  41.264  1.00  0.00     0.000 C 
BRANCH   3   4
ATOM      4  C   UNL     1      11.072 -28.070  40.019  1.00  0.00     0.000 C 
BRANCH   4   5
ATOM      5  C   UNL     1      12.199 -27.053  39.778  1.00  0.00     0.006 C 
BRANCH   5   6
ATOM      6  C   UNL     1      12.076 -26.418  38.390  1.00  0.00     0.053 C 
BRANCH   6   7
ATOM      7  C   UNL     1      13.354 -26.569  37.629  1.00  0.00     0.041 C 
ATOM      8  O   UNL     1      13.582 -25.848  36.622  1.00  0.00    -0.550 OA
ATOM      9  O   UNL     1      14.275 -27.541  38.002  1.00  0.00    -0.550 OA
ENDBRANCH   6   7
ENDBRANCH   5   6
ENDBRANCH   4   5
ENDBRANCH   3   4
ENDBRANCH   2   3
ENDBRANCH   1   2
BRANCH   1  10
ATOM     10  C   UNL     1       9.405 -24.274  40.096  1.00  0.00     0.000 C 
BRANCH  10  11
ATOM     11  C   UNL     1       9.478 -23.008  40.964  1.00  0.00    -0.000 C 
BRANCH  11  12
ATOM     12  C   UNL     1      10.824 -22.295  40.784  1.00  0.00    -0.000 C 
BRANCH  12  13
ATOM     13  C   UNL     1      11.639 -22.324  42.086  1.00  0.00    -0.000 C 
BRANCH  13  14
ATOM     14  C   UNL     1      13.091 -22.781  41.868  1.00  0.00    -0.000 C 
BRANCH  14  15
ATOM     15  C   UNL     1      13.230 -23.765  40.693  1.00  0.00    -0.000 C 
BRANCH  15  16
ATOM     16  C   UNL     1      14.211 -23.265  39.621  1.00  0.00    -0.003 C 
ATOM     17  C   UNL     1      13.508 -22.804  38.344  1.00  0.00     0.004 C 
ENDBRANCH  15  16
ENDBRANCH  14  15
ENDBRANCH  13  14
ENDBRANCH  12  13
ENDBRANCH  11  12
ENDBRANCH  10  11
ENDBRANCH   1  10
TORSDOF 13
ENDMDL
