MODEL 1
REMARK VINA RESULT:    -5.540      0.000      0.000
REMARK INTER + INTRA:          -5.540
REMARK INTER:                  -5.540
REMARK INTRA:                   0.000
REMARK UNBOUND:                 0.000
REMARK SMILES CC(C)=C1CC[C@@H](C)CC1=O
REMARK SMILES IDX 8 1 7 2 6 3 5 4 4 5 2 6 1 7 3 8 10 9 11 10 9 11
REMARK H PARENT
REMARK Flexibility Score: inf
ROOT
ATOM      1  C   UNL     1      11.616 -28.901  23.497  1.00  0.00     0.008 C 
ATOM      2  C   UNL     1      12.692 -29.725  22.781  1.00  0.00    -0.006 C 
ATOM      3  C   UNL     1      12.059 -30.647  21.727  1.00  0.00     0.008 C 
ATOM      4  C   UNL     1      13.130 -31.404  20.931  1.00  0.00     0.039 C 
ATOM      5  C   UNL     1      14.116 -32.135  21.830  1.00  0.00    -0.006 C 
ATOM      6  C   UNL     1      14.700 -33.306  21.438  1.00  0.00    -0.070 C 
ATOM      7  C   UNL     1      15.638 -34.071  22.344  1.00  0.00     0.039 C 
ATOM      8  C   UNL     1      14.403 -33.915  20.086  1.00  0.00     0.039 C 
ATOM      9  C   UNL     1      14.489 -31.440  23.099  1.00  0.00     0.159 C 
ATOM     10  O   UNL     1      15.636 -31.571  23.605  1.00  0.00    -0.295 OA
ATOM     11  C   UNL     1      13.493 -30.558  23.794  1.00  0.00     0.084 C 
ENDROOT
TORSDOF 0
ENDMDL
MODEL 2
REMARK VINA RESULT:    -5.341      1.656      2.735
REMARK INTER + INTRA:          -5.341
REMARK INTER:                  -5.341
REMARK INTRA:                   0.000
REMARK UNBOUND:                 0.000
REMARK SMILES CC(C)=C1CC[C@@H](C)CC1=O
REMARK SMILES IDX 8 1 7 2 6 3 5 4 4 5 2 6 1 7 3 8 10 9 11 10 9 11
REMARK H PARENT
REMARK Flexibility Score: inf
ROOT
ATOM      1  C   UNL     1      12.121 -29.872  22.446  1.00  0.00     0.008 C 
ATOM      2  C   UNL     1      12.760 -31.263  22.519  1.00  0.00    -0.006 C 
ATOM      3  C   UNL     1      13.689 -31.370  23.738  1.00  0.00     0.008 C 
ATOM      4  C   UNL     1      14.258 -32.788  23.884  1.00  0.00     0.039 C 
ATOM      5  C   UNL     1      14.913 -33.287  22.604  1.00  0.00    -0.006 C 
ATOM      6  C   UNL     1      15.976 -34.143  22.639  1.00  0.00    -0.070 C 
ATOM      7  C   UNL     1      16.671 -34.603  21.377  1.00  0.00     0.039 C 
ATOM      8  C   UNL     1      16.536 -34.644  23.951  1.00  0.00     0.039 C 
ATOM      9  C   UNL     1      14.253 -32.881  21.326  1.00  0.00     0.159 C 
ATOM     10  O   UNL     1      14.270 -33.631  20.314  1.00  0.00    -0.295 OA
ATOM     11  C   UNL     1      13.546 -31.561  21.232  1.00  0.00     0.084 C 
ENDROOT
TORSDOF 0
ENDMDL
MODEL 3
REMARK VINA RESULT:    -5.148      1.609      4.513
REMARK INTER + INTRA:          -5.148
REMARK INTER:                  -5.148
REMARK INTRA:                   0.000
REMARK UNBOUND:                 0.000
REMARK SMILES CC(C)=C1CC[C@@H](C)CC1=O
REMARK SMILES IDX 8 1 7 2 6 3 5 4 4 5 2 6 1 7 3 8 10 9 11 10 9 11
REMARK H PARENT
REMARK Flexibility Score: inf
ROOT
ATOM      1  C   UNL     1      16.824 -34.014  22.468  1.00  0.00     0.008 C 
ATOM      2  C   UNL     1      15.922 -32.814  22.156  1.00  0.00    -0.006 C 
ATOM      3  C   UNL     1      15.572 -32.050  23.443  1.00  0.00     0.008 C 
ATOM      4  C   UNL     1      14.754 -30.789  23.138  1.00  0.00     0.039 C 
ATOM      5  C   UNL     1      13.532 -31.079  22.280  1.00  0.00    -0.006 C 
ATOM      6  C   UNL     1      12.386 -30.346  22.404  1.00  0.00    -0.070 C 
ATOM      7  C   UNL     1      11.147 -30.659  21.598  1.00  0.00     0.039 C 
ATOM      8  C   UNL     1      12.292 -29.203  23.390  1.00  0.00     0.039 C 
ATOM      9  C   UNL     1      13.703 -32.124  21.226  1.00  0.00     0.159 C 
ATOM     10  O   UNL     1      13.079 -32.059  20.132  1.00  0.00    -0.295 OA
ATOM     11  C   UNL     1      14.636 -33.276  21.454  1.00  0.00     0.084 C 
ENDROOT
TORSDOF 0
ENDMDL
MODEL 4
REMARK VINA RESULT:    -5.142      1.642      4.870
REMARK INTER + INTRA:          -5.142
REMARK INTER:                  -5.142
REMARK INTRA:                   0.000
REMARK UNBOUND:                 0.000
REMARK SMILES CC(C)=C1CC[C@@H](C)CC1=O
REMARK SMILES IDX 8 1 7 2 6 3 5 4 4 5 2 6 1 7 3 8 10 9 11 10 9 11
REMARK H PARENT
REMARK Flexibility Score: inf
ROOT
ATOM      1  C   UNL     1      17.438 -36.272  19.982  1.00  0.00     0.008 C 
ATOM      2  C   UNL     1      16.227 -35.519  20.545  1.00  0.00    -0.006 C 
ATOM      3  C   UNL     1      15.701 -34.497  19.525  1.00  0.00     0.008 C 
ATOM      4  C   UNL     1      14.428 -33.807  20.033  1.00  0.00     0.039 C 
ATOM      5  C   UNL     1      14.604 -33.209  21.421  1.00  0.00    -0.006 C 
ATOM      6  C   UNL     1      13.934 -32.080  21.798  1.00  0.00    -0.070 C 
ATOM      7  C   UNL     1      14.141 -31.445  23.153  1.00  0.00     0.039 C 
ATOM      8  C   UNL     1      12.976 -31.387  20.855  1.00  0.00     0.039 C 
ATOM      9  C   UNL     1      15.451 -33.991  22.371  1.00  0.00     0.159 C 
ATOM     10  O   UNL     1      15.220 -33.987  23.610  1.00  0.00    -0.295 OA
ATOM     11  C   UNL     1      16.599 -34.808  21.856  1.00  0.00     0.084 C 
ENDROOT
TORSDOF 0
ENDMDL
MODEL 5
REMARK VINA RESULT:    -5.129      1.837      2.220
REMARK INTER + INTRA:          -5.129
REMARK INTER:                  -5.129
REMARK INTRA:                   0.000
REMARK UNBOUND:                 0.000
REMARK SMILES CC(C)=C1CC[C@@H](C)CC1=O
REMARK SMILES IDX 8 1 7 2 6 3 5 4 4 5 2 6 1 7 3 8 10 9 11 10 9 11
REMARK H PARENT
REMARK Flexibility Score: inf
ROOT
ATOM      1  C   UNL     1      12.116 -28.923  23.692  1.00  0.00     0.008 C 
ATOM      2  C   UNL     1      13.411 -29.722  23.506  1.00  0.00    -0.006 C 
ATOM      3  C   UNL     1      14.328 -29.039  22.480  1.00  0.00     0.008 C 
ATOM      4  C   UNL     1      15.671 -29.770  22.357  1.00  0.00     0.039 C 
ATOM      5  C   UNL     1      15.503 -31.259  22.090  1.00  0.00    -0.006 C 
ATOM      6  C   UNL     1      16.414 -31.954  21.348  1.00  0.00    -0.070 C 
ATOM      7  C   UNL     1      16.229 -33.420  21.029  1.00  0.00     0.039 C 
ATOM      8  C   UNL     1      17.638 -31.276  20.775  1.00  0.00     0.039 C 
ATOM      9  C   UNL     1      14.357 -31.924  22.781  1.00  0.00     0.159 C 
ATOM     10  O   UNL     1      14.425 -33.127  23.149  1.00  0.00    -0.295 OA
ATOM     11  C   UNL     1      13.097 -31.157  23.056  1.00  0.00     0.084 C 
ENDROOT
TORSDOF 0
ENDMDL
MODEL 6
REMARK VINA RESULT:    -4.881      8.724      9.463
REMARK INTER + INTRA:          -4.881
REMARK INTER:                  -4.881
REMARK INTRA:                   0.000
REMARK UNBOUND:                 0.000
REMARK SMILES CC(C)=C1CC[C@@H](C)CC1=O
REMARK SMILES IDX 8 1 7 2 6 3 5 4 4 5 2 6 1 7 3 8 10 9 11 10 9 11
REMARK H PARENT
REMARK Flexibility Score: inf
ROOT
ATOM      1  C   UNL     1      23.629 -24.384  19.734  1.00  0.00     0.008 C 
ATOM      2  C   UNL     1      22.873 -25.471  20.506  1.00  0.00    -0.006 C 
ATOM      3  C   UNL     1      23.324 -26.870  20.056  1.00  0.00     0.008 C 
ATOM      4  C   UNL     1      22.652 -27.968  20.890  1.00  0.00     0.039 C 
ATOM      5  C   UNL     1      21.137 -27.827  20.929  1.00  0.00    -0.006 C 
ATOM      6  C   UNL     1      20.324 -28.920  21.020  1.00  0.00    -0.070 C 
ATOM      7  C   UNL     1      18.818 -28.798  21.003  1.00  0.00     0.039 C 
ATOM      8  C   UNL     1      20.898 -30.317  21.104  1.00  0.00     0.039 C 
ATOM      9  C   UNL     1      20.609 -26.430  20.980  1.00  0.00     0.159 C 
ATOM     10  O   UNL     1      19.540 -26.157  21.589  1.00  0.00    -0.295 OA
ATOM     11  C   UNL     1      21.357 -25.318  20.305  1.00  0.00     0.084 C 
ENDROOT
TORSDOF 0
ENDMDL
MODEL 7
REMARK VINA RESULT:    -4.866      2.434      5.358
REMARK INTER + INTRA:          -4.866
REMARK INTER:                  -4.866
REMARK INTRA:                   0.000
REMARK UNBOUND:                 0.000
REMARK SMILES CC(C)=C1CC[C@@H](C)CC1=O
REMARK SMILES IDX 8 1 7 2 6 3 5 4 4 5 2 6 1 7 3 8 10 9 11 10 9 11
REMARK H PARENT
REMARK Flexibility Score: inf
ROOT
ATOM      1  C   UNL     1      16.857 -36.339  19.364  1.00  0.00     0.008 C 
ATOM      2  C   UNL     1      16.528 -34.867  19.637  1.00  0.00    -0.006 C 
ATOM      3  C   UNL     1      17.716 -34.161  20.309  1.00  0.00     0.008 C 
ATOM      4  C   UNL     1      17.442 -32.663  20.496  1.00  0.00     0.039 C 
ATOM      5  C   UNL     1      16.124 -32.396  21.208  1.00  0.00    -0.006 C 
ATOM      6  C   UNL     1      15.963 -31.309  22.020  1.00  0.00    -0.070 C 
ATOM      7  C   UNL     1      14.678 -31.063  22.777  1.00  0.00     0.039 C 
ATOM      8  C   UNL     1      17.084 -30.316  22.230  1.00  0.00     0.039 C 
ATOM      9  C   UNL     1      14.998 -33.319  20.874  1.00  0.00     0.159 C 
ATOM     10  O   UNL     1      13.802 -32.920  20.874  1.00  0.00    -0.295 OA
ATOM     11  C   UNL     1      15.278 -34.751  20.523  1.00  0.00     0.084 C 
ENDROOT
TORSDOF 0
ENDMDL
MODEL 8
REMARK VINA RESULT:    -4.839      3.160      5.993
REMARK INTER + INTRA:          -4.839
REMARK INTER:                  -4.839
REMARK INTRA:                   0.000
REMARK UNBOUND:                 0.000
REMARK SMILES CC(C)=C1CC[C@@H](C)CC1=O
REMARK SMILES IDX 8 1 7 2 6 3 5 4 4 5 2 6 1 7 3 8 10 9 11 10 9 11
REMARK H PARENT
REMARK Flexibility Score: inf
ROOT
ATOM      1  C   UNL     1      17.219 -36.965  19.010  1.00  0.00     0.008 C 
ATOM      2  C   UNL     1      17.095 -35.838  20.042  1.00  0.00    -0.006 C 
ATOM      3  C   UNL     1      17.635 -36.293  21.408  1.00  0.00     0.008 C 
ATOM      4  C   UNL     1      17.612 -35.146  22.426  1.00  0.00     0.039 C 
ATOM      5  C   UNL     1      16.246 -34.483  22.528  1.00  0.00    -0.006 C 
ATOM      6  C   UNL     1      15.804 -33.945  23.703  1.00  0.00    -0.070 C 
ATOM      7  C   UNL     1      14.428 -33.334  23.832  1.00  0.00     0.039 C 
ATOM      8  C   UNL     1      16.662 -33.971  24.948  1.00  0.00     0.039 C 
ATOM      9  C   UNL     1      15.481 -34.355  21.251  1.00  0.00     0.159 C 
ATOM     10  O   UNL     1      14.707 -33.382  21.047  1.00  0.00    -0.295 OA
ATOM     11  C   UNL     1      15.632 -35.392  20.178  1.00  0.00     0.084 C 
ENDROOT
TORSDOF 0
ENDMDL
MODEL 9
REMARK VINA RESULT:    -4.817      2.353      3.064
REMARK INTER + INTRA:          -4.817
REMARK INTER:                  -4.817
REMARK INTRA:                   0.000
REMARK UNBOUND:                 0.000
REMARK SMILES CC(C)=C1CC[C@@H](C)CC1=O
REMARK SMILES IDX 8 1 7 2 6 3 5 4 4 5 2 6 1 7 3 8 10 9 11 10 9 11
REMARK H PARENT
REMARK Flexibility Score: inf
ROOT
ATOM      1  C   UNL     1      11.598 -30.652  21.632  1.00  0.00     0.008 C 
ATOM      2  C   UNL     1      13.035 -31.095  21.930  1.00  0.00    -0.006 C 
ATOM      3  C   UNL     1      13.981 -29.884  21.954  1.00  0.00     0.008 C 
ATOM      4  C   UNL     1      15.405 -30.296  22.351  1.00  0.00     0.039 C 
ATOM      5  C   UNL     1      15.940 -31.439  21.501  1.00  0.00    -0.006 C 
ATOM      6  C   UNL     1      17.270 -31.546  21.212  1.00  0.00    -0.070 C 
ATOM      7  C   UNL     1      17.807 -32.645  20.324  1.00  0.00     0.039 C 
ATOM      8  C   UNL     1      18.270 -30.542  21.741  1.00  0.00     0.039 C 
ATOM      9  C   UNL     1      14.948 -32.485  21.108  1.00  0.00     0.159 C 
ATOM     10  O   UNL     1      15.290 -33.690  20.964  1.00  0.00    -0.295 OA
ATOM     11  C   UNL     1      13.512 -32.113  20.883  1.00  0.00     0.084 C 
ENDROOT
TORSDOF 0
ENDMDL
