MODEL 1
REMARK VINA RESULT:    -6.884      0.000      0.000
REMARK INTER + INTRA:          -8.243
REMARK INTER:                  -8.292
REMARK INTRA:                   0.050
REMARK UNBOUND:                 0.050
REMARK SMILES O=c1c(O)c(-c2ccc(O)c(O)c2)oc2cc(O)cc(O)c12
REMARK SMILES IDX 5 1 3 2 2 3 1 4 22 5 20 6 19 7 17 8 16 9 15 10 14 11 6 12
REMARK SMILES IDX 7 13 8 14 9 15 13 16 11 17 10 18 12 20 4 22 21 24 18 26
REMARK H PARENT 10 19 12 21 4 23 21 25 18 27
REMARK Flexibility Score: inf
ROOT
ATOM      1  C   UNL     1      12.497  -7.934  24.639  1.00  0.00     0.180 A 
ATOM      2  C   UNL     1      13.047  -6.863  23.914  1.00  0.00     0.208 A 
ATOM      3  C   UNL     1      14.379  -6.951  23.477  1.00  0.00     0.238 A 
ATOM      4  O   UNL     1      14.849  -6.013  22.782  1.00  0.00    -0.285 OA
ATOM      5  C   UNL     1      15.147  -8.099  23.784  1.00  0.00     0.111 A 
ATOM      6  C   UNL     1      16.518  -8.277  23.427  1.00  0.00     0.134 A 
ATOM      7  C   UNL     1      17.141  -9.508  23.668  1.00  0.00     0.093 A 
ATOM      8  C   UNL     1      16.462 -10.544  24.313  1.00  0.00     0.123 A 
ATOM      9  C   UNL     1      15.142 -10.360  24.719  1.00  0.00     0.094 A 
ATOM     10  C   UNL     1      14.483  -9.156  24.460  1.00  0.00     0.146 A 
ATOM     11  O   UNL     1      13.223  -9.025  24.854  1.00  0.00    -0.452 OA
ENDROOT
BRANCH   1  12
ATOM     12  C   UNL     1      11.109  -7.905  25.155  1.00  0.00     0.025 A 
ATOM     13  C   UNL     1      10.056  -7.572  24.287  1.00  0.00     0.016 A 
ATOM     14  C   UNL     1       8.737  -7.558  24.748  1.00  0.00     0.051 A 
ATOM     15  C   UNL     1       8.450  -7.893  26.077  1.00  0.00     0.157 A 
ATOM     16  C   UNL     1      10.814  -8.260  26.484  1.00  0.00     0.062 A 
ATOM     17  C   UNL     1       9.489  -8.248  26.946  1.00  0.00     0.158 A 
BRANCH  15  18
ATOM     18  O   UNL     1       7.136  -7.878  26.540  1.00  0.00    -0.504 OA
ATOM     19  H   UNL     1       6.351  -7.794  25.905  1.00  0.00     0.293 HD
ENDBRANCH  15  18
BRANCH  17  20
ATOM     20  O   UNL     1       9.199  -8.594  28.264  1.00  0.00    -0.504 OA
ATOM     21  H   UNL     1       9.824  -8.353  29.025  1.00  0.00     0.293 HD
ENDBRANCH  17  20
ENDBRANCH   1  12
BRANCH   2  22
ATOM     22  O   UNL     1      12.265  -5.749  23.603  1.00  0.00    -0.502 OA
ATOM     23  H   UNL     1      11.310  -5.829  23.275  1.00  0.00     0.293 HD
ENDBRANCH   2  22
BRANCH   6  24
ATOM     24  O   UNL     1      17.313  -7.275  22.862  1.00  0.00    -0.507 OA
ATOM     25  H   UNL     1      17.393  -6.335  23.219  1.00  0.00     0.293 HD
ENDBRANCH   6  24
BRANCH   8  26
ATOM     26  O   UNL     1      17.094 -11.761  24.563  1.00  0.00    -0.508 OA
ATOM     27  H   UNL     1      17.132 -12.157  25.494  1.00  0.00     0.293 HD
ENDBRANCH   8  26
TORSDOF 6
ENDMDL
MODEL 2
REMARK VINA RESULT:    -6.854      1.281      1.590
REMARK INTER + INTRA:          -8.206
REMARK INTER:                  -7.966
REMARK INTRA:                  -0.240
REMARK UNBOUND:                 0.050
REMARK SMILES O=c1c(O)c(-c2ccc(O)c(O)c2)oc2cc(O)cc(O)c12
REMARK SMILES IDX 5 1 3 2 2 3 1 4 22 5 20 6 19 7 17 8 16 9 15 10 14 11 6 12
REMARK SMILES IDX 7 13 8 14 9 15 13 16 11 17 10 18 12 20 4 22 21 24 18 26
REMARK H PARENT 10 19 12 21 4 23 21 25 18 27
REMARK Flexibility Score: inf
ROOT
ATOM      1  C   UNL     1      12.866  -8.735  25.180  1.00  0.00     0.180 A 
ATOM      2  C   UNL     1      13.861  -7.819  24.797  1.00  0.00     0.208 A 
ATOM      3  C   UNL     1      15.149  -8.296  24.506  1.00  0.00     0.238 A 
ATOM      4  O   UNL     1      16.021  -7.478  24.111  1.00  0.00    -0.285 OA
ATOM      5  C   UNL     1      15.430  -9.679  24.616  1.00  0.00     0.111 A 
ATOM      6  C   UNL     1      16.710 -10.267  24.384  1.00  0.00     0.134 A 
ATOM      7  C   UNL     1      16.841 -11.661  24.394  1.00  0.00     0.093 A 
ATOM      8  C   UNL     1      15.754 -12.485  24.694  1.00  0.00     0.123 A 
ATOM      9  C   UNL     1      14.514 -11.918  24.980  1.00  0.00     0.094 A 
ATOM     10  C   UNL     1      14.344 -10.532  24.942  1.00  0.00     0.146 A 
ATOM     11  O   UNL     1      13.143 -10.033  25.211  1.00  0.00    -0.452 OA
ENDROOT
BRANCH   1  12
ATOM     12  C   UNL     1      11.492  -8.306  25.528  1.00  0.00     0.025 A 
ATOM     13  C   UNL     1      10.610  -7.916  24.506  1.00  0.00     0.016 A 
ATOM     14  C   UNL     1       9.303  -7.528  24.809  1.00  0.00     0.051 A 
ATOM     15  C   UNL     1       8.854  -7.537  26.136  1.00  0.00     0.157 A 
ATOM     16  C   UNL     1      11.030  -8.333  26.856  1.00  0.00     0.062 A 
ATOM     17  C   UNL     1       9.717  -7.944  27.161  1.00  0.00     0.158 A 
BRANCH  15  18
ATOM     18  O   UNL     1       7.551  -7.148  26.443  1.00  0.00    -0.504 OA
ATOM     19  H   UNL     1       6.796  -7.253  25.776  1.00  0.00     0.293 HD
ENDBRANCH  15  18
BRANCH  17  20
ATOM     20  O   UNL     1       9.263  -7.966  28.478  1.00  0.00    -0.504 OA
ATOM     21  H   UNL     1       8.281  -7.856  28.702  1.00  0.00     0.293 HD
ENDBRANCH  17  20
ENDBRANCH   1  12
BRANCH   2  22
ATOM     22  O   UNL     1      13.556  -6.461  24.673  1.00  0.00    -0.502 OA
ATOM     23  H   UNL     1      12.605  -6.114  24.684  1.00  0.00     0.293 HD
ENDBRANCH   2  22
BRANCH   6  24
ATOM     24  O   UNL     1      17.879  -9.531  24.167  1.00  0.00    -0.507 OA
ATOM     25  H   UNL     1      18.217  -9.243  23.262  1.00  0.00     0.293 HD
ENDBRANCH   6  24
BRANCH   8  26
ATOM     26  O   UNL     1      15.898 -13.871  24.718  1.00  0.00    -0.508 OA
ATOM     27  H   UNL     1      16.722 -14.311  25.108  1.00  0.00     0.293 HD
ENDBRANCH   8  26
TORSDOF 6
ENDMDL
MODEL 3
REMARK VINA RESULT:    -6.777      2.704      6.374
REMARK INTER + INTRA:          -8.114
REMARK INTER:                  -7.796
REMARK INTRA:                  -0.318
REMARK UNBOUND:                 0.050
REMARK SMILES O=c1c(O)c(-c2ccc(O)c(O)c2)oc2cc(O)cc(O)c12
REMARK SMILES IDX 5 1 3 2 2 3 1 4 22 5 20 6 19 7 17 8 16 9 15 10 14 11 6 12
REMARK SMILES IDX 7 13 8 14 9 15 13 16 11 17 10 18 12 20 4 22 21 24 18 26
REMARK H PARENT 10 19 12 21 4 23 21 25 18 27
REMARK Flexibility Score: inf
ROOT
ATOM      1  C   UNL     1      15.783  -9.747  24.535  1.00  0.00     0.180 A 
ATOM      2  C   UNL     1      16.809  -9.040  23.884  1.00  0.00     0.208 A 
ATOM      3  C   UNL     1      16.503  -7.824  23.252  1.00  0.00     0.238 A 
ATOM      4  O   UNL     1      17.437  -7.169  22.718  1.00  0.00    -0.285 OA
ATOM      5  C   UNL     1      15.174  -7.338  23.265  1.00  0.00     0.111 A 
ATOM      6  C   UNL     1      14.743  -6.138  22.623  1.00  0.00     0.134 A 
ATOM      7  C   UNL     1      13.431  -5.686  22.811  1.00  0.00     0.093 A 
ATOM      8  C   UNL     1      12.516  -6.426  23.564  1.00  0.00     0.123 A 
ATOM      9  C   UNL     1      12.911  -7.628  24.146  1.00  0.00     0.094 A 
ATOM     10  C   UNL     1      14.223  -8.087  24.006  1.00  0.00     0.146 A 
ATOM     11  O   UNL     1      14.560  -9.232  24.585  1.00  0.00    -0.452 OA
ENDROOT
BRANCH   1  12
ATOM     12  C   UNL     1      16.022 -11.048  25.201  1.00  0.00     0.025 A 
ATOM     13  C   UNL     1      16.159 -11.094  26.597  1.00  0.00     0.016 A 
ATOM     14  C   UNL     1      16.364 -12.313  27.248  1.00  0.00     0.051 A 
ATOM     15  C   UNL     1      16.419 -13.504  26.514  1.00  0.00     0.157 A 
ATOM     16  C   UNL     1      16.058 -12.249  24.470  1.00  0.00     0.062 A 
ATOM     17  C   UNL     1      16.262 -13.474  25.123  1.00  0.00     0.158 A 
BRANCH  15  18
ATOM     18  O   UNL     1      16.626 -14.722  27.160  1.00  0.00    -0.504 OA
ATOM     19  H   UNL     1      16.151 -15.566  26.864  1.00  0.00     0.293 HD
ENDBRANCH  15  18
BRANCH  17  20
ATOM     20  O   UNL     1      16.304 -14.662  24.397  1.00  0.00    -0.504 OA
ATOM     21  H   UNL     1      17.178 -15.142  24.216  1.00  0.00     0.293 HD
ENDBRANCH  17  20
ENDBRANCH   1  12
BRANCH   2  22
ATOM     22  O   UNL     1      18.119  -9.527  23.902  1.00  0.00    -0.502 OA
ATOM     23  H   UNL     1      18.490 -10.060  24.679  1.00  0.00     0.293 HD
ENDBRANCH   2  22
BRANCH   6  24
ATOM     24  O   UNL     1      15.551  -5.374  21.774  1.00  0.00    -0.507 OA
ATOM     25  H   UNL     1      16.388  -4.890  22.060  1.00  0.00     0.293 HD
ENDBRANCH   6  24
BRANCH   8  26
ATOM     26  O   UNL     1      11.208  -5.976  23.733  1.00  0.00    -0.508 OA
ATOM     27  H   UNL     1      10.459  -6.286  23.126  1.00  0.00     0.293 HD
ENDBRANCH   8  26
TORSDOF 6
ENDMDL
MODEL 4
REMARK VINA RESULT:    -6.535      8.103     10.575
REMARK INTER + INTRA:          -7.822
REMARK INTER:                  -7.490
REMARK INTRA:                  -0.332
REMARK UNBOUND:                 0.050
REMARK SMILES O=c1c(O)c(-c2ccc(O)c(O)c2)oc2cc(O)cc(O)c12
REMARK SMILES IDX 5 1 3 2 2 3 1 4 22 5 20 6 19 7 17 8 16 9 15 10 14 11 6 12
REMARK SMILES IDX 7 13 8 14 9 15 13 16 11 17 10 18 12 20 4 22 21 24 18 26
REMARK H PARENT 10 19 12 21 4 23 21 25 18 27
REMARK Flexibility Score: inf
ROOT
ATOM      1  C   UNL     1      13.631 -14.167  30.646  1.00  0.00     0.180 A 
ATOM      2  C   UNL     1      13.209 -15.456  31.015  1.00  0.00     0.208 A 
ATOM      3  C   UNL     1      13.199 -15.804  32.375  1.00  0.00     0.238 A 
ATOM      4  O   UNL     1      12.767 -16.941  32.704  1.00  0.00    -0.285 OA
ATOM      5  C   UNL     1      13.626 -14.868  33.346  1.00  0.00     0.111 A 
ATOM      6  C   UNL     1      13.695 -15.128  34.748  1.00  0.00     0.134 A 
ATOM      7  C   UNL     1      14.008 -14.085  35.629  1.00  0.00     0.093 A 
ATOM      8  C   UNL     1      14.319 -12.809  35.154  1.00  0.00     0.123 A 
ATOM      9  C   UNL     1      14.312 -12.561  33.783  1.00  0.00     0.094 A 
ATOM     10  C   UNL     1      13.968 -13.571  32.882  1.00  0.00     0.146 A 
ATOM     11  O   UNL     1      13.964 -13.289  31.585  1.00  0.00    -0.452 OA
ENDROOT
BRANCH   1  12
ATOM     12  C   UNL     1      13.694 -13.734  29.231  1.00  0.00     0.025 A 
ATOM     13  C   UNL     1      12.622 -13.012  28.681  1.00  0.00     0.016 A 
ATOM     14  C   UNL     1      12.670 -12.576  27.355  1.00  0.00     0.051 A 
ATOM     15  C   UNL     1      13.795 -12.841  26.564  1.00  0.00     0.157 A 
ATOM     16  C   UNL     1      14.831 -13.979  28.439  1.00  0.00     0.062 A 
ATOM     17  C   UNL     1      14.879 -13.540  27.108  1.00  0.00     0.158 A 
BRANCH  15  18
ATOM     18  O   UNL     1      13.845 -12.409  25.240  1.00  0.00    -0.504 OA
ATOM     19  H   UNL     1      13.008 -12.343  24.672  1.00  0.00     0.293 HD
ENDBRANCH  15  18
BRANCH  17  20
ATOM     20  O   UNL     1      16.003 -13.790  26.323  1.00  0.00    -0.504 OA
ATOM     21  H   UNL     1      15.943 -13.848  25.313  1.00  0.00     0.293 HD
ENDBRANCH  17  20
ENDBRANCH   1  12
BRANCH   2  22
ATOM     22  O   UNL     1      12.770 -16.357  30.042  1.00  0.00    -0.502 OA
ATOM     23  H   UNL     1      12.410 -17.275  30.274  1.00  0.00     0.293 HD
ENDBRANCH   2  22
BRANCH   6  24
ATOM     24  O   UNL     1      13.493 -16.388  35.319  1.00  0.00    -0.507 OA
ATOM     25  H   UNL     1      12.815 -16.593  36.037  1.00  0.00     0.293 HD
ENDBRANCH   6  24
BRANCH   8  26
ATOM     26  O   UNL     1      14.644 -11.782  36.037  1.00  0.00    -0.508 OA
ATOM     27  H   UNL     1      13.929 -11.247  36.514  1.00  0.00     0.293 HD
ENDBRANCH   8  26
TORSDOF 6
ENDMDL
MODEL 5
REMARK VINA RESULT:    -6.519      4.459      7.576
REMARK INTER + INTRA:          -7.803
REMARK INTER:                  -7.480
REMARK INTRA:                  -0.323
REMARK UNBOUND:                 0.050
REMARK SMILES O=c1c(O)c(-c2ccc(O)c(O)c2)oc2cc(O)cc(O)c12
REMARK SMILES IDX 5 1 3 2 2 3 1 4 22 5 20 6 19 7 17 8 16 9 15 10 14 11 6 12
REMARK SMILES IDX 7 13 8 14 9 15 13 16 11 17 10 18 12 20 4 22 21 24 18 26
REMARK H PARENT 10 19 12 21 4 23 21 25 18 27
REMARK Flexibility Score: inf
ROOT
ATOM      1  C   UNL     1      16.206 -11.601  25.879  1.00  0.00     0.180 A 
ATOM      2  C   UNL     1      17.097 -12.670  25.677  1.00  0.00     0.208 A 
ATOM      3  C   UNL     1      16.969 -13.821  26.471  1.00  0.00     0.238 A 
ATOM      4  O   UNL     1      17.734 -14.796  26.249  1.00  0.00    -0.285 OA
ATOM      5  C   UNL     1      15.964 -13.883  27.466  1.00  0.00     0.111 A 
ATOM      6  C   UNL     1      15.769 -14.984  28.354  1.00  0.00     0.134 A 
ATOM      7  C   UNL     1      14.662 -14.992  29.212  1.00  0.00     0.093 A 
ATOM      8  C   UNL     1      13.780 -13.910  29.259  1.00  0.00     0.123 A 
ATOM      9  C   UNL     1      13.996 -12.805  28.439  1.00  0.00     0.094 A 
ATOM     10  C   UNL     1      15.071 -12.784  27.547  1.00  0.00     0.146 A 
ATOM     11  O   UNL     1      15.233 -11.716  26.776  1.00  0.00    -0.452 OA
ENDROOT
BRANCH   1  12
ATOM     12  C   UNL     1      16.294 -10.345  25.099  1.00  0.00     0.025 A 
ATOM     13  C   UNL     1      15.431 -10.147  24.010  1.00  0.00     0.016 A 
ATOM     14  C   UNL     1      15.482  -8.961  23.274  1.00  0.00     0.051 A 
ATOM     15  C   UNL     1      16.386  -7.950  23.625  1.00  0.00     0.157 A 
ATOM     16  C   UNL     1      17.185  -9.319  25.462  1.00  0.00     0.062 A 
ATOM     17  C   UNL     1      17.236  -8.127  24.723  1.00  0.00     0.158 A 
BRANCH  15  18
ATOM     18  O   UNL     1      16.441  -6.766  22.892  1.00  0.00    -0.504 OA
ATOM     19  H   UNL     1      17.132  -6.052  23.089  1.00  0.00     0.293 HD
ENDBRANCH  15  18
BRANCH  17  20
ATOM     20  O   UNL     1      18.125  -7.114  25.079  1.00  0.00    -0.504 OA
ATOM     21  H   UNL     1      18.784  -6.729  24.413  1.00  0.00     0.293 HD
ENDBRANCH  17  20
ENDBRANCH   1  12
BRANCH   2  22
ATOM     22  O   UNL     1      18.067 -12.597  24.675  1.00  0.00    -0.502 OA
ATOM     23  H   UNL     1      18.825 -11.926  24.700  1.00  0.00     0.293 HD
ENDBRANCH   2  22
BRANCH   6  24
ATOM     24  O   UNL     1      16.643 -16.071  28.452  1.00  0.00    -0.507 OA
ATOM     25  H   UNL     1      16.919 -16.511  29.317  1.00  0.00     0.293 HD
ENDBRANCH   6  24
BRANCH   8  26
ATOM     26  O   UNL     1      12.690 -13.920  30.127  1.00  0.00    -0.508 OA
ATOM     27  H   UNL     1      11.852 -13.386  29.931  1.00  0.00     0.293 HD
ENDBRANCH   8  26
TORSDOF 6
ENDMDL
MODEL 6
REMARK VINA RESULT:    -6.492      2.688      6.870
REMARK INTER + INTRA:          -7.771
REMARK INTER:                  -7.467
REMARK INTRA:                  -0.304
REMARK UNBOUND:                 0.050
REMARK SMILES O=c1c(O)c(-c2ccc(O)c(O)c2)oc2cc(O)cc(O)c12
REMARK SMILES IDX 5 1 3 2 2 3 1 4 22 5 20 6 19 7 17 8 16 9 15 10 14 11 6 12
REMARK SMILES IDX 7 13 8 14 9 15 13 16 11 17 10 18 12 20 4 22 21 24 18 26
REMARK H PARENT 10 19 12 21 4 23 21 25 18 27
REMARK Flexibility Score: inf
ROOT
ATOM      1  C   UNL     1      15.168 -10.579  25.395  1.00  0.00     0.180 A 
ATOM      2  C   UNL     1      13.914 -10.355  25.988  1.00  0.00     0.208 A 
ATOM      3  C   UNL     1      13.243  -9.150  25.725  1.00  0.00     0.238 A 
ATOM      4  O   UNL     1      12.095  -8.979  26.214  1.00  0.00    -0.285 OA
ATOM      5  C   UNL     1      13.840  -8.179  24.887  1.00  0.00     0.111 A 
ATOM      6  C   UNL     1      13.268  -6.906  24.585  1.00  0.00     0.134 A 
ATOM      7  C   UNL     1      13.886  -6.078  23.640  1.00  0.00     0.093 A 
ATOM      8  C   UNL     1      15.090  -6.448  23.036  1.00  0.00     0.123 A 
ATOM      9  C   UNL     1      15.687  -7.661  23.369  1.00  0.00     0.094 A 
ATOM     10  C   UNL     1      15.076  -8.525  24.280  1.00  0.00     0.146 A 
ATOM     11  O   UNL     1      15.673  -9.676  24.562  1.00  0.00    -0.452 OA
ENDROOT
BRANCH   1  12
ATOM     12  C   UNL     1      15.948 -11.813  25.644  1.00  0.00     0.025 A 
ATOM     13  C   UNL     1      16.707 -11.925  26.821  1.00  0.00     0.016 A 
ATOM     14  C   UNL     1      17.433 -13.088  27.086  1.00  0.00     0.051 A 
ATOM     15  C   UNL     1      17.399 -14.162  26.187  1.00  0.00     0.157 A 
ATOM     16  C   UNL     1      15.901 -12.902  24.754  1.00  0.00     0.062 A 
ATOM     17  C   UNL     1      16.630 -14.071  25.021  1.00  0.00     0.158 A 
BRANCH  15  18
ATOM     18  O   UNL     1      18.125 -15.324  26.448  1.00  0.00    -0.504 OA
ATOM     19  H   UNL     1      18.970 -15.546  25.936  1.00  0.00     0.293 HD
ENDBRANCH  15  18
BRANCH  17  20
ATOM     20  O   UNL     1      16.587 -15.146  24.136  1.00  0.00    -0.504 OA
ATOM     21  H   UNL     1      17.370 -15.781  24.034  1.00  0.00     0.293 HD
ENDBRANCH  17  20
ENDBRANCH   1  12
BRANCH   2  22
ATOM     22  O   UNL     1      13.332 -11.337  26.794  1.00  0.00    -0.502 OA
ATOM     23  H   UNL     1      12.985 -12.212  26.421  1.00  0.00     0.293 HD
ENDBRANCH   2  22
BRANCH   6  24
ATOM     24  O   UNL     1      12.119  -6.402  25.200  1.00  0.00    -0.507 OA
ATOM     25  H   UNL     1      12.106  -5.917  26.085  1.00  0.00     0.293 HD
ENDBRANCH   6  24
BRANCH   8  26
ATOM     26  O   UNL     1      15.706  -5.610  22.108  1.00  0.00    -0.508 OA
ATOM     27  H   UNL     1      15.271  -5.392  21.220  1.00  0.00     0.293 HD
ENDBRANCH   8  26
TORSDOF 6
ENDMDL
MODEL 7
REMARK VINA RESULT:    -6.380      1.522      6.585
REMARK INTER + INTRA:          -7.636
REMARK INTER:                  -7.653
REMARK INTRA:                   0.017
REMARK UNBOUND:                 0.050
REMARK SMILES O=c1c(O)c(-c2ccc(O)c(O)c2)oc2cc(O)cc(O)c12
REMARK SMILES IDX 5 1 3 2 2 3 1 4 22 5 20 6 19 7 17 8 16 9 15 10 14 11 6 12
REMARK SMILES IDX 7 13 8 14 9 15 13 16 11 17 10 18 12 20 4 22 21 24 18 26
REMARK H PARENT 10 19 12 21 4 23 21 25 18 27
REMARK Flexibility Score: inf
ROOT
ATOM      1  C   UNL     1      13.886  -9.220  24.867  1.00  0.00     0.180 A 
ATOM      2  C   UNL     1      13.728  -8.185  23.930  1.00  0.00     0.208 A 
ATOM      3  C   UNL     1      12.656  -7.290  24.079  1.00  0.00     0.238 A 
ATOM      4  O   UNL     1      12.552  -6.332  23.268  1.00  0.00    -0.285 OA
ATOM      5  C   UNL     1      11.747  -7.452  25.151  1.00  0.00     0.111 A 
ATOM      6  C   UNL     1      10.602  -6.629  25.375  1.00  0.00     0.134 A 
ATOM      7  C   UNL     1       9.846  -6.799  26.541  1.00  0.00     0.093 A 
ATOM      8  C   UNL     1      10.155  -7.806  27.459  1.00  0.00     0.123 A 
ATOM      9  C   UNL     1      11.234  -8.653  27.220  1.00  0.00     0.094 A 
ATOM     10  C   UNL     1      12.029  -8.484  26.083  1.00  0.00     0.146 A 
ATOM     11  O   UNL     1      13.054  -9.306  25.899  1.00  0.00    -0.452 OA
ENDROOT
BRANCH   1  12
ATOM     12  C   UNL     1      14.976 -10.218  24.763  1.00  0.00     0.025 A 
ATOM     13  C   UNL     1      16.304  -9.778  24.644  1.00  0.00     0.016 A 
ATOM     14  C   UNL     1      17.350 -10.702  24.565  1.00  0.00     0.051 A 
ATOM     15  C   UNL     1      17.084 -12.076  24.621  1.00  0.00     0.157 A 
ATOM     16  C   UNL     1      14.716 -11.598  24.839  1.00  0.00     0.062 A 
ATOM     17  C   UNL     1      15.766 -12.525  24.761  1.00  0.00     0.158 A 
BRANCH  15  18
ATOM     18  O   UNL     1      18.125 -13.000  24.540  1.00  0.00    -0.504 OA
ATOM     19  H   UNL     1      18.673 -13.252  25.353  1.00  0.00     0.293 HD
ENDBRANCH  15  18
BRANCH  17  20
ATOM     20  O   UNL     1      15.506 -13.893  24.829  1.00  0.00    -0.504 OA
ATOM     21  H   UNL     1      14.807 -14.268  25.459  1.00  0.00     0.293 HD
ENDBRANCH  17  20
ENDBRANCH   1  12
BRANCH   2  22
ATOM     22  O   UNL     1      14.650  -8.030  22.891  1.00  0.00    -0.502 OA
ATOM     23  H   UNL     1      15.569  -8.453  22.913  1.00  0.00     0.293 HD
ENDBRANCH   2  22
BRANCH   6  24
ATOM     24  O   UNL     1      10.153  -5.656  24.476  1.00  0.00    -0.507 OA
ATOM     25  H   UNL     1      10.733  -5.192  23.794  1.00  0.00     0.293 HD
ENDBRANCH   6  24
BRANCH   8  26
ATOM     26  O   UNL     1       9.387  -7.978  28.609  1.00  0.00    -0.508 OA
ATOM     27  H   UNL     1       9.189  -7.206  29.234  1.00  0.00     0.293 HD
ENDBRANCH   8  26
TORSDOF 6
ENDMDL
MODEL 8
REMARK VINA RESULT:    -6.339      3.539      4.928
REMARK INTER + INTRA:          -7.587
REMARK INTER:                  -7.282
REMARK INTRA:                  -0.304
REMARK UNBOUND:                 0.050
REMARK SMILES O=c1c(O)c(-c2ccc(O)c(O)c2)oc2cc(O)cc(O)c12
REMARK SMILES IDX 5 1 3 2 2 3 1 4 22 5 20 6 19 7 17 8 16 9 15 10 14 11 6 12
REMARK SMILES IDX 7 13 8 14 9 15 13 16 11 17 10 18 12 20 4 22 21 24 18 26
REMARK H PARENT 10 19 12 21 4 23 21 25 18 27
REMARK Flexibility Score: inf
ROOT
ATOM      1  C   UNL     1      15.273  -7.752  24.312  1.00  0.00     0.180 A 
ATOM      2  C   UNL     1      16.213  -7.355  25.279  1.00  0.00     0.208 A 
ATOM      3  C   UNL     1      16.918  -8.342  25.988  1.00  0.00     0.238 A 
ATOM      4  O   UNL     1      17.797  -7.980  26.813  1.00  0.00    -0.285 OA
ATOM      5  C   UNL     1      16.663  -9.710  25.733  1.00  0.00     0.111 A 
ATOM      6  C   UNL     1      17.289 -10.793  26.420  1.00  0.00     0.134 A 
ATOM      7  C   UNL     1      17.057 -12.107  25.996  1.00  0.00     0.093 A 
ATOM      8  C   UNL     1      16.170 -12.381  24.952  1.00  0.00     0.123 A 
ATOM      9  C   UNL     1      15.509 -11.334  24.314  1.00  0.00     0.094 A 
ATOM     10  C   UNL     1      15.747 -10.010  24.691  1.00  0.00     0.146 A 
ATOM     11  O   UNL     1      15.104  -9.043  24.050  1.00  0.00    -0.452 OA
ENDROOT
BRANCH   1  12
ATOM     12  C   UNL     1      14.473  -6.771  23.543  1.00  0.00     0.025 A 
ATOM     13  C   UNL     1      13.187  -6.427  23.989  1.00  0.00     0.016 A 
ATOM     14  C   UNL     1      12.423  -5.489  23.291  1.00  0.00     0.051 A 
ATOM     15  C   UNL     1      12.939  -4.870  22.145  1.00  0.00     0.157 A 
ATOM     16  C   UNL     1      14.995  -6.132  22.404  1.00  0.00     0.062 A 
ATOM     17  C   UNL     1      14.229  -5.189  21.703  1.00  0.00     0.158 A 
BRANCH  15  18
ATOM     18  O   UNL     1      12.179  -3.936  21.444  1.00  0.00    -0.504 OA
ATOM     19  H   UNL     1      11.746  -3.148  21.911  1.00  0.00     0.293 HD
ENDBRANCH  15  18
BRANCH  17  20
ATOM     20  O   UNL     1      14.745  -4.562  20.571  1.00  0.00    -0.504 OA
ATOM     21  H   UNL     1      14.523  -4.886  19.637  1.00  0.00     0.293 HD
ENDBRANCH  17  20
ENDBRANCH   1  12
BRANCH   2  22
ATOM     22  O   UNL     1      16.466  -5.999  25.499  1.00  0.00    -0.502 OA
ATOM     23  H   UNL     1      15.799  -5.275  25.258  1.00  0.00     0.293 HD
ENDBRANCH   2  22
BRANCH   6  24
ATOM     24  O   UNL     1      18.120 -10.634  27.534  1.00  0.00    -0.507 OA
ATOM     25  H   UNL     1      18.074 -11.197  28.370  1.00  0.00     0.293 HD
ENDBRANCH   6  24
BRANCH   8  26
ATOM     26  O   UNL     1      15.933 -13.693  24.547  1.00  0.00    -0.508 OA
ATOM     27  H   UNL     1      14.994 -14.034  24.380  1.00  0.00     0.293 HD
ENDBRANCH   8  26
TORSDOF 6
ENDMDL
MODEL 9
REMARK VINA RESULT:    -6.241      5.149      6.418
REMARK INTER + INTRA:          -7.468
REMARK INTER:                  -7.153
REMARK INTRA:                  -0.315
REMARK UNBOUND:                 0.050
REMARK SMILES O=c1c(O)c(-c2ccc(O)c(O)c2)oc2cc(O)cc(O)c12
REMARK SMILES IDX 5 1 3 2 2 3 1 4 22 5 20 6 19 7 17 8 16 9 15 10 14 11 6 12
REMARK SMILES IDX 7 13 8 14 9 15 13 16 11 17 10 18 12 20 4 22 21 24 18 26
REMARK H PARENT 10 19 12 21 4 23 21 25 18 27
REMARK Flexibility Score: inf
ROOT
ATOM      1  C   UNL     1      14.811 -10.345  28.910  1.00  0.00     0.180 A 
ATOM      2  C   UNL     1      15.002  -9.627  30.103  1.00  0.00     0.208 A 
ATOM      3  C   UNL     1      15.859  -8.515  30.097  1.00  0.00     0.238 A 
ATOM      4  O   UNL     1      15.984  -7.843  31.155  1.00  0.00    -0.285 OA
ATOM      5  C   UNL     1      16.526  -8.145  28.904  1.00  0.00     0.111 A 
ATOM      6  C   UNL     1      17.447  -7.060  28.794  1.00  0.00     0.134 A 
ATOM      7  C   UNL     1      17.947  -6.704  27.535  1.00  0.00     0.093 A 
ATOM      8  C   UNL     1      17.610  -7.435  26.393  1.00  0.00     0.123 A 
ATOM      9  C   UNL     1      16.758  -8.531  26.501  1.00  0.00     0.094 A 
ATOM     10  C   UNL     1      16.215  -8.889  27.737  1.00  0.00     0.146 A 
ATOM     11  O   UNL     1      15.400  -9.934  27.793  1.00  0.00    -0.452 OA
ENDROOT
BRANCH   1  12
ATOM     12  C   UNL     1      13.944 -11.544  28.843  1.00  0.00     0.025 A 
ATOM     13  C   UNL     1      12.567 -11.389  28.615  1.00  0.00     0.016 A 
ATOM     14  C   UNL     1      11.734 -12.506  28.527  1.00  0.00     0.051 A 
ATOM     15  C   UNL     1      12.267 -13.796  28.650  1.00  0.00     0.157 A 
ATOM     16  C   UNL     1      14.478 -12.841  28.945  1.00  0.00     0.062 A 
ATOM     17  C   UNL     1      13.642 -13.964  28.856  1.00  0.00     0.158 A 
BRANCH  15  18
ATOM     18  O   UNL     1      11.438 -14.913  28.565  1.00  0.00    -0.504 OA
ATOM     19  H   UNL     1      10.442 -14.849  28.737  1.00  0.00     0.293 HD
ENDBRANCH  15  18
BRANCH  17  20
ATOM     20  O   UNL     1      14.172 -15.249  28.964  1.00  0.00    -0.504 OA
ATOM     21  H   UNL     1      14.312 -15.835  28.149  1.00  0.00     0.293 HD
ENDBRANCH  17  20
ENDBRANCH   1  12
BRANCH   2  22
ATOM     22  O   UNL     1      14.317  -9.996  31.263  1.00  0.00    -0.502 OA
ATOM     23  H   UNL     1      14.583 -10.800  31.819  1.00  0.00     0.293 HD
ENDBRANCH   2  22
BRANCH   6  24
ATOM     24  O   UNL     1      17.920  -6.324  29.884  1.00  0.00    -0.507 OA
ATOM     25  H   UNL     1      18.840  -6.419  30.286  1.00  0.00     0.293 HD
ENDBRANCH   6  24
BRANCH   8  26
ATOM     26  O   UNL     1      18.125  -7.083  25.147  1.00  0.00    -0.508 OA
ATOM     27  H   UNL     1      19.122  -7.063  24.972  1.00  0.00     0.293 HD
ENDBRANCH   8  26
TORSDOF 6
ENDMDL
