MODEL 1
REMARK VINA RESULT:    -3.817      0.000      0.000
REMARK INTER + INTRA:          -8.717
REMARK INTER:                  -6.941
REMARK INTRA:                  -1.777
REMARK UNBOUND:                -1.777
REMARK SMILES CCCCCCCCCCCCCCCC(=O)[O-]
REMARK SMILES IDX 9 1 10 2 11 3 12 4 13 5 14 6 15 7 16 8 17 9 18 10 8 11 7 12
REMARK SMILES IDX 6 13 5 14 4 15 3 16 2 17 1 18
REMARK H PARENT
REMARK Flexibility Score: inf
ROOT
ATOM      1  C   UNL     1      -5.101  22.839 -12.720  1.00  0.00     0.000 C 
ENDROOT
BRANCH   1   2
ATOM      2  C   UNL     1      -4.928  24.117 -13.554  1.00  0.00     0.000 C 
BRANCH   2   3
ATOM      3  C   UNL     1      -4.446  25.283 -12.677  1.00  0.00     0.000 C 
BRANCH   3   4
ATOM      4  C   UNL     1      -5.303  26.548 -12.850  1.00  0.00     0.000 C 
BRANCH   4   5
ATOM      5  C   UNL     1      -6.548  26.548 -11.951  1.00  0.00     0.000 C 
BRANCH   5   6
ATOM      6  C   UNL     1      -7.832  26.531 -12.793  1.00  0.00     0.006 C 
BRANCH   6   7
ATOM      7  C   UNL     1      -8.427  25.123 -12.917  1.00  0.00     0.053 C 
BRANCH   7   8
ATOM      8  C   UNL     1      -9.747  25.014 -12.217  1.00  0.00     0.041 C 
ATOM      9  O   UNL     1      -9.840  24.376 -11.135  1.00  0.00    -0.550 OA
ATOM     10  O   UNL     1     -10.881  25.586 -12.777  1.00  0.00    -0.550 OA
ENDBRANCH   7   8
ENDBRANCH   6   7
ENDBRANCH   5   6
ENDBRANCH   4   5
ENDBRANCH   3   4
ENDBRANCH   2   3
ENDBRANCH   1   2
BRANCH   1  11
ATOM     11  C   UNL     1      -5.238  23.127 -11.217  1.00  0.00     0.000 C 
BRANCH  11  12
ATOM     12  C   UNL     1      -6.629  22.761 -10.670  1.00  0.00    -0.000 C 
BRANCH  12  13
ATOM     13  C   UNL     1      -7.379  21.768 -11.572  1.00  0.00    -0.000 C 
BRANCH  13  14
ATOM     14  C   UNL     1      -7.388  20.341 -10.998  1.00  0.00    -0.000 C 
BRANCH  14  15
ATOM     15  C   UNL     1      -7.161  20.316  -9.476  1.00  0.00    -0.000 C 
BRANCH  15  16
ATOM     16  C   UNL     1      -6.124  19.267  -9.048  1.00  0.00    -0.000 C 
BRANCH  16  17
ATOM     17  C   UNL     1      -6.616  18.478  -7.829  1.00  0.00    -0.003 C 
ATOM     18  C   UNL     1      -7.775  19.191  -7.140  1.00  0.00     0.004 C 
ENDBRANCH  16  17
ENDBRANCH  15  16
ENDBRANCH  14  15
ENDBRANCH  13  14
ENDBRANCH  12  13
ENDBRANCH  11  12
ENDBRANCH   1  11
TORSDOF 14
ENDMDL
MODEL 2
REMARK VINA RESULT:    -3.803      2.607      6.788
REMARK INTER + INTRA:          -8.692
REMARK INTER:                  -7.121
REMARK INTRA:                  -1.571
REMARK UNBOUND:                -1.777
REMARK SMILES CCCCCCCCCCCCCCCC(=O)[O-]
REMARK SMILES IDX 9 1 10 2 11 3 12 4 13 5 14 6 15 7 16 8 17 9 18 10 8 11 7 12
REMARK SMILES IDX 6 13 5 14 4 15 3 16 2 17 1 18
REMARK H PARENT
REMARK Flexibility Score: inf
ROOT
ATOM      1  C   UNL     1      -6.065  23.215 -12.773  1.00  0.00     0.000 C 
ENDROOT
BRANCH   1   2
ATOM      2  C   UNL     1      -6.636  23.247 -11.348  1.00  0.00     0.000 C 
BRANCH   2   3
ATOM      3  C   UNL     1      -7.414  21.959 -11.039  1.00  0.00     0.000 C 
BRANCH   3   4
ATOM      4  C   UNL     1      -7.111  20.829 -12.037  1.00  0.00     0.000 C 
BRANCH   4   5
ATOM      5  C   UNL     1      -6.025  19.867 -11.531  1.00  0.00     0.000 C 
BRANCH   5   6
ATOM      6  C   UNL     1      -5.823  20.016 -10.016  1.00  0.00     0.006 C 
BRANCH   6   7
ATOM      7  C   UNL     1      -6.023  18.690  -9.270  1.00  0.00     0.053 C 
BRANCH   7   8
ATOM      8  C   UNL     1      -6.932  18.849  -8.090  1.00  0.00     0.041 C 
ATOM      9  O   UNL     1      -7.790  19.769  -8.069  1.00  0.00    -0.550 OA
ATOM     10  O   UNL     1      -6.807  18.000  -6.998  1.00  0.00    -0.550 OA
ENDBRANCH   7   8
ENDBRANCH   6   7
ENDBRANCH   5   6
ENDBRANCH   4   5
ENDBRANCH   3   4
ENDBRANCH   2   3
ENDBRANCH   1   2
BRANCH   1  11
ATOM     11  C   UNL     1      -4.530  23.282 -12.798  1.00  0.00     0.000 C 
BRANCH  11  12
ATOM     12  C   UNL     1      -3.994  24.680 -12.442  1.00  0.00    -0.000 C 
BRANCH  12  13
ATOM     13  C   UNL     1      -4.373  25.744 -13.485  1.00  0.00    -0.000 C 
BRANCH  13  14
ATOM     14  C   UNL     1      -5.313  26.820 -12.913  1.00  0.00    -0.000 C 
BRANCH  14  15
ATOM     15  C   UNL     1      -6.691  26.824 -13.597  1.00  0.00    -0.000 C 
BRANCH  15  16
ATOM     16  C   UNL     1      -7.834  26.488 -12.629  1.00  0.00    -0.000 C 
BRANCH  16  17
ATOM     17  C   UNL     1      -7.486  26.918 -11.199  1.00  0.00    -0.003 C 
ATOM     18  C   UNL     1      -8.492  27.935 -10.668  1.00  0.00     0.004 C 
ENDBRANCH  16  17
ENDBRANCH  15  16
ENDBRANCH  14  15
ENDBRANCH  13  14
ENDBRANCH  12  13
ENDBRANCH  11  12
ENDBRANCH   1  11
TORSDOF 14
ENDMDL
MODEL 3
REMARK VINA RESULT:    -3.783      2.816      5.958
REMARK INTER + INTRA:          -8.655
REMARK INTER:                  -6.477
REMARK INTRA:                  -2.178
REMARK UNBOUND:                -1.777
REMARK SMILES CCCCCCCCCCCCCCCC(=O)[O-]
REMARK SMILES IDX 9 1 10 2 11 3 12 4 13 5 14 6 15 7 16 8 17 9 18 10 8 11 7 12
REMARK SMILES IDX 6 13 5 14 4 15 3 16 2 17 1 18
REMARK H PARENT
REMARK Flexibility Score: inf
ROOT
ATOM      1  C   UNL     1      -5.097  25.235 -13.448  1.00  0.00     0.000 C 
ENDROOT
BRANCH   1   2
ATOM      2  C   UNL     1      -4.548  24.395 -12.286  1.00  0.00     0.000 C 
BRANCH   2   3
ATOM      3  C   UNL     1      -4.969  22.925 -12.425  1.00  0.00     0.000 C 
BRANCH   3   4
ATOM      4  C   UNL     1      -5.602  22.364 -11.140  1.00  0.00     0.000 C 
BRANCH   4   5
ATOM      5  C   UNL     1      -5.965  20.876 -11.259  1.00  0.00     0.000 C 
BRANCH   5   6
ATOM      6  C   UNL     1      -7.083  20.505 -10.274  1.00  0.00     0.006 C 
BRANCH   6   7
ATOM      7  C   UNL     1      -6.543  20.188  -8.874  1.00  0.00     0.053 C 
BRANCH   7   8
ATOM      8  C   UNL     1      -7.345  19.118  -8.197  1.00  0.00     0.041 C 
ATOM      9  O   UNL     1      -7.417  17.966  -8.701  1.00  0.00    -0.550 OA
ATOM     10  O   UNL     1      -8.039  19.404  -7.030  1.00  0.00    -0.550 OA
ENDBRANCH   7   8
ENDBRANCH   6   7
ENDBRANCH   5   6
ENDBRANCH   4   5
ENDBRANCH   3   4
ENDBRANCH   2   3
ENDBRANCH   1   2
BRANCH   1  11
ATOM     11  C   UNL     1      -5.646  26.595 -12.988  1.00  0.00     0.000 C 
BRANCH  11  12
ATOM     12  C   UNL     1      -6.133  26.572 -11.529  1.00  0.00    -0.000 C 
BRANCH  12  13
ATOM     13  C   UNL     1      -7.525  27.203 -11.358  1.00  0.00    -0.000 C 
BRANCH  13  14
ATOM     14  C   UNL     1      -8.527  26.246 -10.688  1.00  0.00    -0.000 C 
BRANCH  14  15
ATOM     15  C   UNL     1      -8.119  24.770 -10.832  1.00  0.00    -0.000 C 
BRANCH  15  16
ATOM     16  C   UNL     1      -9.099  23.965 -11.698  1.00  0.00    -0.000 C 
BRANCH  16  17
ATOM     17  C   UNL     1      -8.487  23.652 -13.069  1.00  0.00    -0.003 C 
ATOM     18  C   UNL     1      -8.787  24.761 -14.073  1.00  0.00     0.004 C 
ENDBRANCH  16  17
ENDBRANCH  15  16
ENDBRANCH  14  15
ENDBRANCH  13  14
ENDBRANCH  12  13
ENDBRANCH  11  12
ENDBRANCH   1  11
TORSDOF 14
ENDMDL
MODEL 4
REMARK VINA RESULT:    -3.777      2.442      3.190
REMARK INTER + INTRA:          -8.645
REMARK INTER:                  -7.362
REMARK INTRA:                  -1.283
REMARK UNBOUND:                -1.777
REMARK SMILES CCCCCCCCCCCCCCCC(=O)[O-]
REMARK SMILES IDX 9 1 10 2 11 3 12 4 13 5 14 6 15 7 16 8 17 9 18 10 8 11 7 12
REMARK SMILES IDX 6 13 5 14 4 15 3 16 2 17 1 18
REMARK H PARENT
REMARK Flexibility Score: inf
ROOT
ATOM      1  C   UNL     1      -4.354  24.950 -13.538  1.00  0.00     0.000 C 
ENDROOT
BRANCH   1   2
ATOM      2  C   UNL     1      -4.992  26.166 -12.852  1.00  0.00     0.000 C 
BRANCH   2   3
ATOM      3  C   UNL     1      -6.331  26.529 -13.511  1.00  0.00     0.000 C 
BRANCH   3   4
ATOM      4  C   UNL     1      -7.466  26.710 -12.490  1.00  0.00     0.000 C 
BRANCH   4   5
ATOM      5  C   UNL     1      -6.949  26.871 -11.052  1.00  0.00     0.000 C 
BRANCH   5   6
ATOM      6  C   UNL     1      -7.469  25.741 -10.152  1.00  0.00     0.006 C 
BRANCH   6   7
ATOM      7  C   UNL     1      -7.464  26.130  -8.668  1.00  0.00     0.053 C 
BRANCH   7   8
ATOM      8  C   UNL     1      -6.198  25.710  -7.987  1.00  0.00     0.041 C 
ATOM      9  O   UNL     1      -5.435  24.869  -8.530  1.00  0.00    -0.550 OA
ATOM     10  O   UNL     1      -5.878  26.223  -6.737  1.00  0.00    -0.550 OA
ENDBRANCH   7   8
ENDBRANCH   6   7
ENDBRANCH   5   6
ENDBRANCH   4   5
ENDBRANCH   3   4
ENDBRANCH   2   3
ENDBRANCH   1   2
BRANCH   1  11
ATOM     11  C   UNL     1      -5.096  23.639 -13.228  1.00  0.00     0.000 C 
BRANCH  11  12
ATOM     12  C   UNL     1      -5.137  23.326 -11.723  1.00  0.00    -0.000 C 
BRANCH  12  13
ATOM     13  C   UNL     1      -6.269  22.354 -11.350  1.00  0.00    -0.000 C 
BRANCH  13  14
ATOM     14  C   UNL     1      -5.741  21.002 -10.842  1.00  0.00    -0.000 C 
BRANCH  14  15
ATOM     15  C   UNL     1      -6.546  20.465  -9.646  1.00  0.00    -0.000 C 
BRANCH  15  16
ATOM     16  C   UNL     1      -6.119  19.050  -9.230  1.00  0.00    -0.000 C 
BRANCH  16  17
ATOM     17  C   UNL     1      -7.233  18.352  -8.440  1.00  0.00    -0.003 C 
ATOM     18  C   UNL     1      -7.708  19.216  -7.275  1.00  0.00     0.004 C 
ENDBRANCH  16  17
ENDBRANCH  15  16
ENDBRANCH  14  15
ENDBRANCH  13  14
ENDBRANCH  12  13
ENDBRANCH  11  12
ENDBRANCH   1  11
TORSDOF 14
ENDMDL
MODEL 5
REMARK VINA RESULT:    -3.760      1.376      2.059
REMARK INTER + INTRA:          -8.613
REMARK INTER:                  -6.645
REMARK INTRA:                  -1.968
REMARK UNBOUND:                -1.777
REMARK SMILES CCCCCCCCCCCCCCCC(=O)[O-]
REMARK SMILES IDX 9 1 10 2 11 3 12 4 13 5 14 6 15 7 16 8 17 9 18 10 8 11 7 12
REMARK SMILES IDX 6 13 5 14 4 15 3 16 2 17 1 18
REMARK H PARENT
REMARK Flexibility Score: inf
ROOT
ATOM      1  C   UNL     1      -4.446  24.597 -14.096  1.00  0.00     0.000 C 
ENDROOT
BRANCH   1   2
ATOM      2  C   UNL     1      -4.219  25.594 -12.951  1.00  0.00     0.000 C 
BRANCH   2   3
ATOM      3  C   UNL     1      -5.368  26.611 -12.873  1.00  0.00     0.000 C 
BRANCH   3   4
ATOM      4  C   UNL     1      -6.129  26.545 -11.538  1.00  0.00     0.000 C 
BRANCH   4   5
ATOM      5  C   UNL     1      -6.062  25.155 -10.886  1.00  0.00     0.000 C 
BRANCH   5   6
ATOM      6  C   UNL     1      -7.445  24.489 -10.871  1.00  0.00     0.006 C 
BRANCH   6   7
ATOM      7  C   UNL     1      -8.001  24.273 -12.284  1.00  0.00     0.053 C 
BRANCH   7   8
ATOM      8  C   UNL     1      -9.128  23.285 -12.293  1.00  0.00     0.041 C 
ATOM      9  O   UNL     1     -10.013  23.325 -11.398  1.00  0.00    -0.550 OA
ATOM     10  O   UNL     1      -9.180  22.300 -13.269  1.00  0.00    -0.550 OA
ENDBRANCH   7   8
ENDBRANCH   6   7
ENDBRANCH   5   6
ENDBRANCH   4   5
ENDBRANCH   3   4
ENDBRANCH   2   3
ENDBRANCH   1   2
BRANCH   1  11
ATOM     11  C   UNL     1      -4.050  23.161 -13.718  1.00  0.00     0.000 C 
BRANCH  11  12
ATOM     12  C   UNL     1      -5.270  22.252 -13.490  1.00  0.00    -0.000 C 
BRANCH  12  13
ATOM     13  C   UNL     1      -5.331  21.686 -12.062  1.00  0.00    -0.000 C 
BRANCH  13  14
ATOM     14  C   UNL     1      -6.374  20.564 -11.917  1.00  0.00    -0.000 C 
BRANCH  14  15
ATOM     15  C   UNL     1      -7.100  20.605 -10.562  1.00  0.00    -0.000 C 
BRANCH  15  16
ATOM     16  C   UNL     1      -6.140  20.479  -9.370  1.00  0.00    -0.000 C 
BRANCH  16  17
ATOM     17  C   UNL     1      -5.915  19.008  -9.002  1.00  0.00    -0.003 C 
ATOM     18  C   UNL     1      -7.166  18.397  -8.379  1.00  0.00     0.004 C 
ENDBRANCH  16  17
ENDBRANCH  15  16
ENDBRANCH  14  15
ENDBRANCH  13  14
ENDBRANCH  12  13
ENDBRANCH  11  12
ENDBRANCH   1  11
TORSDOF 14
ENDMDL
MODEL 6
REMARK VINA RESULT:    -3.759      2.913      6.678
REMARK INTER + INTRA:          -8.611
REMARK INTER:                  -6.680
REMARK INTRA:                  -1.931
REMARK UNBOUND:                -1.777
REMARK SMILES CCCCCCCCCCCCCCCC(=O)[O-]
REMARK SMILES IDX 9 1 10 2 11 3 12 4 13 5 14 6 15 7 16 8 17 9 18 10 8 11 7 12
REMARK SMILES IDX 6 13 5 14 4 15 3 16 2 17 1 18
REMARK H PARENT
REMARK Flexibility Score: inf
ROOT
ATOM      1  C   UNL     1      -7.987  24.446 -10.813  1.00  0.00     0.000 C 
ENDROOT
BRANCH   1   2
ATOM      2  C   UNL     1      -7.881  23.110 -11.562  1.00  0.00     0.000 C 
BRANCH   2   3
ATOM      3  C   UNL     1      -6.502  22.960 -12.223  1.00  0.00     0.000 C 
BRANCH   3   4
ATOM      4  C   UNL     1      -5.666  21.829 -11.601  1.00  0.00     0.000 C 
BRANCH   4   5
ATOM      5  C   UNL     1      -6.364  20.462 -11.682  1.00  0.00     0.000 C 
BRANCH   5   6
ATOM      6  C   UNL     1      -6.055  19.615 -10.439  1.00  0.00     0.006 C 
BRANCH   6   7
ATOM      7  C   UNL     1      -6.568  20.267  -9.149  1.00  0.00     0.053 C 
BRANCH   7   8
ATOM      8  C   UNL     1      -7.305  19.288  -8.286  1.00  0.00     0.041 C 
ATOM      9  O   UNL     1      -7.734  19.637  -7.155  1.00  0.00    -0.550 OA
ATOM     10  O   UNL     1      -7.487  17.981  -8.718  1.00  0.00    -0.550 OA
ENDBRANCH   7   8
ENDBRANCH   6   7
ENDBRANCH   5   6
ENDBRANCH   4   5
ENDBRANCH   3   4
ENDBRANCH   2   3
ENDBRANCH   1   2
BRANCH   1  11
ATOM     11  C   UNL     1      -6.736  24.757  -9.976  1.00  0.00     0.000 C 
BRANCH  11  12
ATOM     12  C   UNL     1      -6.418  26.262  -9.926  1.00  0.00    -0.000 C 
BRANCH  12  13
ATOM     13  C   UNL     1      -6.584  26.949 -11.291  1.00  0.00    -0.000 C 
BRANCH  13  14
ATOM     14  C   UNL     1      -5.425  26.636 -12.253  1.00  0.00    -0.000 C 
BRANCH  14  15
ATOM     15  C   UNL     1      -5.910  26.315 -13.677  1.00  0.00    -0.000 C 
BRANCH  15  16
ATOM     16  C   UNL     1      -7.367  26.738 -13.917  1.00  0.00    -0.000 C 
BRANCH  16  17
ATOM     17  C   UNL     1      -8.061  25.780 -14.892  1.00  0.00    -0.003 C 
ATOM     18  C   UNL     1      -9.332  25.196 -14.282  1.00  0.00     0.004 C 
ENDBRANCH  16  17
ENDBRANCH  15  16
ENDBRANCH  14  15
ENDBRANCH  13  14
ENDBRANCH  12  13
ENDBRANCH  11  12
ENDBRANCH   1  11
TORSDOF 14
ENDMDL
MODEL 7
REMARK VINA RESULT:    -3.682      2.250      3.431
REMARK INTER + INTRA:          -8.473
REMARK INTER:                  -6.437
REMARK INTRA:                  -2.036
REMARK UNBOUND:                -1.777
REMARK SMILES CCCCCCCCCCCCCCCC(=O)[O-]
REMARK SMILES IDX 9 1 10 2 11 3 12 4 13 5 14 6 15 7 16 8 17 9 18 10 8 11 7 12
REMARK SMILES IDX 6 13 5 14 4 15 3 16 2 17 1 18
REMARK H PARENT
REMARK Flexibility Score: inf
ROOT
ATOM      1  C   UNL     1      -9.576  21.239 -12.907  1.00  0.00     0.000 C 
ENDROOT
BRANCH   1   2
ATOM      2  C   UNL     1      -8.976  21.297 -14.319  1.00  0.00     0.000 C 
BRANCH   2   3
ATOM      3  C   UNL     1      -9.377  22.596 -15.033  1.00  0.00     0.000 C 
BRANCH   3   4
ATOM      4  C   UNL     1      -8.558  23.809 -14.563  1.00  0.00     0.000 C 
BRANCH   4   5
ATOM      5  C   UNL     1      -7.044  23.548 -14.589  1.00  0.00     0.000 C 
BRANCH   5   6
ATOM      6  C   UNL     1      -6.397  23.941 -13.253  1.00  0.00     0.006 C 
BRANCH   6   7
ATOM      7  C   UNL     1      -7.323  24.808 -12.392  1.00  0.00     0.053 C 
BRANCH   7   8
ATOM      8  C   UNL     1      -6.867  26.235 -12.348  1.00  0.00     0.041 C 
ATOM      9  O   UNL     1      -6.891  26.875 -11.264  1.00  0.00    -0.550 OA
ATOM     10  O   UNL     1      -6.448  26.866 -13.511  1.00  0.00    -0.550 OA
ENDBRANCH   7   8
ENDBRANCH   6   7
ENDBRANCH   5   6
ENDBRANCH   4   5
ENDBRANCH   3   4
ENDBRANCH   2   3
ENDBRANCH   1   2
BRANCH   1  11
ATOM     11  C   UNL     1      -8.540  20.855 -11.839  1.00  0.00     0.000 C 
BRANCH  11  12
ATOM     12  C   UNL     1      -7.175  20.485 -12.445  1.00  0.00    -0.000 C 
BRANCH  12  13
ATOM     13  C   UNL     1      -6.012  20.690 -11.461  1.00  0.00    -0.000 C 
BRANCH  13  14
ATOM     14  C   UNL     1      -6.452  21.404 -10.171  1.00  0.00    -0.000 C 
BRANCH  14  15
ATOM     15  C   UNL     1      -6.288  20.521  -8.922  1.00  0.00    -0.000 C 
BRANCH  15  16
ATOM     16  C   UNL     1      -6.223  19.025  -9.259  1.00  0.00    -0.000 C 
BRANCH  16  17
ATOM     17  C   UNL     1      -7.245  18.233  -8.435  1.00  0.00    -0.003 C 
ATOM     18  C   UNL     1      -7.769  19.058  -7.264  1.00  0.00     0.004 C 
ENDBRANCH  16  17
ENDBRANCH  15  16
ENDBRANCH  14  15
ENDBRANCH  13  14
ENDBRANCH  12  13
ENDBRANCH  11  12
ENDBRANCH   1  11
TORSDOF 14
ENDMDL
MODEL 8
REMARK VINA RESULT:    -3.673      7.255      9.106
REMARK INTER + INTRA:          -8.456
REMARK INTER:                  -6.151
REMARK INTRA:                  -2.305
REMARK UNBOUND:                -1.777
REMARK SMILES CCCCCCCCCCCCCCCC(=O)[O-]
REMARK SMILES IDX 9 1 10 2 11 3 12 4 13 5 14 6 15 7 16 8 17 9 18 10 8 11 7 12
REMARK SMILES IDX 6 13 5 14 4 15 3 16 2 17 1 18
REMARK H PARENT
REMARK Flexibility Score: inf
ROOT
ATOM      1  C   UNL     1      -8.052  28.804  -9.347  1.00  0.00     0.000 C 
ENDROOT
BRANCH   1   2
ATOM      2  C   UNL     1      -8.664  30.046 -10.009  1.00  0.00     0.000 C 
BRANCH   2   3
ATOM      3  C   UNL     1     -10.119  30.246  -9.561  1.00  0.00     0.000 C 
BRANCH   3   4
ATOM      4  C   UNL     1     -10.893  28.922  -9.450  1.00  0.00     0.000 C 
BRANCH   4   5
ATOM      5  C   UNL     1     -12.415  29.129  -9.385  1.00  0.00     0.000 C 
BRANCH   5   6
ATOM      6  C   UNL     1     -12.892  29.237  -7.930  1.00  0.00     0.006 C 
BRANCH   6   7
ATOM      7  C   UNL     1     -12.478  28.021  -7.091  1.00  0.00     0.053 C 
BRANCH   7   8
ATOM      8  C   UNL     1     -12.669  28.266  -5.626  1.00  0.00     0.041 C 
ATOM      9  O   UNL     1     -13.458  29.164  -5.230  1.00  0.00    -0.550 OA
ATOM     10  O   UNL     1     -11.949  27.525  -4.698  1.00  0.00    -0.550 OA
ENDBRANCH   7   8
ENDBRANCH   6   7
ENDBRANCH   5   6
ENDBRANCH   4   5
ENDBRANCH   3   4
ENDBRANCH   2   3
ENDBRANCH   1   2
BRANCH   1  11
ATOM     11  C   UNL     1      -6.556  28.975  -9.036  1.00  0.00     0.000 C 
BRANCH  11  12
ATOM     12  C   UNL     1      -6.124  30.452  -9.006  1.00  0.00    -0.000 C 
BRANCH  12  13
ATOM     13  C   UNL     1      -5.330  30.812  -7.740  1.00  0.00    -0.000 C 
BRANCH  13  14
ATOM     14  C   UNL     1      -6.105  31.761  -6.809  1.00  0.00    -0.000 C 
BRANCH  14  15
ATOM     15  C   UNL     1      -7.143  31.024  -5.945  1.00  0.00    -0.000 C 
BRANCH  15  16
ATOM     16  C   UNL     1      -8.582  31.471  -6.237  1.00  0.00    -0.000 C 
BRANCH  16  17
ATOM     17  C   UNL     1      -9.552  30.285  -6.149  1.00  0.00    -0.003 C 
ATOM     18  C   UNL     1      -8.831  29.014  -5.711  1.00  0.00     0.004 C 
ENDBRANCH  16  17
ENDBRANCH  15  16
ENDBRANCH  14  15
ENDBRANCH  13  14
ENDBRANCH  12  13
ENDBRANCH  11  12
ENDBRANCH   1  11
TORSDOF 14
ENDMDL
MODEL 9
REMARK VINA RESULT:    -3.657      2.234      3.151
REMARK INTER + INTRA:          -8.426
REMARK INTER:                  -6.671
REMARK INTRA:                  -1.755
REMARK UNBOUND:                -1.777
REMARK SMILES CCCCCCCCCCCCCCCC(=O)[O-]
REMARK SMILES IDX 9 1 10 2 11 3 12 4 13 5 14 6 15 7 16 8 17 9 18 10 8 11 7 12
REMARK SMILES IDX 6 13 5 14 4 15 3 16 2 17 1 18
REMARK H PARENT
REMARK Flexibility Score: inf
ROOT
ATOM      1  C   UNL     1      -5.869  26.261 -11.816  1.00  0.00     0.000 C 
ENDROOT
BRANCH   1   2
ATOM      2  C   UNL     1      -5.756  26.512 -13.326  1.00  0.00     0.000 C 
BRANCH   2   3
ATOM      3  C   UNL     1      -7.128  26.392 -14.007  1.00  0.00     0.000 C 
BRANCH   3   4
ATOM      4  C   UNL     1      -7.237  25.152 -14.910  1.00  0.00     0.000 C 
BRANCH   4   5
ATOM      5  C   UNL     1      -5.900  24.412 -15.064  1.00  0.00     0.000 C 
BRANCH   5   6
ATOM      6  C   UNL     1      -6.088  22.898 -14.894  1.00  0.00     0.006 C 
BRANCH   6   7
ATOM      7  C   UNL     1      -7.550  22.521 -14.622  1.00  0.00     0.053 C 
BRANCH   7   8
ATOM      8  C   UNL     1      -7.659  21.257 -13.826  1.00  0.00     0.041 C 
ATOM      9  O   UNL     1      -6.792  20.353 -13.950  1.00  0.00    -0.550 OA
ATOM     10  O   UNL     1      -8.738  21.063 -12.973  1.00  0.00    -0.550 OA
ENDBRANCH   7   8
ENDBRANCH   6   7
ENDBRANCH   5   6
ENDBRANCH   4   5
ENDBRANCH   3   4
ENDBRANCH   2   3
ENDBRANCH   1   2
BRANCH   1  11
ATOM     11  C   UNL     1      -5.263  24.913 -11.393  1.00  0.00     0.000 C 
BRANCH  11  12
ATOM     12  C   UNL     1      -6.326  23.815 -11.217  1.00  0.00    -0.000 C 
BRANCH  12  13
ATOM     13  C   UNL     1      -5.715  22.409 -11.105  1.00  0.00    -0.000 C 
BRANCH  13  14
ATOM     14  C   UNL     1      -6.532  21.483 -10.187  1.00  0.00    -0.000 C 
BRANCH  14  15
ATOM     15  C   UNL     1      -6.213  19.996 -10.415  1.00  0.00    -0.000 C 
BRANCH  15  16
ATOM     16  C   UNL     1      -5.866  19.257  -9.114  1.00  0.00    -0.000 C 
BRANCH  16  17
ATOM     17  C   UNL     1      -7.047  18.404  -8.637  1.00  0.00    -0.003 C 
ATOM     18  C   UNL     1      -7.667  18.981  -7.367  1.00  0.00     0.004 C 
ENDBRANCH  16  17
ENDBRANCH  15  16
ENDBRANCH  14  15
ENDBRANCH  13  14
ENDBRANCH  12  13
ENDBRANCH  11  12
ENDBRANCH   1  11
TORSDOF 14
ENDMDL
