MODEL 1
REMARK VINA RESULT:    -0.025      0.000      0.000
REMARK INTER + INTRA:          -0.584
REMARK INTER:                  -0.046
REMARK INTRA:                  -0.538
REMARK UNBOUND:                -0.538
REMARK SMILES CCCCCCCCCCCCCCCC(=O)[O-]
REMARK SMILES IDX 9 1 10 2 11 3 12 4 13 5 14 6 15 7 16 8 17 9 18 10 8 11 7 12
REMARK SMILES IDX 6 13 5 14 4 15 3 16 2 17 1 18
REMARK H PARENT
REMARK Flexibility Score: inf
ROOT
ATOM      1  C   UNL     1       3.182  43.762  11.773  1.00  0.00     0.000 C 
ENDROOT
BRANCH   1   2
ATOM      2  C   UNL     1       3.945  44.773  10.897  1.00  0.00     0.000 C 
BRANCH   2   3
ATOM      3  C   UNL     1       4.996  44.160   9.949  1.00  0.00     0.000 C 
BRANCH   3   4
ATOM      4  C   UNL     1       6.335  44.920   9.876  1.00  0.00     0.000 C 
BRANCH   4   5
ATOM      5  C   UNL     1       7.560  44.124  10.361  1.00  0.00     0.000 C 
BRANCH   5   6
ATOM      6  C   UNL     1       7.197  42.721  10.870  1.00  0.00     0.006 C 
BRANCH   6   7
ATOM      7  C   UNL     1       7.705  42.507  12.298  1.00  0.00     0.053 C 
BRANCH   7   8
ATOM      8  C   UNL     1       6.661  42.906  13.292  1.00  0.00     0.041 C 
ATOM      9  O   UNL     1       6.333  42.119  14.218  1.00  0.00    -0.550 OA
ATOM     10  O   UNL     1       6.013  44.129  13.167  1.00  0.00    -0.550 OA
ENDBRANCH   7   8
ENDBRANCH   6   7
ENDBRANCH   5   6
ENDBRANCH   4   5
ENDBRANCH   3   4
ENDBRANCH   2   3
ENDBRANCH   1   2
BRANCH   1  11
ATOM     11  C   UNL     1       2.273  42.830  10.955  1.00  0.00     0.000 C 
BRANCH  11  12
ATOM     12  C   UNL     1       0.790  43.242  11.005  1.00  0.00    -0.000 C 
BRANCH  12  13
ATOM     13  C   UNL     1       0.139  43.193  12.400  1.00  0.00    -0.000 C 
BRANCH  13  14
ATOM     14  C   UNL     1       0.138  44.558  13.110  1.00  0.00    -0.000 C 
BRANCH  14  15
ATOM     15  C   UNL     1      -0.527  44.500  14.495  1.00  0.00    -0.000 C 
BRANCH  15  16
ATOM     16  C   UNL     1      -2.048  44.727  14.428  1.00  0.00    -0.000 C 
BRANCH  16  17
ATOM     17  C   UNL     1      -2.840  43.624  15.148  1.00  0.00    -0.003 C 
ATOM     18  C   UNL     1      -2.783  42.282  14.419  1.00  0.00     0.004 C 
ENDBRANCH  16  17
ENDBRANCH  15  16
ENDBRANCH  14  15
ENDBRANCH  13  14
ENDBRANCH  12  13
ENDBRANCH  11  12
ENDBRANCH   1  11
TORSDOF 14
ENDMDL
MODEL 2
REMARK VINA RESULT:     0.041      1.427      1.833
REMARK INTER + INTRA:          -0.464
REMARK INTER:                   0.319
REMARK INTRA:                  -0.783
REMARK UNBOUND:                -0.538
REMARK SMILES CCCCCCCCCCCCCCCC(=O)[O-]
REMARK SMILES IDX 9 1 10 2 11 3 12 4 13 5 14 6 15 7 16 8 17 9 18 10 8 11 7 12
REMARK SMILES IDX 6 13 5 14 4 15 3 16 2 17 1 18
REMARK H PARENT
REMARK Flexibility Score: inf
ROOT
ATOM      1  C   UNL     1       2.653  43.851  10.193  1.00  0.00     0.000 C 
ENDROOT
BRANCH   1   2
ATOM      2  C   UNL     1       4.100  43.430   9.875  1.00  0.00     0.000 C 
BRANCH   2   3
ATOM      3  C   UNL     1       5.190  44.408  10.359  1.00  0.00     0.000 C 
BRANCH   3   4
ATOM      4  C   UNL     1       4.885  45.125  11.689  1.00  0.00     0.000 C 
BRANCH   4   5
ATOM      5  C   UNL     1       5.828  44.765  12.851  1.00  0.00     0.000 C 
BRANCH   5   6
ATOM      6  C   UNL     1       5.642  43.323  13.345  1.00  0.00     0.006 C 
BRANCH   6   7
ATOM      7  C   UNL     1       6.961  42.547  13.280  1.00  0.00     0.053 C 
BRANCH   7   8
ATOM      8  C   UNL     1       7.583  42.684  11.927  1.00  0.00     0.041 C 
ATOM      9  O   UNL     1       7.395  41.801  11.050  1.00  0.00    -0.550 OA
ATOM     10  O   UNL     1       8.413  43.764  11.649  1.00  0.00    -0.550 OA
ENDBRANCH   7   8
ENDBRANCH   6   7
ENDBRANCH   5   6
ENDBRANCH   4   5
ENDBRANCH   3   4
ENDBRANCH   2   3
ENDBRANCH   1   2
BRANCH   1  11
ATOM     11  C   UNL     1       1.705  42.651  10.359  1.00  0.00     0.000 C 
BRANCH  11  12
ATOM     12  C   UNL     1       0.591  42.904  11.392  1.00  0.00    -0.000 C 
BRANCH  12  13
ATOM     13  C   UNL     1       1.023  43.677  12.652  1.00  0.00    -0.000 C 
BRANCH  13  14
ATOM     14  C   UNL     1      -0.044  44.672  13.142  1.00  0.00    -0.000 C 
BRANCH  14  15
ATOM     15  C   UNL     1      -0.606  44.298  14.523  1.00  0.00    -0.000 C 
BRANCH  15  16
ATOM     16  C   UNL     1      -2.067  43.819  14.454  1.00  0.00    -0.000 C 
BRANCH  16  17
ATOM     17  C   UNL     1      -2.181  42.291  14.337  1.00  0.00    -0.003 C 
ATOM     18  C   UNL     1      -3.553  41.765  14.758  1.00  0.00     0.004 C 
ENDBRANCH  16  17
ENDBRANCH  15  16
ENDBRANCH  14  15
ENDBRANCH  13  14
ENDBRANCH  12  13
ENDBRANCH  11  12
ENDBRANCH   1  11
TORSDOF 14
ENDMDL
MODEL 3
REMARK VINA RESULT:     0.074      3.060      7.496
REMARK INTER + INTRA:          -0.404
REMARK INTER:                  -0.349
REMARK INTRA:                  -0.055
REMARK UNBOUND:                -0.538
REMARK SMILES CCCCCCCCCCCCCCCC(=O)[O-]
REMARK SMILES IDX 9 1 10 2 11 3 12 4 13 5 14 6 15 7 16 8 17 9 18 10 8 11 7 12
REMARK SMILES IDX 6 13 5 14 4 15 3 16 2 17 1 18
REMARK H PARENT
REMARK Flexibility Score: inf
ROOT
ATOM      1  C   UNL     1       3.855  43.843  10.988  1.00  0.00     0.000 C 
ENDROOT
BRANCH   1   2
ATOM      2  C   UNL     1       2.770  43.618   9.918  1.00  0.00     0.000 C 
BRANCH   2   3
ATOM      3  C   UNL     1       1.974  42.304  10.055  1.00  0.00     0.000 C 
BRANCH   3   4
ATOM      4  C   UNL     1       0.514  42.467  10.523  1.00  0.00     0.000 C 
BRANCH   4   5
ATOM      5  C   UNL     1       0.284  43.583  11.557  1.00  0.00     0.000 C 
BRANCH   5   6
ATOM      6  C   UNL     1      -0.379  43.076  12.846  1.00  0.00     0.006 C 
BRANCH   6   7
ATOM      7  C   UNL     1      -0.635  44.229  13.820  1.00  0.00     0.053 C 
BRANCH   7   8
ATOM      8  C   UNL     1      -1.931  44.029  14.540  1.00  0.00     0.041 C 
ATOM      9  O   UNL     1      -2.423  42.876  14.651  1.00  0.00    -0.550 OA
ATOM     10  O   UNL     1      -2.621  45.123  15.048  1.00  0.00    -0.550 OA
ENDBRANCH   7   8
ENDBRANCH   6   7
ENDBRANCH   5   6
ENDBRANCH   4   5
ENDBRANCH   3   4
ENDBRANCH   2   3
ENDBRANCH   1   2
BRANCH   1  11
ATOM     11  C   UNL     1       4.674  45.122  10.747  1.00  0.00     0.000 C 
BRANCH  11  12
ATOM     12  C   UNL     1       6.131  45.003  11.232  1.00  0.00    -0.000 C 
BRANCH  12  13
ATOM     13  C   UNL     1       7.071  44.212  10.305  1.00  0.00    -0.000 C 
BRANCH  13  14
ATOM     14  C   UNL     1       6.705  42.721  10.208  1.00  0.00    -0.000 C 
BRANCH  14  15
ATOM     15  C   UNL     1       7.596  41.837  11.096  1.00  0.00    -0.000 C 
BRANCH  15  16
ATOM     16  C   UNL     1       8.096  42.576  12.350  1.00  0.00    -0.000 C 
BRANCH  16  17
ATOM     17  C   UNL     1       7.240  42.277  13.591  1.00  0.00    -0.003 C 
ATOM     18  C   UNL     1       5.879  42.971  13.553  1.00  0.00     0.004 C 
ENDBRANCH  16  17
ENDBRANCH  15  16
ENDBRANCH  14  15
ENDBRANCH  13  14
ENDBRANCH  12  13
ENDBRANCH  11  12
ENDBRANCH   1  11
TORSDOF 14
ENDMDL
MODEL 4
REMARK VINA RESULT:     0.977      1.061      1.813
REMARK INTER + INTRA:           1.239
REMARK INTER:                   1.235
REMARK INTRA:                   0.004
REMARK UNBOUND:                -0.538
REMARK SMILES CCCCCCCCCCCCCCCC(=O)[O-]
REMARK SMILES IDX 9 1 10 2 11 3 12 4 13 5 14 6 15 7 16 8 17 9 18 10 8 11 7 12
REMARK SMILES IDX 6 13 5 14 4 15 3 16 2 17 1 18
REMARK H PARENT
REMARK Flexibility Score: inf
ROOT
ATOM      1  C   UNL     1       1.543  42.787  10.947  1.00  0.00     0.000 C 
ENDROOT
BRANCH   1   2
ATOM      2  C   UNL     1       2.630  43.051   9.888  1.00  0.00     0.000 C 
BRANCH   2   3
ATOM      3  C   UNL     1       4.027  43.385  10.448  1.00  0.00     0.000 C 
BRANCH   3   4
ATOM      4  C   UNL     1       4.496  44.836  10.220  1.00  0.00     0.000 C 
BRANCH   4   5
ATOM      5  C   UNL     1       6.015  45.054  10.340  1.00  0.00     0.000 C 
BRANCH   5   6
ATOM      6  C   UNL     1       6.830  43.838   9.878  1.00  0.00     0.006 C 
BRANCH   6   7
ATOM      7  C   UNL     1       6.645  42.657  10.834  1.00  0.00     0.053 C 
BRANCH   7   8
ATOM      8  C   UNL     1       7.093  43.024  12.214  1.00  0.00     0.041 C 
ATOM      9  O   UNL     1       8.317  43.189  12.460  1.00  0.00    -0.550 OA
ATOM     10  O   UNL     1       6.163  43.136  13.241  1.00  0.00    -0.550 OA
ENDBRANCH   7   8
ENDBRANCH   6   7
ENDBRANCH   5   6
ENDBRANCH   4   5
ENDBRANCH   3   4
ENDBRANCH   2   3
ENDBRANCH   1   2
BRANCH   1  11
ATOM     11  C   UNL     1       1.646  43.734  12.155  1.00  0.00     0.000 C 
BRANCH  11  12
ATOM     12  C   UNL     1       0.284  44.005  12.822  1.00  0.00    -0.000 C 
BRANCH  12  13
ATOM     13  C   UNL     1       0.283  45.112  13.892  1.00  0.00    -0.000 C 
BRANCH  13  14
ATOM     14  C   UNL     1      -0.721  44.848  15.028  1.00  0.00    -0.000 C 
BRANCH  14  15
ATOM     15  C   UNL     1      -2.173  45.125  14.606  1.00  0.00    -0.000 C 
BRANCH  15  16
ATOM     16  C   UNL     1      -3.090  43.907  14.812  1.00  0.00    -0.000 C 
BRANCH  16  17
ATOM     17  C   UNL     1      -2.302  42.601  14.998  1.00  0.00    -0.003 C 
ATOM     18  C   UNL     1      -2.927  41.420  14.256  1.00  0.00     0.004 C 
ENDBRANCH  16  17
ENDBRANCH  15  16
ENDBRANCH  14  15
ENDBRANCH  13  14
ENDBRANCH  12  13
ENDBRANCH  11  12
ENDBRANCH   1  11
TORSDOF 14
ENDMDL
MODEL 5
REMARK VINA RESULT:     1.384      3.006      7.882
REMARK INTER + INTRA:           1.978
REMARK INTER:                   2.774
REMARK INTRA:                  -0.796
REMARK UNBOUND:                -0.538
REMARK SMILES CCCCCCCCCCCCCCCC(=O)[O-]
REMARK SMILES IDX 9 1 10 2 11 3 12 4 13 5 14 6 15 7 16 8 17 9 18 10 8 11 7 12
REMARK SMILES IDX 6 13 5 14 4 15 3 16 2 17 1 18
REMARK H PARENT
REMARK Flexibility Score: inf
ROOT
ATOM      1  C   UNL     1       2.283  43.642  10.514  1.00  0.00     0.000 C 
ENDROOT
BRANCH   1   2
ATOM      2  C   UNL     1       2.330  43.633  12.054  1.00  0.00     0.000 C 
BRANCH   2   3
ATOM      3  C   UNL     1       1.382  44.633  12.746  1.00  0.00     0.000 C 
BRANCH   3   4
ATOM      4  C   UNL     1       0.045  44.040  13.233  1.00  0.00     0.000 C 
BRANCH   4   5
ATOM      5  C   UNL     1      -0.567  44.740  14.460  1.00  0.00     0.000 C 
BRANCH   5   6
ATOM      6  C   UNL     1      -2.090  44.909  14.353  1.00  0.00     0.006 C 
BRANCH   6   7
ATOM      7  C   UNL     1      -2.818  43.879  15.222  1.00  0.00     0.053 C 
BRANCH   7   8
ATOM      8  C   UNL     1      -2.462  42.490  14.796  1.00  0.00     0.041 C 
ATOM      9  O   UNL     1      -2.969  41.996  13.755  1.00  0.00    -0.550 OA
ATOM     10  O   UNL     1      -1.609  41.720  15.577  1.00  0.00    -0.550 OA
ENDBRANCH   7   8
ENDBRANCH   6   7
ENDBRANCH   5   6
ENDBRANCH   4   5
ENDBRANCH   3   4
ENDBRANCH   2   3
ENDBRANCH   1   2
BRANCH   1  11
ATOM     11  C   UNL     1       3.682  43.625   9.875  1.00  0.00     0.000 C 
BRANCH  11  12
ATOM     12  C   UNL     1       4.373  45.002   9.906  1.00  0.00    -0.000 C 
BRANCH  12  13
ATOM     13  C   UNL     1       5.905  44.967  10.055  1.00  0.00    -0.000 C 
BRANCH  13  14
ATOM     14  C   UNL     1       6.478  43.539  10.031  1.00  0.00    -0.000 C 
BRANCH  14  15
ATOM     15  C   UNL     1       7.892  43.463  10.630  1.00  0.00    -0.000 C 
BRANCH  15  16
ATOM     16  C   UNL     1       7.881  43.448  12.168  1.00  0.00    -0.000 C 
BRANCH  16  17
ATOM     17  C   UNL     1       6.915  42.399  12.740  1.00  0.00    -0.003 C 
ATOM     18  C   UNL     1       6.129  42.912  13.946  1.00  0.00     0.004 C 
ENDBRANCH  16  17
ENDBRANCH  15  16
ENDBRANCH  14  15
ENDBRANCH  13  14
ENDBRANCH  12  13
ENDBRANCH  11  12
ENDBRANCH   1  11
TORSDOF 14
ENDMDL
MODEL 6
REMARK VINA RESULT:     1.971      3.132      7.054
REMARK INTER + INTRA:           3.046
REMARK INTER:                   1.952
REMARK INTRA:                   1.094
REMARK UNBOUND:                -0.538
REMARK SMILES CCCCCCCCCCCCCCCC(=O)[O-]
REMARK SMILES IDX 9 1 10 2 11 3 12 4 13 5 14 6 15 7 16 8 17 9 18 10 8 11 7 12
REMARK SMILES IDX 6 13 5 14 4 15 3 16 2 17 1 18
REMARK H PARENT
REMARK Flexibility Score: inf
ROOT
ATOM      1  C   UNL     1       5.050  43.707  13.299  1.00  0.00     0.000 C 
ENDROOT
BRANCH   1   2
ATOM      2  C   UNL     1       3.706  43.935  12.582  1.00  0.00     0.000 C 
BRANCH   2   3
ATOM      3  C   UNL     1       3.785  44.767  11.286  1.00  0.00     0.000 C 
BRANCH   3   4
ATOM      4  C   UNL     1       4.106  43.965  10.009  1.00  0.00     0.000 C 
BRANCH   4   5
ATOM      5  C   UNL     1       3.785  42.462  10.089  1.00  0.00     0.000 C 
BRANCH   5   6
ATOM      6  C   UNL     1       2.295  42.158   9.875  1.00  0.00     0.006 C 
BRANCH   6   7
ATOM      7  C   UNL     1       1.424  43.327  10.345  1.00  0.00     0.053 C 
BRANCH   7   8
ATOM      8  C   UNL     1       0.321  42.837  11.230  1.00  0.00     0.041 C 
ATOM      9  O   UNL     1       0.051  43.442  12.300  1.00  0.00    -0.550 OA
ATOM     10  O   UNL     1      -0.376  41.682  10.897  1.00  0.00    -0.550 OA
ENDBRANCH   7   8
ENDBRANCH   6   7
ENDBRANCH   5   6
ENDBRANCH   4   5
ENDBRANCH   3   4
ENDBRANCH   2   3
ENDBRANCH   1   2
BRANCH   1  11
ATOM     11  C   UNL     1       5.027  42.488  14.236  1.00  0.00     0.000 C 
BRANCH  11  12
ATOM     12  C   UNL     1       6.428  42.091  14.738  1.00  0.00    -0.000 C 
BRANCH  12  13
ATOM     13  C   UNL     1       7.453  41.760  13.638  1.00  0.00    -0.000 C 
BRANCH  13  14
ATOM     14  C   UNL     1       7.391  42.733  12.448  1.00  0.00    -0.000 C 
BRANCH  14  15
ATOM     15  C   UNL     1       7.675  42.040  11.106  1.00  0.00    -0.000 C 
BRANCH  15  16
ATOM     16  C   UNL     1       7.133  42.834   9.905  1.00  0.00    -0.000 C 
BRANCH  16  17
ATOM     17  C   UNL     1       7.118  44.350  10.159  1.00  0.00    -0.003 C 
ATOM     18  C   UNL     1       8.522  44.948  10.253  1.00  0.00     0.004 C 
ENDBRANCH  16  17
ENDBRANCH  15  16
ENDBRANCH  14  15
ENDBRANCH  13  14
ENDBRANCH  12  13
ENDBRANCH  11  12
ENDBRANCH   1  11
TORSDOF 14
ENDMDL
MODEL 7
REMARK VINA RESULT:     2.217      2.866      7.666
REMARK INTER + INTRA:           3.494
REMARK INTER:                   2.082
REMARK INTRA:                   1.413
REMARK UNBOUND:                -0.538
REMARK SMILES CCCCCCCCCCCCCCCC(=O)[O-]
REMARK SMILES IDX 9 1 10 2 11 3 12 4 13 5 14 6 15 7 16 8 17 9 18 10 8 11 7 12
REMARK SMILES IDX 6 13 5 14 4 15 3 16 2 17 1 18
REMARK H PARENT
REMARK Flexibility Score: inf
ROOT
ATOM      1  C   UNL     1       4.697  43.944  12.091  1.00  0.00     0.000 C 
ENDROOT
BRANCH   1   2
ATOM      2  C   UNL     1       3.200  44.247  11.898  1.00  0.00     0.000 C 
BRANCH   2   3
ATOM      3  C   UNL     1       2.567  43.650  10.624  1.00  0.00     0.000 C 
BRANCH   3   4
ATOM      4  C   UNL     1       1.425  42.644  10.868  1.00  0.00     0.000 C 
BRANCH   4   5
ATOM      5  C   UNL     1       0.106  43.266  11.360  1.00  0.00     0.000 C 
BRANCH   5   6
ATOM      6  C   UNL     1       0.133  43.617  12.855  1.00  0.00     0.006 C 
BRANCH   6   7
ATOM      7  C   UNL     1      -1.173  43.203  13.539  1.00  0.00     0.053 C 
BRANCH   7   8
ATOM      8  C   UNL     1      -1.611  44.251  14.512  1.00  0.00     0.041 C 
ATOM      9  O   UNL     1      -2.834  44.413  14.763  1.00  0.00    -0.550 OA
ATOM     10  O   UNL     1      -0.670  45.084  15.107  1.00  0.00    -0.550 OA
ENDBRANCH   7   8
ENDBRANCH   6   7
ENDBRANCH   5   6
ENDBRANCH   4   5
ENDBRANCH   3   4
ENDBRANCH   2   3
ENDBRANCH   1   2
BRANCH   1  11
ATOM     11  C   UNL     1       5.057  43.627  13.552  1.00  0.00     0.000 C 
BRANCH  11  12
ATOM     12  C   UNL     1       6.430  42.943  13.697  1.00  0.00    -0.000 C 
BRANCH  12  13
ATOM     13  C   UNL     1       7.091  42.506  12.376  1.00  0.00    -0.000 C 
BRANCH  13  14
ATOM     14  C   UNL     1       8.435  43.210  12.117  1.00  0.00    -0.000 C 
BRANCH  14  15
ATOM     15  C   UNL     1       8.633  43.570  10.635  1.00  0.00    -0.000 C 
BRANCH  15  16
ATOM     16  C   UNL     1       8.104  44.974  10.295  1.00  0.00    -0.000 C 
BRANCH  16  17
ATOM     17  C   UNL     1       6.620  44.964   9.898  1.00  0.00    -0.003 C 
ATOM     18  C   UNL     1       6.022  43.558   9.875  1.00  0.00     0.004 C 
ENDBRANCH  16  17
ENDBRANCH  15  16
ENDBRANCH  14  15
ENDBRANCH  13  14
ENDBRANCH  12  13
ENDBRANCH  11  12
ENDBRANCH   1  11
TORSDOF 14
ENDMDL
