MODEL 1
REMARK VINA RESULT:    -3.540      0.000      0.000
REMARK INTER + INTRA:          -5.429
REMARK INTER:                  -4.988
REMARK INTRA:                  -0.441
REMARK UNBOUND:                -0.441
REMARK SMILES C=CCCCCCCC(=O)[O-]
REMARK SMILES IDX 6 1 7 2 8 3 9 4 10 5 11 6 5 7 4 8 3 9 2 10 1 11
REMARK H PARENT
REMARK Flexibility Score: inf
ROOT
ATOM      1  C   UNL     1      57.037  30.012  50.724  1.00  0.00     0.000 C 
ENDROOT
BRANCH   1   2
ATOM      2  C   UNL     1      57.752  28.663  50.592  1.00  0.00     0.006 C 
BRANCH   2   3
ATOM      3  C   UNL     1      59.019  28.792  49.739  1.00  0.00     0.053 C 
BRANCH   3   4
ATOM      4  C   UNL     1      59.840  27.546  49.829  1.00  0.00     0.041 C 
ATOM      5  O   UNL     1      61.097  27.613  49.809  1.00  0.00    -0.550 OA
ATOM      6  O   UNL     1      59.218  26.305  49.887  1.00  0.00    -0.550 OA
ENDBRANCH   3   4
ENDBRANCH   2   3
ENDBRANCH   1   2
BRANCH   1   7
ATOM      7  C   UNL     1      55.549  29.817  51.049  1.00  0.00     0.000 C 
BRANCH   7   8
ATOM      8  C   UNL     1      55.148  28.334  51.147  1.00  0.00     0.004 C 
BRANCH   8   9
ATOM      9  C   UNL     1      53.998  27.929  50.208  1.00  0.00     0.027 C 
BRANCH   9  10
ATOM     10  C   UNL     1      54.055  26.478  49.814  1.00  0.00    -0.035 C 
ATOM     11  C   UNL     1      55.149  25.737  50.009  1.00  0.00     0.004 C 
ENDBRANCH   9  10
ENDBRANCH   8   9
ENDBRANCH   7   8
ENDBRANCH   1   7
TORSDOF 7
ENDMDL
MODEL 2
REMARK VINA RESULT:    -3.431      0.876      1.374
REMARK INTER + INTRA:          -5.276
REMARK INTER:                  -4.832
REMARK INTRA:                  -0.444
REMARK UNBOUND:                -0.441
REMARK SMILES C=CCCCCCCC(=O)[O-]
REMARK SMILES IDX 6 1 7 2 8 3 9 4 10 5 11 6 5 7 4 8 3 9 2 10 1 11
REMARK H PARENT
REMARK Flexibility Score: inf
ROOT
ATOM      1  C   UNL     1      56.554  29.793  50.798  1.00  0.00     0.000 C 
ENDROOT
BRANCH   1   2
ATOM      2  C   UNL     1      57.960  29.216  50.599  1.00  0.00     0.006 C 
BRANCH   2   3
ATOM      3  C   UNL     1      57.981  27.708  50.868  1.00  0.00     0.053 C 
BRANCH   3   4
ATOM      4  C   UNL     1      59.082  27.053  50.098  1.00  0.00     0.041 C 
ATOM      5  O   UNL     1      59.203  25.800  50.108  1.00  0.00    -0.550 OA
ATOM      6  O   UNL     1      60.005  27.829  49.408  1.00  0.00    -0.550 OA
ENDBRANCH   3   4
ENDBRANCH   2   3
ENDBRANCH   1   2
BRANCH   1   7
ATOM      7  C   UNL     1      55.545  28.682  51.125  1.00  0.00     0.000 C 
BRANCH   7   8
ATOM      8  C   UNL     1      54.152  28.945  50.525  1.00  0.00     0.004 C 
BRANCH   8   9
ATOM      9  C   UNL     1      53.405  27.673  50.084  1.00  0.00     0.027 C 
BRANCH   9  10
ATOM     10  C   UNL     1      54.290  26.455  50.072  1.00  0.00    -0.035 C 
ATOM     11  C   UNL     1      53.929  25.327  49.453  1.00  0.00     0.004 C 
ENDBRANCH   9  10
ENDBRANCH   8   9
ENDBRANCH   7   8
ENDBRANCH   1   7
TORSDOF 7
ENDMDL
MODEL 3
REMARK VINA RESULT:    -3.355      3.171      5.327
REMARK INTER + INTRA:          -5.168
REMARK INTER:                  -4.496
REMARK INTRA:                  -0.672
REMARK UNBOUND:                -0.441
REMARK SMILES C=CCCCCCCC(=O)[O-]
REMARK SMILES IDX 6 1 7 2 8 3 9 4 10 5 11 6 5 7 4 8 3 9 2 10 1 11
REMARK H PARENT
REMARK Flexibility Score: inf
ROOT
ATOM      1  C   UNL     1      57.060  25.895  51.297  1.00  0.00     0.000 C 
ENDROOT
BRANCH   1   2
ATOM      2  C   UNL     1      55.930  26.267  50.331  1.00  0.00     0.006 C 
BRANCH   2   3
ATOM      3  C   UNL     1      55.239  27.563  50.765  1.00  0.00     0.053 C 
BRANCH   3   4
ATOM      4  C   UNL     1      53.881  27.666  50.148  1.00  0.00     0.041 C 
ATOM      5  O   UNL     1      53.273  28.768  50.135  1.00  0.00    -0.550 OA
ATOM      6  O   UNL     1      53.266  26.534  49.629  1.00  0.00    -0.550 OA
ENDBRANCH   3   4
ENDBRANCH   2   3
ENDBRANCH   1   2
BRANCH   1   7
ATOM      7  C   UNL     1      58.367  25.624  50.538  1.00  0.00     0.000 C 
BRANCH   7   8
ATOM      8  C   UNL     1      59.452  26.679  50.821  1.00  0.00     0.004 C 
BRANCH   8   9
ATOM      9  C   UNL     1      59.687  27.668  49.665  1.00  0.00     0.027 C 
BRANCH   9  10
ATOM     10  C   UNL     1      58.941  28.963  49.848  1.00  0.00    -0.035 C 
ATOM     11  C   UNL     1      58.473  29.344  51.041  1.00  0.00     0.004 C 
ENDBRANCH   9  10
ENDBRANCH   8   9
ENDBRANCH   7   8
ENDBRANCH   1   7
TORSDOF 7
ENDMDL
MODEL 4
REMARK VINA RESULT:    -3.330      2.952      4.709
REMARK INTER + INTRA:          -5.133
REMARK INTER:                  -4.588
REMARK INTRA:                  -0.546
REMARK UNBOUND:                -0.441
REMARK SMILES C=CCCCCCCC(=O)[O-]
REMARK SMILES IDX 6 1 7 2 8 3 9 4 10 5 11 6 5 7 4 8 3 9 2 10 1 11
REMARK H PARENT
REMARK Flexibility Score: inf
ROOT
ATOM      1  C   UNL     1      55.538  28.634  51.549  1.00  0.00     0.000 C 
ENDROOT
BRANCH   1   2
ATOM      2  C   UNL     1      54.951  27.791  50.412  1.00  0.00     0.006 C 
BRANCH   2   3
ATOM      3  C   UNL     1      55.534  26.375  50.418  1.00  0.00     0.053 C 
BRANCH   3   4
ATOM      4  C   UNL     1      54.441  25.358  50.507  1.00  0.00     0.041 C 
ATOM      5  O   UNL     1      54.189  24.794  51.604  1.00  0.00    -0.550 OA
ATOM      6  O   UNL     1      53.732  24.998  49.368  1.00  0.00    -0.550 OA
ENDBRANCH   3   4
ENDBRANCH   2   3
ENDBRANCH   1   2
BRANCH   1   7
ATOM      7  C   UNL     1      56.607  29.602  51.022  1.00  0.00     0.000 C 
BRANCH   7   8
ATOM      8  C   UNL     1      58.037  29.051  51.168  1.00  0.00     0.004 C 
BRANCH   8   9
ATOM      9  C   UNL     1      58.869  29.104  49.874  1.00  0.00     0.027 C 
BRANCH   9  10
ATOM     10  C   UNL     1      59.646  27.838  49.630  1.00  0.00    -0.035 C 
ATOM     11  C   UNL     1      59.311  26.683  50.212  1.00  0.00     0.004 C 
ENDBRANCH   9  10
ENDBRANCH   8   9
ENDBRANCH   7   8
ENDBRANCH   1   7
TORSDOF 7
ENDMDL
MODEL 5
REMARK VINA RESULT:    -3.236      1.502      2.297
REMARK INTER + INTRA:          -5.001
REMARK INTER:                  -4.679
REMARK INTRA:                  -0.322
REMARK UNBOUND:                -0.441
REMARK SMILES C=CCCCCCCC(=O)[O-]
REMARK SMILES IDX 6 1 7 2 8 3 9 4 10 5 11 6 5 7 4 8 3 9 2 10 1 11
REMARK H PARENT
REMARK Flexibility Score: inf
ROOT
ATOM      1  C   UNL     1      57.927  28.569  51.020  1.00  0.00     0.000 C 
ENDROOT
BRANCH   1   2
ATOM      2  C   UNL     1      58.946  28.951  49.941  1.00  0.00     0.006 C 
BRANCH   2   3
ATOM      3  C   UNL     1      59.878  27.778  49.624  1.00  0.00     0.053 C 
BRANCH   3   4
ATOM      4  C   UNL     1      61.212  27.979  50.269  1.00  0.00     0.041 C 
ATOM      5  O   UNL     1      62.266  27.676  49.651  1.00  0.00    -0.550 OA
ATOM      6  O   UNL     1      61.290  28.455  51.571  1.00  0.00    -0.550 OA
ENDBRANCH   3   4
ENDBRANCH   2   3
ENDBRANCH   1   2
BRANCH   1   7
ATOM      7  C   UNL     1      57.444  27.123  50.834  1.00  0.00     0.000 C 
BRANCH   7   8
ATOM      8  C   UNL     1      55.911  27.012  50.741  1.00  0.00     0.004 C 
BRANCH   8   9
ATOM      9  C   UNL     1      55.185  28.366  50.654  1.00  0.00     0.027 C 
BRANCH   9  10
ATOM     10  C   UNL     1      53.753  28.229  50.210  1.00  0.00    -0.035 C 
ATOM     11  C   UNL     1      52.875  29.228  50.344  1.00  0.00     0.004 C 
ENDBRANCH   9  10
ENDBRANCH   8   9
ENDBRANCH   7   8
ENDBRANCH   1   7
TORSDOF 7
ENDMDL
MODEL 6
REMARK VINA RESULT:    -3.160      1.433      2.849
REMARK INTER + INTRA:          -4.894
REMARK INTER:                  -4.386
REMARK INTRA:                  -0.508
REMARK UNBOUND:                -0.441
REMARK SMILES C=CCCCCCCC(=O)[O-]
REMARK SMILES IDX 6 1 7 2 8 3 9 4 10 5 11 6 5 7 4 8 3 9 2 10 1 11
REMARK H PARENT
REMARK Flexibility Score: inf
ROOT
ATOM      1  C   UNL     1      56.151  25.629  51.093  1.00  0.00     0.000 C 
ENDROOT
BRANCH   1   2
ATOM      2  C   UNL     1      57.569  26.065  50.709  1.00  0.00     0.006 C 
BRANCH   2   3
ATOM      3  C   UNL     1      57.705  27.590  50.745  1.00  0.00     0.053 C 
BRANCH   3   4
ATOM      4  C   UNL     1      58.922  28.026  49.992  1.00  0.00     0.041 C 
ATOM      5  O   UNL     1      59.828  27.196  49.718  1.00  0.00    -0.550 OA
ATOM      6  O   UNL     1      59.078  29.359  49.634  1.00  0.00    -0.550 OA
ENDBRANCH   3   4
ENDBRANCH   2   3
ENDBRANCH   1   2
BRANCH   1   7
ATOM      7  C   UNL     1      55.143  26.008  49.998  1.00  0.00     0.000 C 
BRANCH   7   8
ATOM      8  C   UNL     1      53.804  26.512  50.566  1.00  0.00     0.004 C 
BRANCH   8   9
ATOM      9  C   UNL     1      53.308  27.827  49.939  1.00  0.00     0.027 C 
BRANCH   9  10
ATOM     10  C   UNL     1      53.567  29.022  50.817  1.00  0.00    -0.035 C 
ATOM     11  C   UNL     1      54.728  29.683  50.783  1.00  0.00     0.004 C 
ENDBRANCH   9  10
ENDBRANCH   8   9
ENDBRANCH   7   8
ENDBRANCH   1   7
TORSDOF 7
ENDMDL
MODEL 7
REMARK VINA RESULT:    -3.156      2.440      4.659
REMARK INTER + INTRA:          -4.888
REMARK INTER:                  -4.238
REMARK INTRA:                  -0.651
REMARK UNBOUND:                -0.441
REMARK SMILES C=CCCCCCCC(=O)[O-]
REMARK SMILES IDX 6 1 7 2 8 3 9 4 10 5 11 6 5 7 4 8 3 9 2 10 1 11
REMARK H PARENT
REMARK Flexibility Score: inf
ROOT
ATOM      1  C   UNL     1      58.123  29.107  51.207  1.00  0.00     0.000 C 
ENDROOT
BRANCH   1   2
ATOM      2  C   UNL     1      56.669  28.887  50.774  1.00  0.00     0.006 C 
BRANCH   2   3
ATOM      3  C   UNL     1      56.135  27.551  51.299  1.00  0.00     0.053 C 
BRANCH   3   4
ATOM      4  C   UNL     1      55.092  27.005  50.377  1.00  0.00     0.041 C 
ATOM      5  O   UNL     1      55.224  25.856  49.880  1.00  0.00    -0.550 OA
ATOM      6  O   UNL     1      53.996  27.784  50.028  1.00  0.00    -0.550 OA
ENDBRANCH   3   4
ENDBRANCH   2   3
ENDBRANCH   1   2
BRANCH   1   7
ATOM      7  C   UNL     1      59.060  29.145  49.991  1.00  0.00     0.000 C 
BRANCH   7   8
ATOM      8  C   UNL     1      59.601  27.755  49.611  1.00  0.00     0.004 C 
BRANCH   8   9
ATOM      9  C   UNL     1      60.540  27.135  50.661  1.00  0.00     0.027 C 
BRANCH   9  10
ATOM     10  C   UNL     1      60.012  25.840  51.219  1.00  0.00    -0.035 C 
ATOM     11  C   UNL     1      58.910  25.261  50.733  1.00  0.00     0.004 C 
ENDBRANCH   9  10
ENDBRANCH   8   9
ENDBRANCH   7   8
ENDBRANCH   1   7
TORSDOF 7
ENDMDL
MODEL 8
REMARK VINA RESULT:    -3.078      3.058      5.131
REMARK INTER + INTRA:          -4.778
REMARK INTER:                  -4.283
REMARK INTRA:                  -0.495
REMARK UNBOUND:                -0.441
REMARK SMILES C=CCCCCCCC(=O)[O-]
REMARK SMILES IDX 6 1 7 2 8 3 9 4 10 5 11 6 5 7 4 8 3 9 2 10 1 11
REMARK H PARENT
REMARK Flexibility Score: inf
ROOT
ATOM      1  C   UNL     1      55.643  26.024  50.379  1.00  0.00     0.000 C 
ENDROOT
BRANCH   1   2
ATOM      2  C   UNL     1      54.819  27.317  50.415  1.00  0.00     0.006 C 
BRANCH   2   3
ATOM      3  C   UNL     1      55.684  28.510  50.833  1.00  0.00     0.053 C 
BRANCH   3   4
ATOM      4  C   UNL     1      54.837  29.591  51.423  1.00  0.00     0.041 C 
ATOM      5  O   UNL     1      54.724  30.699  50.836  1.00  0.00    -0.550 OA
ATOM      6  O   UNL     1      54.210  29.393  52.646  1.00  0.00    -0.550 OA
ENDBRANCH   3   4
ENDBRANCH   2   3
ENDBRANCH   1   2
BRANCH   1   7
ATOM      7  C   UNL     1      56.930  26.169  51.203  1.00  0.00     0.000 C 
BRANCH   7   8
ATOM      8  C   UNL     1      58.195  25.803  50.405  1.00  0.00     0.004 C 
BRANCH   8   9
ATOM      9  C   UNL     1      59.460  26.561  50.845  1.00  0.00     0.027 C 
BRANCH   9  10
ATOM     10  C   UNL     1      59.875  27.619  49.859  1.00  0.00    -0.035 C 
ATOM     11  C   UNL     1      59.135  28.711  49.644  1.00  0.00     0.004 C 
ENDBRANCH   9  10
ENDBRANCH   8   9
ENDBRANCH   7   8
ENDBRANCH   1   7
TORSDOF 7
ENDMDL
MODEL 9
REMARK VINA RESULT:    -3.041      2.441      5.010
REMARK INTER + INTRA:          -4.726
REMARK INTER:                  -4.351
REMARK INTRA:                  -0.374
REMARK UNBOUND:                -0.441
REMARK SMILES C=CCCCCCCC(=O)[O-]
REMARK SMILES IDX 6 1 7 2 8 3 9 4 10 5 11 6 5 7 4 8 3 9 2 10 1 11
REMARK H PARENT
REMARK Flexibility Score: inf
ROOT
ATOM      1  C   UNL     1      57.119  28.185  51.135  1.00  0.00     0.000 C 
ENDROOT
BRANCH   1   2
ATOM      2  C   UNL     1      55.701  28.734  51.326  1.00  0.00     0.006 C 
BRANCH   2   3
ATOM      3  C   UNL     1      54.704  28.012  50.415  1.00  0.00     0.053 C 
BRANCH   3   4
ATOM      4  C   UNL     1      54.766  26.535  50.635  1.00  0.00     0.041 C 
ATOM      5  O   UNL     1      55.010  25.761  49.672  1.00  0.00    -0.550 OA
ATOM      6  O   UNL     1      54.506  26.008  51.893  1.00  0.00    -0.550 OA
ENDBRANCH   3   4
ENDBRANCH   2   3
ENDBRANCH   1   2
BRANCH   1   7
ATOM      7  C   UNL     1      58.062  29.272  50.596  1.00  0.00     0.000 C 
BRANCH   7   8
ATOM      8  C   UNL     1      59.110  28.720  49.612  1.00  0.00     0.004 C 
BRANCH   8   9
ATOM      9  C   UNL     1      59.515  27.259  49.877  1.00  0.00     0.027 C 
BRANCH   9  10
ATOM     10  C   UNL     1      60.885  27.139  50.490  1.00  0.00    -0.035 C 
ATOM     11  C   UNL     1      61.918  27.867  50.055  1.00  0.00     0.004 C 
ENDBRANCH   9  10
ENDBRANCH   8   9
ENDBRANCH   7   8
ENDBRANCH   1   7
TORSDOF 7
ENDMDL
