MODEL 1
REMARK VINA RESULT:    11.763      0.000      0.000
REMARK INTER + INTRA:          13.839
REMARK INTER:                  14.170
REMARK INTRA:                  -0.331
REMARK UNBOUND:                -0.331
REMARK SMILES O=c1c(O)c(-c2ccc(O)c(O)c2)oc2cc(O)cc(O)c12
REMARK SMILES IDX 5 1 3 2 2 3 1 4 22 5 20 6 19 7 17 8 16 9 15 10 14 11 6 12
REMARK SMILES IDX 7 13 8 14 9 15 13 16 11 17 10 18 12 20 4 22 21 24 18 26
REMARK H PARENT 10 19 12 21 4 23 21 25 18 27
REMARK Flexibility Score: inf
ROOT
ATOM      1  C   UNL     1      25.199  -3.294 -18.311  1.00  0.00     0.180 A 
ATOM      2  C   UNL     1      24.002  -3.443 -19.031  1.00  0.00     0.208 A 
ATOM      3  C   UNL     1      23.602  -4.729 -19.431  1.00  0.00     0.238 A 
ATOM      4  O   UNL     1      22.557  -4.849 -20.123  1.00  0.00    -0.285 OA
ATOM      5  C   UNL     1      24.397  -5.850 -19.091  1.00  0.00     0.111 A 
ATOM      6  C   UNL     1      24.067  -7.202 -19.408  1.00  0.00     0.134 A 
ATOM      7  C   UNL     1      24.991  -8.220 -19.138  1.00  0.00     0.093 A 
ATOM      8  C   UNL     1      26.201  -7.944 -18.503  1.00  0.00     0.123 A 
ATOM      9  C   UNL     1      26.507  -6.633 -18.133  1.00  0.00     0.094 A 
ATOM     10  C   UNL     1      25.622  -5.592 -18.424  1.00  0.00     0.146 A 
ATOM     11  O   UNL     1      25.955  -4.358 -18.065  1.00  0.00    -0.452 OA
ENDROOT
BRANCH   1  12
ATOM     12  C   UNL     1      25.674  -1.975 -17.835  1.00  0.00     0.025 A 
ATOM     13  C   UNL     1      26.555  -1.228 -18.632  1.00  0.00     0.016 A 
ATOM     14  C   UNL     1      27.031   0.010 -18.192  1.00  0.00     0.051 A 
ATOM     15  C   UNL     1      26.646   0.512 -16.942  1.00  0.00     0.157 A 
ATOM     16  C   UNL     1      25.305  -1.478 -16.571  1.00  0.00     0.062 A 
ATOM     17  C   UNL     1      25.782  -0.239 -16.127  1.00  0.00     0.158 A 
BRANCH  15  18
ATOM     18  O   UNL     1      27.120   1.748 -16.507  1.00  0.00    -0.504 OA
ATOM     19  H   UNL     1      27.943   2.175 -16.916  1.00  0.00     0.293 HD
ENDBRANCH  15  18
BRANCH  17  20
ATOM     20  O   UNL     1      25.392   0.226 -14.871  1.00  0.00    -0.504 OA
ATOM     21  H   UNL     1      26.009   0.776 -14.285  1.00  0.00     0.293 HD
ENDBRANCH  17  20
ENDBRANCH   1  12
BRANCH   2  22
ATOM     22  O   UNL     1      23.244  -2.320 -19.376  1.00  0.00    -0.502 OA
ATOM     23  H   UNL     1      23.269  -1.910 -20.301  1.00  0.00     0.293 HD
ENDBRANCH   2  22
BRANCH   6  24
ATOM     24  O   UNL     1      22.846  -7.599 -19.961  1.00  0.00    -0.507 OA
ATOM     25  H   UNL     1      22.116  -6.968 -20.255  1.00  0.00     0.293 HD
ENDBRANCH   6  24
BRANCH   8  26
ATOM     26  O   UNL     1      27.089  -8.984 -18.234  1.00  0.00    -0.508 OA
ATOM     27  H   UNL     1      27.976  -9.060 -18.718  1.00  0.00     0.293 HD
ENDBRANCH   8  26
TORSDOF 6
ENDMDL
