MODEL 1
REMARK VINA RESULT:    -3.314      0.000      0.000
REMARK INTER + INTRA:          -5.222
REMARK INTER:                  -5.058
REMARK INTRA:                  -0.164
REMARK UNBOUND:                -0.164
REMARK SMILES CC1=CCC[C@H](C)C(=O)C[C@@H](C(C)C)C(=O)C1
REMARK SMILES IDX 8 1 9 2 6 3 7 4 5 5 4 6 3 7 2 8 1 9 10 11 11 12 15 13 16 14
REMARK SMILES IDX 17 15 12 17 13 18 14 19
REMARK H PARENT
REMARK Flexibility Score: 70.00
ROOT
ATOM      1  C   UNL     1      24.425  29.628  30.071  1.00  0.00     0.136 C 
ATOM      2  O   UNL     1      24.930  28.514  30.110  1.00  0.00    -0.299 OA
ENDROOT
BRANCH   1   3
ATOM      3  C   UNL     1      22.933  29.790  30.278  1.00  0.00     0.053 C 
ATOM      4  C   UNL     1      22.191  28.747  29.438  1.00  0.00     0.016 C 
BRANCH   3   5
ATOM      5  C   UNL     1      22.517  29.674  31.764  1.00  0.00     0.015 C 
BRANCH   5   6
ATOM      6  C   UNL     1      22.075  31.008  32.393  1.00  0.00     0.028 C 
BRANCH   6   7
ATOM      7  C   UNL     1      21.643  32.000  31.338  1.00  0.00    -0.028 C 
ATOM      8  C   UNL     1      22.335  33.101  30.964  1.00  0.00    -0.070 CG0
ATOM      9  C   UNL     1      21.746  33.975  29.885  1.00  0.00     0.039 C 
ATOM     10  G   UNL     1      23.664  33.492  31.585  1.00  0.00     0.000 G0
ENDBRANCH   6   7
ENDBRANCH   5   6
ENDBRANCH   3   5
ENDBRANCH   1   3
BRANCH   1  11
ATOM     11  C   UNL     1      25.293  30.819  29.747  1.00  0.00     0.087 C 
BRANCH  11  12
ATOM     12  C   UNL     1      25.516  31.723  30.980  1.00  0.00     0.066 C 
BRANCH  12  13
ATOM     13  C   UNL     1      24.847  33.077  30.783  1.00  0.00     0.140 C 
ATOM     14  O   UNL     1      25.292  33.858  29.954  1.00  0.00    -0.299 OA
BRANCH  13  15
ATOM     15  C   UNL     1      23.651  33.491  31.602  1.00  0.00     0.106 CG0
ATOM     16  G   UNL     1      22.339  33.091  30.952  1.00  0.00     0.000 G0
ENDBRANCH  13  15
ENDBRANCH  12  13
BRANCH  12  17
ATOM     17  C   UNL     1      27.023  31.840  31.360  1.00  0.00    -0.006 C 
ATOM     18  C   UNL     1      27.923  31.719  30.120  1.00  0.00     0.008 C 
ATOM     19  C   UNL     1      27.484  30.846  32.441  1.00  0.00     0.008 C 
ENDBRANCH  12  17
ENDBRANCH  11  12
ENDBRANCH   1  11
TORSDOF 1
ENDMDL
MODEL 2
REMARK VINA RESULT:    -3.227      3.551      6.566
REMARK INTER + INTRA:          -5.088
REMARK INTER:                  -5.222
REMARK INTRA:                   0.133
REMARK UNBOUND:                -0.164
REMARK SMILES CC1=CCC[C@H](C)C(=O)C[C@@H](C(C)C)C(=O)C1
REMARK SMILES IDX 8 1 9 2 6 3 7 4 5 5 4 6 3 7 2 8 1 9 10 11 11 12 15 13 16 14
REMARK SMILES IDX 17 15 12 17 13 18 14 19
REMARK H PARENT
REMARK Flexibility Score: 70.00
ROOT
ATOM      1  C   UNL     1      20.468  33.384  30.011  1.00  0.00     0.136 C 
ATOM      2  O   UNL     1      21.348  33.087  29.216  1.00  0.00    -0.299 OA
ENDROOT
BRANCH   1   3
ATOM      3  C   UNL     1      20.834  33.851  31.405  1.00  0.00     0.053 C 
ATOM      4  C   UNL     1      19.575  33.877  32.276  1.00  0.00     0.016 C 
BRANCH   3   5
ATOM      5  C   UNL     1      21.923  32.972  32.066  1.00  0.00     0.015 C 
BRANCH   5   6
ATOM      6  C   UNL     1      21.452  31.544  32.399  1.00  0.00     0.028 C 
BRANCH   6   7
ATOM      7  C   UNL     1      21.988  30.540  31.405  1.00  0.00    -0.028 C 
ATOM      8  C   UNL     1      21.238  29.714  30.640  1.00  0.00    -0.070 CG0
ATOM      9  C   UNL     1      21.952  28.778  29.697  1.00  0.00     0.039 C 
ATOM     10  G   UNL     1      19.721  29.687  30.695  1.00  0.00     0.000 G0
ENDBRANCH   6   7
ENDBRANCH   5   6
ENDBRANCH   3   5
ENDBRANCH   1   3
BRANCH   1  11
ATOM     11  C   UNL     1      19.023  33.214  29.610  1.00  0.00     0.087 C 
BRANCH  11  12
ATOM     12  C   UNL     1      18.391  31.956  30.247  1.00  0.00     0.066 C 
BRANCH  12  13
ATOM     13  C   UNL     1      19.079  30.694  29.745  1.00  0.00     0.140 C 
ATOM     14  O   UNL     1      19.117  30.460  28.546  1.00  0.00    -0.299 OA
BRANCH  13  15
ATOM     15  C   UNL     1      19.706  29.706  30.697  1.00  0.00     0.106 CG0
ATOM     16  G   UNL     1      21.221  29.702  30.610  1.00  0.00     0.000 G0
ENDBRANCH  13  15
ENDBRANCH  12  13
BRANCH  12  17
ATOM     17  C   UNL     1      16.844  31.918  30.064  1.00  0.00    -0.006 C 
ATOM     18  C   UNL     1      16.381  32.933  29.008  1.00  0.00     0.008 C 
ATOM     19  C   UNL     1      16.046  32.115  31.366  1.00  0.00     0.008 C 
ENDBRANCH  12  17
ENDBRANCH  11  12
ENDBRANCH   1  11
TORSDOF 1
ENDMDL
MODEL 3
REMARK VINA RESULT:    -3.151      3.680      6.244
REMARK INTER + INTRA:          -4.973
REMARK INTER:                  -5.329
REMARK INTRA:                   0.357
REMARK UNBOUND:                -0.164
REMARK SMILES CC1=CCC[C@H](C)C(=O)C[C@@H](C(C)C)C(=O)C1
REMARK SMILES IDX 8 1 9 2 6 3 7 4 5 5 4 6 3 7 2 8 1 9 10 11 11 12 15 13 16 14
REMARK SMILES IDX 17 15 12 17 13 18 14 19
REMARK H PARENT
REMARK Flexibility Score: 70.00
ROOT
ATOM      1  C   UNL     1      29.647  33.711  28.813  1.00  0.00     0.136 C 
ATOM      2  O   UNL     1      28.578  34.125  28.389  1.00  0.00    -0.299 OA
ENDROOT
BRANCH   1   3
ATOM      3  C   UNL     1      30.565  32.916  27.907  1.00  0.00     0.053 C 
ATOM      4  C   UNL     1      31.926  32.749  28.588  1.00  0.00     0.016 C 
BRANCH   3   5
ATOM      5  C   UNL     1      29.983  31.533  27.528  1.00  0.00     0.015 C 
BRANCH   5   6
ATOM      6  C   UNL     1      29.489  30.714  28.734  1.00  0.00     0.028 C 
BRANCH   6   7
ATOM      7  C   UNL     1      27.981  30.628  28.764  1.00  0.00    -0.028 C 
ATOM      8  C   UNL     1      27.208  30.764  29.865  1.00  0.00    -0.070 CG0
ATOM      9  C   UNL     1      25.713  30.652  29.699  1.00  0.00     0.039 C 
ATOM     10  G   UNL     1      27.777  31.017  31.249  1.00  0.00     0.000 G0
ENDBRANCH   6   7
ENDBRANCH   5   6
ENDBRANCH   3   5
ENDBRANCH   1   3
BRANCH   1  11
ATOM     11  C   UNL     1      30.005  33.942  30.261  1.00  0.00     0.087 C 
BRANCH  11  12
ATOM     12  C   UNL     1      29.841  32.661  31.109  1.00  0.00     0.066 C 
BRANCH  12  13
ATOM     13  C   UNL     1      28.372  32.399  31.409  1.00  0.00     0.140 C 
ATOM     14  O   UNL     1      27.657  33.316  31.786  1.00  0.00    -0.299 OA
BRANCH  13  15
ATOM     15  C   UNL     1      27.772  31.022  31.270  1.00  0.00     0.106 CG0
ATOM     16  G   UNL     1      27.208  30.775  29.883  1.00  0.00     0.000 G0
ENDBRANCH  13  15
ENDBRANCH  12  13
BRANCH  12  17
ATOM     17  C   UNL     1      30.728  32.685  32.390  1.00  0.00    -0.006 C 
ATOM     18  C   UNL     1      31.066  34.124  32.809  1.00  0.00     0.008 C 
ATOM     19  C   UNL     1      32.019  31.853  32.284  1.00  0.00     0.008 C 
ENDBRANCH  12  17
ENDBRANCH  11  12
ENDBRANCH   1  11
TORSDOF 1
ENDMDL
MODEL 4
REMARK VINA RESULT:    -2.903      4.471      7.018
REMARK INTER + INTRA:          -4.595
REMARK INTER:                  -5.011
REMARK INTRA:                   0.416
REMARK UNBOUND:                -0.164
REMARK SMILES CC1=CCC[C@H](C)C(=O)C[C@@H](C(C)C)C(=O)C1
REMARK SMILES IDX 8 1 9 2 6 3 7 4 5 5 4 6 3 7 2 8 1 9 10 11 11 12 15 13 16 14
REMARK SMILES IDX 17 15 12 17 13 18 14 19
REMARK H PARENT
REMARK Flexibility Score: 70.00
ROOT
ATOM      1  C   UNL     1      19.827  33.156  29.755  1.00  0.00     0.136 C 
ATOM      2  O   UNL     1      19.389  33.746  28.777  1.00  0.00    -0.299 OA
ENDROOT
BRANCH   1   3
ATOM      3  C   UNL     1      21.001  32.210  29.606  1.00  0.00     0.053 C 
ATOM      4  C   UNL     1      22.157  32.698  30.483  1.00  0.00     0.016 C 
BRANCH   3   5
ATOM      5  C   UNL     1      20.641  30.747  29.961  1.00  0.00     0.015 C 
BRANCH   5   6
ATOM      6  C   UNL     1      20.843  30.400  31.447  1.00  0.00     0.028 C 
BRANCH   6   7
ATOM      7  C   UNL     1      19.741  29.502  31.960  1.00  0.00    -0.028 C 
ATOM      8  C   UNL     1      18.658  29.909  32.661  1.00  0.00    -0.070 CG0
ATOM      9  C   UNL     1      17.655  28.866  33.085  1.00  0.00     0.039 C 
ATOM     10  G   UNL     1      18.415  31.359  33.038  1.00  0.00     0.000 G0
ENDBRANCH   6   7
ENDBRANCH   5   6
ENDBRANCH   3   5
ENDBRANCH   1   3
BRANCH   1  11
ATOM     11  C   UNL     1      19.143  33.331  31.089  1.00  0.00     0.087 C 
BRANCH  11  12
ATOM     12  C   UNL     1      17.664  32.886  31.042  1.00  0.00     0.066 C 
BRANCH  12  13
ATOM     13  C   UNL     1      17.323  32.024  32.250  1.00  0.00     0.140 C 
ATOM     14  O   UNL     1      16.155  31.877  32.581  1.00  0.00    -0.299 OA
BRANCH  13  15
ATOM     15  C   UNL     1      18.398  31.352  33.067  1.00  0.00     0.106 CG0
ATOM     16  G   UNL     1      18.644  29.919  32.632  1.00  0.00     0.000 G0
ENDBRANCH  13  15
ENDBRANCH  12  13
BRANCH  12  17
ATOM     17  C   UNL     1      17.295  32.209  29.688  1.00  0.00    -0.006 C 
ATOM     18  C   UNL     1      16.138  32.943  28.993  1.00  0.00     0.008 C 
ATOM     19  C   UNL     1      16.974  30.708  29.797  1.00  0.00     0.008 C 
ENDBRANCH  12  17
ENDBRANCH  11  12
ENDBRANCH   1  11
TORSDOF 1
ENDMDL
MODEL 5
REMARK VINA RESULT:    -2.864      1.864      4.291
REMARK INTER + INTRA:          -4.534
REMARK INTER:                  -5.020
REMARK INTRA:                   0.485
REMARK UNBOUND:                -0.164
REMARK SMILES CC1=CCC[C@H](C)C(=O)C[C@@H](C(C)C)C(=O)C1
REMARK SMILES IDX 8 1 9 2 6 3 7 4 5 5 4 6 3 7 2 8 1 9 10 11 11 12 15 13 16 14
REMARK SMILES IDX 17 15 12 17 13 18 14 19
REMARK H PARENT
REMARK Flexibility Score: 70.00
ROOT
ATOM      1  C   UNL     1      23.079  28.828  29.635  1.00  0.00     0.136 C 
ATOM      2  O   UNL     1      22.405  28.479  28.676  1.00  0.00    -0.299 OA
ENDROOT
BRANCH   1   3
ATOM      3  C   UNL     1      24.558  28.503  29.679  1.00  0.00     0.053 C 
ATOM      4  C   UNL     1      25.103  28.438  28.249  1.00  0.00     0.016 C 
BRANCH   3   5
ATOM      5  C   UNL     1      25.371  29.521  30.515  1.00  0.00     0.015 C 
BRANCH   5   6
ATOM      6  C   UNL     1      25.719  30.813  29.755  1.00  0.00     0.028 C 
BRANCH   6   7
ATOM      7  C   UNL     1      25.974  31.961  30.703  1.00  0.00    -0.028 C 
ATOM      8  C   UNL     1      25.203  32.288  31.766  1.00  0.00    -0.070 CG0
ATOM      9  C   UNL     1      25.620  33.469  32.606  1.00  0.00     0.039 C 
ATOM     10  G   UNL     1      23.946  31.526  32.141  1.00  0.00     0.000 G0
ENDBRANCH   6   7
ENDBRANCH   5   6
ENDBRANCH   3   5
ENDBRANCH   1   3
BRANCH   1  11
ATOM     11  C   UNL     1      22.406  29.521  30.794  1.00  0.00     0.087 C 
BRANCH  11  12
ATOM     12  C   UNL     1      22.003  30.971  30.445  1.00  0.00     0.066 C 
BRANCH  12  13
ATOM     13  C   UNL     1      22.734  31.963  31.340  1.00  0.00     0.140 C 
ATOM     14  O   UNL     1      22.362  33.127  31.386  1.00  0.00    -0.299 OA
BRANCH  13  15
ATOM     15  C   UNL     1      23.927  31.550  32.165  1.00  0.00     0.106 CG0
ATOM     16  G   UNL     1      25.193  32.281  31.758  1.00  0.00     0.000 G0
ENDBRANCH  13  15
ENDBRANCH  12  13
BRANCH  12  17
ATOM     17  C   UNL     1      20.457  31.171  30.454  1.00  0.00    -0.006 C 
ATOM     18  C   UNL     1      19.856  30.824  31.825  1.00  0.00     0.008 C 
ATOM     19  C   UNL     1      19.713  30.405  29.346  1.00  0.00     0.008 C 
ENDBRANCH  12  17
ENDBRANCH  11  12
ENDBRANCH   1  11
TORSDOF 1
ENDMDL
MODEL 6
REMARK VINA RESULT:    -2.611      2.193      2.833
REMARK INTER + INTRA:          -4.149
REMARK INTER:                  -4.421
REMARK INTRA:                   0.272
REMARK UNBOUND:                -0.164
REMARK SMILES CC1=CCC[C@H](C)C(=O)C[C@@H](C(C)C)C(=O)C1
REMARK SMILES IDX 8 1 9 2 6 3 7 4 5 5 4 6 3 7 2 8 1 9 10 11 11 12 15 13 16 14
REMARK SMILES IDX 17 15 12 17 13 18 14 19
REMARK H PARENT
REMARK Flexibility Score: 70.00
ROOT
ATOM      1  C   UNL     1      26.606  30.822  29.463  1.00  0.00     0.136 C 
ATOM      2  O   UNL     1      27.439  30.312  28.727  1.00  0.00    -0.299 OA
ENDROOT
BRANCH   1   3
ATOM      3  C   UNL     1      25.328  30.076  29.792  1.00  0.00     0.053 C 
ATOM      4  C   UNL     1      25.179  28.887  28.838  1.00  0.00     0.016 C 
BRANCH   3   5
ATOM      5  C   UNL     1      25.277  29.593  31.261  1.00  0.00     0.015 C 
BRANCH   5   6
ATOM      6  C   UNL     1      24.038  30.081  32.033  1.00  0.00     0.028 C 
BRANCH   6   7
ATOM      7  C   UNL     1      23.829  31.568  31.861  1.00  0.00    -0.028 C 
ATOM      8  C   UNL     1      24.674  32.534  32.289  1.00  0.00    -0.070 CG0
ATOM      9  C   UNL     1      24.300  33.971  32.021  1.00  0.00     0.039 C 
ATOM     10  G   UNL     1      25.968  32.236  33.024  1.00  0.00     0.000 G0
ENDBRANCH   6   7
ENDBRANCH   5   6
ENDBRANCH   3   5
ENDBRANCH   1   3
BRANCH   1  11
ATOM     11  C   UNL     1      26.837  32.221  29.980  1.00  0.00     0.087 C 
BRANCH  11  12
ATOM     12  C   UNL     1      27.833  32.243  31.161  1.00  0.00     0.066 C 
BRANCH  12  13
ATOM     13  C   UNL     1      27.191  32.865  32.394  1.00  0.00     0.140 C 
ATOM     14  O   UNL     1      27.674  33.875  32.884  1.00  0.00    -0.299 OA
BRANCH  13  15
ATOM     15  C   UNL     1      25.976  32.252  33.043  1.00  0.00     0.106 CG0
ATOM     16  G   UNL     1      24.700  32.550  32.277  1.00  0.00     0.000 G0
ENDBRANCH  13  15
ENDBRANCH  12  13
BRANCH  12  17
ATOM     17  C   UNL     1      29.186  32.914  30.777  1.00  0.00    -0.006 C 
ATOM     18  C   UNL     1      29.062  33.718  29.474  1.00  0.00     0.008 C 
ATOM     19  C   UNL     1      30.373  31.938  30.680  1.00  0.00     0.008 C 
ENDBRANCH  12  17
ENDBRANCH  11  12
ENDBRANCH   1  11
TORSDOF 1
ENDMDL
MODEL 7
REMARK VINA RESULT:    -2.576      4.600      6.304
REMARK INTER + INTRA:          -4.095
REMARK INTER:                  -4.273
REMARK INTRA:                   0.178
REMARK UNBOUND:                -0.164
REMARK SMILES CC1=CCC[C@H](C)C(=O)C[C@@H](C(C)C)C(=O)C1
REMARK SMILES IDX 8 1 9 2 6 3 7 4 5 5 4 6 3 7 2 8 1 9 10 11 11 12 15 13 16 14
REMARK SMILES IDX 17 15 12 17 13 18 14 19
REMARK H PARENT
REMARK Flexibility Score: 70.00
ROOT
ATOM      1  C   UNL     1      30.611  31.193  29.468  1.00  0.00     0.136 C 
ATOM      2  O   UNL     1      30.610  30.059  29.926  1.00  0.00    -0.299 OA
ENDROOT
BRANCH   1   3
ATOM      3  C   UNL     1      29.669  31.554  28.338  1.00  0.00     0.053 C 
ATOM      4  C   UNL     1      29.183  30.271  27.657  1.00  0.00     0.016 C 
BRANCH   3   5
ATOM      5  C   UNL     1      28.461  32.399  28.810  1.00  0.00     0.015 C 
BRANCH   5   6
ATOM      6  C   UNL     1      27.682  31.771  29.979  1.00  0.00     0.028 C 
BRANCH   6   7
ATOM      7  C   UNL     1      27.340  32.799  31.032  1.00  0.00    -0.028 C 
ATOM      8  C   UNL     1      28.040  33.022  32.168  1.00  0.00    -0.070 CG0
ATOM      9  C   UNL     1      27.548  34.100  33.102  1.00  0.00     0.039 C 
ATOM     10  G   UNL     1      29.284  32.237  32.541  1.00  0.00     0.000 G0
ENDBRANCH   6   7
ENDBRANCH   5   6
ENDBRANCH   3   5
ENDBRANCH   1   3
BRANCH   1  11
ATOM     11  C   UNL     1      31.604  32.200  29.996  1.00  0.00     0.087 C 
BRANCH  11  12
ATOM     12  C   UNL     1      31.712  32.152  31.537  1.00  0.00     0.066 C 
BRANCH  12  13
ATOM     13  C   UNL     1      30.566  32.921  32.180  1.00  0.00     0.140 C 
ATOM     14  O   UNL     1      30.684  34.120  32.392  1.00  0.00    -0.299 OA
BRANCH  13  15
ATOM     15  C   UNL     1      29.285  32.236  32.583  1.00  0.00     0.106 CG0
ATOM     16  G   UNL     1      28.054  33.021  32.168  1.00  0.00     0.000 G0
ENDBRANCH  13  15
ENDBRANCH  12  13
BRANCH  12  17
ATOM     17  C   UNL     1      33.112  32.612  32.044  1.00  0.00    -0.006 C 
ATOM     18  C   UNL     1      33.966  33.172  30.896  1.00  0.00     0.008 C 
ATOM     19  C   UNL     1      33.899  31.528  32.802  1.00  0.00     0.008 C 
ENDBRANCH  12  17
ENDBRANCH  11  12
ENDBRANCH   1  11
TORSDOF 1
ENDMDL
MODEL 8
REMARK VINA RESULT:    -2.548      2.256      4.813
REMARK INTER + INTRA:          -4.053
REMARK INTER:                  -4.417
REMARK INTRA:                   0.364
REMARK UNBOUND:                -0.164
REMARK SMILES CC1=CCC[C@H](C)C(=O)C[C@@H](C(C)C)C(=O)C1
REMARK SMILES IDX 8 1 9 2 6 3 7 4 5 5 4 6 3 7 2 8 1 9 10 11 11 12 15 13 16 14
REMARK SMILES IDX 17 15 12 17 13 18 14 19
REMARK H PARENT
REMARK Flexibility Score: 70.00
ROOT
ATOM      1  C   UNL     1      20.906  29.990  29.936  1.00  0.00     0.136 C 
ATOM      2  O   UNL     1      20.768  30.008  28.721  1.00  0.00    -0.299 OA
ENDROOT
BRANCH   1   3
ATOM      3  C   UNL     1      21.827  28.972  30.578  1.00  0.00     0.053 C 
ATOM      4  C   UNL     1      22.245  27.937  29.529  1.00  0.00     0.016 C 
BRANCH   3   5
ATOM      5  C   UNL     1      23.079  29.616  31.221  1.00  0.00     0.015 C 
BRANCH   5   6
ATOM      6  C   UNL     1      23.681  30.767  30.394  1.00  0.00     0.028 C 
BRANCH   6   7
ATOM      7  C   UNL     1      24.247  31.849  31.283  1.00  0.00    -0.028 C 
ATOM      8  C   UNL     1      23.523  32.692  32.054  1.00  0.00    -0.070 CG0
ATOM      9  C   UNL     1      24.266  33.710  32.883  1.00  0.00     0.039 C 
ATOM     10  G   UNL     1      22.007  32.659  32.116  1.00  0.00     0.000 G0
ENDBRANCH   6   7
ENDBRANCH   5   6
ENDBRANCH   3   5
ENDBRANCH   1   3
BRANCH   1  11
ATOM     11  C   UNL     1      20.100  30.943  30.784  1.00  0.00     0.087 C 
BRANCH  11  12
ATOM     12  C   UNL     1      20.165  32.390  30.246  1.00  0.00     0.066 C 
BRANCH  12  13
ATOM     13  C   UNL     1      21.353  33.133  30.843  1.00  0.00     0.140 C 
ATOM     14  O   UNL     1      21.808  34.110  30.266  1.00  0.00    -0.299 OA
BRANCH  13  15
ATOM     15  C   UNL     1      22.000  32.682  32.128  1.00  0.00     0.106 CG0
ATOM     16  G   UNL     1      23.516  32.699  32.049  1.00  0.00     0.000 G0
ENDBRANCH  13  15
ENDBRANCH  12  13
BRANCH  12  17
ATOM     17  C   UNL     1      18.817  33.149  30.435  1.00  0.00    -0.006 C 
ATOM     18  C   UNL     1      17.947  32.485  31.513  1.00  0.00     0.008 C 
ATOM     19  C   UNL     1      18.003  33.327  29.141  1.00  0.00     0.008 C 
ENDBRANCH  12  17
ENDBRANCH  11  12
ENDBRANCH   1  11
TORSDOF 1
ENDMDL
MODEL 9
REMARK VINA RESULT:    -2.453      3.891      4.926
REMARK INTER + INTRA:          -3.908
REMARK INTER:                  -4.563
REMARK INTRA:                   0.654
REMARK UNBOUND:                -0.164
REMARK SMILES CC1=CCC[C@H](C)C(=O)C[C@@H](C(C)C)C(=O)C1
REMARK SMILES IDX 8 1 9 2 6 3 7 4 5 5 4 6 3 7 2 8 1 9 10 11 11 12 15 13 16 14
REMARK SMILES IDX 17 15 12 17 13 18 14 19
REMARK H PARENT
REMARK Flexibility Score: 70.00
ROOT
ATOM      1  C   UNL     1      20.183  30.690  29.747  1.00  0.00     0.136 C 
ATOM      2  O   UNL     1      19.574  30.535  28.699  1.00  0.00    -0.299 OA
ENDROOT
BRANCH   1   3
ATOM      3  C   UNL     1      19.870  29.814  30.943  1.00  0.00     0.053 C 
ATOM      4  C   UNL     1      20.921  28.704  31.044  1.00  0.00     0.016 C 
BRANCH   3   5
ATOM      5  C   UNL     1      19.802  30.609  32.269  1.00  0.00     0.015 C 
BRANCH   5   6
ATOM      6  C   UNL     1      18.369  30.946  32.719  1.00  0.00     0.028 C 
BRANCH   6   7
ATOM      7  C   UNL     1      17.444  31.116  31.538  1.00  0.00    -0.028 C 
ATOM      8  C   UNL     1      17.321  32.237  30.790  1.00  0.00    -0.070 CG0
ATOM      9  C   UNL     1      16.344  32.218  29.641  1.00  0.00     0.039 C 
ATOM     10  G   UNL     1      18.114  33.503  31.061  1.00  0.00     0.000 G0
ENDBRANCH   6   7
ENDBRANCH   5   6
ENDBRANCH   3   5
ENDBRANCH   1   3
BRANCH   1  11
ATOM     11  C   UNL     1      21.196  31.804  29.853  1.00  0.00     0.087 C 
BRANCH  11  12
ATOM     12  C   UNL     1      20.700  32.952  30.761  1.00  0.00     0.066 C 
BRANCH  12  13
ATOM     13  C   UNL     1      19.398  33.535  30.229  1.00  0.00     0.140 C 
ATOM     14  O   UNL     1      19.375  34.061  29.125  1.00  0.00    -0.299 OA
BRANCH  13  15
ATOM     15  C   UNL     1      18.128  33.497  31.041  1.00  0.00     0.106 CG0
ATOM     16  G   UNL     1      17.320  32.237  30.792  1.00  0.00     0.000 G0
ENDBRANCH  13  15
ENDBRANCH  12  13
BRANCH  12  17
ATOM     17  C   UNL     1      21.798  34.032  30.997  1.00  0.00    -0.006 C 
ATOM     18  C   UNL     1      22.760  34.122  29.802  1.00  0.00     0.008 C 
ATOM     19  C   UNL     1      22.597  33.851  32.300  1.00  0.00     0.008 C 
ENDBRANCH  12  17
ENDBRANCH  11  12
ENDBRANCH   1  11
TORSDOF 1
ENDMDL
