MODEL 1
REMARK VINA RESULT:    22.440      0.000      0.000
REMARK INTER + INTRA:          30.423
REMARK INTER:                  30.310
REMARK INTRA:                   0.112
REMARK UNBOUND:                 0.112
REMARK SMILES O=c1c(-c2ccc(O)cc2)coc2c([C@@H]3O[C@H](CO)[C@@H](O)[C@H](O)[C@H]3O)c(O)ccc12
REMARK SMILES IDX 3 1 11 2 12 3 13 4 30 5 2 6 1 7 29 8 28 9 26 10 14 11 4 12
REMARK SMILES IDX 5 13 6 14 7 15 10 16 9 17 8 18 15 20 24 21 16 22 22 23 17 24
REMARK SMILES IDX 20 25 25 26 23 28 18 30 19 31 21 33 27 35
REMARK H PARENT 8 19 25 27 23 29 19 32 21 34 27 36
REMARK Flexibility Score: inf
ROOT
ATOM      1  C   UNL     1      13.120  22.031   2.153  1.00  0.00     0.065 A 
ATOM      2  C   UNL     1      13.482  21.205   1.081  1.00  0.00     0.208 A 
ATOM      3  O   UNL     1      13.484  21.665  -0.165  1.00  0.00    -0.463 OA
ATOM      4  C   UNL     1      13.151  22.915  -0.479  1.00  0.00     0.147 A 
ATOM      5  C   UNL     1      12.772  23.817   0.542  1.00  0.00     0.066 A 
ATOM      6  C   UNL     1      12.768  23.363   1.874  1.00  0.00     0.200 A 
ATOM      7  O   UNL     1      12.467  24.151   2.814  1.00  0.00    -0.288 OA
ATOM      8  C   UNL     1      12.413  25.132   0.209  1.00  0.00     0.020 A 
ATOM      9  C   UNL     1      12.414  25.543  -1.122  1.00  0.00     0.047 A 
ATOM     10  C   UNL     1      12.783  24.658  -2.143  1.00  0.00     0.125 A 
ATOM     11  C   UNL     1      13.175  23.336  -1.830  1.00  0.00     0.069 A 
ENDROOT
BRANCH   1  12
ATOM     12  C   UNL     1      13.120  21.491   3.537  1.00  0.00    -0.011 A 
ATOM     13  C   UNL     1      13.599  22.273   4.602  1.00  0.00     0.013 A 
ATOM     14  C   UNL     1      13.608  21.765   5.904  1.00  0.00     0.047 A 
ATOM     15  C   UNL     1      13.147  20.470   6.159  1.00  0.00     0.115 A 
ATOM     16  C   UNL     1      12.664  20.187   3.798  1.00  0.00     0.013 A 
ATOM     17  C   UNL     1      12.676  19.681   5.101  1.00  0.00     0.047 A 
BRANCH  15  18
ATOM     18  O   UNL     1      13.162  19.977   7.461  1.00  0.00    -0.508 OA
ATOM     19  H   UNL     1      12.480  19.298   7.779  1.00  0.00     0.293 HD
ENDBRANCH  15  18
ENDBRANCH   1  12
BRANCH  11  20
ATOM     20  C   UNL     1      13.557  22.359  -2.935  1.00  0.00     0.188 C 
ATOM     21  C   UNL     1      14.742  21.477  -2.479  1.00  0.00     0.179 C 
ATOM     22  O   UNL     1      12.428  21.562  -3.261  1.00  0.00    -0.362 OA
ATOM     23  C   UNL     1      15.092  20.466  -3.584  1.00  0.00     0.177 C 
ATOM     24  C   UNL     1      12.701  20.727  -4.375  1.00  0.00     0.176 C 
ATOM     25  C   UNL     1      13.823  19.716  -4.032  1.00  0.00     0.177 C 
BRANCH  21  26
ATOM     26  O   UNL     1      15.855  22.291  -2.211  1.00  0.00    -0.387 OA
ATOM     27  H   UNL     1      16.110  22.130  -1.265  1.00  0.00     0.211 HD
ENDBRANCH  21  26
BRANCH  23  28
ATOM     28  O   UNL     1      16.042  19.554  -3.094  1.00  0.00    -0.387 OA
ATOM     29  H   UNL     1      16.108  18.821  -3.761  1.00  0.00     0.211 HD
ENDBRANCH  23  28
BRANCH  24  30
ATOM     30  C   UNL     1      11.402  20.012  -4.780  1.00  0.00     0.191 C 
BRANCH  30  31
ATOM     31  O   UNL     1      11.096  18.972  -3.889  1.00  0.00    -0.394 OA
ATOM     32  H   UNL     1      11.358  18.126  -4.336  1.00  0.00     0.210 HD
ENDBRANCH  30  31
ENDBRANCH  24  30
BRANCH  25  33
ATOM     33  O   UNL     1      14.104  18.875  -5.125  1.00  0.00    -0.388 OA
ATOM     34  H   UNL     1      15.026  19.081  -5.432  1.00  0.00     0.211 HD
ENDBRANCH  25  33
ENDBRANCH  11  20
BRANCH  10  35
ATOM     35  O   UNL     1      12.755  25.092  -3.469  1.00  0.00    -0.507 OA
ATOM     36  H   UNL     1      12.173  24.641  -4.165  1.00  0.00     0.293 HD
ENDBRANCH  10  35
TORSDOF 9
ENDMDL
MODEL 2
REMARK VINA RESULT:    23.515      1.643      2.192
REMARK INTER + INTRA:          31.875
REMARK INTER:                  30.271
REMARK INTRA:                   1.604
REMARK UNBOUND:                 0.112
REMARK SMILES O=c1c(-c2ccc(O)cc2)coc2c([C@@H]3O[C@H](CO)[C@@H](O)[C@H](O)[C@H]3O)c(O)ccc12
REMARK SMILES IDX 3 1 11 2 12 3 13 4 30 5 2 6 1 7 29 8 28 9 26 10 14 11 4 12
REMARK SMILES IDX 5 13 6 14 7 15 10 16 9 17 8 18 15 20 24 21 16 22 22 23 17 24
REMARK SMILES IDX 20 25 25 26 23 28 18 30 19 31 21 33 27 35
REMARK H PARENT 8 19 25 27 23 29 19 32 21 34 27 36
REMARK Flexibility Score: inf
ROOT
ATOM      1  C   UNL     1      13.935  22.582   2.214  1.00  0.00     0.065 A 
ATOM      2  C   UNL     1      13.181  21.752   1.376  1.00  0.00     0.208 A 
ATOM      3  O   UNL     1      13.087  21.999   0.074  1.00  0.00    -0.463 OA
ATOM      4  C   UNL     1      13.689  23.030  -0.516  1.00  0.00     0.147 A 
ATOM      5  C   UNL     1      14.472  23.919   0.256  1.00  0.00     0.066 A 
ATOM      6  C   UNL     1      14.598  23.681   1.637  1.00  0.00     0.200 A 
ATOM      7  O   UNL     1      15.317  24.436   2.350  1.00  0.00    -0.288 OA
ATOM      8  C   UNL     1      15.099  25.010  -0.365  1.00  0.00     0.020 A 
ATOM      9  C   UNL     1      14.939  25.225  -1.732  1.00  0.00     0.047 A 
ATOM     10  C   UNL     1      14.164  24.353  -2.506  1.00  0.00     0.125 A 
ATOM     11  C   UNL     1      13.544  23.232  -1.909  1.00  0.00     0.069 A 
ENDROOT
BRANCH   1  12
ATOM     12  C   UNL     1      14.020  22.288   3.668  1.00  0.00    -0.011 A 
ATOM     13  C   UNL     1      13.216  21.285   4.235  1.00  0.00     0.013 A 
ATOM     14  C   UNL     1      13.286  21.011   5.604  1.00  0.00     0.047 A 
ATOM     15  C   UNL     1      14.153  21.739   6.424  1.00  0.00     0.115 A 
ATOM     16  C   UNL     1      14.885  23.021   4.499  1.00  0.00     0.013 A 
ATOM     17  C   UNL     1      14.953  22.747   5.868  1.00  0.00     0.047 A 
BRANCH  15  18
ATOM     18  O   UNL     1      14.213  21.456   7.786  1.00  0.00    -0.508 OA
ATOM     19  H   UNL     1      14.740  20.667   8.141  1.00  0.00     0.293 HD
ENDBRANCH  15  18
ENDBRANCH   1  12
BRANCH  11  20
ATOM     20  C   UNL     1      12.680  22.290  -2.738  1.00  0.00     0.188 C 
ATOM     21  C   UNL     1      13.571  21.411  -3.644  1.00  0.00     0.179 C 
ATOM     22  O   UNL     1      11.896  21.489  -1.867  1.00  0.00    -0.362 OA
ATOM     23  C   UNL     1      12.694  20.434  -4.446  1.00  0.00     0.177 C 
ATOM     24  C   UNL     1      10.982  20.689  -2.597  1.00  0.00     0.176 C 
ATOM     25  C   UNL     1      11.741  19.681  -3.497  1.00  0.00     0.177 C 
BRANCH  21  26
ATOM     26  O   UNL     1      14.295  22.230  -4.526  1.00  0.00    -0.387 OA
ATOM     27  H   UNL     1      15.194  22.362  -4.125  1.00  0.00     0.211 HD
ENDBRANCH  21  26
BRANCH  23  28
ATOM     28  O   UNL     1      13.517  19.521  -5.125  1.00  0.00    -0.387 OA
ATOM     29  H   UNL     1      12.962  18.720  -5.316  1.00  0.00     0.211 HD
ENDBRANCH  23  28
BRANCH  24  30
ATOM     30  C   UNL     1      10.057  19.969  -1.603  1.00  0.00     0.191 C 
BRANCH  30  31
ATOM     31  O   UNL     1       9.416  18.875  -2.205  1.00  0.00    -0.394 OA
ATOM     32  H   UNL     1       9.859  18.058  -1.858  1.00  0.00     0.210 HD
ENDBRANCH  30  31
ENDBRANCH  24  30
BRANCH  25  33
ATOM     33  O   UNL     1      10.849  18.875  -4.226  1.00  0.00    -0.388 OA
ATOM     34  H   UNL     1      11.390  18.224  -4.746  1.00  0.00     0.211 HD
ENDBRANCH  25  33
ENDBRANCH  11  20
BRANCH  10  35
ATOM     35  O   UNL     1      14.005  24.605  -3.870  1.00  0.00    -0.507 OA
ATOM     36  H   UNL     1      14.160  25.525  -4.263  1.00  0.00     0.293 HD
ENDBRANCH  10  35
TORSDOF 9
ENDMDL
