MODEL 1
REMARK VINA RESULT:    15.951      0.000      0.000
REMARK INTER + INTRA:          23.728
REMARK INTER:                  21.080
REMARK INTRA:                   2.648
REMARK UNBOUND:                 2.648
REMARK SMILES CC(C)=CCC[C@H](C(=O)[O-])[C@H]1CC[C@]2(C)C3=C(CC[C@]12C)[C@@]1(C)CC[C@@H](O)C(C)(C)[C@H]1CC3
REMARK SMILES IDX 6 1 7 2 8 3 9 4 10 5 11 6 12 7 20 8 13 9 14 10 19 11 21 12
REMARK SMILES IDX 15 13 16 14 18 15 17 16 33 17 22 18 32 19 31 20 24 21 23 22
REMARK SMILES IDX 28 23 25 24 26 25 29 26 30 27 27 28 5 30 4 31 2 32 1 33 3 34
REMARK H PARENT 27 29
REMARK Flexibility Score: inf
ROOT
ATOM      1  C   UNL     1      14.040  14.023  26.931  1.00  0.00     0.014 C 
ENDROOT
BRANCH   1   2
ATOM      2  C   UNL     1      13.118  15.207  27.336  1.00  0.00     0.039 C 
BRANCH   2   3
ATOM      3  C   UNL     1      11.684  14.848  27.021  1.00  0.00     0.045 C 
ATOM      4  O   UNL     1      11.201  15.076  25.882  1.00  0.00    -0.550 OA
ATOM      5  O   UNL     1      10.883  14.276  28.002  1.00  0.00    -0.550 OA
ENDBRANCH   2   3
BRANCH   2   6
ATOM      6  C   UNL     1      13.537  16.541  26.617  1.00  0.00     0.004 C 
ATOM      7  C   UNL     1      13.802  17.689  27.591  1.00  0.00     0.006 C 
ATOM      8  C   UNL     1      14.785  16.532  25.637  1.00  0.00    -0.020 C 
ATOM      9  C   UNL     1      14.543  18.727  26.780  1.00  0.00     0.012 C 
ATOM     10  C   UNL     1      15.530  17.932  25.902  1.00  0.00    -0.006 C 
ATOM     11  C   UNL     1      14.280  16.422  24.167  1.00  0.00     0.012 C 
ATOM     12  C   UNL     1      15.727  15.307  25.859  1.00  0.00     0.012 C 
ATOM     13  C   UNL     1      16.831  17.763  26.755  1.00  0.00     0.017 C 
ATOM     14  C   UNL     1      15.816  18.764  24.610  1.00  0.00    -0.064 C 
ATOM     15  C   UNL     1      13.789  17.757  23.633  1.00  0.00     0.032 C 
ATOM     16  C   UNL     1      14.954  18.720  23.544  1.00  0.00    -0.064 C 
ATOM     17  C   UNL     1      16.939  19.780  24.586  1.00  0.00     0.032 C 
ATOM     18  C   UNL     1      15.045  19.697  22.322  1.00  0.00    -0.008 C 
ATOM     19  C   UNL     1      17.472  19.925  23.179  1.00  0.00     0.009 C 
ATOM     20  C   UNL     1      16.406  20.534  22.248  1.00  0.00     0.007 C 
ATOM     21  C   UNL     1      13.806  20.631  22.401  1.00  0.00     0.014 C 
ATOM     22  C   UNL     1      14.927  18.880  21.002  1.00  0.00     0.016 C 
ATOM     23  C   UNL     1      16.262  22.127  22.281  1.00  0.00    -0.006 C 
ATOM     24  C   UNL     1      13.965  21.666  23.503  1.00  0.00     0.033 C 
ATOM     25  C   UNL     1      15.125  22.650  23.251  1.00  0.00     0.120 C 
ATOM     26  C   UNL     1      15.964  22.621  20.831  1.00  0.00     0.014 C 
ATOM     27  C   UNL     1      17.607  22.823  22.644  1.00  0.00     0.014 C 
BRANCH  25  28
ATOM     28  O   UNL     1      15.655  23.035  24.496  1.00  0.00    -0.393 OA
ATOM     29  H   UNL     1      15.829  24.012  24.457  1.00  0.00     0.210 HD
ENDBRANCH  25  28
ENDBRANCH   2   6
ENDBRANCH   1   2
BRANCH   1  30
ATOM     30  C   UNL     1      13.977  12.817  27.889  1.00  0.00     0.028 C 
BRANCH  30  31
ATOM     31  C   UNL     1      15.294  12.081  27.983  1.00  0.00    -0.028 C 
ATOM     32  C   UNL     1      16.490  12.709  28.003  1.00  0.00    -0.080 C 
ATOM     33  C   UNL     1      16.594  14.213  27.912  1.00  0.00     0.039 C 
ATOM     34  C   UNL     1      17.741  11.876  28.125  1.00  0.00     0.039 C 
ENDBRANCH  30  31
ENDBRANCH   1  30
TORSDOF 6
ENDMDL
MODEL 2
REMARK VINA RESULT:    15.969      1.514      2.722
REMARK INTER + INTRA:          23.751
REMARK INTER:                  22.248
REMARK INTRA:                   1.503
REMARK UNBOUND:                 2.648
REMARK SMILES CC(C)=CCC[C@H](C(=O)[O-])[C@H]1CC[C@]2(C)C3=C(CC[C@]12C)[C@@]1(C)CC[C@@H](O)C(C)(C)[C@H]1CC3
REMARK SMILES IDX 6 1 7 2 8 3 9 4 10 5 11 6 12 7 20 8 13 9 14 10 19 11 21 12
REMARK SMILES IDX 15 13 16 14 18 15 17 16 33 17 22 18 32 19 31 20 24 21 23 22
REMARK SMILES IDX 28 23 25 24 26 25 29 26 30 27 27 28 5 30 4 31 2 32 1 33 3 34
REMARK H PARENT 27 29
REMARK Flexibility Score: inf
ROOT
ATOM      1  C   UNL     1      12.329  15.027  28.122  1.00  0.00     0.014 C 
ENDROOT
BRANCH   1   2
ATOM      2  C   UNL     1      13.476  14.897  27.080  1.00  0.00     0.039 C 
BRANCH   2   3
ATOM      3  C   UNL     1      14.700  14.328  27.761  1.00  0.00     0.045 C 
ATOM      4  O   UNL     1      15.669  15.071  28.063  1.00  0.00    -0.550 OA
ATOM      5  O   UNL     1      14.766  12.969  28.041  1.00  0.00    -0.550 OA
ENDBRANCH   2   3
BRANCH   2   6
ATOM      6  C   UNL     1      13.799  16.275  26.396  1.00  0.00     0.004 C 
ATOM      7  C   UNL     1      13.981  17.413  27.400  1.00  0.00     0.006 C 
ATOM      8  C   UNL     1      15.047  16.379  25.421  1.00  0.00    -0.020 C 
ATOM      9  C   UNL     1      14.648  18.521  26.618  1.00  0.00     0.012 C 
ATOM     10  C   UNL     1      15.691  17.821  25.724  1.00  0.00    -0.006 C 
ATOM     11  C   UNL     1      14.553  16.271  23.947  1.00  0.00     0.012 C 
ATOM     12  C   UNL     1      16.073  15.219  25.615  1.00  0.00     0.012 C 
ATOM     13  C   UNL     1      16.999  17.723  26.576  1.00  0.00     0.017 C 
ATOM     14  C   UNL     1      15.918  18.704  24.454  1.00  0.00    -0.064 C 
ATOM     15  C   UNL     1      13.970  17.581  23.445  1.00  0.00     0.032 C 
ATOM     16  C   UNL     1      15.064  18.626  23.384  1.00  0.00    -0.064 C 
ATOM     17  C   UNL     1      16.967  19.797  24.459  1.00  0.00     0.032 C 
ATOM     18  C   UNL     1      15.086  19.638  22.187  1.00  0.00    -0.008 C 
ATOM     19  C   UNL     1      17.490  20.015  23.058  1.00  0.00     0.009 C 
ATOM     20  C   UNL     1      16.385  20.571  22.139  1.00  0.00     0.007 C 
ATOM     21  C   UNL     1      13.785  20.479  22.286  1.00  0.00     0.014 C 
ATOM     22  C   UNL     1      15.029  18.848  20.847  1.00  0.00     0.016 C 
ATOM     23  C   UNL     1      16.129  22.147  22.212  1.00  0.00    -0.006 C 
ATOM     24  C   UNL     1      13.868  21.494  23.415  1.00  0.00     0.033 C 
ATOM     25  C   UNL     1      14.956  22.564  23.190  1.00  0.00     0.120 C 
ATOM     26  C   UNL     1      15.799  22.656  20.773  1.00  0.00     0.014 C 
ATOM     27  C   UNL     1      17.421  22.928  22.596  1.00  0.00     0.014 C 
BRANCH  25  28
ATOM     28  O   UNL     1      15.456  22.954  24.447  1.00  0.00    -0.393 OA
ATOM     29  H   UNL     1      14.858  22.565  25.139  1.00  0.00     0.210 HD
ENDBRANCH  25  28
ENDBRANCH   2   6
ENDBRANCH   1   2
BRANCH   1  30
ATOM     30  C   UNL     1      10.922  14.782  27.547  1.00  0.00     0.028 C 
BRANCH  30  31
ATOM     31  C   UNL     1      10.916  13.741  26.450  1.00  0.00    -0.028 C 
ATOM     32  C   UNL     1      10.931  14.054  25.137  1.00  0.00    -0.080 C 
ATOM     33  C   UNL     1      10.936  15.489  24.666  1.00  0.00     0.039 C 
ATOM     34  C   UNL     1      10.950  12.934  24.127  1.00  0.00     0.039 C 
ENDBRANCH  30  31
ENDBRANCH   1  30
TORSDOF 6
ENDMDL
