MODEL 1
REMARK VINA RESULT:    -2.838      0.000      0.000
REMARK INTER + INTRA:          -3.397
REMARK INTER:                  -3.336
REMARK INTRA:                  -0.061
REMARK UNBOUND:                -0.061
REMARK SMILES CCCCC(=O)[O-]
REMARK SMILES IDX 4 1 5 2 6 3 7 4 3 5 2 6 1 7
REMARK H PARENT
REMARK Flexibility Score: inf
ROOT
ATOM      1  C   UNL     1     -21.645   0.293   2.535  1.00  0.00     0.053 C 
ENDROOT
BRANCH   1   2
ATOM      2  C   UNL     1     -20.924   0.489   1.239  1.00  0.00     0.041 C 
ATOM      3  O   UNL     1     -19.734   0.899   1.231  1.00  0.00    -0.550 OA
ATOM      4  O   UNL     1     -21.583   0.265   0.037  1.00  0.00    -0.550 OA
ENDBRANCH   1   2
BRANCH   1   5
ATOM      5  C   UNL     1     -23.120   0.693   2.393  1.00  0.00     0.006 C 
BRANCH   5   6
ATOM      6  C   UNL     1     -23.320   2.217   2.406  1.00  0.00    -0.003 C 
ATOM      7  C   UNL     1     -24.745   2.622   2.783  1.00  0.00     0.004 C 
ENDBRANCH   5   6
ENDBRANCH   1   5
TORSDOF 3
ENDMDL
MODEL 2
REMARK VINA RESULT:    -2.829      0.070      1.225
REMARK INTER + INTRA:          -3.386
REMARK INTER:                  -3.331
REMARK INTRA:                  -0.055
REMARK UNBOUND:                -0.061
REMARK SMILES CCCCC(=O)[O-]
REMARK SMILES IDX 4 1 5 2 6 3 7 4 3 5 2 6 1 7
REMARK H PARENT
REMARK Flexibility Score: inf
ROOT
ATOM      1  C   UNL     1     -21.648   0.293   2.508  1.00  0.00     0.053 C 
ENDROOT
BRANCH   1   2
ATOM      2  C   UNL     1     -20.937   0.523   1.212  1.00  0.00     0.041 C 
ATOM      3  O   UNL     1     -21.508   0.262   0.121  1.00  0.00    -0.550 OA
ATOM      4  O   UNL     1     -19.625   0.978   1.210  1.00  0.00    -0.550 OA
ENDBRANCH   1   2
BRANCH   1   5
ATOM      5  C   UNL     1     -23.124   0.697   2.388  1.00  0.00     0.006 C 
BRANCH   5   6
ATOM      6  C   UNL     1     -23.321   2.221   2.412  1.00  0.00    -0.003 C 
ATOM      7  C   UNL     1     -24.750   2.626   2.769  1.00  0.00     0.004 C 
ENDBRANCH   5   6
ENDBRANCH   1   5
TORSDOF 3
ENDMDL
MODEL 3
REMARK VINA RESULT:    -2.689     14.288     15.382
REMARK INTER + INTRA:          -3.222
REMARK INTER:                  -3.112
REMARK INTRA:                  -0.109
REMARK UNBOUND:                -0.061
REMARK SMILES CCCCC(=O)[O-]
REMARK SMILES IDX 4 1 5 2 6 3 7 4 3 5 2 6 1 7
REMARK H PARENT
REMARK Flexibility Score: inf
ROOT
ATOM      1  C   UNL     1     -13.908 -12.567   4.265  1.00  0.00     0.053 C 
ENDROOT
BRANCH   1   2
ATOM      2  C   UNL     1     -12.506 -12.161   3.935  1.00  0.00     0.041 C 
ATOM      3  O   UNL     1     -11.578 -12.356   4.763  1.00  0.00    -0.550 OA
ATOM      4  O   UNL     1     -12.233 -11.523   2.732  1.00  0.00    -0.550 OA
ENDBRANCH   1   2
BRANCH   1   5
ATOM      5  C   UNL     1     -14.875 -12.089   3.174  1.00  0.00     0.006 C 
BRANCH   5   6
ATOM      6  C   UNL     1     -15.625 -10.808   3.573  1.00  0.00    -0.003 C 
ATOM      7  C   UNL     1     -15.289  -9.622   2.669  1.00  0.00     0.004 C 
ENDBRANCH   5   6
ENDBRANCH   1   5
TORSDOF 3
ENDMDL
MODEL 4
REMARK VINA RESULT:    -2.675     14.022     14.661
REMARK INTER + INTRA:          -3.205
REMARK INTER:                  -3.098
REMARK INTRA:                  -0.107
REMARK UNBOUND:                -0.061
REMARK SMILES CCCCC(=O)[O-]
REMARK SMILES IDX 4 1 5 2 6 3 7 4 3 5 2 6 1 7
REMARK H PARENT
REMARK Flexibility Score: inf
ROOT
ATOM      1  C   UNL     1     -13.398 -10.829   2.363  1.00  0.00     0.053 C 
ENDROOT
BRANCH   1   2
ATOM      2  C   UNL     1     -13.233 -11.461   1.017  1.00  0.00     0.041 C 
ATOM      3  O   UNL     1     -14.236 -11.897   0.394  1.00  0.00    -0.550 OA
ATOM      4  O   UNL     1     -11.965 -11.611   0.471  1.00  0.00    -0.550 OA
ENDBRANCH   1   2
BRANCH   1   5
ATOM      5  C   UNL     1     -14.745 -10.100   2.450  1.00  0.00     0.006 C 
BRANCH   5   6
ATOM      6  C   UNL     1     -15.673 -10.703   3.517  1.00  0.00    -0.003 C 
ATOM      7  C   UNL     1     -16.696 -11.673   2.929  1.00  0.00     0.004 C 
ENDBRANCH   5   6
ENDBRANCH   1   5
TORSDOF 3
ENDMDL
MODEL 5
REMARK VINA RESULT:    -2.600     13.736     15.023
REMARK INTER + INTRA:          -3.117
REMARK INTER:                  -3.013
REMARK INTRA:                  -0.104
REMARK UNBOUND:                -0.061
REMARK SMILES CCCCC(=O)[O-]
REMARK SMILES IDX 4 1 5 2 6 3 7 4 3 5 2 6 1 7
REMARK H PARENT
REMARK Flexibility Score: inf
ROOT
ATOM      1  C   UNL     1     -15.582 -11.209   3.574  1.00  0.00     0.053 C 
ENDROOT
BRANCH   1   2
ATOM      2  C   UNL     1     -14.800 -10.229   2.756  1.00  0.00     0.041 C 
ATOM      3  O   UNL     1     -13.660 -10.535   2.320  1.00  0.00    -0.550 OA
ATOM      4  O   UNL     1     -15.311  -8.960   2.518  1.00  0.00    -0.550 OA
ENDBRANCH   1   2
BRANCH   1   5
ATOM      5  C   UNL     1     -14.875 -12.571   3.596  1.00  0.00     0.006 C 
BRANCH   5   6
ATOM      6  C   UNL     1     -14.210 -12.867   4.949  1.00  0.00    -0.003 C 
ATOM      7  C   UNL     1     -12.690 -12.986   4.847  1.00  0.00     0.004 C 
ENDBRANCH   5   6
ENDBRANCH   1   5
TORSDOF 3
ENDMDL
MODEL 6
REMARK VINA RESULT:    -2.587     13.880     15.304
REMARK INTER + INTRA:          -3.101
REMARK INTER:                  -3.044
REMARK INTRA:                  -0.057
REMARK UNBOUND:                -0.061
REMARK SMILES CCCCC(=O)[O-]
REMARK SMILES IDX 4 1 5 2 6 3 7 4 3 5 2 6 1 7
REMARK H PARENT
REMARK Flexibility Score: inf
ROOT
ATOM      1  C   UNL     1     -13.884 -11.024   2.015  1.00  0.00     0.053 C 
ENDROOT
BRANCH   1   2
ATOM      2  C   UNL     1     -14.946 -10.363   2.836  1.00  0.00     0.041 C 
ATOM      3  O   UNL     1     -15.545 -11.008   3.735  1.00  0.00    -0.550 OA
ATOM      4  O   UNL     1     -15.308  -9.048   2.575  1.00  0.00    -0.550 OA
ENDBRANCH   1   2
BRANCH   1   5
ATOM      5  C   UNL     1     -12.578 -11.129   2.814  1.00  0.00     0.006 C 
BRANCH   5   6
ATOM      6  C   UNL     1     -12.337 -12.544   3.366  1.00  0.00    -0.003 C 
ATOM      7  C   UNL     1     -11.603 -12.538   4.706  1.00  0.00     0.004 C 
ENDBRANCH   5   6
ENDBRANCH   1   5
TORSDOF 3
ENDMDL
MODEL 7
REMARK VINA RESULT:    -2.559      2.500      3.759
REMARK INTER + INTRA:          -3.069
REMARK INTER:                  -3.020
REMARK INTRA:                  -0.049
REMARK UNBOUND:                -0.061
REMARK SMILES CCCCC(=O)[O-]
REMARK SMILES IDX 4 1 5 2 6 3 7 4 3 5 2 6 1 7
REMARK H PARENT
REMARK Flexibility Score: inf
ROOT
ATOM      1  C   UNL     1     -22.749   1.591   2.274  1.00  0.00     0.053 C 
ENDROOT
BRANCH   1   2
ATOM      2  C   UNL     1     -24.244   1.610   2.206  1.00  0.00     0.041 C 
ATOM      3  O   UNL     1     -24.911   2.200   3.096  1.00  0.00    -0.550 OA
ATOM      4  O   UNL     1     -24.902   0.932   1.188  1.00  0.00    -0.550 OA
ENDBRANCH   1   2
BRANCH   1   5
ATOM      5  C   UNL     1     -22.247   0.183   2.620  1.00  0.00     0.006 C 
BRANCH   5   6
ATOM      6  C   UNL     1     -21.075  -0.259   1.729  1.00  0.00    -0.003 C 
ATOM      7  C   UNL     1     -20.313   0.921   1.128  1.00  0.00     0.004 C 
ENDBRANCH   5   6
ENDBRANCH   1   5
TORSDOF 3
ENDMDL
MODEL 8
REMARK VINA RESULT:    -2.536      2.552      3.671
REMARK INTER + INTRA:          -3.041
REMARK INTER:                  -2.931
REMARK INTRA:                  -0.110
REMARK UNBOUND:                -0.061
REMARK SMILES CCCCC(=O)[O-]
REMARK SMILES IDX 4 1 5 2 6 3 7 4 3 5 2 6 1 7
REMARK H PARENT
REMARK Flexibility Score: inf
ROOT
ATOM      1  C   UNL     1     -24.138   1.866   2.611  1.00  0.00     0.053 C 
ENDROOT
BRANCH   1   2
ATOM      2  C   UNL     1     -23.462   3.196   2.494  1.00  0.00     0.041 C 
ATOM      3  O   UNL     1     -23.505   4.016   3.448  1.00  0.00    -0.550 OA
ATOM      4  O   UNL     1     -22.826   3.549   1.311  1.00  0.00    -0.550 OA
ENDBRANCH   1   2
BRANCH   1   5
ATOM      5  C   UNL     1     -23.378   0.806   1.802  1.00  0.00     0.006 C 
BRANCH   5   6
ATOM      6  C   UNL     1     -22.151   0.262   2.552  1.00  0.00    -0.003 C 
ATOM      7  C   UNL     1     -20.901   0.205   1.674  1.00  0.00     0.004 C 
ENDBRANCH   5   6
ENDBRANCH   1   5
TORSDOF 3
ENDMDL
MODEL 9
REMARK VINA RESULT:    -2.521     13.703     14.671
REMARK INTER + INTRA:          -3.025
REMARK INTER:                  -2.899
REMARK INTRA:                  -0.126
REMARK UNBOUND:                -0.061
REMARK SMILES CCCCC(=O)[O-]
REMARK SMILES IDX 4 1 5 2 6 3 7 4 3 5 2 6 1 7
REMARK H PARENT
REMARK Flexibility Score: inf
ROOT
ATOM      1  C   UNL     1     -15.704 -10.672   3.362  1.00  0.00     0.053 C 
ENDROOT
BRANCH   1   2
ATOM      2  C   UNL     1     -16.324 -11.839   2.659  1.00  0.00     0.041 C 
ATOM      3  O   UNL     1     -16.425 -12.950   3.242  1.00  0.00    -0.550 OA
ATOM      4  O   UNL     1     -16.744 -11.712   1.341  1.00  0.00    -0.550 OA
ENDBRANCH   1   2
BRANCH   1   5
ATOM      5  C   UNL     1     -14.600 -10.051   2.496  1.00  0.00     0.006 C 
BRANCH   5   6
ATOM      6  C   UNL     1     -13.309 -10.885   2.501  1.00  0.00    -0.003 C 
ATOM      7  C   UNL     1     -12.996 -11.495   1.136  1.00  0.00     0.004 C 
ENDBRANCH   5   6
ENDBRANCH   1   5
TORSDOF 3
ENDMDL
