MODEL 1
REMARK VINA RESULT:    -3.601      0.000      0.000
REMARK INTER + INTRA:          -3.831
REMARK INTER:                  -3.811
REMARK INTRA:                  -0.020
REMARK UNBOUND:                -0.020
REMARK SMILES O=C([O-])c1cccnc1
REMARK SMILES IDX 4 1 5 2 9 3 6 4 8 5 7 6 2 7 1 8 3 9
REMARK H PARENT
REMARK Flexibility Score: inf
ROOT
ATOM      1  C   UNL     1      38.220 -43.525  21.278  1.00  0.00     0.016 A 
ATOM      2  C   UNL     1      38.765 -43.846  20.025  1.00  0.00     0.013 A 
ATOM      3  C   UNL     1      38.228 -42.179  21.686  1.00  0.00     0.120 A 
ATOM      4  C   UNL     1      39.297 -42.842  19.214  1.00  0.00     0.021 A 
ATOM      5  N   UNL     1      38.752 -41.220  20.877  1.00  0.00    -0.264 NA
ATOM      6  C   UNL     1      39.281 -41.520  19.661  1.00  0.00     0.111 A 
ENDROOT
BRANCH   1   7
ATOM      7  C   UNL     1      37.653 -44.580  22.147  1.00  0.00     0.073 C 
ATOM      8  O   UNL     1      37.866 -44.570  23.388  1.00  0.00    -0.545 OA
ATOM      9  O   UNL     1      36.877 -45.597  21.603  1.00  0.00    -0.545 OA
ENDBRANCH   1   7
TORSDOF 1
ENDMDL
MODEL 2
REMARK VINA RESULT:    -3.596      2.093      2.884
REMARK INTER + INTRA:          -3.827
REMARK INTER:                  -3.803
REMARK INTRA:                  -0.023
REMARK UNBOUND:                -0.020
REMARK SMILES O=C([O-])c1cccnc1
REMARK SMILES IDX 4 1 5 2 9 3 6 4 8 5 7 6 2 7 1 8 3 9
REMARK H PARENT
REMARK Flexibility Score: inf
ROOT
ATOM      1  C   UNL     1      39.023 -41.777  20.261  1.00  0.00     0.016 A 
ATOM      2  C   UNL     1      39.461 -40.877  19.276  1.00  0.00     0.013 A 
ATOM      3  C   UNL     1      38.604 -41.260  21.500  1.00  0.00     0.120 A 
ATOM      4  C   UNL     1      39.473 -39.506  19.536  1.00  0.00     0.021 A 
ATOM      5  N   UNL     1      38.626 -39.920  21.727  1.00  0.00    -0.264 NA
ATOM      6  C   UNL     1      39.048 -39.040  20.781  1.00  0.00     0.111 A 
ENDROOT
BRANCH   1   7
ATOM      7  C   UNL     1      39.005 -43.233  19.998  1.00  0.00     0.073 C 
ATOM      8  O   UNL     1      39.024 -43.670  18.818  1.00  0.00    -0.545 OA
ATOM      9  O   UNL     1      38.967 -44.138  21.052  1.00  0.00    -0.545 OA
ENDBRANCH   1   7
TORSDOF 1
ENDMDL
MODEL 3
REMARK VINA RESULT:    -3.536      3.409      4.248
REMARK INTER + INTRA:          -3.763
REMARK INTER:                  -3.745
REMARK INTRA:                  -0.018
REMARK UNBOUND:                -0.020
REMARK SMILES O=C([O-])c1cccnc1
REMARK SMILES IDX 4 1 5 2 9 3 6 4 8 5 7 6 2 7 1 8 3 9
REMARK H PARENT
REMARK Flexibility Score: inf
ROOT
ATOM      1  C   UNL     1      39.105 -41.366  19.883  1.00  0.00     0.016 A 
ATOM      2  C   UNL     1      39.275 -42.560  19.166  1.00  0.00     0.013 A 
ATOM      3  C   UNL     1      38.672 -41.444  21.219  1.00  0.00     0.120 A 
ATOM      4  C   UNL     1      39.018 -43.788  19.778  1.00  0.00     0.021 A 
ATOM      5  N   UNL     1      38.428 -42.653  21.791  1.00  0.00    -0.264 NA
ATOM      6  C   UNL     1      38.590 -43.815  21.106  1.00  0.00     0.111 A 
ENDROOT
BRANCH   1   7
ATOM      7  C   UNL     1      39.375 -40.058  19.246  1.00  0.00     0.073 C 
ATOM      8  O   UNL     1      38.790 -39.733  18.179  1.00  0.00    -0.545 OA
ATOM      9  O   UNL     1      40.279 -39.170  19.817  1.00  0.00    -0.545 OA
ENDBRANCH   1   7
TORSDOF 1
ENDMDL
MODEL 4
REMARK VINA RESULT:    -3.526      9.322     10.383
REMARK INTER + INTRA:          -3.753
REMARK INTER:                  -3.734
REMARK INTRA:                  -0.019
REMARK UNBOUND:                -0.020
REMARK SMILES O=C([O-])c1cccnc1
REMARK SMILES IDX 4 1 5 2 9 3 6 4 8 5 7 6 2 7 1 8 3 9
REMARK H PARENT
REMARK Flexibility Score: inf
ROOT
ATOM      1  C   UNL     1      42.883 -44.608  29.909  1.00  0.00     0.016 A 
ATOM      2  C   UNL     1      42.112 -43.894  28.978  1.00  0.00     0.013 A 
ATOM      3  C   UNL     1      42.412 -45.858  30.350  1.00  0.00     0.120 A 
ATOM      4  C   UNL     1      40.908 -44.426  28.511  1.00  0.00     0.021 A 
ATOM      5  N   UNL     1      41.236 -46.352  29.879  1.00  0.00    -0.264 NA
ATOM      6  C   UNL     1      40.482 -45.670  28.978  1.00  0.00     0.111 A 
ENDROOT
BRANCH   1   7
ATOM      7  C   UNL     1      44.160 -44.056  30.411  1.00  0.00     0.073 C 
ATOM      8  O   UNL     1      45.038 -43.641  29.610  1.00  0.00    -0.545 OA
ATOM      9  O   UNL     1      44.408 -43.988  31.777  1.00  0.00    -0.545 OA
ENDBRANCH   1   7
TORSDOF 1
ENDMDL
MODEL 5
REMARK VINA RESULT:    -3.432      2.722      3.733
REMARK INTER + INTRA:          -3.653
REMARK INTER:                  -3.633
REMARK INTRA:                  -0.020
REMARK UNBOUND:                -0.020
REMARK SMILES O=C([O-])c1cccnc1
REMARK SMILES IDX 4 1 5 2 9 3 6 4 8 5 7 6 2 7 1 8 3 9
REMARK H PARENT
REMARK Flexibility Score: inf
ROOT
ATOM      1  C   UNL     1      38.649 -42.947  20.904  1.00  0.00     0.016 A 
ATOM      2  C   UNL     1      38.366 -41.804  21.668  1.00  0.00     0.013 A 
ATOM      3  C   UNL     1      38.412 -44.210  21.476  1.00  0.00     0.120 A 
ATOM      4  C   UNL     1      37.860 -41.934  22.962  1.00  0.00     0.021 A 
ATOM      5  N   UNL     1      37.919 -44.309  22.740  1.00  0.00    -0.264 NA
ATOM      6  C   UNL     1      37.641 -43.208  23.487  1.00  0.00     0.111 A 
ENDROOT
BRANCH   1   7
ATOM      7  C   UNL     1      39.185 -42.823  19.530  1.00  0.00     0.073 C 
ATOM      8  O   UNL     1      38.705 -41.979  18.730  1.00  0.00    -0.545 OA
ATOM      9  O   UNL     1      40.227 -43.639  19.105  1.00  0.00    -0.545 OA
ENDBRANCH   1   7
TORSDOF 1
ENDMDL
MODEL 6
REMARK VINA RESULT:    -3.389      9.294     10.262
REMARK INTER + INTRA:          -3.607
REMARK INTER:                  -3.590
REMARK INTRA:                  -0.016
REMARK UNBOUND:                -0.020
REMARK SMILES O=C([O-])c1cccnc1
REMARK SMILES IDX 4 1 5 2 9 3 6 4 8 5 7 6 2 7 1 8 3 9
REMARK H PARENT
REMARK Flexibility Score: inf
ROOT
ATOM      1  C   UNL     1      42.818 -44.322  29.719  1.00  0.00     0.016 A 
ATOM      2  C   UNL     1      42.688 -45.529  30.424  1.00  0.00     0.013 A 
ATOM      3  C   UNL     1      41.851 -44.006  28.748  1.00  0.00     0.120 A 
ATOM      4  C   UNL     1      41.618 -46.385  30.155  1.00  0.00     0.021 A 
ATOM      5  N   UNL     1      40.819 -44.858  28.506  1.00  0.00    -0.264 NA
ATOM      6  C   UNL     1      40.683 -46.029  29.183  1.00  0.00     0.111 A 
ENDROOT
BRANCH   1   7
ATOM      7  C   UNL     1      43.947 -43.406  29.994  1.00  0.00     0.073 C 
ATOM      8  O   UNL     1      45.098 -43.658  29.552  1.00  0.00    -0.545 OA
ATOM      9  O   UNL     1      43.750 -42.253  30.746  1.00  0.00    -0.545 OA
ENDBRANCH   1   7
TORSDOF 1
ENDMDL
MODEL 7
REMARK VINA RESULT:    -3.386      3.218      3.906
REMARK INTER + INTRA:          -3.604
REMARK INTER:                  -3.582
REMARK INTRA:                  -0.022
REMARK UNBOUND:                -0.020
REMARK SMILES O=C([O-])c1cccnc1
REMARK SMILES IDX 4 1 5 2 9 3 6 4 8 5 7 6 2 7 1 8 3 9
REMARK H PARENT
REMARK Flexibility Score: inf
ROOT
ATOM      1  C   UNL     1      38.978 -41.297  20.594  1.00  0.00     0.016 A 
ATOM      2  C   UNL     1      39.266 -42.093  19.473  1.00  0.00     0.013 A 
ATOM      3  C   UNL     1      38.470 -41.924  21.746  1.00  0.00     0.120 A 
ATOM      4  C   UNL     1      39.049 -43.471  19.518  1.00  0.00     0.021 A 
ATOM      5  N   UNL     1      38.268 -43.268  21.763  1.00  0.00    -0.264 NA
ATOM      6  C   UNL     1      38.544 -44.048  20.684  1.00  0.00     0.111 A 
ENDROOT
BRANCH   1   7
ATOM      7  C   UNL     1      39.203 -39.836  20.559  1.00  0.00     0.073 C 
ATOM      8  O   UNL     1      39.419 -39.196  21.622  1.00  0.00    -0.545 OA
ATOM      9  O   UNL     1      39.179 -39.148  19.351  1.00  0.00    -0.545 OA
ENDBRANCH   1   7
TORSDOF 1
ENDMDL
MODEL 8
REMARK VINA RESULT:    -3.369      1.613      2.116
REMARK INTER + INTRA:          -3.586
REMARK INTER:                  -3.567
REMARK INTRA:                  -0.019
REMARK UNBOUND:                -0.020
REMARK SMILES O=C([O-])c1cccnc1
REMARK SMILES IDX 4 1 5 2 9 3 6 4 8 5 7 6 2 7 1 8 3 9
REMARK H PARENT
REMARK Flexibility Score: inf
ROOT
ATOM      1  C   UNL     1      38.724 -41.805  20.964  1.00  0.00     0.016 A 
ATOM      2  C   UNL     1      39.164 -41.642  19.642  1.00  0.00     0.013 A 
ATOM      3  C   UNL     1      38.625 -40.665  21.782  1.00  0.00     0.120 A 
ATOM      4  C   UNL     1      39.492 -40.372  19.164  1.00  0.00     0.021 A 
ATOM      5  N   UNL     1      38.951 -39.439  21.291  1.00  0.00    -0.264 NA
ATOM      6  C   UNL     1      39.378 -39.270  20.012  1.00  0.00     0.111 A 
ENDROOT
BRANCH   1   7
ATOM      7  C   UNL     1      38.374 -43.146  21.483  1.00  0.00     0.073 C 
ATOM      8  O   UNL     1      39.151 -44.121  21.314  1.00  0.00    -0.545 OA
ATOM      9  O   UNL     1      37.179 -43.346  22.165  1.00  0.00    -0.545 OA
ENDBRANCH   1   7
TORSDOF 1
ENDMDL
MODEL 9
REMARK VINA RESULT:    -3.226     10.017     10.668
REMARK INTER + INTRA:          -3.435
REMARK INTER:                  -3.419
REMARK INTRA:                  -0.016
REMARK UNBOUND:                -0.020
REMARK SMILES O=C([O-])c1cccnc1
REMARK SMILES IDX 4 1 5 2 9 3 6 4 8 5 7 6 2 7 1 8 3 9
REMARK H PARENT
REMARK Flexibility Score: inf
ROOT
ATOM      1  C   UNL     1      42.657 -44.538  30.468  1.00  0.00     0.016 A 
ATOM      2  C   UNL     1      43.867 -44.023  29.977  1.00  0.00     0.013 A 
ATOM      3  C   UNL     1      41.988 -43.824  31.479  1.00  0.00     0.120 A 
ATOM      4  C   UNL     1      44.381 -42.830  30.489  1.00  0.00     0.021 A 
ATOM      5  N   UNL     1      42.510 -42.665  31.960  1.00  0.00    -0.264 NA
ATOM      6  C   UNL     1      43.680 -42.157  31.491  1.00  0.00     0.111 A 
ENDROOT
BRANCH   1   7
ATOM      7  C   UNL     1      42.102 -45.801  29.934  1.00  0.00     0.073 C 
ATOM      8  O   UNL     1      42.447 -46.909  30.421  1.00  0.00    -0.545 OA
ATOM      9  O   UNL     1      41.191 -45.780  28.884  1.00  0.00    -0.545 OA
ENDBRANCH   1   7
TORSDOF 1
ENDMDL
