MODEL 1
REMARK VINA RESULT:    -5.145      0.000      0.000
REMARK INTER + INTRA:          -5.145
REMARK INTER:                  -5.145
REMARK INTRA:                   0.000
REMARK UNBOUND:                 0.000
REMARK SMILES CC1=CC[C@]2(C)CCCC(C)(C)[C@]23C[C@H]13
REMARK SMILES IDX 1 1 2 2 3 3 4 4 5 5 7 6 8 7 9 8 10 9 13 10 15 11 14 12 11 13
REMARK SMILES IDX 12 14 6 15
REMARK H PARENT
REMARK Flexibility Score: inf
ROOT
ATOM      1  C   UNL     1      14.054  20.871  25.802  1.00  0.00     0.039 C 
ATOM      2  C   UNL     1      12.728  20.205  26.037  1.00  0.00    -0.074 C 
ATOM      3  C   UNL     1      12.498  19.598  27.222  1.00  0.00    -0.027 C 
ATOM      4  C   UNL     1      11.194  18.901  27.521  1.00  0.00     0.034 C 
ATOM      5  C   UNL     1       9.999  19.627  26.834  1.00  0.00    -0.022 C 
ATOM      6  C   UNL     1       8.720  18.776  27.022  1.00  0.00     0.008 C 
ATOM      7  C   UNL     1       7.505  19.326  26.253  1.00  0.00     0.001 C 
ATOM      8  C   UNL     1       7.781  19.481  24.750  1.00  0.00     0.007 C 
ATOM      9  C   UNL     1       9.034  20.333  24.399  1.00  0.00    -0.029 C 
ATOM     10  C   UNL     1      10.247  19.814  25.282  1.00  0.00    -0.012 C 
ATOM     11  C   UNL     1      11.684  20.231  24.931  1.00  0.00     0.022 C 
ATOM     12  C   UNL     1      11.207  18.830  24.558  1.00  0.00     0.017 C 
ATOM     13  C   UNL     1       9.244  20.196  22.861  1.00  0.00     0.012 C 
ATOM     14  C   UNL     1       8.765  21.837  24.659  1.00  0.00     0.012 C 
ATOM     15  C   UNL     1       9.846  21.000  27.560  1.00  0.00     0.012 C 
ENDROOT
TORSDOF 0
ENDMDL
MODEL 2
REMARK VINA RESULT:    -5.021      1.285      4.249
REMARK INTER + INTRA:          -5.021
REMARK INTER:                  -5.021
REMARK INTRA:                   0.000
REMARK UNBOUND:                 0.000
REMARK SMILES CC1=CC[C@]2(C)CCCC(C)(C)[C@]23C[C@H]13
REMARK SMILES IDX 1 1 2 2 3 3 4 4 5 5 7 6 8 7 9 8 10 9 13 10 15 11 14 12 11 13
REMARK SMILES IDX 12 14 6 15
REMARK H PARENT
REMARK Flexibility Score: inf
ROOT
ATOM      1  C   UNL     1       7.505  17.932  22.484  1.00  0.00     0.039 C 
ATOM      2  C   UNL     1       7.765  18.977  23.532  1.00  0.00    -0.074 C 
ATOM      3  C   UNL     1       6.723  19.661  24.052  1.00  0.00    -0.027 C 
ATOM      4  C   UNL     1       6.913  20.731  25.099  1.00  0.00     0.034 C 
ATOM      5  C   UNL     1       8.097  20.381  26.049  1.00  0.00    -0.022 C 
ATOM      6  C   UNL     1       8.362  21.585  26.983  1.00  0.00     0.008 C 
ATOM      7  C   UNL     1       9.611  21.407  27.866  1.00  0.00     0.001 C 
ATOM      8  C   UNL     1      10.878  21.130  27.043  1.00  0.00     0.007 C 
ATOM      9  C   UNL     1      10.771  19.927  26.063  1.00  0.00    -0.029 C 
ATOM     10  C   UNL     1       9.423  20.079  25.239  1.00  0.00    -0.012 C 
ATOM     11  C   UNL     1       9.198  19.235  23.976  1.00  0.00     0.022 C 
ATOM     12  C   UNL     1       9.590  20.703  23.826  1.00  0.00     0.017 C 
ATOM     13  C   UNL     1      12.067  19.946  25.199  1.00  0.00     0.012 C 
ATOM     14  C   UNL     1      10.796  18.584  26.837  1.00  0.00     0.012 C 
ATOM     15  C   UNL     1       7.638  19.142  26.881  1.00  0.00     0.012 C 
ENDROOT
TORSDOF 0
ENDMDL
MODEL 3
REMARK VINA RESULT:    -4.864      1.211      4.666
REMARK INTER + INTRA:          -4.864
REMARK INTER:                  -4.864
REMARK INTRA:                   0.000
REMARK UNBOUND:                 0.000
REMARK SMILES CC1=CC[C@]2(C)CCCC(C)(C)[C@]23C[C@H]13
REMARK SMILES IDX 1 1 2 2 3 3 4 4 5 5 7 6 8 7 9 8 10 9 13 10 15 11 14 12 11 13
REMARK SMILES IDX 12 14 6 15
REMARK H PARENT
REMARK Flexibility Score: inf
ROOT
ATOM      1  C   UNL     1       7.378  19.703  26.660  1.00  0.00     0.039 C 
ATOM      2  C   UNL     1       8.783  19.608  26.138  1.00  0.00    -0.074 C 
ATOM      3  C   UNL     1       8.984  19.498  24.807  1.00  0.00    -0.027 C 
ATOM      4  C   UNL     1      10.367  19.388  24.215  1.00  0.00     0.034 C 
ATOM      5  C   UNL     1      11.396  20.220  25.037  1.00  0.00    -0.022 C 
ATOM      6  C   UNL     1      12.818  19.930  24.499  1.00  0.00     0.008 C 
ATOM      7  C   UNL     1      13.931  20.587  25.337  1.00  0.00     0.001 C 
ATOM      8  C   UNL     1      13.869  20.180  26.818  1.00  0.00     0.007 C 
ATOM      9  C   UNL     1      12.497  20.430  27.507  1.00  0.00    -0.029 C 
ATOM     10  C   UNL     1      11.359  19.838  26.572  1.00  0.00    -0.012 C 
ATOM     11  C   UNL     1       9.940  19.637  27.126  1.00  0.00     0.022 C 
ATOM     12  C   UNL     1      10.854  18.424  26.975  1.00  0.00     0.017 C 
ATOM     13  C   UNL     1      12.587  19.774  28.917  1.00  0.00     0.012 C 
ATOM     14  C   UNL     1      12.275  21.943  27.756  1.00  0.00     0.012 C 
ATOM     15  C   UNL     1      11.027  21.719  24.810  1.00  0.00     0.012 C 
ENDROOT
TORSDOF 0
ENDMDL
MODEL 4
REMARK VINA RESULT:    -4.767      1.463      4.652
REMARK INTER + INTRA:          -4.767
REMARK INTER:                  -4.767
REMARK INTRA:                   0.000
REMARK UNBOUND:                 0.000
REMARK SMILES CC1=CC[C@]2(C)CCCC(C)(C)[C@]23C[C@H]13
REMARK SMILES IDX 1 1 2 2 3 3 4 4 5 5 7 6 8 7 9 8 10 9 13 10 15 11 14 12 11 13
REMARK SMILES IDX 12 14 6 15
REMARK H PARENT
REMARK Flexibility Score: inf
ROOT
ATOM      1  C   UNL     1       5.864  21.973  27.231  1.00  0.00     0.039 C 
ATOM      2  C   UNL     1       6.692  21.148  26.288  1.00  0.00    -0.074 C 
ATOM      3  C   UNL     1       6.267  20.976  25.017  1.00  0.00    -0.027 C 
ATOM      4  C   UNL     1       7.044  20.151  24.021  1.00  0.00     0.034 C 
ATOM      5  C   UNL     1       8.577  20.281  24.260  1.00  0.00    -0.022 C 
ATOM      6  C   UNL     1       9.315  19.283  23.335  1.00  0.00     0.008 C 
ATOM      7  C   UNL     1      10.831  19.220  23.596  1.00  0.00     0.001 C 
ATOM      8  C   UNL     1      11.163  18.879  25.057  1.00  0.00     0.007 C 
ATOM      9  C   UNL     1      10.504  19.812  26.112  1.00  0.00    -0.029 C 
ATOM     10  C   UNL     1       8.962  19.946  25.758  1.00  0.00    -0.012 C 
ATOM     11  C   UNL     1       7.987  20.529  26.793  1.00  0.00     0.022 C 
ATOM     12  C   UNL     1       8.023  19.018  26.578  1.00  0.00     0.017 C 
ATOM     13  C   UNL     1      10.800  19.181  27.505  1.00  0.00     0.012 C 
ATOM     14  C   UNL     1      11.190  21.202  26.120  1.00  0.00     0.012 C 
ATOM     15  C   UNL     1       8.956  21.748  23.885  1.00  0.00     0.012 C 
ENDROOT
TORSDOF 0
ENDMDL
MODEL 5
REMARK VINA RESULT:    -4.685      1.472      4.897
REMARK INTER + INTRA:          -4.685
REMARK INTER:                  -4.685
REMARK INTRA:                   0.000
REMARK UNBOUND:                 0.000
REMARK SMILES CC1=CC[C@]2(C)CCCC(C)(C)[C@]23C[C@H]13
REMARK SMILES IDX 1 1 2 2 3 3 4 4 5 5 7 6 8 7 9 8 10 9 13 10 15 11 14 12 11 13
REMARK SMILES IDX 12 14 6 15
REMARK H PARENT
REMARK Flexibility Score: inf
ROOT
ATOM      1  C   UNL     1       5.266  20.513  23.110  1.00  0.00     0.039 C 
ATOM      2  C   UNL     1       6.652  19.973  23.318  1.00  0.00    -0.074 C 
ATOM      3  C   UNL     1       7.216  19.217  22.352  1.00  0.00    -0.027 C 
ATOM      4  C   UNL     1       8.600  18.635  22.499  1.00  0.00     0.034 C 
ATOM      5  C   UNL     1       9.529  19.593  23.303  1.00  0.00    -0.022 C 
ATOM      6  C   UNL     1      10.872  18.875  23.579  1.00  0.00     0.008 C 
ATOM      7  C   UNL     1      11.812  19.676  24.498  1.00  0.00     0.001 C 
ATOM      8  C   UNL     1      11.157  20.035  25.841  1.00  0.00     0.007 C 
ATOM      9  C   UNL     1       9.798  20.783  25.726  1.00  0.00    -0.029 C 
ATOM     10  C   UNL     1       8.886  19.995  24.692  1.00  0.00    -0.012 C 
ATOM     11  C   UNL     1       7.381  20.295  24.615  1.00  0.00     0.022 C 
ATOM     12  C   UNL     1       7.849  19.035  25.339  1.00  0.00     0.017 C 
ATOM     13  C   UNL     1       9.220  20.869  27.170  1.00  0.00     0.012 C 
ATOM     14  C   UNL     1      10.014  22.247  25.267  1.00  0.00     0.012 C 
ATOM     15  C   UNL     1       9.759  20.842  22.395  1.00  0.00     0.012 C 
ENDROOT
TORSDOF 0
ENDMDL
MODEL 6
REMARK VINA RESULT:    -4.540      1.439      2.702
REMARK INTER + INTRA:          -4.540
REMARK INTER:                  -4.540
REMARK INTRA:                   0.000
REMARK UNBOUND:                 0.000
REMARK SMILES CC1=CC[C@]2(C)CCCC(C)(C)[C@]23C[C@H]13
REMARK SMILES IDX 1 1 2 2 3 3 4 4 5 5 7 6 8 7 9 8 10 9 13 10 15 11 14 12 11 13
REMARK SMILES IDX 12 14 6 15
REMARK H PARENT
REMARK Flexibility Score: inf
ROOT
ATOM      1  C   UNL     1      11.544  21.495  21.261  1.00  0.00     0.039 C 
ATOM      2  C   UNL     1      11.188  20.691  22.479  1.00  0.00    -0.074 C 
ATOM      3  C   UNL     1      12.178  20.203  23.258  1.00  0.00    -0.027 C 
ATOM      4  C   UNL     1      11.892  19.378  24.489  1.00  0.00     0.034 C 
ATOM      5  C   UNL     1      10.586  19.854  25.191  1.00  0.00    -0.022 C 
ATOM      6  C   UNL     1      10.244  18.870  26.335  1.00  0.00     0.008 C 
ATOM      7  C   UNL     1       8.888  19.161  27.003  1.00  0.00     0.001 C 
ATOM      8  C   UNL     1       7.727  19.173  25.997  1.00  0.00     0.007 C 
ATOM      9  C   UNL     1       7.918  20.137  24.791  1.00  0.00    -0.029 C 
ATOM     10  C   UNL     1       9.365  19.891  24.186  1.00  0.00    -0.012 C 
ATOM     11  C   UNL     1       9.720  20.450  22.799  1.00  0.00     0.022 C 
ATOM     12  C   UNL     1       9.400  18.964  22.939  1.00  0.00     0.017 C 
ATOM     13  C   UNL     1       6.744  19.850  23.808  1.00  0.00     0.012 C 
ATOM     14  C   UNL     1       7.750  21.612  25.235  1.00  0.00     0.012 C 
ATOM     15  C   UNL     1      10.893  21.271  25.771  1.00  0.00     0.012 C 
ENDROOT
TORSDOF 0
ENDMDL
MODEL 7
REMARK VINA RESULT:    -4.413      3.970      5.963
REMARK INTER + INTRA:          -4.413
REMARK INTER:                  -4.413
REMARK INTRA:                   0.000
REMARK UNBOUND:                 0.000
REMARK SMILES CC1=CC[C@]2(C)CCCC(C)(C)[C@]23C[C@H]13
REMARK SMILES IDX 1 1 2 2 3 3 4 4 5 5 7 6 8 7 9 8 10 9 13 10 15 11 14 12 11 13
REMARK SMILES IDX 12 14 6 15
REMARK H PARENT
REMARK Flexibility Score: inf
ROOT
ATOM      1  C   UNL     1       8.408  18.502  21.921  1.00  0.00     0.039 C 
ATOM      2  C   UNL     1       7.360  19.227  22.715  1.00  0.00    -0.074 C 
ATOM      3  C   UNL     1       7.644  19.619  23.977  1.00  0.00    -0.027 C 
ATOM      4  C   UNL     1       6.635  20.342  24.834  1.00  0.00     0.034 C 
ATOM      5  C   UNL     1       5.732  21.273  23.972  1.00  0.00    -0.022 C 
ATOM      6  C   UNL     1       4.607  21.849  24.866  1.00  0.00     0.008 C 
ATOM      7  C   UNL     1       3.565  22.667  24.082  1.00  0.00     0.001 C 
ATOM      8  C   UNL     1       2.927  21.864  22.938  1.00  0.00     0.007 C 
ATOM      9  C   UNL     1       3.938  21.235  21.937  1.00  0.00    -0.029 C 
ATOM     10  C   UNL     1       5.060  20.486  22.774  1.00  0.00    -0.012 C 
ATOM     11  C   UNL     1       6.007  19.499  22.075  1.00  0.00     0.022 C 
ATOM     12  C   UNL     1       4.854  18.952  22.915  1.00  0.00     0.017 C 
ATOM     13  C   UNL     1       3.108  20.314  20.993  1.00  0.00     0.012 C 
ATOM     14  C   UNL     1       4.562  22.324  21.029  1.00  0.00     0.012 C 
ATOM     15  C   UNL     1       6.654  22.423  23.457  1.00  0.00     0.012 C 
ENDROOT
TORSDOF 0
ENDMDL
MODEL 8
REMARK VINA RESULT:    -4.407      1.785      3.203
REMARK INTER + INTRA:          -4.407
REMARK INTER:                  -4.407
REMARK INTRA:                   0.000
REMARK UNBOUND:                 0.000
REMARK SMILES CC1=CC[C@]2(C)CCCC(C)(C)[C@]23C[C@H]13
REMARK SMILES IDX 1 1 2 2 3 3 4 4 5 5 7 6 8 7 9 8 10 9 13 10 15 11 14 12 11 13
REMARK SMILES IDX 12 14 6 15
REMARK H PARENT
REMARK Flexibility Score: inf
ROOT
ATOM      1  C   UNL     1      10.322  22.162  27.776  1.00  0.00     0.039 C 
ATOM      2  C   UNL     1       9.545  21.242  26.878  1.00  0.00    -0.074 C 
ATOM      3  C   UNL     1       8.220  21.083  27.086  1.00  0.00    -0.027 C 
ATOM      4  C   UNL     1       7.382  20.166  26.229  1.00  0.00     0.034 C 
ATOM      5  C   UNL     1       7.890  20.156  24.757  1.00  0.00    -0.022 C 
ATOM      6  C   UNL     1       7.116  19.073  23.967  1.00  0.00     0.008 C 
ATOM      7  C   UNL     1       7.642  18.873  22.534  1.00  0.00     0.001 C 
ATOM      8  C   UNL     1       9.141  18.534  22.500  1.00  0.00     0.007 C 
ATOM      9  C   UNL     1      10.057  19.549  23.242  1.00  0.00    -0.029 C 
ATOM     10  C   UNL     1       9.434  19.819  24.677  1.00  0.00    -0.012 C 
ATOM     11  C   UNL     1      10.276  20.515  25.758  1.00  0.00     0.022 C 
ATOM     12  C   UNL     1      10.079  19.002  25.831  1.00  0.00     0.017 C 
ATOM     13  C   UNL     1      11.484  18.923  23.259  1.00  0.00     0.012 C 
ATOM     14  C   UNL     1      10.181  20.867  22.437  1.00  0.00     0.012 C 
ATOM     15  C   UNL     1       7.581  21.572  24.177  1.00  0.00     0.012 C 
ENDROOT
TORSDOF 0
ENDMDL
