MODEL 1
REMARK VINA RESULT:    -3.010      0.000      0.000
REMARK INTER + INTRA:          -4.161
REMARK INTER:                  -3.890
REMARK INTRA:                  -0.272
REMARK UNBOUND:                -0.272
REMARK SMILES CCCCCCC(=O)[O-]
REMARK SMILES IDX 5 1 6 2 7 3 8 4 9 5 4 6 3 7 2 8 1 9
REMARK H PARENT
REMARK Flexibility Score: inf
ROOT
ATOM      1  C   UNL     1       8.566 -32.263  15.779  1.00  0.00     0.006 C 
ENDROOT
BRANCH   1   2
ATOM      2  C   UNL     1       8.493 -32.497  17.291  1.00  0.00     0.053 C 
BRANCH   2   3
ATOM      3  C   UNL     1       9.272 -31.451  18.023  1.00  0.00     0.041 C 
ATOM      4  O   UNL     1       9.065 -31.249  19.249  1.00  0.00    -0.550 OA
ATOM      5  O   UNL     1      10.264 -30.735  17.365  1.00  0.00    -0.550 OA
ENDBRANCH   2   3
ENDBRANCH   1   2
BRANCH   1   6
ATOM      6  C   UNL     1       8.937 -33.558  15.041  1.00  0.00     0.000 C 
BRANCH   6   7
ATOM      7  C   UNL     1      10.056 -33.350  14.008  1.00  0.00    -0.000 C 
BRANCH   7   8
ATOM      8  C   UNL     1      10.331 -31.866  13.724  1.00  0.00    -0.003 C 
ATOM      9  C   UNL     1      11.735 -31.471  14.169  1.00  0.00     0.004 C 
ENDBRANCH   7   8
ENDBRANCH   6   7
ENDBRANCH   1   6
TORSDOF 5
ENDMDL
MODEL 2
REMARK VINA RESULT:    -2.933      0.998      1.543
REMARK INTER + INTRA:          -4.062
REMARK INTER:                  -3.840
REMARK INTRA:                  -0.222
REMARK UNBOUND:                -0.272
REMARK SMILES CCCCCCC(=O)[O-]
REMARK SMILES IDX 5 1 6 2 7 3 8 4 9 5 4 6 3 7 2 8 1 9
REMARK H PARENT
REMARK Flexibility Score: inf
ROOT
ATOM      1  C   UNL     1       9.267 -33.036  15.055  1.00  0.00     0.006 C 
ENDROOT
BRANCH   1   2
ATOM      2  C   UNL     1       8.317 -32.193  15.911  1.00  0.00     0.053 C 
BRANCH   2   3
ATOM      3  C   UNL     1       8.949 -31.859  17.225  1.00  0.00     0.041 C 
ATOM      4  O   UNL     1       8.563 -32.433  18.278  1.00  0.00    -0.550 OA
ATOM      5  O   UNL     1       9.999 -30.952  17.281  1.00  0.00    -0.550 OA
ENDBRANCH   2   3
ENDBRANCH   1   2
BRANCH   1   6
ATOM      6  C   UNL     1       9.812 -32.220  13.873  1.00  0.00     0.000 C 
BRANCH   6   7
ATOM      7  C   UNL     1      11.340 -32.314  13.744  1.00  0.00    -0.000 C 
BRANCH   7   8
ATOM      8  C   UNL     1      12.065 -31.149  14.435  1.00  0.00    -0.003 C 
ATOM      9  C   UNL     1      13.559 -31.170  14.125  1.00  0.00     0.004 C 
ENDBRANCH   7   8
ENDBRANCH   6   7
ENDBRANCH   1   6
TORSDOF 5
ENDMDL
MODEL 3
REMARK VINA RESULT:    -2.916      1.688      3.757
REMARK INTER + INTRA:          -4.040
REMARK INTER:                  -3.718
REMARK INTRA:                  -0.323
REMARK UNBOUND:                -0.272
REMARK SMILES CCCCCCC(=O)[O-]
REMARK SMILES IDX 5 1 6 2 7 3 8 4 9 5 4 6 3 7 2 8 1 9
REMARK H PARENT
REMARK Flexibility Score: inf
ROOT
ATOM      1  C   UNL     1       9.697 -32.989  14.567  1.00  0.00     0.006 C 
ENDROOT
BRANCH   1   2
ATOM      2  C   UNL     1      10.643 -32.137  13.716  1.00  0.00     0.053 C 
BRANCH   2   3
ATOM      3  C   UNL     1      11.591 -31.375  14.586  1.00  0.00     0.041 C 
ATOM      4  O   UNL     1      11.242 -31.018  15.742  1.00  0.00    -0.550 OA
ATOM      5  O   UNL     1      12.879 -31.103  14.141  1.00  0.00    -0.550 OA
ENDBRANCH   2   3
ENDBRANCH   1   2
BRANCH   1   6
ATOM      6  C   UNL     1       8.270 -32.422  14.537  1.00  0.00     0.000 C 
BRANCH   6   7
ATOM      7  C   UNL     1       7.640 -32.332  15.936  1.00  0.00    -0.000 C 
BRANCH   7   8
ATOM      8  C   UNL     1       8.525 -32.956  17.025  1.00  0.00    -0.003 C 
ATOM      9  C   UNL     1       8.618 -32.046  18.246  1.00  0.00     0.004 C 
ENDBRANCH   7   8
ENDBRANCH   6   7
ENDBRANCH   1   6
TORSDOF 5
ENDMDL
MODEL 4
REMARK VINA RESULT:    -2.862      2.306      4.006
REMARK INTER + INTRA:          -3.970
REMARK INTER:                  -3.696
REMARK INTRA:                  -0.274
REMARK UNBOUND:                -0.272
REMARK SMILES CCCCCCC(=O)[O-]
REMARK SMILES IDX 5 1 6 2 7 3 8 4 9 5 4 6 3 7 2 8 1 9
REMARK H PARENT
REMARK Flexibility Score: inf
ROOT
ATOM      1  C   UNL     1       9.287 -33.699  14.744  1.00  0.00     0.006 C 
ENDROOT
BRANCH   1   2
ATOM      2  C   UNL     1       9.627 -32.269  14.316  1.00  0.00     0.053 C 
BRANCH   2   3
ATOM      3  C   UNL     1      11.064 -32.168  13.913  1.00  0.00     0.041 C 
ATOM      4  O   UNL     1      11.560 -33.014  13.122  1.00  0.00    -0.550 OA
ATOM      5  O   UNL     1      11.843 -31.112  14.369  1.00  0.00    -0.550 OA
ENDBRANCH   2   3
ENDBRANCH   1   2
BRANCH   1   6
ATOM      6  C   UNL     1       8.232 -33.703  15.861  1.00  0.00     0.000 C 
BRANCH   6   7
ATOM      7  C   UNL     1       8.001 -32.307  16.461  1.00  0.00    -0.000 C 
BRANCH   7   8
ATOM      8  C   UNL     1       8.580 -32.168  17.877  1.00  0.00    -0.003 C 
ATOM      9  C   UNL     1       9.666 -31.098  17.924  1.00  0.00     0.004 C 
ENDBRANCH   7   8
ENDBRANCH   6   7
ENDBRANCH   1   6
TORSDOF 5
ENDMDL
MODEL 5
REMARK VINA RESULT:    -2.759      3.397      4.671
REMARK INTER + INTRA:          -3.837
REMARK INTER:                  -3.636
REMARK INTRA:                  -0.200
REMARK UNBOUND:                -0.272
REMARK SMILES CCCCCCC(=O)[O-]
REMARK SMILES IDX 5 1 6 2 7 3 8 4 9 5 4 6 3 7 2 8 1 9
REMARK H PARENT
REMARK Flexibility Score: inf
ROOT
ATOM      1  C   UNL     1      11.388 -32.279  13.954  1.00  0.00     0.006 C 
ENDROOT
BRANCH   1   2
ATOM      2  C   UNL     1      12.226 -31.071  14.383  1.00  0.00     0.053 C 
BRANCH   2   3
ATOM      3  C   UNL     1      13.627 -31.195  13.873  1.00  0.00     0.041 C 
ATOM      4  O   UNL     1      14.084 -32.321  13.544  1.00  0.00    -0.550 OA
ATOM      5  O   UNL     1      14.412 -30.060  13.713  1.00  0.00    -0.550 OA
ENDBRANCH   2   3
ENDBRANCH   1   2
BRANCH   1   6
ATOM      6  C   UNL     1      10.081 -31.832  13.284  1.00  0.00     0.000 C 
BRANCH   6   7
ATOM      7  C   UNL     1       8.833 -32.367  14.003  1.00  0.00    -0.000 C 
BRANCH   7   8
ATOM      8  C   UNL     1       8.901 -32.178  15.526  1.00  0.00    -0.003 C 
ATOM      9  C   UNL     1       8.404 -33.421  16.258  1.00  0.00     0.004 C 
ENDBRANCH   7   8
ENDBRANCH   6   7
ENDBRANCH   1   6
TORSDOF 5
ENDMDL
MODEL 6
REMARK VINA RESULT:    -2.721      1.853      2.758
REMARK INTER + INTRA:          -3.788
REMARK INTER:                  -3.533
REMARK INTRA:                  -0.255
REMARK UNBOUND:                -0.272
REMARK SMILES CCCCCCC(=O)[O-]
REMARK SMILES IDX 5 1 6 2 7 3 8 4 9 5 4 6 3 7 2 8 1 9
REMARK H PARENT
REMARK Flexibility Score: inf
ROOT
ATOM      1  C   UNL     1       9.165 -32.268  15.284  1.00  0.00     0.006 C 
ENDROOT
BRANCH   1   2
ATOM      2  C   UNL     1       8.192 -32.320  16.466  1.00  0.00     0.053 C 
BRANCH   2   3
ATOM      3  C   UNL     1       8.845 -31.803  17.708  1.00  0.00     0.041 C 
ATOM      4  O   UNL     1       8.447 -32.186  18.840  1.00  0.00    -0.550 OA
ATOM      5  O   UNL     1       9.928 -30.938  17.616  1.00  0.00    -0.550 OA
ENDBRANCH   2   3
ENDBRANCH   1   2
BRANCH   1   6
ATOM      6  C   UNL     1       8.640 -33.097  14.103  1.00  0.00     0.000 C 
BRANCH   6   7
ATOM      7  C   UNL     1       7.631 -32.325  13.239  1.00  0.00    -0.000 C 
BRANCH   7   8
ATOM      8  C   UNL     1       6.280 -33.048  13.118  1.00  0.00    -0.003 C 
ATOM      9  C   UNL     1       6.281 -34.351  13.911  1.00  0.00     0.004 C 
ENDBRANCH   7   8
ENDBRANCH   6   7
ENDBRANCH   1   6
TORSDOF 5
ENDMDL
MODEL 7
REMARK VINA RESULT:    -2.706      2.273      4.254
REMARK INTER + INTRA:          -3.768
REMARK INTER:                  -3.521
REMARK INTRA:                  -0.248
REMARK UNBOUND:                -0.272
REMARK SMILES CCCCCCC(=O)[O-]
REMARK SMILES IDX 5 1 6 2 7 3 8 4 9 5 4 6 3 7 2 8 1 9
REMARK H PARENT
REMARK Flexibility Score: inf
ROOT
ATOM      1  C   UNL     1       9.115 -33.509  14.365  1.00  0.00     0.006 C 
ENDROOT
BRANCH   1   2
ATOM      2  C   UNL     1       9.920 -32.986  13.171  1.00  0.00     0.053 C 
BRANCH   2   3
ATOM      3  C   UNL     1      11.286 -32.559  13.605  1.00  0.00     0.041 C 
ATOM      4  O   UNL     1      12.304 -33.177  13.194  1.00  0.00    -0.550 OA
ATOM      5  O   UNL     1      11.440 -31.446  14.423  1.00  0.00    -0.550 OA
ENDBRANCH   2   3
ENDBRANCH   1   2
BRANCH   1   6
ATOM      6  C   UNL     1       7.822 -32.701  14.551  1.00  0.00     0.000 C 
BRANCH   6   7
ATOM      7  C   UNL     1       7.536 -32.376  16.025  1.00  0.00    -0.000 C 
BRANCH   7   8
ATOM      8  C   UNL     1       8.816 -32.121  16.835  1.00  0.00    -0.003 C 
ATOM      9  C   UNL     1       8.504 -31.952  18.319  1.00  0.00     0.004 C 
ENDBRANCH   7   8
ENDBRANCH   6   7
ENDBRANCH   1   6
TORSDOF 5
ENDMDL
MODEL 8
REMARK VINA RESULT:    -2.702      2.486      4.202
REMARK INTER + INTRA:          -3.763
REMARK INTER:                  -3.494
REMARK INTRA:                  -0.269
REMARK UNBOUND:                -0.272
REMARK SMILES CCCCCCC(=O)[O-]
REMARK SMILES IDX 5 1 6 2 7 3 8 4 9 5 4 6 3 7 2 8 1 9
REMARK H PARENT
REMARK Flexibility Score: inf
ROOT
ATOM      1  C   UNL     1       9.245 -32.035  15.744  1.00  0.00     0.006 C 
ENDROOT
BRANCH   1   2
ATOM      2  C   UNL     1       9.478 -32.184  14.238  1.00  0.00     0.053 C 
BRANCH   2   3
ATOM      3  C   UNL     1      10.939 -32.113  13.923  1.00  0.00     0.041 C 
ATOM      4  O   UNL     1      11.653 -31.209  14.431  1.00  0.00    -0.550 OA
ATOM      5  O   UNL     1      11.522 -33.076  13.108  1.00  0.00    -0.550 OA
ENDBRANCH   2   3
ENDBRANCH   1   2
BRANCH   1   6
ATOM      6  C   UNL     1       7.789 -32.361  16.110  1.00  0.00     0.000 C 
BRANCH   6   7
ATOM      7  C   UNL     1       6.918 -32.642  14.876  1.00  0.00    -0.000 C 
BRANCH   7   8
ATOM      8  C   UNL     1       6.204 -34.000  14.952  1.00  0.00    -0.003 C 
ATOM      9  C   UNL     1       7.207 -35.142  15.084  1.00  0.00     0.004 C 
ENDBRANCH   7   8
ENDBRANCH   6   7
ENDBRANCH   1   6
TORSDOF 5
ENDMDL
