MODEL 1
REMARK VINA RESULT:    -3.160      0.000      0.000
REMARK INTER + INTRA:          -3.548
REMARK INTER:                  -3.529
REMARK INTRA:                  -0.018
REMARK UNBOUND:                -0.018
REMARK SMILES CC(C)CC=O
REMARK SMILES IDX 4 1 2 2 1 3 3 4 5 5 6 6
REMARK H PARENT
REMARK Flexibility Score: inf
ROOT
ATOM      1  C   UNL     1      24.391  57.312  -8.617  1.00  0.00     0.075 C 
ENDROOT
BRANCH   1   2
ATOM      2  C   UNL     1      24.331  55.771  -8.516  1.00  0.00    -0.010 C 
ATOM      3  C   UNL     1      25.643  55.168  -7.996  1.00  0.00     0.008 C 
ATOM      4  C   UNL     1      23.140  55.297  -7.674  1.00  0.00     0.008 C 
ENDBRANCH   1   2
BRANCH   1   5
ATOM      5  C   UNL     1      25.747  57.841  -8.990  1.00  0.00     0.224 C 
ATOM      6  O   UNL     1      25.898  59.016  -9.285  1.00  0.00    -0.303 OA
ENDBRANCH   1   5
TORSDOF 2
ENDMDL
MODEL 2
REMARK VINA RESULT:    -3.100      2.482      3.378
REMARK INTER + INTRA:          -3.480
REMARK INTER:                  -3.470
REMARK INTRA:                  -0.011
REMARK UNBOUND:                -0.018
REMARK SMILES CC(C)CC=O
REMARK SMILES IDX 4 1 2 2 1 3 3 4 5 5 6 6
REMARK H PARENT
REMARK Flexibility Score: inf
ROOT
ATOM      1  C   UNL     1      23.490  56.225  -8.286  1.00  0.00     0.075 C 
ENDROOT
BRANCH   1   2
ATOM      2  C   UNL     1      24.950  56.168  -8.790  1.00  0.00    -0.010 C 
ATOM      3  C   UNL     1      25.592  57.559  -8.880  1.00  0.00     0.008 C 
ATOM      4  C   UNL     1      25.812  55.222  -7.944  1.00  0.00     0.008 C 
ENDBRANCH   1   2
BRANCH   1   5
ATOM      5  C   UNL     1      23.039  54.967  -7.600  1.00  0.00     0.224 C 
ATOM      6  O   UNL     1      22.752  54.973  -6.413  1.00  0.00    -0.303 OA
ENDBRANCH   1   5
TORSDOF 2
ENDMDL
MODEL 3
REMARK VINA RESULT:    -2.916     16.217     17.450
REMARK INTER + INTRA:          -3.275
REMARK INTER:                  -3.237
REMARK INTRA:                  -0.038
REMARK UNBOUND:                -0.018
REMARK SMILES CC(C)CC=O
REMARK SMILES IDX 4 1 2 2 1 3 3 4 5 5 6 6
REMARK H PARENT
REMARK Flexibility Score: inf
ROOT
ATOM      1  C   UNL     1      18.247  44.098   2.257  1.00  0.00     0.075 C 
ENDROOT
BRANCH   1   2
ATOM      2  C   UNL     1      19.472  44.240   1.325  1.00  0.00    -0.010 C 
ATOM      3  C   UNL     1      20.133  42.889   1.018  1.00  0.00     0.008 C 
ATOM      4  C   UNL     1      19.123  44.984   0.030  1.00  0.00     0.008 C 
ENDBRANCH   1   2
BRANCH   1   5
ATOM      5  C   UNL     1      16.930  44.198   1.542  1.00  0.00     0.224 C 
ATOM      6  O   UNL     1      16.030  44.893   1.987  1.00  0.00    -0.303 OA
ENDBRANCH   1   5
TORSDOF 2
ENDMDL
MODEL 4
REMARK VINA RESULT:    -2.894     17.000     17.465
REMARK INTER + INTRA:          -3.251
REMARK INTER:                  -3.222
REMARK INTRA:                  -0.030
REMARK UNBOUND:                -0.018
REMARK SMILES CC(C)CC=O
REMARK SMILES IDX 4 1 2 2 1 3 3 4 5 5 6 6
REMARK H PARENT
REMARK Flexibility Score: inf
ROOT
ATOM      1  C   UNL     1      16.080  42.318 -13.677  1.00  0.00     0.075 C 
ENDROOT
BRANCH   1   2
ATOM      2  C   UNL     1      15.192  43.362 -14.391  1.00  0.00    -0.010 C 
ATOM      3  C   UNL     1      14.382  44.214 -13.403  1.00  0.00     0.008 C 
ATOM      4  C   UNL     1      16.004  44.252 -15.341  1.00  0.00     0.008 C 
ENDBRANCH   1   2
BRANCH   1   5
ATOM      5  C   UNL     1      15.893  42.284 -12.186  1.00  0.00     0.224 C 
ATOM      6  O   UNL     1      16.782  41.876 -11.456  1.00  0.00    -0.303 OA
ENDBRANCH   1   5
TORSDOF 2
ENDMDL
MODEL 5
REMARK VINA RESULT:    -2.883     15.568     16.966
REMARK INTER + INTRA:          -3.239
REMARK INTER:                  -3.194
REMARK INTRA:                  -0.045
REMARK UNBOUND:                -0.018
REMARK SMILES CC(C)CC=O
REMARK SMILES IDX 4 1 2 2 1 3 3 4 5 5 6 6
REMARK H PARENT
REMARK Flexibility Score: inf
ROOT
ATOM      1  C   UNL     1      19.284  44.058   1.677  1.00  0.00     0.075 C 
ENDROOT
BRANCH   1   2
ATOM      2  C   UNL     1      18.543  44.453   0.379  1.00  0.00    -0.010 C 
ATOM      3  C   UNL     1      17.039  44.659   0.603  1.00  0.00     0.008 C 
ATOM      4  C   UNL     1      19.170  45.686  -0.286  1.00  0.00     0.008 C 
ENDBRANCH   1   2
BRANCH   1   5
ATOM      5  C   UNL     1      20.263  42.933   1.494  1.00  0.00     0.224 C 
ATOM      6  O   UNL     1      20.511  42.498   0.380  1.00  0.00    -0.303 OA
ENDBRANCH   1   5
TORSDOF 2
ENDMDL
MODEL 6
REMARK VINA RESULT:    -2.820     13.357     14.521
REMARK INTER + INTRA:          -3.168
REMARK INTER:                  -3.161
REMARK INTRA:                  -0.007
REMARK UNBOUND:                -0.018
REMARK SMILES CC(C)CC=O
REMARK SMILES IDX 4 1 2 2 1 3 3 4 5 5 6 6
REMARK H PARENT
REMARK Flexibility Score: inf
ROOT
ATOM      1  C   UNL     1      28.368  45.333  -0.480  1.00  0.00     0.075 C 
ENDROOT
BRANCH   1   2
ATOM      2  C   UNL     1      29.861  45.356  -0.078  1.00  0.00    -0.010 C 
ATOM      3  C   UNL     1      30.065  45.742   1.393  1.00  0.00     0.008 C 
ATOM      4  C   UNL     1      30.561  44.028  -0.397  1.00  0.00     0.008 C 
ENDBRANCH   1   2
BRANCH   1   5
ATOM      5  C   UNL     1      27.800  46.693  -0.768  1.00  0.00     0.224 C 
ATOM      6  O   UNL     1      27.421  46.986  -1.891  1.00  0.00    -0.303 OA
ENDBRANCH   1   5
TORSDOF 2
ENDMDL
MODEL 7
REMARK VINA RESULT:    -2.783     14.524     15.722
REMARK INTER + INTRA:          -3.127
REMARK INTER:                  -3.112
REMARK INTRA:                  -0.015
REMARK UNBOUND:                -0.018
REMARK SMILES CC(C)CC=O
REMARK SMILES IDX 4 1 2 2 1 3 3 4 5 5 6 6
REMARK H PARENT
REMARK Flexibility Score: inf
ROOT
ATOM      1  C   UNL     1      29.905  45.562   0.455  1.00  0.00     0.075 C 
ENDROOT
BRANCH   1   2
ATOM      2  C   UNL     1      30.816  44.327   0.648  1.00  0.00    -0.010 C 
ATOM      3  C   UNL     1      31.231  43.692  -0.686  1.00  0.00     0.008 C 
ATOM      4  C   UNL     1      32.046  44.651   1.506  1.00  0.00     0.008 C 
ENDBRANCH   1   2
BRANCH   1   5
ATOM      5  C   UNL     1      28.694  45.291  -0.392  1.00  0.00     0.224 C 
ATOM      6  O   UNL     1      27.944  46.199  -0.715  1.00  0.00    -0.303 OA
ENDBRANCH   1   5
TORSDOF 2
ENDMDL
MODEL 8
REMARK VINA RESULT:    -2.779     16.109     17.476
REMARK INTER + INTRA:          -3.123
REMARK INTER:                  -3.075
REMARK INTRA:                  -0.048
REMARK UNBOUND:                -0.018
REMARK SMILES CC(C)CC=O
REMARK SMILES IDX 4 1 2 2 1 3 3 4 5 5 6 6
REMARK H PARENT
REMARK Flexibility Score: inf
ROOT
ATOM      1  C   UNL     1      19.454  42.598   0.309  1.00  0.00     0.075 C 
ENDROOT
BRANCH   1   2
ATOM      2  C   UNL     1      19.536  44.000   0.954  1.00  0.00    -0.010 C 
ATOM      3  C   UNL     1      19.170  45.119  -0.030  1.00  0.00     0.008 C 
ATOM      4  C   UNL     1      18.687  44.094   2.229  1.00  0.00     0.008 C 
ENDBRANCH   1   2
BRANCH   1   5
ATOM      5  C   UNL     1      18.052  42.159  -0.006  1.00  0.00     0.224 C 
ATOM      6  O   UNL     1      17.714  41.931  -1.157  1.00  0.00    -0.303 OA
ENDBRANCH   1   5
TORSDOF 2
ENDMDL
MODEL 9
REMARK VINA RESULT:    -2.738      7.571      8.773
REMARK INTER + INTRA:          -3.077
REMARK INTER:                  -3.010
REMARK INTRA:                  -0.067
REMARK UNBOUND:                -0.018
REMARK SMILES CC(C)CC=O
REMARK SMILES IDX 4 1 2 2 1 3 3 4 5 5 6 6
REMARK H PARENT
REMARK Flexibility Score: inf
ROOT
ATOM      1  C   UNL     1      31.124  57.001 -13.275  1.00  0.00     0.075 C 
ENDROOT
BRANCH   1   2
ATOM      2  C   UNL     1      32.652  57.056 -13.507  1.00  0.00    -0.010 C 
ATOM      3  C   UNL     1      33.097  58.367 -14.167  1.00  0.00     0.008 C 
ATOM      4  C   UNL     1      33.437  56.801 -12.213  1.00  0.00     0.008 C 
ENDBRANCH   1   2
BRANCH   1   5
ATOM      5  C   UNL     1      30.487  58.355 -13.137  1.00  0.00     0.224 C 
ATOM      6  O   UNL     1      30.211  58.805 -12.036  1.00  0.00    -0.303 OA
ENDBRANCH   1   5
TORSDOF 2
ENDMDL
