MODEL 1
REMARK VINA RESULT:    -3.381      0.000      0.000
REMARK INTER + INTRA:          -5.270
REMARK INTER:                  -5.160
REMARK INTRA:                  -0.111
REMARK UNBOUND:                -0.111
REMARK SMILES CC1=CCC[C@@H](C)C(=O)C[C@H](C(C)C)C(=O)C1
REMARK SMILES IDX 8 1 9 2 6 3 7 4 5 5 4 6 3 7 2 8 1 9 10 11 11 12 15 13 16 14
REMARK SMILES IDX 17 15 12 17 13 18 14 19
REMARK H PARENT
REMARK Flexibility Score: 70.00
ROOT
ATOM      1  C   UNL     1       1.306  12.339  19.610  1.00  0.00     0.136 C 
ATOM      2  O   UNL     1       2.519  12.228  19.715  1.00  0.00    -0.299 OA
ENDROOT
BRANCH   1   3
ATOM      3  C   UNL     1       0.597  13.359  20.489  1.00  0.00     0.053 C 
ATOM      4  C   UNL     1       1.348  14.699  20.479  1.00  0.00     0.016 C 
BRANCH   3   5
ATOM      5  C   UNL     1       0.379  12.856  21.936  1.00  0.00     0.015 C 
BRANCH   5   6
ATOM      6  C   UNL     1      -0.821  11.905  22.142  1.00  0.00     0.028 C 
BRANCH   6   7
ATOM      7  C   UNL     1      -0.502  10.472  22.500  1.00  0.00    -0.028 C 
ATOM      8  C   UNL     1      -0.433   9.425  21.643  1.00  0.00    -0.070 CG0
ATOM      9  C   UNL     1       0.067   8.108  22.182  1.00  0.00     0.039 C 
ATOM     10  G   UNL     1      -0.893   9.484  20.199  1.00  0.00     0.000 G0
ENDBRANCH   6   7
ENDBRANCH   5   6
ENDBRANCH   3   5
ENDBRANCH   1   3
BRANCH   1  11
ATOM     11  C   UNL     1       0.587  11.426  18.629  1.00  0.00     0.087 C 
BRANCH  11  12
ATOM     12  C   UNL     1       1.134   9.974  18.596  1.00  0.00     0.066 C 
BRANCH  12  13
ATOM     13  C   UNL     1       0.178   8.993  19.250  1.00  0.00     0.140 C 
ATOM     14  O   UNL     1       0.232   7.805  18.964  1.00  0.00    -0.299 OA
BRANCH  13  15
ATOM     15  C   UNL     1      -0.904   9.473  20.191  1.00  0.00     0.106 CG0
ATOM     16  G   UNL     1      -0.410   9.409  21.623  1.00  0.00     0.000 G0
ENDBRANCH  13  15
ENDBRANCH  12  13
BRANCH  12  17
ATOM     17  C   UNL     1       1.609   9.539  17.172  1.00  0.00    -0.006 C 
ATOM     18  C   UNL     1       2.985   8.851  17.124  1.00  0.00     0.008 C 
ATOM     19  C   UNL     1       1.592  10.729  16.200  1.00  0.00     0.008 C 
ENDBRANCH  12  17
ENDBRANCH  11  12
ENDBRANCH   1  11
TORSDOF 1
ENDMDL
MODEL 2
REMARK VINA RESULT:    -3.368      2.613      5.788
REMARK INTER + INTRA:          -5.251
REMARK INTER:                  -5.053
REMARK INTRA:                  -0.198
REMARK UNBOUND:                -0.111
REMARK SMILES CC1=CCC[C@@H](C)C(=O)C[C@H](C(C)C)C(=O)C1
REMARK SMILES IDX 8 1 9 2 6 3 7 4 5 5 4 6 3 7 2 8 1 9 10 11 11 12 15 13 16 14
REMARK SMILES IDX 17 15 12 17 13 18 14 19
REMARK H PARENT
REMARK Flexibility Score: 70.00
ROOT
ATOM      1  C   UNL     1       0.579  10.291  19.557  1.00  0.00     0.136 C 
ATOM      2  O   UNL     1       0.761  10.192  20.762  1.00  0.00    -0.299 OA
ENDROOT
BRANCH   1   3
ATOM      3  C   UNL     1       0.785   9.055  18.694  1.00  0.00     0.053 C 
ATOM      4  C   UNL     1       0.972   7.807  19.569  1.00  0.00     0.016 C 
BRANCH   3   5
ATOM      5  C   UNL     1       1.956   9.211  17.693  1.00  0.00     0.015 C 
BRANCH   5   6
ATOM      6  C   UNL     1       1.562   9.639  16.262  1.00  0.00     0.028 C 
BRANCH   6   7
ATOM      7  C   UNL     1       2.412  10.707  15.612  1.00  0.00    -0.028 C 
ATOM      8  C   UNL     1       2.252  12.047  15.734  1.00  0.00    -0.070 CG0
ATOM      9  C   UNL     1       3.312  12.938  15.137  1.00  0.00     0.039 C 
ATOM     10  G   UNL     1       1.039  12.698  16.371  1.00  0.00     0.000 G0
ENDBRANCH   6   7
ENDBRANCH   5   6
ENDBRANCH   3   5
ENDBRANCH   1   3
BRANCH   1  11
ATOM     11  C   UNL     1       0.188  11.652  19.002  1.00  0.00     0.087 C 
BRANCH  11  12
ATOM     12  C   UNL     1       1.344  12.687  18.990  1.00  0.00     0.066 C 
BRANCH  12  13
ATOM     13  C   UNL     1       1.459  13.394  17.651  1.00  0.00     0.140 C 
ATOM     14  O   UNL     1       1.822  14.560  17.605  1.00  0.00    -0.299 OA
BRANCH  13  15
ATOM     15  C   UNL     1       1.047  12.702  16.370  1.00  0.00     0.106 CG0
ATOM     16  G   UNL     1       2.250  12.040  15.729  1.00  0.00     0.000 G0
ENDBRANCH  13  15
ENDBRANCH  12  13
BRANCH  12  17
ATOM     17  C   UNL     1       1.299  13.658  20.213  1.00  0.00    -0.006 C 
ATOM     18  C   UNL     1       2.249  13.296  21.370  1.00  0.00     0.008 C 
ATOM     19  C   UNL     1      -0.134  13.802  20.747  1.00  0.00     0.008 C 
ENDBRANCH  12  17
ENDBRANCH  11  12
ENDBRANCH   1  11
TORSDOF 1
ENDMDL
MODEL 3
REMARK VINA RESULT:    -3.235      1.805      3.988
REMARK INTER + INTRA:          -5.048
REMARK INTER:                  -4.809
REMARK INTRA:                  -0.239
REMARK UNBOUND:                -0.111
REMARK SMILES CC1=CCC[C@@H](C)C(=O)C[C@H](C(C)C)C(=O)C1
REMARK SMILES IDX 8 1 9 2 6 3 7 4 5 5 4 6 3 7 2 8 1 9 10 11 11 12 15 13 16 14
REMARK SMILES IDX 17 15 12 17 13 18 14 19
REMARK H PARENT
REMARK Flexibility Score: 70.00
ROOT
ATOM      1  C   UNL     1       3.349  10.774  18.218  1.00  0.00     0.136 C 
ATOM      2  O   UNL     1       4.348  11.363  17.828  1.00  0.00    -0.299 OA
ENDROOT
BRANCH   1   3
ATOM      3  C   UNL     1       2.745   9.706  17.318  1.00  0.00     0.053 C 
ATOM      4  C   UNL     1       1.762  10.331  16.319  1.00  0.00     0.016 C 
BRANCH   3   5
ATOM      5  C   UNL     1       2.074   8.560  18.114  1.00  0.00     0.015 C 
BRANCH   5   6
ATOM      6  C   UNL     1       0.551   8.696  18.329  1.00  0.00     0.028 C 
BRANCH   6   7
ATOM      7  C   UNL     1       0.058   8.660  19.758  1.00  0.00    -0.028 C 
ATOM      8  C   UNL     1      -0.568   9.664  20.418  1.00  0.00    -0.070 CG0
ATOM      9  C   UNL     1      -1.130   9.362  21.785  1.00  0.00     0.039 C 
ATOM     10  G   UNL     1      -0.674  11.082  19.894  1.00  0.00     0.000 G0
ENDBRANCH   6   7
ENDBRANCH   5   6
ENDBRANCH   3   5
ENDBRANCH   1   3
BRANCH   1  11
ATOM     11  C   UNL     1       2.762  11.175  19.563  1.00  0.00     0.087 C 
BRANCH  11  12
ATOM     12  C   UNL     1       1.637  12.241  19.472  1.00  0.00     0.066 C 
BRANCH  12  13
ATOM     13  C   UNL     1       0.478  11.921  20.398  1.00  0.00     0.140 C 
ATOM     14  O   UNL     1       0.518  12.271  21.569  1.00  0.00    -0.299 OA
BRANCH  13  15
ATOM     15  C   UNL     1      -0.697  11.099  19.917  1.00  0.00     0.106 CG0
ATOM     16  G   UNL     1      -0.570   9.674  20.419  1.00  0.00     0.000 G0
ENDBRANCH  13  15
ENDBRANCH  12  13
BRANCH  12  17
ATOM     17  C   UNL     1       2.176  13.700  19.615  1.00  0.00    -0.006 C 
ATOM     18  C   UNL     1       2.417  14.441  18.287  1.00  0.00     0.008 C 
ATOM     19  C   UNL     1       3.456  13.733  20.465  1.00  0.00     0.008 C 
ENDBRANCH  12  17
ENDBRANCH  11  12
ENDBRANCH   1  11
TORSDOF 1
ENDMDL
MODEL 4
REMARK VINA RESULT:    -3.198      1.929      4.274
REMARK INTER + INTRA:          -4.992
REMARK INTER:                  -4.813
REMARK INTRA:                  -0.179
REMARK UNBOUND:                -0.111
REMARK SMILES CC1=CCC[C@@H](C)C(=O)C[C@H](C(C)C)C(=O)C1
REMARK SMILES IDX 8 1 9 2 6 3 7 4 5 5 4 6 3 7 2 8 1 9 10 11 11 12 15 13 16 14
REMARK SMILES IDX 17 15 12 17 13 18 14 19
REMARK H PARENT
REMARK Flexibility Score: 70.00
ROOT
ATOM      1  C   UNL     1       1.579  10.835  18.596  1.00  0.00     0.136 C 
ATOM      2  O   UNL     1       0.678  11.521  18.136  1.00  0.00    -0.299 OA
ENDROOT
BRANCH   1   3
ATOM      3  C   UNL     1       1.609   9.355  18.244  1.00  0.00     0.053 C 
ATOM      4  C   UNL     1       1.734   9.161  16.726  1.00  0.00     0.016 C 
BRANCH   3   5
ATOM      5  C   UNL     1       0.392   8.580  18.804  1.00  0.00     0.015 C 
BRANCH   5   6
ATOM      6  C   UNL     1       0.112   8.769  20.311  1.00  0.00     0.028 C 
BRANCH   6   7
ATOM      7  C   UNL     1       1.112   8.167  21.272  1.00  0.00    -0.028 C 
ATOM      8  C   UNL     1       1.611   8.755  22.385  1.00  0.00    -0.070 CG0
ATOM      9  C   UNL     1       2.471   7.915  23.297  1.00  0.00     0.039 C 
ATOM     10  G   UNL     1       1.416  10.219  22.728  1.00  0.00     0.000 G0
ENDBRANCH   6   7
ENDBRANCH   5   6
ENDBRANCH   3   5
ENDBRANCH   1   3
BRANCH   1  11
ATOM     11  C   UNL     1       2.591  11.504  19.515  1.00  0.00     0.087 C 
BRANCH  11  12
ATOM     12  C   UNL     1       1.996  11.993  20.863  1.00  0.00     0.066 C 
BRANCH  12  13
ATOM     13  C   UNL     1       2.418  11.108  22.022  1.00  0.00     0.140 C 
ATOM     14  O   UNL     1       3.596  11.043  22.342  1.00  0.00    -0.299 OA
BRANCH  13  15
ATOM     15  C   UNL     1       1.413  10.235  22.739  1.00  0.00     0.106 CG0
ATOM     16  G   UNL     1       1.623   8.783  22.357  1.00  0.00     0.000 G0
ENDBRANCH  13  15
ENDBRANCH  12  13
BRANCH  12  17
ATOM     17  C   UNL     1       2.236  13.516  21.111  1.00  0.00    -0.006 C 
ATOM     18  C   UNL     1       0.964  14.383  21.134  1.00  0.00     0.008 C 
ATOM     19  C   UNL     1       3.233  14.089  20.092  1.00  0.00     0.008 C 
ENDBRANCH  12  17
ENDBRANCH  11  12
ENDBRANCH   1  11
TORSDOF 1
ENDMDL
MODEL 5
REMARK VINA RESULT:    -3.183      2.584      4.959
REMARK INTER + INTRA:          -4.969
REMARK INTER:                  -4.879
REMARK INTRA:                  -0.090
REMARK UNBOUND:                -0.111
REMARK SMILES CC1=CCC[C@@H](C)C(=O)C[C@H](C(C)C)C(=O)C1
REMARK SMILES IDX 8 1 9 2 6 3 7 4 5 5 4 6 3 7 2 8 1 9 10 11 11 12 15 13 16 14
REMARK SMILES IDX 17 15 12 17 13 18 14 19
REMARK H PARENT
REMARK Flexibility Score: 70.00
ROOT
ATOM      1  C   UNL     1       2.505  15.568  22.000  1.00  0.00     0.136 C 
ATOM      2  O   UNL     1       2.568  15.965  23.155  1.00  0.00    -0.299 OA
ENDROOT
BRANCH   1   3
ATOM      3  C   UNL     1       1.679  16.371  21.007  1.00  0.00     0.053 C 
ATOM      4  C   UNL     1       0.302  16.712  21.596  1.00  0.00     0.016 C 
BRANCH   3   5
ATOM      5  C   UNL     1       1.536  15.666  19.636  1.00  0.00     0.015 C 
BRANCH   5   6
ATOM      6  C   UNL     1       0.367  14.664  19.517  1.00  0.00     0.028 C 
BRANCH   6   7
ATOM      7  C   UNL     1       0.604  13.437  18.665  1.00  0.00    -0.028 C 
ATOM      8  C   UNL     1       0.706  12.161  19.106  1.00  0.00    -0.070 CG0
ATOM      9  C   UNL     1       0.775  11.064  18.072  1.00  0.00     0.039 C 
ATOM     10  G   UNL     1       0.824  11.778  20.568  1.00  0.00     0.000 G0
ENDBRANCH   6   7
ENDBRANCH   5   6
ENDBRANCH   3   5
ENDBRANCH   1   3
BRANCH   1  11
ATOM     11  C   UNL     1       3.233  14.280  21.645  1.00  0.00     0.087 C 
BRANCH  11  12
ATOM     12  C   UNL     1       2.542  12.995  22.174  1.00  0.00     0.066 C 
BRANCH  12  13
ATOM     13  C   UNL     1       2.258  12.005  21.058  1.00  0.00     0.140 C 
ATOM     14  O   UNL     1       3.185  11.449  20.487  1.00  0.00    -0.299 OA
BRANCH  13  15
ATOM     15  C   UNL     1       0.845  11.756  20.581  1.00  0.00     0.106 CG0
ATOM     16  G   UNL     1       0.714  12.150  19.123  1.00  0.00     0.000 G0
ENDBRANCH  13  15
ENDBRANCH  12  13
BRANCH  12  17
ATOM     17  C   UNL     1       3.284  12.370  23.399  1.00  0.00    -0.006 C 
ATOM     18  C   UNL     1       2.520  12.446  24.733  1.00  0.00     0.008 C 
ATOM     19  C   UNL     1       4.681  12.987  23.568  1.00  0.00     0.008 C 
ENDBRANCH  12  17
ENDBRANCH  11  12
ENDBRANCH   1  11
TORSDOF 1
ENDMDL
MODEL 6
REMARK VINA RESULT:    -3.172      3.630      4.490
REMARK INTER + INTRA:          -4.951
REMARK INTER:                  -4.879
REMARK INTRA:                  -0.072
REMARK UNBOUND:                -0.111
REMARK SMILES CC1=CCC[C@@H](C)C(=O)C[C@H](C(C)C)C(=O)C1
REMARK SMILES IDX 8 1 9 2 6 3 7 4 5 5 4 6 3 7 2 8 1 9 10 11 11 12 15 13 16 14
REMARK SMILES IDX 17 15 12 17 13 18 14 19
REMARK H PARENT
REMARK Flexibility Score: 70.00
ROOT
ATOM      1  C   UNL     1       1.395  16.003  20.352  1.00  0.00     0.136 C 
ATOM      2  O   UNL     1       1.629  17.037  19.744  1.00  0.00    -0.299 OA
ENDROOT
BRANCH   1   3
ATOM      3  C   UNL     1       1.238  16.076  21.864  1.00  0.00     0.053 C 
ATOM      4  C   UNL     1       0.183  17.123  22.250  1.00  0.00     0.016 C 
BRANCH   3   5
ATOM      5  C   UNL     1       2.576  16.341  22.595  1.00  0.00     0.015 C 
BRANCH   5   6
ATOM      6  C   UNL     1       3.521  15.126  22.727  1.00  0.00     0.028 C 
BRANCH   6   7
ATOM      7  C   UNL     1       2.905  13.833  23.212  1.00  0.00    -0.028 C 
ATOM      8  C   UNL     1       3.044  12.613  22.642  1.00  0.00    -0.070 CG0
ATOM      9  C   UNL     1       2.484  11.423  23.382  1.00  0.00     0.039 C 
ATOM     10  G   UNL     1       3.663  12.384  21.277  1.00  0.00     0.000 G0
ENDBRANCH   6   7
ENDBRANCH   5   6
ENDBRANCH   3   5
ENDBRANCH   1   3
BRANCH   1  11
ATOM     11  C   UNL     1       1.309  14.709  19.557  1.00  0.00     0.087 C 
BRANCH  11  12
ATOM     12  C   UNL     1       2.660  13.955  19.425  1.00  0.00     0.066 C 
BRANCH  12  13
ATOM     13  C   UNL     1       2.650  12.638  20.181  1.00  0.00     0.140 C 
ATOM     14  O   UNL     1       1.776  11.814  19.959  1.00  0.00    -0.299 OA
BRANCH  13  15
ATOM     15  C   UNL     1       3.660  12.362  21.273  1.00  0.00     0.106 CG0
ATOM     16  G   UNL     1       3.041  12.633  22.630  1.00  0.00     0.000 G0
ENDBRANCH  13  15
ENDBRANCH  12  13
BRANCH  12  17
ATOM     17  C   UNL     1       3.139  13.828  17.943  1.00  0.00    -0.006 C 
ATOM     18  C   UNL     1       2.014  13.671  16.904  1.00  0.00     0.008 C 
ATOM     19  C   UNL     1       4.149  12.680  17.789  1.00  0.00     0.008 C 
ENDBRANCH  12  17
ENDBRANCH  11  12
ENDBRANCH   1  11
TORSDOF 1
ENDMDL
MODEL 7
REMARK VINA RESULT:    -3.159      2.664      5.613
REMARK INTER + INTRA:          -4.931
REMARK INTER:                  -4.800
REMARK INTRA:                  -0.131
REMARK UNBOUND:                -0.111
REMARK SMILES CC1=CCC[C@@H](C)C(=O)C[C@H](C(C)C)C(=O)C1
REMARK SMILES IDX 8 1 9 2 6 3 7 4 5 5 4 6 3 7 2 8 1 9 10 11 11 12 15 13 16 14
REMARK SMILES IDX 17 15 12 17 13 18 14 19
REMARK H PARENT
REMARK Flexibility Score: 70.00
ROOT
ATOM      1  C   UNL     1       0.499  10.387  19.914  1.00  0.00     0.136 C 
ATOM      2  O   UNL     1       0.348   9.754  20.949  1.00  0.00    -0.299 OA
ENDROOT
BRANCH   1   3
ATOM      3  C   UNL     1       0.698   9.614  18.619  1.00  0.00     0.053 C 
ATOM      4  C   UNL     1      -0.120   8.315  18.630  1.00  0.00     0.016 C 
BRANCH   3   5
ATOM      5  C   UNL     1       2.189   9.327  18.315  1.00  0.00     0.015 C 
BRANCH   5   6
ATOM      6  C   UNL     1       2.696   9.808  16.937  1.00  0.00     0.028 C 
BRANCH   6   7
ATOM      7  C   UNL     1       1.758  10.675  16.129  1.00  0.00    -0.028 C 
ATOM      8  C   UNL     1       1.747  12.028  16.089  1.00  0.00    -0.070 CG0
ATOM      9  C   UNL     1       0.838  12.695  15.087  1.00  0.00     0.039 C 
ATOM     10  G   UNL     1       2.539  12.907  17.037  1.00  0.00     0.000 G0
ENDBRANCH   6   7
ENDBRANCH   5   6
ENDBRANCH   3   5
ENDBRANCH   1   3
BRANCH   1  11
ATOM     11  C   UNL     1       0.506  11.906  19.999  1.00  0.00     0.087 C 
BRANCH  11  12
ATOM     12  C   UNL     1       1.843  12.559  19.557  1.00  0.00     0.066 C 
BRANCH  12  13
ATOM     13  C   UNL     1       1.705  13.296  18.237  1.00  0.00     0.140 C 
ATOM     14  O   UNL     1       0.854  14.165  18.110  1.00  0.00    -0.299 OA
BRANCH  13  15
ATOM     15  C   UNL     1       2.549  12.914  17.042  1.00  0.00     0.106 CG0
ATOM     16  G   UNL     1       1.755  12.016  16.114  1.00  0.00     0.000 G0
ENDBRANCH  13  15
ENDBRANCH  12  13
BRANCH  12  17
ATOM     17  C   UNL     1       2.502  13.411  20.689  1.00  0.00    -0.006 C 
ATOM     18  C   UNL     1       4.034  13.293  20.788  1.00  0.00     0.008 C 
ATOM     19  C   UNL     1       1.871  13.093  22.054  1.00  0.00     0.008 C 
ENDBRANCH  12  17
ENDBRANCH  11  12
ENDBRANCH   1  11
TORSDOF 1
ENDMDL
MODEL 8
REMARK VINA RESULT:    -2.990      3.751      5.909
REMARK INTER + INTRA:          -4.675
REMARK INTER:                  -4.585
REMARK INTRA:                  -0.089
REMARK UNBOUND:                -0.111
REMARK SMILES CC1=CCC[C@@H](C)C(=O)C[C@H](C(C)C)C(=O)C1
REMARK SMILES IDX 8 1 9 2 6 3 7 4 5 5 4 6 3 7 2 8 1 9 10 11 11 12 15 13 16 14
REMARK SMILES IDX 17 15 12 17 13 18 14 19
REMARK H PARENT
REMARK Flexibility Score: 70.00
ROOT
ATOM      1  C   UNL     1       2.654  14.357  22.645  1.00  0.00     0.136 C 
ATOM      2  O   UNL     1       2.917  15.298  23.379  1.00  0.00    -0.299 OA
ENDROOT
BRANCH   1   3
ATOM      3  C   UNL     1       3.728  13.307  22.406  1.00  0.00     0.053 C 
ATOM      4  C   UNL     1       4.580  13.105  23.668  1.00  0.00     0.016 C 
BRANCH   3   5
ATOM      5  C   UNL     1       4.620  13.627  21.182  1.00  0.00     0.015 C 
BRANCH   5   6
ATOM      6  C   UNL     1       4.517  12.637  20.001  1.00  0.00     0.028 C 
BRANCH   6   7
ATOM      7  C   UNL     1       4.036  13.197  18.681  1.00  0.00    -0.028 C 
ATOM      8  C   UNL     1       2.748  13.325  18.284  1.00  0.00    -0.070 CG0
ATOM      9  C   UNL     1       2.480  14.065  16.997  1.00  0.00     0.039 C 
ATOM     10  G   UNL     1       1.573  12.710  19.018  1.00  0.00     0.000 G0
ENDBRANCH   6   7
ENDBRANCH   5   6
ENDBRANCH   3   5
ENDBRANCH   1   3
BRANCH   1  11
ATOM     11  C   UNL     1       1.278  14.318  21.996  1.00  0.00     0.087 C 
BRANCH  11  12
ATOM     12  C   UNL     1       1.250  14.850  20.538  1.00  0.00     0.066 C 
BRANCH  12  13
ATOM     13  C   UNL     1       0.686  13.823  19.572  1.00  0.00     0.140 C 
ATOM     14  O   UNL     1      -0.503  13.840  19.289  1.00  0.00    -0.299 OA
BRANCH  13  15
ATOM     15  C   UNL     1       1.558  12.720  19.015  1.00  0.00     0.106 CG0
ATOM     16  G   UNL     1       2.749  13.317  18.292  1.00  0.00     0.000 G0
ENDBRANCH  13  15
ENDBRANCH  12  13
BRANCH  12  17
ATOM     17  C   UNL     1       0.584  16.258  20.421  1.00  0.00    -0.006 C 
ATOM     18  C   UNL     1       1.455  17.339  19.753  1.00  0.00     0.008 C 
ATOM     19  C   UNL     1       0.107  16.756  21.794  1.00  0.00     0.008 C 
ENDBRANCH  12  17
ENDBRANCH  11  12
ENDBRANCH   1  11
TORSDOF 1
ENDMDL
MODEL 9
REMARK VINA RESULT:    -2.962      3.302      4.485
REMARK INTER + INTRA:          -4.632
REMARK INTER:                  -4.451
REMARK INTRA:                  -0.181
REMARK UNBOUND:                -0.111
REMARK SMILES CC1=CCC[C@@H](C)C(=O)C[C@H](C(C)C)C(=O)C1
REMARK SMILES IDX 8 1 9 2 6 3 7 4 5 5 4 6 3 7 2 8 1 9 10 11 11 12 15 13 16 14
REMARK SMILES IDX 17 15 12 17 13 18 14 19
REMARK H PARENT
REMARK Flexibility Score: 70.00
ROOT
ATOM      1  C   UNL     1       1.257  15.169  21.925  1.00  0.00     0.136 C 
ATOM      2  O   UNL     1       0.466  15.954  21.421  1.00  0.00    -0.299 OA
ENDROOT
BRANCH   1   3
ATOM      3  C   UNL     1       2.609  15.701  22.377  1.00  0.00     0.053 C 
ATOM      4  C   UNL     1       3.641  15.594  21.245  1.00  0.00     0.016 C 
BRANCH   3   5
ATOM      5  C   UNL     1       3.125  15.011  23.664  1.00  0.00     0.015 C 
BRANCH   5   6
ATOM      6  C   UNL     1       4.245  13.967  23.462  1.00  0.00     0.028 C 
BRANCH   6   7
ATOM      7  C   UNL     1       3.944  12.551  23.897  1.00  0.00    -0.028 C 
ATOM      8  C   UNL     1       3.710  11.493  23.085  1.00  0.00    -0.070 CG0
ATOM      9  C   UNL     1       3.596  10.130  23.722  1.00  0.00     0.039 C 
ATOM     10  G   UNL     1       3.486  11.609  21.590  1.00  0.00     0.000 G0
ENDBRANCH   6   7
ENDBRANCH   5   6
ENDBRANCH   3   5
ENDBRANCH   1   3
BRANCH   1  11
ATOM     11  C   UNL     1       0.845  13.709  22.035  1.00  0.00     0.087 C 
BRANCH  11  12
ATOM     12  C   UNL     1       1.279  12.835  20.828  1.00  0.00     0.066 C 
BRANCH  12  13
ATOM     13  C   UNL     1       2.004  11.576  21.272  1.00  0.00     0.140 C 
ATOM     14  O   UNL     1       1.377  10.541  21.444  1.00  0.00    -0.299 OA
BRANCH  13  15
ATOM     15  C   UNL     1       3.482  11.602  21.589  1.00  0.00     0.106 CG0
ATOM     16  G   UNL     1       3.692  11.507  23.087  1.00  0.00     0.000 G0
ENDBRANCH  13  15
ENDBRANCH  12  13
BRANCH  12  17
ATOM     17  C   UNL     1       0.112  12.570  19.824  1.00  0.00    -0.006 C 
ATOM     18  C   UNL     1       0.220  13.323  18.485  1.00  0.00     0.008 C 
ATOM     19  C   UNL     1      -1.249  12.864  20.473  1.00  0.00     0.008 C 
ENDBRANCH  12  17
ENDBRANCH  11  12
ENDBRANCH   1  11
TORSDOF 1
ENDMDL
