MODEL 1
REMARK VINA RESULT:     0.000      0.000      0.000
REMARK INTER + INTRA:           0.000
REMARK INTER:                   0.000
REMARK INTRA:                   0.000
REMARK UNBOUND:                 0.000
REMARK SMILES C=C1CCC[C@]2(C)CC(=O)C(=C(C)C)C[C@H]12
REMARK SMILES IDX 13 1 12 2 11 3 15 4 16 5 2 6 1 7 3 8 4 9 5 10 6 11 8 12 9 13
REMARK SMILES IDX 10 14 7 15 14 16
REMARK H PARENT
REMARK Flexibility Score: inf
ROOT
ATOM      1  C   UNL     1      -6.869   7.085  16.813  1.00  0.00     0.039 C 
ATOM      2  C   UNL     1      -5.797   6.096  16.417  1.00  0.00    -0.070 C 
ATOM      3  C   UNL     1      -4.908   6.362  15.416  1.00  0.00    -0.006 C 
ATOM      4  C   UNL     1      -3.790   5.386  15.071  1.00  0.00     0.047 C 
ATOM      5  C   UNL     1      -2.515   6.076  14.521  1.00  0.00     0.025 C 
ATOM      6  C   UNL     1      -1.631   6.739  15.581  1.00  0.00    -0.073 C 
ATOM      7  C   UNL     1      -1.973   6.885  16.876  1.00  0.00     0.008 C 
ATOM      8  C   UNL     1      -0.339   7.331  15.081  1.00  0.00     0.031 C 
ATOM      9  C   UNL     1      -0.641   8.364  13.995  1.00  0.00     0.005 C 
ATOM     10  C   UNL     1      -1.516   7.768  12.877  1.00  0.00     0.008 C 
ATOM     11  C   UNL     1      -2.834   7.097  13.380  1.00  0.00    -0.018 C 
ATOM     12  C   UNL     1      -3.820   8.172  13.907  1.00  0.00     0.088 C 
ATOM     13  C   UNL     1      -5.040   7.556  14.531  1.00  0.00     0.159 C 
ATOM     14  O   UNL     1      -6.166   8.061  14.280  1.00  0.00    -0.295 OA
ATOM     15  C   UNL     1      -3.467   6.375  12.163  1.00  0.00     0.012 C 
ATOM     16  C   UNL     1      -5.725   4.809  17.208  1.00  0.00     0.039 C 
ENDROOT
TORSDOF 0
ENDMDL
MODEL 2
REMARK VINA RESULT:     0.000      2.095      2.545
REMARK INTER + INTRA:           0.000
REMARK INTER:                   0.000
REMARK INTRA:                   0.000
REMARK UNBOUND:                 0.000
REMARK SMILES C=C1CCC[C@]2(C)CC(=O)C(=C(C)C)C[C@H]12
REMARK SMILES IDX 13 1 12 2 11 3 15 4 16 5 2 6 1 7 3 8 4 9 5 10 6 11 8 12 9 13
REMARK SMILES IDX 10 14 7 15 14 16
REMARK H PARENT
REMARK Flexibility Score: inf
ROOT
ATOM      1  C   UNL     1      -8.977   5.616  15.370  1.00  0.00     0.039 C 
ATOM      2  C   UNL     1      -7.785   4.835  14.866  1.00  0.00    -0.070 C 
ATOM      3  C   UNL     1      -6.892   5.375  13.986  1.00  0.00    -0.006 C 
ATOM      4  C   UNL     1      -5.658   4.601  13.536  1.00  0.00     0.047 C 
ATOM      5  C   UNL     1      -4.448   5.511  13.199  1.00  0.00     0.025 C 
ATOM      6  C   UNL     1      -3.689   6.051  14.414  1.00  0.00    -0.073 C 
ATOM      7  C   UNL     1      -4.096   5.916  15.691  1.00  0.00     0.008 C 
ATOM      8  C   UNL     1      -2.453   6.858  14.109  1.00  0.00     0.031 C 
ATOM      9  C   UNL     1      -2.826   8.038  13.213  1.00  0.00     0.005 C 
ATOM     10  C   UNL     1      -3.582   7.576  11.954  1.00  0.00     0.008 C 
ATOM     11  C   UNL     1      -4.834   6.689  12.246  1.00  0.00    -0.018 C 
ATOM     12  C   UNL     1      -5.957   7.538  12.900  1.00  0.00     0.088 C 
ATOM     13  C   UNL     1      -7.122   6.693  13.327  1.00  0.00     0.159 C 
ATOM     14  O   UNL     1      -8.288   7.117  13.104  1.00  0.00    -0.295 OA
ATOM     15  C   UNL     1      -5.333   6.147  10.882  1.00  0.00     0.012 C 
ATOM     16  C   UNL     1      -7.600   3.437  15.413  1.00  0.00     0.039 C 
ENDROOT
TORSDOF 0
ENDMDL
MODEL 3
REMARK VINA RESULT:     0.000      2.868      3.855
REMARK INTER + INTRA:           0.000
REMARK INTER:                   0.000
REMARK INTRA:                   0.000
REMARK UNBOUND:                 0.000
REMARK SMILES C=C1CCC[C@]2(C)CC(=O)C(=C(C)C)C[C@H]12
REMARK SMILES IDX 13 1 12 2 11 3 15 4 16 5 2 6 1 7 3 8 4 9 5 10 6 11 8 12 9 13
REMARK SMILES IDX 10 14 7 15 14 16
REMARK H PARENT
REMARK Flexibility Score: inf
ROOT
ATOM      1  C   UNL     1     -10.384   7.664  15.540  1.00  0.00     0.039 C 
ATOM      2  C   UNL     1      -9.192   6.883  15.037  1.00  0.00    -0.070 C 
ATOM      3  C   UNL     1      -8.300   7.422  14.156  1.00  0.00    -0.006 C 
ATOM      4  C   UNL     1      -7.066   6.649  13.707  1.00  0.00     0.047 C 
ATOM      5  C   UNL     1      -5.856   7.559  13.370  1.00  0.00     0.025 C 
ATOM      6  C   UNL     1      -5.096   8.099  14.584  1.00  0.00    -0.073 C 
ATOM      7  C   UNL     1      -5.503   7.963  15.861  1.00  0.00     0.008 C 
ATOM      8  C   UNL     1      -3.860   8.905  14.279  1.00  0.00     0.031 C 
ATOM      9  C   UNL     1      -4.233  10.086  13.383  1.00  0.00     0.005 C 
ATOM     10  C   UNL     1      -4.989   9.623  12.124  1.00  0.00     0.008 C 
ATOM     11  C   UNL     1      -6.242   8.737  12.417  1.00  0.00    -0.018 C 
ATOM     12  C   UNL     1      -7.364   9.586  13.070  1.00  0.00     0.088 C 
ATOM     13  C   UNL     1      -8.530   8.741  13.497  1.00  0.00     0.159 C 
ATOM     14  O   UNL     1      -9.695   9.165  13.274  1.00  0.00    -0.295 OA
ATOM     15  C   UNL     1      -6.740   8.194  11.052  1.00  0.00     0.012 C 
ATOM     16  C   UNL     1      -9.007   5.485  15.583  1.00  0.00     0.039 C 
ENDROOT
TORSDOF 0
ENDMDL
MODEL 4
REMARK VINA RESULT:     0.000      9.516     11.522
REMARK INTER + INTRA:           0.000
REMARK INTER:                   0.000
REMARK INTRA:                   0.000
REMARK UNBOUND:                 0.000
REMARK SMILES C=C1CCC[C@]2(C)CC(=O)C(=C(C)C)C[C@H]12
REMARK SMILES IDX 13 1 12 2 11 3 15 4 16 5 2 6 1 7 3 8 4 9 5 10 6 11 8 12 9 13
REMARK SMILES IDX 10 14 7 15 14 16
REMARK H PARENT
REMARK Flexibility Score: inf
ROOT
ATOM      1  C   UNL     1      -9.661  -5.512  14.354  1.00  0.00     0.039 C 
ATOM      2  C   UNL     1     -10.087  -4.721  13.138  1.00  0.00    -0.070 C 
ATOM      3  C   UNL     1     -10.378  -3.389  13.213  1.00  0.00    -0.006 C 
ATOM      4  C   UNL     1     -10.741  -2.588  11.969  1.00  0.00     0.047 C 
ATOM      5  C   UNL     1     -10.319  -1.097  12.049  1.00  0.00     0.025 C 
ATOM      6  C   UNL     1      -8.831  -0.834  11.804  1.00  0.00    -0.073 C 
ATOM      7  C   UNL     1      -7.894  -1.796  11.692  1.00  0.00     0.008 C 
ATOM      8  C   UNL     1      -8.416   0.614  11.781  1.00  0.00     0.031 C 
ATOM      9  C   UNL     1      -8.809   1.275  13.102  1.00  0.00     0.005 C 
ATOM     10  C   UNL     1     -10.302   1.070  13.415  1.00  0.00     0.008 C 
ATOM     11  C   UNL     1     -10.766  -0.421  13.386  1.00  0.00    -0.018 C 
ATOM     12  C   UNL     1     -10.163  -1.198  14.587  1.00  0.00     0.088 C 
ATOM     13  C   UNL     1     -10.468  -2.666  14.515  1.00  0.00     0.159 C 
ATOM     14  O   UNL     1     -10.812  -3.263  15.570  1.00  0.00    -0.295 OA
ATOM     15  C   UNL     1     -12.312  -0.417  13.506  1.00  0.00     0.012 C 
ATOM     16  C   UNL     1     -10.140  -5.462  11.821  1.00  0.00     0.039 C 
ENDROOT
TORSDOF 0
ENDMDL
MODEL 5
REMARK VINA RESULT:     0.000      8.570     10.201
REMARK INTER + INTRA:           0.000
REMARK INTER:                   0.000
REMARK INTRA:                   0.000
REMARK UNBOUND:                 0.000
REMARK SMILES C=C1CCC[C@]2(C)CC(=O)C(=C(C)C)C[C@H]12
REMARK SMILES IDX 13 1 12 2 11 3 15 4 16 5 2 6 1 7 3 8 4 9 5 10 6 11 8 12 9 13
REMARK SMILES IDX 10 14 7 15 14 16
REMARK H PARENT
REMARK Flexibility Score: inf
ROOT
ATOM      1  C   UNL     1      -9.497  -3.529  13.443  1.00  0.00     0.039 C 
ATOM      2  C   UNL     1      -9.908  -2.838  12.164  1.00  0.00    -0.070 C 
ATOM      3  C   UNL     1     -10.100  -1.488  12.106  1.00  0.00    -0.006 C 
ATOM      4  C   UNL     1     -10.449  -0.793  10.795  1.00  0.00     0.047 C 
ATOM      5  C   UNL     1      -9.919   0.661  10.706  1.00  0.00     0.025 C 
ATOM      6  C   UNL     1      -8.425   0.786  10.393  1.00  0.00    -0.073 C 
ATOM      7  C   UNL     1      -7.564  -0.250  10.356  1.00  0.00     0.008 C 
ATOM      8  C   UNL     1      -7.909   2.189  10.206  1.00  0.00     0.031 C 
ATOM      9  C   UNL     1      -8.206   3.010  11.461  1.00  0.00     0.005 C 
ATOM     10  C   UNL     1      -9.698   2.950  11.835  1.00  0.00     0.008 C 
ATOM     11  C   UNL     1     -10.268   1.503  11.977  1.00  0.00    -0.018 C 
ATOM     12  C   UNL     1      -9.679   0.812  13.235  1.00  0.00     0.088 C 
ATOM     13  C   UNL     1     -10.091  -0.630  13.327  1.00  0.00     0.159 C 
ATOM     14  O   UNL     1     -10.439  -1.087  14.448  1.00  0.00    -0.295 OA
ATOM     15  C   UNL     1     -11.804   1.636  12.139  1.00  0.00     0.012 C 
ATOM     16  C   UNL     1     -10.061  -3.704  10.934  1.00  0.00     0.039 C 
ENDROOT
TORSDOF 0
ENDMDL
MODEL 6
REMARK VINA RESULT:     0.000      7.733      9.850
REMARK INTER + INTRA:           0.000
REMARK INTER:                   0.000
REMARK INTRA:                   0.000
REMARK UNBOUND:                 0.000
REMARK SMILES C=C1CCC[C@]2(C)CC(=O)C(=C(C)C)C[C@H]12
REMARK SMILES IDX 13 1 12 2 11 3 15 4 16 5 2 6 1 7 3 8 4 9 5 10 6 11 8 12 9 13
REMARK SMILES IDX 10 14 7 15 14 16
REMARK H PARENT
REMARK Flexibility Score: inf
ROOT
ATOM      1  C   UNL     1      -9.540  -3.600  15.656  1.00  0.00     0.039 C 
ATOM      2  C   UNL     1      -9.951  -2.909  14.376  1.00  0.00    -0.070 C 
ATOM      3  C   UNL     1     -10.142  -1.558  14.319  1.00  0.00    -0.006 C 
ATOM      4  C   UNL     1     -10.492  -0.864  13.008  1.00  0.00     0.047 C 
ATOM      5  C   UNL     1      -9.961   0.591  12.919  1.00  0.00     0.025 C 
ATOM      6  C   UNL     1      -8.468   0.715  12.606  1.00  0.00    -0.073 C 
ATOM      7  C   UNL     1      -7.607  -0.321  12.569  1.00  0.00     0.008 C 
ATOM      8  C   UNL     1      -7.951   2.118  12.419  1.00  0.00     0.031 C 
ATOM      9  C   UNL     1      -8.249   2.939  13.673  1.00  0.00     0.005 C 
ATOM     10  C   UNL     1      -9.741   2.880  14.048  1.00  0.00     0.008 C 
ATOM     11  C   UNL     1     -10.311   1.432  14.189  1.00  0.00    -0.018 C 
ATOM     12  C   UNL     1      -9.722   0.741  15.447  1.00  0.00     0.088 C 
ATOM     13  C   UNL     1     -10.134  -0.700  15.540  1.00  0.00     0.159 C 
ATOM     14  O   UNL     1     -10.482  -1.158  16.661  1.00  0.00    -0.295 OA
ATOM     15  C   UNL     1     -11.847   1.565  14.351  1.00  0.00     0.012 C 
ATOM     16  C   UNL     1     -10.104  -3.775  13.147  1.00  0.00     0.039 C 
ENDROOT
TORSDOF 0
ENDMDL
MODEL 7
REMARK VINA RESULT:     0.000     13.200     14.793
REMARK INTER + INTRA:           0.000
REMARK INTER:                   0.000
REMARK INTRA:                   0.000
REMARK UNBOUND:                 0.000
REMARK SMILES C=C1CCC[C@]2(C)CC(=O)C(=C(C)C)C[C@H]12
REMARK SMILES IDX 13 1 12 2 11 3 15 4 16 5 2 6 1 7 3 8 4 9 5 10 6 11 8 12 9 13
REMARK SMILES IDX 10 14 7 15 14 16
REMARK H PARENT
REMARK Flexibility Score: inf
ROOT
ATOM      1  C   UNL     1      -5.877  -5.806   6.994  1.00  0.00     0.039 C 
ATOM      2  C   UNL     1      -4.403  -6.076   6.798  1.00  0.00    -0.070 C 
ATOM      3  C   UNL     1      -3.679  -5.441   5.830  1.00  0.00    -0.006 C 
ATOM      4  C   UNL     1      -2.180  -5.672   5.685  1.00  0.00     0.047 C 
ATOM      5  C   UNL     1      -1.416  -4.440   5.135  1.00  0.00     0.025 C 
ATOM      6  C   UNL     1      -1.163  -3.328   6.156  1.00  0.00    -0.073 C 
ATOM      7  C   UNL     1      -1.686  -3.298   7.397  1.00  0.00     0.008 C 
ATOM      8  C   UNL     1      -0.338  -2.164   5.668  1.00  0.00     0.031 C 
ATOM      9  C   UNL     1      -1.009  -1.546   4.442  1.00  0.00     0.005 C 
ATOM     10  C   UNL     1      -1.284  -2.602   3.355  1.00  0.00     0.008 C 
ATOM     11  C   UNL     1      -2.087  -3.844   3.855  1.00  0.00    -0.018 C 
ATOM     12  C   UNL     1      -3.552  -3.446   4.175  1.00  0.00     0.088 C 
ATOM     13  C   UNL     1      -4.319  -4.580   4.793  1.00  0.00     0.159 C 
ATOM     14  O   UNL     1      -5.500  -4.791   4.408  1.00  0.00    -0.295 OA
ATOM     15  C   UNL     1      -2.080  -4.881   2.701  1.00  0.00     0.012 C 
ATOM     16  C   UNL     1      -3.752  -7.054   7.750  1.00  0.00     0.039 C 
ENDROOT
TORSDOF 0
ENDMDL
MODEL 8
REMARK VINA RESULT:     0.000     12.367     13.556
REMARK INTER + INTRA:           0.000
REMARK INTER:                   0.000
REMARK INTRA:                   0.000
REMARK UNBOUND:                 0.000
REMARK SMILES C=C1CCC[C@]2(C)CC(=O)C(=C(C)C)C[C@H]12
REMARK SMILES IDX 13 1 12 2 11 3 15 4 16 5 2 6 1 7 3 8 4 9 5 10 6 11 8 12 9 13
REMARK SMILES IDX 10 14 7 15 14 16
REMARK H PARENT
REMARK Flexibility Score: inf
ROOT
ATOM      1  C   UNL     1      -5.151  -4.356   6.894  1.00  0.00     0.039 C 
ATOM      2  C   UNL     1      -3.739  -4.877   6.758  1.00  0.00    -0.070 C 
ATOM      3  C   UNL     1      -2.771  -4.167   6.109  1.00  0.00    -0.006 C 
ATOM      4  C   UNL     1      -1.335  -4.672   6.036  1.00  0.00     0.047 C 
ATOM      5  C   UNL     1      -0.282  -3.534   5.973  1.00  0.00     0.025 C 
ATOM      6  C   UNL     1       0.009  -2.849   7.311  1.00  0.00    -0.073 C 
ATOM      7  C   UNL     1      -0.686  -3.064   8.446  1.00  0.00     0.008 C 
ATOM      8  C   UNL     1       1.097  -1.807   7.292  1.00  0.00     0.031 C 
ATOM      9  C   UNL     1       0.748  -0.728   6.267  1.00  0.00     0.005 C 
ATOM     10  C   UNL     1       0.457  -1.337   4.883  1.00  0.00     0.008 C 
ATOM     11  C   UNL     1      -0.628  -2.460   4.890  1.00  0.00    -0.018 C 
ATOM     12  C   UNL     1      -2.027  -1.858   5.185  1.00  0.00     0.088 C 
ATOM     13  C   UNL     1      -3.074  -2.923   5.342  1.00  0.00     0.159 C 
ATOM     14  O   UNL     1      -4.199  -2.747   4.803  1.00  0.00    -0.295 OA
ATOM     15  C   UNL     1      -0.632  -3.094   3.475  1.00  0.00     0.012 C 
ATOM     16  C   UNL     1      -3.433  -6.207   7.409  1.00  0.00     0.039 C 
ENDROOT
TORSDOF 0
ENDMDL
MODEL 9
REMARK VINA RESULT:     0.000     13.136     15.060
REMARK INTER + INTRA:           0.000
REMARK INTER:                   0.000
REMARK INTRA:                   0.000
REMARK UNBOUND:                 0.000
REMARK SMILES C=C1CCC[C@]2(C)CC(=O)C(=C(C)C)C[C@H]12
REMARK SMILES IDX 13 1 12 2 11 3 15 4 16 5 2 6 1 7 3 8 4 9 5 10 6 11 8 12 9 13
REMARK SMILES IDX 10 14 7 15 14 16
REMARK H PARENT
REMARK Flexibility Score: inf
ROOT
ATOM      1  C   UNL     1     -13.569  -4.267  17.259  1.00  0.00     0.039 C 
ATOM      2  C   UNL     1     -13.663  -2.872  16.685  1.00  0.00    -0.070 C 
ATOM      3  C   UNL     1     -14.718  -2.051  16.963  1.00  0.00    -0.006 C 
ATOM      4  C   UNL     1     -14.769  -0.623  16.433  1.00  0.00     0.047 C 
ATOM      5  C   UNL     1     -15.536   0.353  17.364  1.00  0.00     0.025 C 
ATOM      6  C   UNL     1     -14.753   0.820  18.594  1.00  0.00    -0.073 C 
ATOM      7  C   UNL     1     -13.560   0.323  18.973  1.00  0.00     0.008 C 
ATOM      8  C   UNL     1     -15.442   1.843  19.460  1.00  0.00     0.031 C 
ATOM      9  C   UNL     1     -16.787   1.289  19.928  1.00  0.00     0.005 C 
ATOM     10  C   UNL     1     -17.645   0.811  18.743  1.00  0.00     0.008 C 
ATOM     11  C   UNL     1     -16.929  -0.207  17.800  1.00  0.00    -0.018 C 
ATOM     12  C   UNL     1     -16.738  -1.569  18.519  1.00  0.00     0.088 C 
ATOM     13  C   UNL     1     -15.926  -2.528  17.698  1.00  0.00     0.159 C 
ATOM     14  O   UNL     1     -16.295  -3.731  17.635  1.00  0.00    -0.295 OA
ATOM     15  C   UNL     1     -17.848  -0.406  16.567  1.00  0.00     0.012 C 
ATOM     16  C   UNL     1     -12.514  -2.407  15.819  1.00  0.00     0.039 C 
ENDROOT
TORSDOF 0
ENDMDL
