MODEL 1
REMARK VINA RESULT:    -2.470      0.000      0.000
REMARK INTER + INTRA:          -3.389
REMARK INTER:                  -3.048
REMARK INTRA:                  -0.341
REMARK UNBOUND:                -0.341
REMARK SMILES CC(C)=CCC[C@@H](C)c1ccc(C)cc1
REMARK SMILES IDX 6 1 7 2 8 3 9 4 13 5 12 6 11 7 14 8 10 9 15 10 5 11 4 12
REMARK SMILES IDX 2 13 1 14 3 15
REMARK H PARENT
REMARK Flexibility Score: inf
ROOT
ATOM      1  C   UNL     1       9.611  22.733  14.900  1.00  0.00     0.012 C 
ENDROOT
BRANCH   1   2
ATOM      2  C   UNL     1       9.957  22.436  16.379  1.00  0.00     0.016 C 
ATOM      3  C   UNL     1       9.074  21.307  16.925  1.00  0.00     0.013 C 
BRANCH   2   4
ATOM      4  C   UNL     1      11.427  22.103  16.569  1.00  0.00    -0.045 A 
ATOM      5  C   UNL     1      15.625  21.211  17.044  1.00  0.00     0.044 C 
ATOM      6  C   UNL     1      14.163  21.515  16.910  1.00  0.00    -0.051 A 
ATOM      7  C   UNL     1      13.700  22.831  17.047  1.00  0.00     0.004 A 
ATOM      8  C   UNL     1      13.257  20.498  16.577  1.00  0.00     0.004 A 
ATOM      9  C   UNL     1      12.342  23.122  16.884  1.00  0.00     0.004 A 
ATOM     10  C   UNL     1      11.900  20.787  16.414  1.00  0.00     0.004 A 
ENDBRANCH   2   4
ENDBRANCH   1   2
BRANCH   1  11
ATOM     11  C   UNL     1      10.833  23.116  14.045  1.00  0.00     0.028 C 
BRANCH  11  12
ATOM     12  C   UNL     1      11.337  21.958  13.218  1.00  0.00    -0.028 C 
ATOM     13  C   UNL     1      11.419  21.957  11.869  1.00  0.00    -0.080 C 
ATOM     14  C   UNL     1      10.946  23.124  11.036  1.00  0.00     0.039 C 
ATOM     15  C   UNL     1      11.981  20.736  11.186  1.00  0.00     0.039 C 
ENDBRANCH  11  12
ENDBRANCH   1  11
TORSDOF 4
ENDMDL
MODEL 2
REMARK VINA RESULT:    -2.369      0.596      1.639
REMARK INTER + INTRA:          -3.265
REMARK INTER:                  -2.662
REMARK INTRA:                  -0.602
REMARK UNBOUND:                -0.341
REMARK SMILES CC(C)=CCC[C@@H](C)c1ccc(C)cc1
REMARK SMILES IDX 6 1 7 2 8 3 9 4 13 5 12 6 11 7 14 8 10 9 15 10 5 11 4 12
REMARK SMILES IDX 2 13 1 14 3 15
REMARK H PARENT
REMARK Flexibility Score: inf
ROOT
ATOM      1  C   UNL     1       9.884  22.820  14.688  1.00  0.00     0.012 C 
ENDROOT
BRANCH   1   2
ATOM      2  C   UNL     1      10.081  22.349  16.150  1.00  0.00     0.016 C 
ATOM      3  C   UNL     1       9.234  21.103  16.436  1.00  0.00     0.013 C 
BRANCH   2   4
ATOM      4  C   UNL     1      11.541  22.088  16.476  1.00  0.00    -0.045 A 
ATOM      5  C   UNL     1      15.670  21.318  17.484  1.00  0.00     0.044 C 
ATOM      6  C   UNL     1      14.242  21.578  17.104  1.00  0.00    -0.051 A 
ATOM      7  C   UNL     1      13.296  20.546  17.159  1.00  0.00     0.004 A 
ATOM      8  C   UNL     1      13.828  22.873  16.758  1.00  0.00     0.004 A 
ATOM      9  C   UNL     1      11.958  20.797  16.842  1.00  0.00     0.004 A 
ATOM     10  C   UNL     1      12.492  23.125  16.440  1.00  0.00     0.004 A 
ENDBRANCH   2   4
ENDBRANCH   1   2
BRANCH   1  11
ATOM     11  C   UNL     1      10.673  21.988  13.661  1.00  0.00     0.028 C 
BRANCH  11  12
ATOM     12  C   UNL     1      10.947  22.759  12.391  1.00  0.00    -0.028 C 
ATOM     13  C   UNL     1      11.400  22.210  11.243  1.00  0.00    -0.080 C 
ATOM     14  C   UNL     1      11.741  20.743  11.135  1.00  0.00     0.039 C 
ATOM     15  C   UNL     1      11.590  23.106  10.046  1.00  0.00     0.039 C 
ENDBRANCH  11  12
ENDBRANCH   1  11
TORSDOF 4
ENDMDL
MODEL 3
REMARK VINA RESULT:    -2.130      1.143      5.164
REMARK INTER + INTRA:          -2.970
REMARK INTER:                  -2.773
REMARK INTRA:                  -0.197
REMARK UNBOUND:                -0.341
REMARK SMILES CC(C)=CCC[C@@H](C)c1ccc(C)cc1
REMARK SMILES IDX 6 1 7 2 8 3 9 4 13 5 12 6 11 7 14 8 10 9 15 10 5 11 4 12
REMARK SMILES IDX 2 13 1 14 3 15
REMARK H PARENT
REMARK Flexibility Score: inf
ROOT
ATOM      1  C   UNL     1      11.746  21.589  17.107  1.00  0.00     0.012 C 
ENDROOT
BRANCH   1   2
ATOM      2  C   UNL     1      10.602  21.078  16.198  1.00  0.00     0.016 C 
ATOM      3  C   UNL     1       9.242  21.570  16.711  1.00  0.00     0.013 C 
BRANCH   2   4
ATOM      4  C   UNL     1      10.801  21.480  14.746  1.00  0.00    -0.045 A 
ATOM      5  C   UNL     1      11.451  22.605  10.628  1.00  0.00     0.044 C 
ATOM      6  C   UNL     1      11.196  22.204  12.050  1.00  0.00    -0.051 A 
ATOM      7  C   UNL     1      11.566  20.929  12.502  1.00  0.00     0.004 A 
ATOM      8  C   UNL     1      10.651  23.124  12.958  1.00  0.00     0.004 A 
ATOM      9  C   UNL     1      11.364  20.568  13.837  1.00  0.00     0.004 A 
ATOM     10  C   UNL     1      10.449  22.764  14.292  1.00  0.00     0.004 A 
ENDBRANCH   2   4
ENDBRANCH   1   2
BRANCH   1  11
ATOM     11  C   UNL     1      12.608  22.686  16.458  1.00  0.00     0.028 C 
BRANCH  11  12
ATOM     12  C   UNL     1      13.744  23.124  17.351  1.00  0.00    -0.028 C 
ATOM     13  C   UNL     1      14.898  22.441  17.515  1.00  0.00    -0.080 C 
ATOM     14  C   UNL     1      15.144  21.109  16.847  1.00  0.00     0.039 C 
ATOM     15  C   UNL     1      15.957  23.027  18.413  1.00  0.00     0.039 C 
ENDBRANCH  11  12
ENDBRANCH   1  11
TORSDOF 4
ENDMDL
MODEL 4
REMARK VINA RESULT:     0.451      1.698      3.624
REMARK INTER + INTRA:           0.215
REMARK INTER:                   0.012
REMARK INTRA:                   0.204
REMARK UNBOUND:                -0.341
REMARK SMILES CC(C)=CCC[C@@H](C)c1ccc(C)cc1
REMARK SMILES IDX 6 1 7 2 8 3 9 4 13 5 12 6 11 7 14 8 10 9 15 10 5 11 4 12
REMARK SMILES IDX 2 13 1 14 3 15
REMARK H PARENT
REMARK Flexibility Score: inf
ROOT
ATOM      1  C   UNL     1      11.901  21.167  13.777  1.00  0.00     0.012 C 
ENDROOT
BRANCH   1   2
ATOM      2  C   UNL     1      11.517  20.248  14.963  1.00  0.00     0.016 C 
ATOM      3  C   UNL     1      12.772  19.739  15.683  1.00  0.00     0.013 C 
BRANCH   2   4
ATOM      4  C   UNL     1      10.584  20.938  15.943  1.00  0.00    -0.045 A 
ATOM      5  C   UNL     1       7.987  22.886  18.792  1.00  0.00     0.044 C 
ATOM      6  C   UNL     1       8.878  22.228  17.780  1.00  0.00    -0.051 A 
ATOM      7  C   UNL     1      10.179  22.705  17.567  1.00  0.00     0.004 A 
ATOM      8  C   UNL     1       8.441  21.088  17.089  1.00  0.00     0.004 A 
ATOM      9  C   UNL     1      11.022  22.070  16.652  1.00  0.00     0.004 A 
ATOM     10  C   UNL     1       9.283  20.453  16.174  1.00  0.00     0.004 A 
ENDBRANCH   2   4
ENDBRANCH   1   2
BRANCH   1  11
ATOM     11  C   UNL     1      10.779  22.131  13.355  1.00  0.00     0.028 C 
BRANCH  11  12
ATOM     12  C   UNL     1      11.103  22.857  12.071  1.00  0.00    -0.028 C 
ATOM     13  C   UNL     1      11.614  22.272  10.966  1.00  0.00    -0.080 C 
ATOM     14  C   UNL     1      11.974  20.806  10.928  1.00  0.00     0.039 C 
ATOM     15  C   UNL     1      11.849  23.125   9.746  1.00  0.00     0.039 C 
ENDBRANCH  11  12
ENDBRANCH   1  11
TORSDOF 4
ENDMDL
MODEL 5
REMARK VINA RESULT:     0.489      1.432      5.008
REMARK INTER + INTRA:           0.262
REMARK INTER:                   1.016
REMARK INTRA:                  -0.754
REMARK UNBOUND:                -0.341
REMARK SMILES CC(C)=CCC[C@@H](C)c1ccc(C)cc1
REMARK SMILES IDX 6 1 7 2 8 3 9 4 13 5 12 6 11 7 14 8 10 9 15 10 5 11 4 12
REMARK SMILES IDX 2 13 1 14 3 15
REMARK H PARENT
REMARK Flexibility Score: inf
ROOT
ATOM      1  C   UNL     1      11.561  23.079  17.242  1.00  0.00     0.012 C 
ENDROOT
BRANCH   1   2
ATOM      2  C   UNL     1      12.456  22.124  16.416  1.00  0.00     0.016 C 
ATOM      3  C   UNL     1      12.540  20.746  17.085  1.00  0.00     0.013 C 
BRANCH   2   4
ATOM      4  C   UNL     1      11.981  21.992  14.979  1.00  0.00    -0.045 A 
ATOM      5  C   UNL     1      10.704  21.576  10.875  1.00  0.00     0.044 C 
ATOM      6  C   UNL     1      11.118  21.717  12.309  1.00  0.00    -0.051 A 
ATOM      7  C   UNL     1      11.471  20.586  13.058  1.00  0.00     0.004 A 
ATOM      8  C   UNL     1      11.222  22.989  12.893  1.00  0.00     0.004 A 
ATOM      9  C   UNL     1      11.893  20.721  14.384  1.00  0.00     0.004 A 
ATOM     10  C   UNL     1      11.643  23.125  14.217  1.00  0.00     0.004 A 
ENDBRANCH   2   4
ENDBRANCH   1   2
BRANCH   1  11
ATOM     11  C   UNL     1      10.097  23.118  16.766  1.00  0.00     0.028 C 
BRANCH  11  12
ATOM     12  C   UNL     1       9.176  22.358  17.689  1.00  0.00    -0.028 C 
ATOM     13  C   UNL     1       8.672  21.132  17.431  1.00  0.00    -0.080 C 
ATOM     14  C   UNL     1       8.944  20.409  16.133  1.00  0.00     0.039 C 
ATOM     15  C   UNL     1       7.793  20.484  18.470  1.00  0.00     0.039 C 
ENDBRANCH  11  12
ENDBRANCH   1  11
TORSDOF 4
ENDMDL
