MODEL 1
REMARK VINA RESULT:    -9.299      0.000      0.000
REMARK INTER + INTRA:         -10.114
REMARK INTER:                 -10.114
REMARK INTRA:                   0.000
REMARK UNBOUND:                 0.000
REMARK SMILES C[C@@H]1CC[C@H]2[N@@H+](C1)C[C@H]1[C@H]3C[C@H]4[C@@H](C[C@@H](O)[C@@H]5C[C@H](O)CC[C@@]45C)[C@H]3CC[C@@H]1[C@@]2(C)O
REMARK SMILES IDX 5 1 6 2 8 3 7 4 4 5 29 6 3 7 28 8 30 9 2 10 27 11 9 12 1 13
REMARK SMILES IDX 26 14 10 15 25 16 11 17 13 18 12 19 14 20 23 21 15 22 17 23
REMARK SMILES IDX 22 24 24 25 18 26 21 27 19 28 31 30 16 32 20 34
REMARK H PARENT 6 29 31 31 16 33 20 35
REMARK Flexibility Score: inf
ROOT
ATOM      1  C   UNL     1     -16.449 -19.983  20.151  1.00  0.00     0.216 C 
ATOM      2  N   UNL     1     -15.834 -21.186  20.823  1.00  0.00    -0.330 N 
ATOM      3  C   UNL     1     -15.482 -20.972  22.250  1.00  0.00     0.266 C 
ATOM      4  C   UNL     1     -14.661 -21.716  20.093  1.00  0.00     0.265 C 
ATOM      5  C   UNL     1     -16.228 -19.999  18.609  1.00  0.00     0.069 C 
ATOM      6  C   UNL     1     -16.017 -18.618  20.808  1.00  0.00     0.117 C 
ATOM      7  C   UNL     1     -16.211 -21.430  18.071  1.00  0.00     0.015 C 
ATOM      8  C   UNL     1     -16.365 -18.614  22.359  1.00  0.00     0.036 C 
ATOM      9  C   UNL     1     -16.673 -17.428  20.058  1.00  0.00     0.049 C 
ATOM     10  C   UNL     1     -15.060 -22.252  18.696  1.00  0.00     0.041 C 
ATOM     11  C   UNL     1     -17.643 -17.857  22.791  1.00  0.00     0.007 C 
ATOM     12  C   UNL     1     -16.499 -20.042  22.918  1.00  0.00     0.054 C 
ATOM     13  C   UNL     1     -13.838 -22.296  17.769  1.00  0.00     0.013 C 
ATOM     14  C   UNL     1     -17.689 -17.722  24.321  1.00  0.00     0.004 C 
ATOM     15  C   UNL     1     -16.480 -20.069  24.460  1.00  0.00     0.002 C 
ATOM     16  C   UNL     1     -17.471 -19.056  25.105  1.00  0.00    -0.004 C 
ATOM     17  C   UNL     1     -15.101 -19.869  25.153  1.00  0.00     0.009 C 
ATOM     18  C   UNL     1     -16.806 -18.844  26.468  1.00  0.00    -0.001 C 
ATOM     19  C   UNL     1     -15.311 -18.720  26.145  1.00  0.00    -0.001 C 
ATOM     20  C   UNL     1     -17.269 -17.706  27.385  1.00  0.00     0.036 C 
ATOM     21  C   UNL     1     -14.385 -18.520  27.429  1.00  0.00    -0.024 C 
ATOM     22  C   UNL     1     -16.527 -17.789  28.759  1.00  0.00     0.118 C 
ATOM     23  C   UNL     1     -15.261 -18.718  28.726  1.00  0.00     0.026 C 
ATOM     24  C   UNL     1     -13.112 -19.454  27.465  1.00  0.00     0.010 C 
ATOM     25  C   UNL     1     -13.852 -17.052  27.392  1.00  0.00     0.012 C 
ATOM     26  C   UNL     1     -14.428 -18.629  30.020  1.00  0.00     0.038 C 
ATOM     27  C   UNL     1     -13.042 -20.383  28.688  1.00  0.00     0.032 C 
ATOM     28  C   UNL     1     -13.237 -19.626  30.024  1.00  0.00     0.114 C 
ATOM     29  H   UNL     1     -16.559 -21.945  20.817  1.00  0.00     0.348 HD
ENDROOT
BRANCH   6  30
ATOM     30  O   UNL     1     -14.618 -18.508  20.657  1.00  0.00    -0.384 OA
ATOM     31  H   UNL     1     -14.211 -19.393  20.856  1.00  0.00     0.211 HD
ENDBRANCH   6  30
BRANCH  22  32
ATOM     32  O   UNL     1     -17.413 -18.211  29.765  1.00  0.00    -0.393 OA
ATOM     33  H   UNL     1     -18.095 -18.793  29.338  1.00  0.00     0.210 HD
ENDBRANCH  22  32
BRANCH  28  34
ATOM     34  O   UNL     1     -12.047 -18.986  30.415  1.00  0.00    -0.393 OA
ATOM     35  H   UNL     1     -12.291 -18.233  31.013  1.00  0.00     0.210 HD
ENDBRANCH  28  34
TORSDOF 3
ENDMDL
MODEL 2
REMARK VINA RESULT:    -9.015      2.566      8.916
REMARK INTER + INTRA:          -9.805
REMARK INTER:                  -9.805
REMARK INTRA:                   0.000
REMARK UNBOUND:                 0.000
REMARK SMILES C[C@@H]1CC[C@H]2[N@@H+](C1)C[C@H]1[C@H]3C[C@H]4[C@@H](C[C@@H](O)[C@@H]5C[C@H](O)CC[C@@]45C)[C@H]3CC[C@@H]1[C@@]2(C)O
REMARK SMILES IDX 5 1 6 2 8 3 7 4 4 5 29 6 3 7 28 8 30 9 2 10 27 11 9 12 1 13
REMARK SMILES IDX 26 14 10 15 25 16 11 17 13 18 12 19 14 20 23 21 15 22 17 23
REMARK SMILES IDX 22 24 24 25 18 26 21 27 19 28 31 30 16 32 20 34
REMARK H PARENT 6 29 31 31 16 33 20 35
REMARK Flexibility Score: inf
ROOT
ATOM      1  C   UNL     1     -15.399 -19.035  25.337  1.00  0.00     0.216 C 
ATOM      2  N   UNL     1     -14.260 -19.743  24.647  1.00  0.00    -0.330 N 
ATOM      3  C   UNL     1     -14.525 -20.080  23.224  1.00  0.00     0.266 C 
ATOM      4  C   UNL     1     -13.811 -20.953  25.372  1.00  0.00     0.265 C 
ATOM      5  C   UNL     1     -15.373 -19.253  26.879  1.00  0.00     0.069 C 
ATOM      6  C   UNL     1     -16.804 -19.358  24.705  1.00  0.00     0.117 C 
ATOM      7  C   UNL     1     -13.939 -19.382  27.393  1.00  0.00     0.015 C 
ATOM      8  C   UNL     1     -16.808 -19.014  23.153  1.00  0.00     0.036 C 
ATOM      9  C   UNL     1     -17.926 -18.609  25.473  1.00  0.00     0.049 C 
ATOM     10  C   UNL     1     -13.221 -20.595  26.758  1.00  0.00     0.041 C 
ATOM     11  C   UNL     1     -17.469 -17.681  22.729  1.00  0.00     0.007 C 
ATOM     12  C   UNL     1     -15.383 -18.995  22.569  1.00  0.00     0.054 C 
ATOM     13  C   UNL     1     -13.258 -21.815  27.687  1.00  0.00     0.013 C 
ATOM     14  C   UNL     1     -17.626 -17.628  21.202  1.00  0.00     0.004 C 
ATOM     15  C   UNL     1     -15.384 -19.019  21.027  1.00  0.00     0.002 C 
ATOM     16  C   UNL     1     -16.327 -17.951  20.396  1.00  0.00    -0.004 C 
ATOM     17  C   UNL     1     -15.705 -20.379  20.342  1.00  0.00     0.009 C 
ATOM     18  C   UNL     1     -16.615 -18.601  19.039  1.00  0.00    -0.001 C 
ATOM     19  C   UNL     1     -16.850 -20.081  19.369  1.00  0.00    -0.001 C 
ATOM     20  C   UNL     1     -17.728 -18.051  18.140  1.00  0.00     0.036 C 
ATOM     21  C   UNL     1     -17.145 -20.990  18.091  1.00  0.00    -0.024 C 
ATOM     22  C   UNL     1     -17.728 -18.800  16.767  1.00  0.00     0.118 C 
ATOM     23  C   UNL     1     -16.901 -20.135  16.788  1.00  0.00     0.026 C 
ATOM     24  C   UNL     1     -16.315 -22.333  18.043  1.00  0.00     0.010 C 
ATOM     25  C   UNL     1     -18.649 -21.405  18.155  1.00  0.00     0.012 C 
ATOM     26  C   UNL     1     -17.078 -20.960  15.499  1.00  0.00     0.038 C 
ATOM     27  C   UNL     1     -15.415 -22.478  16.805  1.00  0.00     0.032 C 
ATOM     28  C   UNL     1     -16.178 -22.227  15.482  1.00  0.00     0.114 C 
ATOM     29  H   UNL     1     -13.445 -19.080  24.637  1.00  0.00     0.348 HD
ENDROOT
BRANCH   6  30
ATOM     30  O   UNL     1     -17.021 -20.744  24.862  1.00  0.00    -0.384 OA
ATOM     31  H   UNL     1     -17.796 -21.005  24.297  1.00  0.00     0.211 HD
ENDBRANCH   6  30
BRANCH  22  32
ATOM     32  O   UNL     1     -17.254 -17.951  15.751  1.00  0.00    -0.393 OA
ATOM     33  H   UNL     1     -16.262 -17.948  15.802  1.00  0.00     0.210 HD
ENDBRANCH  22  32
BRANCH  28  34
ATOM     34  O   UNL     1     -16.916 -23.364  15.106  1.00  0.00    -0.393 OA
ATOM     35  H   UNL     1     -17.146 -23.861  15.933  1.00  0.00     0.210 HD
ENDBRANCH  28  34
TORSDOF 3
ENDMDL
MODEL 3
REMARK VINA RESULT:    -8.107      2.949      8.922
REMARK INTER + INTRA:          -8.818
REMARK INTER:                  -8.818
REMARK INTRA:                   0.000
REMARK UNBOUND:                 0.000
REMARK SMILES C[C@@H]1CC[C@H]2[N@@H+](C1)C[C@H]1[C@H]3C[C@H]4[C@@H](C[C@@H](O)[C@@H]5C[C@H](O)CC[C@@]45C)[C@H]3CC[C@@H]1[C@@]2(C)O
REMARK SMILES IDX 5 1 6 2 8 3 7 4 4 5 29 6 3 7 28 8 30 9 2 10 27 11 9 12 1 13
REMARK SMILES IDX 26 14 10 15 25 16 11 17 13 18 12 19 14 20 23 21 15 22 17 23
REMARK SMILES IDX 22 24 24 25 18 26 21 27 19 28 31 30 16 32 20 34
REMARK H PARENT 6 29 31 31 16 33 20 35
REMARK Flexibility Score: inf
ROOT
ATOM      1  C   UNL     1     -13.738 -20.013  24.951  1.00  0.00     0.216 C 
ATOM      2  N   UNL     1     -12.698 -20.441  23.946  1.00  0.00    -0.330 N 
ATOM      3  C   UNL     1     -13.214 -20.582  22.559  1.00  0.00     0.266 C 
ATOM      4  C   UNL     1     -11.989 -21.678  24.343  1.00  0.00     0.265 C 
ATOM      5  C   UNL     1     -13.375 -20.467  26.396  1.00  0.00     0.069 C 
ATOM      6  C   UNL     1     -15.202 -20.421  24.541  1.00  0.00     0.117 C 
ATOM      7  C   UNL     1     -11.860 -20.479  26.604  1.00  0.00     0.015 C 
ATOM      8  C   UNL     1     -15.560 -19.839  23.106  1.00  0.00     0.036 C 
ATOM      9  C   UNL     1     -16.213 -19.962  25.626  1.00  0.00     0.049 C 
ATOM     10  C   UNL     1     -11.167 -21.467  25.638  1.00  0.00     0.041 C 
ATOM     11  C   UNL     1     -16.427 -18.559  23.061  1.00  0.00     0.007 C 
ATOM     12  C   UNL     1     -14.295 -19.533  22.283  1.00  0.00     0.054 C 
ATOM     13  C   UNL     1     -10.887 -22.812  26.320  1.00  0.00     0.013 C 
ATOM     14  C   UNL     1     -16.899 -18.286  21.624  1.00  0.00     0.004 C 
ATOM     15  C   UNL     1     -14.610 -19.313  20.789  1.00  0.00     0.002 C 
ATOM     16  C   UNL     1     -15.767 -18.298  20.547  1.00  0.00    -0.004 C 
ATOM     17  C   UNL     1     -14.924 -20.579  19.939  1.00  0.00     0.009 C 
ATOM     18  C   UNL     1     -16.259 -18.757  19.172  1.00  0.00    -0.001 C 
ATOM     19  C   UNL     1     -16.269 -20.289  19.265  1.00  0.00    -0.001 C 
ATOM     20  C   UNL     1     -17.583 -18.229  18.609  1.00  0.00     0.036 C 
ATOM     21  C   UNL     1     -16.724 -21.016  17.919  1.00  0.00    -0.024 C 
ATOM     22  C   UNL     1     -17.788 -18.744  17.147  1.00  0.00     0.118 C 
ATOM     23  C   UNL     1     -16.842 -19.941  16.772  1.00  0.00     0.026 C 
ATOM     24  C   UNL     1     -15.789 -22.209  17.476  1.00  0.00     0.010 C 
ATOM     25  C   UNL     1     -18.133 -21.637  18.183  1.00  0.00     0.012 C 
ATOM     26  C   UNL     1     -17.194 -20.568  15.408  1.00  0.00     0.038 C 
ATOM     27  C   UNL     1     -15.153 -22.033  16.087  1.00  0.00     0.032 C 
ATOM     28  C   UNL     1     -16.192 -21.681  14.995  1.00  0.00     0.114 C 
ATOM     29  H   UNL     1     -11.976 -19.680  23.906  1.00  0.00     0.348 HD
ENDROOT
BRANCH   6  30
ATOM     30  O   UNL     1     -15.240 -21.830  24.481  1.00  0.00    -0.384 OA
ATOM     31  H   UNL     1     -14.307 -22.170  24.518  1.00  0.00     0.211 HD
ENDBRANCH   6  30
BRANCH  22  32
ATOM     32  O   UNL     1     -17.622 -17.689  16.233  1.00  0.00    -0.393 OA
ATOM     33  H   UNL     1     -17.838 -18.039  15.329  1.00  0.00     0.210 HD
ENDBRANCH  22  32
BRANCH  28  34
ATOM     34  O   UNL     1     -16.871 -22.834  14.562  1.00  0.00    -0.393 OA
ATOM     35  H   UNL     1     -17.358 -23.209  15.341  1.00  0.00     0.210 HD
ENDBRANCH  28  34
TORSDOF 3
ENDMDL
MODEL 4
REMARK VINA RESULT:    -7.966      3.052      8.110
REMARK INTER + INTRA:          -8.665
REMARK INTER:                  -8.665
REMARK INTRA:                   0.000
REMARK UNBOUND:                 0.000
REMARK SMILES C[C@@H]1CC[C@H]2[N@@H+](C1)C[C@H]1[C@H]3C[C@H]4[C@@H](C[C@@H](O)[C@@H]5C[C@H](O)CC[C@@]45C)[C@H]3CC[C@@H]1[C@@]2(C)O
REMARK SMILES IDX 5 1 6 2 8 3 7 4 4 5 29 6 3 7 28 8 30 9 2 10 27 11 9 12 1 13
REMARK SMILES IDX 26 14 10 15 25 16 11 17 13 18 12 19 14 20 23 21 15 22 17 23
REMARK SMILES IDX 22 24 24 25 18 26 21 27 19 28 31 30 16 32 20 34
REMARK H PARENT 6 29 31 31 16 33 20 35
REMARK Flexibility Score: inf
ROOT
ATOM      1  C   UNL     1     -16.658 -18.084  26.187  1.00  0.00     0.216 C 
ATOM      2  N   UNL     1     -15.256 -18.428  26.626  1.00  0.00    -0.330 N 
ATOM      3  C   UNL     1     -14.555 -19.383  25.729  1.00  0.00     0.266 C 
ATOM      4  C   UNL     1     -15.193 -18.915  28.022  1.00  0.00     0.265 C 
ATOM      5  C   UNL     1     -17.550 -17.634  27.383  1.00  0.00     0.069 C 
ATOM      6  C   UNL     1     -17.332 -19.216  25.324  1.00  0.00     0.117 C 
ATOM      7  C   UNL     1     -16.723 -16.902  28.440  1.00  0.00     0.015 C 
ATOM      8  C   UNL     1     -16.434 -19.559  24.059  1.00  0.00     0.036 C 
ATOM      9  C   UNL     1     -18.774 -18.800  24.923  1.00  0.00     0.049 C 
ATOM     10  C   UNL     1     -15.621 -17.815  29.024  1.00  0.00     0.041 C 
ATOM     11  C   UNL     1     -16.863 -18.946  22.704  1.00  0.00     0.007 C 
ATOM     12  C   UNL     1     -14.966 -19.149  24.273  1.00  0.00     0.054 C 
ATOM     13  C   UNL     1     -16.060 -18.442  30.353  1.00  0.00     0.013 C 
ATOM     14  C   UNL     1     -16.062 -19.581  21.556  1.00  0.00     0.004 C 
ATOM     15  C   UNL     1     -14.024 -19.783  23.229  1.00  0.00     0.002 C 
ATOM     16  C   UNL     1     -14.514 -19.591  21.762  1.00  0.00    -0.004 C 
ATOM     17  C   UNL     1     -13.686 -21.292  23.407  1.00  0.00     0.009 C 
ATOM     18  C   UNL     1     -13.830 -20.781  21.082  1.00  0.00    -0.001 C 
ATOM     19  C   UNL     1     -14.028 -21.944  22.064  1.00  0.00    -0.001 C 
ATOM     20  C   UNL     1     -14.224 -21.187  19.657  1.00  0.00     0.036 C 
ATOM     21  C   UNL     1     -13.365 -23.314  21.586  1.00  0.00    -0.024 C 
ATOM     22  C   UNL     1     -13.293 -22.337  19.151  1.00  0.00     0.118 C 
ATOM     23  C   UNL     1     -12.489 -23.039  20.303  1.00  0.00     0.026 C 
ATOM     24  C   UNL     1     -12.516 -24.049  22.697  1.00  0.00     0.010 C 
ATOM     25  C   UNL     1     -14.529 -24.285  21.210  1.00  0.00     0.012 C 
ATOM     26  C   UNL     1     -11.738 -24.294  19.820  1.00  0.00     0.038 C 
ATOM     27  C   UNL     1     -11.039 -24.263  22.327  1.00  0.00     0.032 C 
ATOM     28  C   UNL     1     -10.862 -24.924  20.939  1.00  0.00     0.114 C 
ATOM     29  H   UNL     1     -14.696 -17.540  26.592  1.00  0.00     0.348 HD
ENDROOT
BRANCH   6  30
ATOM     30  O   UNL     1     -17.423 -20.363  26.140  1.00  0.00    -0.384 OA
ATOM     31  H   UNL     1     -16.515 -20.575  26.485  1.00  0.00     0.211 HD
ENDBRANCH   6  30
BRANCH  22  32
ATOM     32  O   UNL     1     -12.411 -21.850  18.170  1.00  0.00    -0.393 OA
ATOM     33  H   UNL     1     -12.463 -20.859  18.185  1.00  0.00     0.210 HD
ENDBRANCH  22  32
BRANCH  28  34
ATOM     34  O   UNL     1     -11.067 -26.313  21.016  1.00  0.00    -0.393 OA
ATOM     35  H   UNL     1     -11.103 -26.666  20.089  1.00  0.00     0.210 HD
ENDBRANCH  28  34
TORSDOF 3
ENDMDL
MODEL 5
REMARK VINA RESULT:    -7.921      2.054      2.997
REMARK INTER + INTRA:          -8.616
REMARK INTER:                  -8.616
REMARK INTRA:                   0.000
REMARK UNBOUND:                 0.000
REMARK SMILES C[C@@H]1CC[C@H]2[N@@H+](C1)C[C@H]1[C@H]3C[C@H]4[C@@H](C[C@@H](O)[C@@H]5C[C@H](O)CC[C@@]45C)[C@H]3CC[C@@H]1[C@@]2(C)O
REMARK SMILES IDX 5 1 6 2 8 3 7 4 4 5 29 6 3 7 28 8 30 9 2 10 27 11 9 12 1 13
REMARK SMILES IDX 26 14 10 15 25 16 11 17 13 18 12 19 14 20 23 21 15 22 17 23
REMARK SMILES IDX 22 24 24 25 18 26 21 27 19 28 31 30 16 32 20 34
REMARK H PARENT 6 29 31 31 16 33 20 35
REMARK Flexibility Score: inf
ROOT
ATOM      1  C   UNL     1     -14.792 -23.274  19.238  1.00  0.00     0.216 C 
ATOM      2  N   UNL     1     -14.486 -24.247  20.350  1.00  0.00    -0.330 N 
ATOM      3  C   UNL     1     -14.370 -23.621  21.692  1.00  0.00     0.266 C 
ATOM      4  C   UNL     1     -13.288 -25.073  20.078  1.00  0.00     0.265 C 
ATOM      5  C   UNL     1     -14.302 -23.795  17.855  1.00  0.00     0.069 C 
ATOM      6  C   UNL     1     -14.296 -21.811  19.542  1.00  0.00     0.117 C 
ATOM      7  C   UNL     1     -14.392 -25.319  17.778  1.00  0.00     0.015 C 
ATOM      8  C   UNL     1     -14.913 -21.287  20.910  1.00  0.00     0.036 C 
ATOM      9  C   UNL     1     -14.630 -20.871  18.352  1.00  0.00     0.049 C 
ATOM     10  C   UNL     1     -13.502 -25.990  18.849  1.00  0.00     0.041 C 
ATOM     11  C   UNL     1     -16.127 -20.333  20.815  1.00  0.00     0.007 C 
ATOM     12  C   UNL     1     -15.347 -22.450  21.822  1.00  0.00     0.054 C 
ATOM     13  C   UNL     1     -12.151 -26.423  18.262  1.00  0.00     0.013 C 
ATOM     14  C   UNL     1     -16.428 -19.717  22.190  1.00  0.00     0.004 C 
ATOM     15  C   UNL     1     -15.610 -21.988  23.270  1.00  0.00     0.002 C 
ATOM     16  C   UNL     1     -16.548 -20.747  23.360  1.00  0.00    -0.004 C 
ATOM     17  C   UNL     1     -14.365 -21.689  24.153  1.00  0.00     0.009 C 
ATOM     18  C   UNL     1     -16.115 -20.168  24.709  1.00  0.00    -0.001 C 
ATOM     19  C   UNL     1     -14.584 -20.273  24.694  1.00  0.00    -0.001 C 
ATOM     20  C   UNL     1     -16.569 -18.765  25.130  1.00  0.00     0.036 C 
ATOM     21  C   UNL     1     -13.886 -19.750  26.031  1.00  0.00    -0.024 C 
ATOM     22  C   UNL     1     -16.106 -18.468  26.593  1.00  0.00     0.118 C 
ATOM     23  C   UNL     1     -15.000 -19.457  27.108  1.00  0.00     0.026 C 
ATOM     24  C   UNL     1     -12.786 -20.723  26.613  1.00  0.00     0.010 C 
ATOM     25  C   UNL     1     -13.152 -18.418  25.679  1.00  0.00     0.012 C 
ATOM     26  C   UNL     1     -14.410 -19.029  28.466  1.00  0.00     0.038 C 
ATOM     27  C   UNL     1     -13.071 -21.220  28.040  1.00  0.00     0.032 C 
ATOM     28  C   UNL     1     -13.393 -20.065  29.020  1.00  0.00     0.114 C 
ATOM     29  H   UNL     1     -15.299 -24.909  20.412  1.00  0.00     0.348 HD
ENDROOT
BRANCH   6  30
ATOM     30  O   UNL     1     -12.892 -21.866  19.670  1.00  0.00    -0.384 OA
ATOM     31  H   UNL     1     -12.635 -22.797  19.902  1.00  0.00     0.211 HD
ENDBRANCH   6  30
BRANCH  22  32
ATOM     32  O   UNL     1     -17.210 -18.478  27.463  1.00  0.00    -0.393 OA
ATOM     33  H   UNL     1     -18.020 -18.659  26.917  1.00  0.00     0.210 HD
ENDBRANCH  22  32
BRANCH  28  34
ATOM     34  O   UNL     1     -12.214 -19.432  29.451  1.00  0.00    -0.393 OA
ATOM     35  H   UNL     1     -11.450 -20.016  29.208  1.00  0.00     0.210 HD
ENDBRANCH  28  34
TORSDOF 3
ENDMDL
MODEL 6
REMARK VINA RESULT:    -7.788      6.219     11.941
REMARK INTER + INTRA:          -8.471
REMARK INTER:                  -8.471
REMARK INTRA:                   0.000
REMARK UNBOUND:                 0.000
REMARK SMILES C[C@@H]1CC[C@H]2[N@@H+](C1)C[C@H]1[C@H]3C[C@H]4[C@@H](C[C@@H](O)[C@@H]5C[C@H](O)CC[C@@]45C)[C@H]3CC[C@@H]1[C@@]2(C)O
REMARK SMILES IDX 5 1 6 2 8 3 7 4 4 5 29 6 3 7 28 8 30 9 2 10 27 11 9 12 1 13
REMARK SMILES IDX 26 14 10 15 25 16 11 17 13 18 12 19 14 20 23 21 15 22 17 23
REMARK SMILES IDX 22 24 24 25 18 26 21 27 19 28 31 30 16 32 20 34
REMARK H PARENT 6 29 31 31 16 33 20 35
REMARK Flexibility Score: inf
ROOT
ATOM      1  C   UNL     1     -14.110 -23.370  21.046  1.00  0.00     0.216 C 
ATOM      2  N   UNL     1     -14.618 -23.856  19.711  1.00  0.00    -0.330 N 
ATOM      3  C   UNL     1     -13.557 -24.374  18.808  1.00  0.00     0.266 C 
ATOM      4  C   UNL     1     -15.427 -22.841  18.999  1.00  0.00     0.265 C 
ATOM      5  C   UNL     1     -15.057 -22.309  21.680  1.00  0.00     0.069 C 
ATOM      6  C   UNL     1     -12.610 -22.892  21.002  1.00  0.00     0.117 C 
ATOM      7  C   UNL     1     -16.514 -22.579  21.306  1.00  0.00     0.015 C 
ATOM      8  C   UNL     1     -11.673 -24.051  20.450  1.00  0.00     0.036 C 
ATOM      9  C   UNL     1     -12.163 -22.394  22.402  1.00  0.00     0.049 C 
ATOM     10  C   UNL     1     -16.725 -22.509  19.776  1.00  0.00     0.041 C 
ATOM     11  C   UNL     1     -10.872 -24.865  21.494  1.00  0.00     0.007 C 
ATOM     12  C   UNL     1     -12.463 -25.076  19.617  1.00  0.00     0.054 C 
ATOM     13  C   UNL     1     -17.269 -21.139  19.349  1.00  0.00     0.013 C 
ATOM     14  C   UNL     1      -9.830 -25.750  20.793  1.00  0.00     0.004 C 
ATOM     15  C   UNL     1     -11.538 -25.992  18.789  1.00  0.00     0.002 C 
ATOM     16  C   UNL     1     -10.391 -26.629  19.629  1.00  0.00    -0.004 C 
ATOM     17  C   UNL     1     -10.890 -25.376  17.516  1.00  0.00     0.009 C 
ATOM     18  C   UNL     1      -9.357 -26.895  18.532  1.00  0.00    -0.001 C 
ATOM     19  C   UNL     1      -9.386 -25.626  17.668  1.00  0.00    -0.001 C 
ATOM     20  C   UNL     1      -7.919 -27.279  18.902  1.00  0.00     0.036 C 
ATOM     21  C   UNL     1      -8.397 -25.673  16.416  1.00  0.00    -0.024 C 
ATOM     22  C   UNL     1      -7.107 -27.623  17.610  1.00  0.00     0.118 C 
ATOM     23  C   UNL     1      -7.800 -27.128  16.290  1.00  0.00     0.026 C 
ATOM     24  C   UNL     1      -9.050 -25.216  15.053  1.00  0.00     0.010 C 
ATOM     25  C   UNL     1      -7.237 -24.668  16.706  1.00  0.00     0.012 C 
ATOM     26  C   UNL     1      -6.896 -27.290  15.052  1.00  0.00     0.038 C 
ATOM     27  C   UNL     1      -9.030 -26.286  13.950  1.00  0.00     0.032 C 
ATOM     28  C   UNL     1      -7.623 -26.896  13.737  1.00  0.00     0.114 C 
ATOM     29  H   UNL     1     -15.255 -24.669  19.900  1.00  0.00     0.348 HD
ENDROOT
BRANCH   6  30
ATOM     30  O   UNL     1     -12.549 -21.798  20.112  1.00  0.00    -0.384 OA
ATOM     31  H   UNL     1     -11.646 -21.782  19.697  1.00  0.00     0.211 HD
ENDBRANCH   6  30
BRANCH  22  32
ATOM     32  O   UNL     1      -6.867 -29.007  17.543  1.00  0.00    -0.393 OA
ATOM     33  H   UNL     1      -6.879 -29.266  16.584  1.00  0.00     0.210 HD
ENDBRANCH  22  32
BRANCH  28  34
ATOM     34  O   UNL     1      -6.823 -26.044  12.955  1.00  0.00    -0.393 OA
ATOM     35  H   UNL     1      -6.650 -26.501  12.091  1.00  0.00     0.210 HD
ENDBRANCH  28  34
TORSDOF 3
ENDMDL
MODEL 7
REMARK VINA RESULT:    -7.702      3.423      6.705
REMARK INTER + INTRA:          -8.377
REMARK INTER:                  -8.377
REMARK INTRA:                   0.000
REMARK UNBOUND:                 0.000
REMARK SMILES C[C@@H]1CC[C@H]2[N@@H+](C1)C[C@H]1[C@H]3C[C@H]4[C@@H](C[C@@H](O)[C@@H]5C[C@H](O)CC[C@@]45C)[C@H]3CC[C@@H]1[C@@]2(C)O
REMARK SMILES IDX 5 1 6 2 8 3 7 4 4 5 29 6 3 7 28 8 30 9 2 10 27 11 9 12 1 13
REMARK SMILES IDX 26 14 10 15 25 16 11 17 13 18 12 19 14 20 23 21 15 22 17 23
REMARK SMILES IDX 22 24 24 25 18 26 21 27 19 28 31 30 16 32 20 34
REMARK H PARENT 6 29 31 31 16 33 20 35
REMARK Flexibility Score: inf
ROOT
ATOM      1  C   UNL     1     -18.728 -20.254  15.670  1.00  0.00     0.216 C 
ATOM      2  N   UNL     1     -18.659 -18.971  16.461  1.00  0.00    -0.330 N 
ATOM      3  C   UNL     1     -18.000 -19.107  17.786  1.00  0.00     0.266 C 
ATOM      4  C   UNL     1     -19.980 -18.324  16.625  1.00  0.00     0.265 C 
ATOM      5  C   UNL     1     -19.906 -20.249  14.652  1.00  0.00     0.069 C 
ATOM      6  C   UNL     1     -18.719 -21.541  16.576  1.00  0.00     0.117 C 
ATOM      7  C   UNL     1     -20.169 -18.839  14.121  1.00  0.00     0.015 C 
ATOM      8  C   UNL     1     -17.438 -21.550  17.518  1.00  0.00     0.036 C 
ATOM      9  C   UNL     1     -18.807 -22.818  15.697  1.00  0.00     0.049 C 
ATOM     10  C   UNL     1     -20.560 -17.873  15.262  1.00  0.00     0.041 C 
ATOM     11  C   UNL     1     -16.251 -22.441  17.083  1.00  0.00     0.007 C 
ATOM     12  C   UNL     1     -16.866 -20.134  17.715  1.00  0.00     0.054 C 
ATOM     13  C   UNL     1     -22.083 -17.707  15.356  1.00  0.00     0.013 C 
ATOM     14  C   UNL     1     -15.220 -22.544  18.218  1.00  0.00     0.004 C 
ATOM     15  C   UNL     1     -15.864 -20.068  18.886  1.00  0.00     0.002 C 
ATOM     16  C   UNL     1     -14.770 -21.175  18.823  1.00  0.00    -0.004 C 
ATOM     17  C   UNL     1     -16.457 -20.088  20.325  1.00  0.00     0.009 C 
ATOM     18  C   UNL     1     -14.389 -21.274  20.302  1.00  0.00    -0.001 C 
ATOM     19  C   UNL     1     -15.731 -21.229  21.044  1.00  0.00    -0.001 C 
ATOM     20  C   UNL     1     -13.521 -22.437  20.800  1.00  0.00     0.036 C 
ATOM     21  C   UNL     1     -15.595 -21.288  22.633  1.00  0.00    -0.024 C 
ATOM     22  C   UNL     1     -13.168 -22.234  22.310  1.00  0.00     0.118 C 
ATOM     23  C   UNL     1     -14.071 -21.163  23.021  1.00  0.00     0.026 C 
ATOM     24  C   UNL     1     -16.457 -20.210  23.400  1.00  0.00     0.010 C 
ATOM     25  C   UNL     1     -16.126 -22.683  23.092  1.00  0.00     0.012 C 
ATOM     26  C   UNL     1     -13.850 -21.123  24.546  1.00  0.00     0.038 C 
ATOM     27  C   UNL     1     -15.638 -19.250  24.278  1.00  0.00     0.032 C 
ATOM     28  C   UNL     1     -14.669 -19.993  25.230  1.00  0.00     0.114 C 
ATOM     29  H   UNL     1     -18.063 -18.302  15.913  1.00  0.00     0.348 HD
ENDROOT
BRANCH   6  30
ATOM     30  O   UNL     1     -19.875 -21.490  17.384  1.00  0.00    -0.384 OA
ATOM     31  H   UNL     1     -19.592 -21.500  18.336  1.00  0.00     0.211 HD
ENDBRANCH   6  30
BRANCH  22  32
ATOM     32  O   UNL     1     -11.811 -21.895  22.449  1.00  0.00    -0.393 OA
ATOM     33  H   UNL     1     -11.603 -21.205  21.766  1.00  0.00     0.210 HD
ENDBRANCH  22  32
BRANCH  28  34
ATOM     34  O   UNL     1     -15.351 -20.478  26.359  1.00  0.00    -0.393 OA
ATOM     35  H   UNL     1     -15.451 -19.726  26.999  1.00  0.00     0.210 HD
ENDBRANCH  28  34
TORSDOF 3
ENDMDL
MODEL 8
REMARK VINA RESULT:    -7.677      3.326      5.777
REMARK INTER + INTRA:          -8.350
REMARK INTER:                  -8.350
REMARK INTRA:                   0.000
REMARK UNBOUND:                 0.000
REMARK SMILES C[C@@H]1CC[C@H]2[N@@H+](C1)C[C@H]1[C@H]3C[C@H]4[C@@H](C[C@@H](O)[C@@H]5C[C@H](O)CC[C@@]45C)[C@H]3CC[C@@H]1[C@@]2(C)O
REMARK SMILES IDX 5 1 6 2 8 3 7 4 4 5 29 6 3 7 28 8 30 9 2 10 27 11 9 12 1 13
REMARK SMILES IDX 26 14 10 15 25 16 11 17 13 18 12 19 14 20 23 21 15 22 17 23
REMARK SMILES IDX 22 24 24 25 18 26 21 27 19 28 31 30 16 32 20 34
REMARK H PARENT 6 29 31 31 16 33 20 35
REMARK Flexibility Score: inf
ROOT
ATOM      1  C   UNL     1     -13.723 -24.222  16.103  1.00  0.00     0.216 C 
ATOM      2  N   UNL     1     -12.960 -25.041  17.114  1.00  0.00    -0.330 N 
ATOM      3  C   UNL     1     -12.927 -24.449  18.476  1.00  0.00     0.266 C 
ATOM      4  C   UNL     1     -11.583 -25.361  16.675  1.00  0.00     0.265 C 
ATOM      5  C   UNL     1     -13.238 -24.492  14.647  1.00  0.00     0.069 C 
ATOM      6  C   UNL     1     -13.761 -22.687  16.451  1.00  0.00     0.117 C 
ATOM      7  C   UNL     1     -12.776 -25.939  14.481  1.00  0.00     0.015 C 
ATOM      8  C   UNL     1     -14.366 -22.461  17.904  1.00  0.00     0.036 C 
ATOM      9  C   UNL     1     -14.548 -21.907  15.363  1.00  0.00     0.049 C 
ATOM     10  C   UNL     1     -11.587 -26.261  15.415  1.00  0.00     0.041 C 
ATOM     11  C   UNL     1     -15.846 -22.019  17.989  1.00  0.00     0.007 C 
ATOM     12  C   UNL     1     -14.241 -23.724  18.776  1.00  0.00     0.054 C 
ATOM     13  C   UNL     1     -10.248 -26.152  14.673  1.00  0.00     0.013 C 
ATOM     14  C   UNL     1     -16.192 -21.592  19.424  1.00  0.00     0.004 C 
ATOM     15  C   UNL     1     -14.487 -23.427  20.270  1.00  0.00     0.002 C 
ATOM     16  C   UNL     1     -15.794 -22.621  20.530  1.00  0.00    -0.004 C 
ATOM     17  C   UNL     1     -13.343 -22.712  21.045  1.00  0.00     0.009 C 
ATOM     18  C   UNL     1     -15.451 -21.957  21.866  1.00  0.00    -0.001 C 
ATOM     19  C   UNL     1     -13.999 -21.490  21.695  1.00  0.00    -0.001 C 
ATOM     20  C   UNL     1     -16.333 -20.831  22.418  1.00  0.00     0.036 C 
ATOM     21  C   UNL     1     -13.391 -20.780  22.989  1.00  0.00    -0.024 C 
ATOM     22  C   UNL     1     -15.845 -20.419  23.846  1.00  0.00     0.118 C 
ATOM     23  C   UNL     1     -14.405 -20.944  24.186  1.00  0.00     0.026 C 
ATOM     24  C   UNL     1     -11.954 -21.294  23.397  1.00  0.00     0.010 C 
ATOM     25  C   UNL     1     -13.236 -19.263  22.655  1.00  0.00     0.012 C 
ATOM     26  C   UNL     1     -13.860 -20.363  25.506  1.00  0.00     0.038 C 
ATOM     27  C   UNL     1     -11.874 -21.895  24.810  1.00  0.00     0.032 C 
ATOM     28  C   UNL     1     -12.479 -20.965  25.889  1.00  0.00     0.114 C 
ATOM     29  H   UNL     1     -13.464 -25.957  17.212  1.00  0.00     0.348 HD
ENDROOT
BRANCH   6  30
ATOM     30  O   UNL     1     -12.428 -22.224  16.439  1.00  0.00    -0.384 OA
ATOM     31  H   UNL     1     -12.415 -21.297  16.797  1.00  0.00     0.211 HD
ENDBRANCH   6  30
BRANCH  22  32
ATOM     32  O   UNL     1     -16.764 -20.857  24.817  1.00  0.00    -0.393 OA
ATOM     33  H   UNL     1     -16.276 -20.927  25.680  1.00  0.00     0.210 HD
ENDBRANCH  22  32
BRANCH  28  34
ATOM     34  O   UNL     1     -11.570 -19.952  26.245  1.00  0.00    -0.393 OA
ATOM     35  H   UNL     1     -12.022 -19.079  26.107  1.00  0.00     0.210 HD
ENDBRANCH  28  34
TORSDOF 3
ENDMDL
MODEL 9
REMARK VINA RESULT:    -7.660      2.683      4.578
REMARK INTER + INTRA:          -8.332
REMARK INTER:                  -8.332
REMARK INTRA:                   0.000
REMARK UNBOUND:                 0.000
REMARK SMILES C[C@@H]1CC[C@H]2[N@@H+](C1)C[C@H]1[C@H]3C[C@H]4[C@@H](C[C@@H](O)[C@@H]5C[C@H](O)CC[C@@]45C)[C@H]3CC[C@@H]1[C@@]2(C)O
REMARK SMILES IDX 5 1 6 2 8 3 7 4 4 5 29 6 3 7 28 8 30 9 2 10 27 11 9 12 1 13
REMARK SMILES IDX 26 14 10 15 25 16 11 17 13 18 12 19 14 20 23 21 15 22 17 23
REMARK SMILES IDX 22 24 24 25 18 26 21 27 19 28 31 30 16 32 20 34
REMARK H PARENT 6 29 31 31 16 33 20 35
REMARK Flexibility Score: inf
ROOT
ATOM      1  C   UNL     1     -15.440 -20.820  21.210  1.00  0.00     0.216 C 
ATOM      2  N   UNL     1     -14.829 -19.456  21.415  1.00  0.00    -0.330 N 
ATOM      3  C   UNL     1     -14.178 -19.273  22.739  1.00  0.00     0.266 C 
ATOM      4  C   UNL     1     -15.787 -18.354  21.174  1.00  0.00     0.265 C 
ATOM      5  C   UNL     1     -16.597 -20.790  20.168  1.00  0.00     0.069 C 
ATOM      6  C   UNL     1     -15.858 -21.521  22.557  1.00  0.00     0.117 C 
ATOM      7  C   UNL     1     -16.339 -19.739  19.089  1.00  0.00     0.015 C 
ATOM      8  C   UNL     1     -14.613 -21.623  23.540  1.00  0.00     0.036 C 
ATOM      9  C   UNL     1     -16.491 -22.909  22.267  1.00  0.00     0.049 C 
ATOM     10  C   UNL     1     -16.248 -18.320  19.696  1.00  0.00     0.041 C 
ATOM     11  C   UNL     1     -13.891 -22.989  23.621  1.00  0.00     0.007 C 
ATOM     12  C   UNL     1     -13.531 -20.582  23.201  1.00  0.00     0.054 C 
ATOM     13  C   UNL     1     -17.581 -17.571  19.567  1.00  0.00     0.013 C 
ATOM     14  C   UNL     1     -12.898 -22.997  24.794  1.00  0.00     0.004 C 
ATOM     15  C   UNL     1     -12.498 -20.424  24.335  1.00  0.00     0.002 C 
ATOM     16  C   UNL     1     -11.918 -21.781  24.832  1.00  0.00    -0.004 C 
ATOM     17  C   UNL     1     -12.948 -19.626  25.594  1.00  0.00     0.009 C 
ATOM     18  C   UNL     1     -11.497 -21.400  26.255  1.00  0.00    -0.001 C 
ATOM     19  C   UNL     1     -12.663 -20.552  26.781  1.00  0.00    -0.001 C 
ATOM     20  C   UNL     1     -11.105 -22.488  27.262  1.00  0.00     0.036 C 
ATOM     21  C   UNL     1     -12.445 -20.000  28.262  1.00  0.00    -0.024 C 
ATOM     22  C   UNL     1     -10.594 -21.832  28.586  1.00  0.00     0.118 C 
ATOM     23  C   UNL     1     -10.965 -20.311  28.711  1.00  0.00     0.026 C 
ATOM     24  C   UNL     1     -12.772 -18.465  28.439  1.00  0.00     0.010 C 
ATOM     25  C   UNL     1     -13.434 -20.770  29.193  1.00  0.00     0.012 C 
ATOM     26  C   UNL     1     -10.636 -19.735  30.102  1.00  0.00     0.038 C 
ATOM     27  C   UNL     1     -11.587 -17.616  28.926  1.00  0.00     0.032 C 
ATOM     28  C   UNL     1     -10.909 -18.207  30.186  1.00  0.00     0.114 C 
ATOM     29  H   UNL     1     -14.064 -19.350  20.703  1.00  0.00     0.348 HD
ENDROOT
BRANCH   6  30
ATOM     30  O   UNL     1     -16.845 -20.711  23.158  1.00  0.00    -0.384 OA
ATOM     31  H   UNL     1     -16.463 -19.804  23.299  1.00  0.00     0.211 HD
ENDBRANCH   6  30
BRANCH  22  32
ATOM     32  O   UNL     1      -9.203 -22.004  28.707  1.00  0.00    -0.393 OA
ATOM     33  H   UNL     1      -9.024 -22.365  29.615  1.00  0.00     0.210 HD
ENDBRANCH  22  32
BRANCH  28  34
ATOM     34  O   UNL     1     -11.641 -17.890  31.344  1.00  0.00    -0.393 OA
ATOM     35  H   UNL     1     -11.951 -16.951  31.258  1.00  0.00     0.210 HD
ENDBRANCH  28  34
TORSDOF 3
ENDMDL
