MODEL 1
REMARK VINA RESULT:    -4.538      0.000      0.000
REMARK INTER + INTRA:         -10.442
REMARK INTER:                  -8.518
REMARK INTRA:                  -1.924
REMARK UNBOUND:                -1.924
REMARK SMILES O=C([O-])CCCCCCCCCCCCCCC(=O)[O-]
REMARK SMILES IDX 10 1 9 2 8 3 7 4 6 5 5 6 4 7 2 8 1 9 3 10 11 11 12 12 13 13
REMARK SMILES IDX 14 14 15 15 16 16 17 17 18 18 19 19 20 20
REMARK H PARENT
REMARK Flexibility Score: inf
ROOT
ATOM      1  C   UNL     1      17.408 -43.253  25.837  1.00  0.00     0.000 C 
ENDROOT
BRANCH   1   2
ATOM      2  C   UNL     1      17.535 -44.779  25.970  1.00  0.00     0.000 C 
BRANCH   2   3
ATOM      3  C   UNL     1      17.176 -45.282  27.379  1.00  0.00     0.000 C 
BRANCH   3   4
ATOM      4  C   UNL     1      16.007 -44.500  28.002  1.00  0.00     0.000 C 
BRANCH   4   5
ATOM      5  C   UNL     1      15.340 -45.262  29.160  1.00  0.00     0.000 C 
BRANCH   5   6
ATOM      6  C   UNL     1      15.808 -44.768  30.539  1.00  0.00     0.006 C 
BRANCH   6   7
ATOM      7  C   UNL     1      14.726 -44.907  31.619  1.00  0.00     0.053 C 
BRANCH   7   8
ATOM      8  C   UNL     1      14.593 -43.633  32.391  1.00  0.00     0.041 C 
ATOM      9  O   UNL     1      13.731 -42.778  32.059  1.00  0.00    -0.550 OA
ATOM     10  O   UNL     1      15.455 -43.367  33.448  1.00  0.00    -0.550 OA
ENDBRANCH   7   8
ENDBRANCH   6   7
ENDBRANCH   5   6
ENDBRANCH   4   5
ENDBRANCH   3   4
ENDBRANCH   2   3
ENDBRANCH   1   2
BRANCH   1  11
ATOM     11  C   UNL     1      18.709 -42.587  25.361  1.00  0.00     0.000 C 
BRANCH  11  12
ATOM     12  C   UNL     1      18.557 -41.059  25.314  1.00  0.00     0.000 C 
BRANCH  12  13
ATOM     13  C   UNL     1      17.692 -40.514  26.462  1.00  0.00     0.000 C 
BRANCH  13  14
ATOM     14  C   UNL     1      18.480 -39.584  27.403  1.00  0.00     0.000 C 
BRANCH  14  15
ATOM     15  C   UNL     1      18.888 -40.271  28.720  1.00  0.00     0.000 C 
BRANCH  15  16
ATOM     16  C   UNL     1      18.007 -41.463  29.135  1.00  0.00     0.006 C 
BRANCH  16  17
ATOM     17  C   UNL     1      18.822 -42.696  29.543  1.00  0.00     0.053 C 
BRANCH  17  18
ATOM     18  C   UNL     1      18.935 -42.777  31.033  1.00  0.00     0.041 C 
ATOM     19  O   UNL     1      18.074 -42.219  31.765  1.00  0.00    -0.550 OA
ATOM     20  O   UNL     1      19.962 -43.509  31.614  1.00  0.00    -0.550 OA
ENDBRANCH  17  18
ENDBRANCH  16  17
ENDBRANCH  15  16
ENDBRANCH  14  15
ENDBRANCH  13  14
ENDBRANCH  12  13
ENDBRANCH  11  12
ENDBRANCH   1  11
TORSDOF 15
ENDMDL
MODEL 2
REMARK VINA RESULT:    -4.537      1.270      4.664
REMARK INTER + INTRA:         -10.440
REMARK INTER:                  -8.161
REMARK INTRA:                  -2.280
REMARK UNBOUND:                -1.924
REMARK SMILES O=C([O-])CCCCCCCCCCCCCCC(=O)[O-]
REMARK SMILES IDX 10 1 9 2 8 3 7 4 6 5 5 6 4 7 2 8 1 9 3 10 11 11 12 12 13 13
REMARK SMILES IDX 14 14 15 15 16 16 17 17 18 18 19 19 20 20
REMARK H PARENT
REMARK Flexibility Score: inf
ROOT
ATOM      1  C   UNL     1      18.823 -42.518  25.453  1.00  0.00     0.000 C 
ENDROOT
BRANCH   1   2
ATOM      2  C   UNL     1      17.856 -41.328  25.340  1.00  0.00     0.000 C 
BRANCH   2   3
ATOM      3  C   UNL     1      18.511 -39.993  25.737  1.00  0.00     0.000 C 
BRANCH   3   4
ATOM      4  C   UNL     1      18.348 -39.680  27.233  1.00  0.00     0.000 C 
BRANCH   4   5
ATOM      5  C   UNL     1      17.389 -40.655  27.938  1.00  0.00     0.000 C 
BRANCH   5   6
ATOM      6  C   UNL     1      17.922 -41.127  29.301  1.00  0.00     0.006 C 
BRANCH   6   7
ATOM      7  C   UNL     1      19.081 -42.123  29.173  1.00  0.00     0.053 C 
BRANCH   7   8
ATOM      8  C   UNL     1      20.067 -41.921  30.280  1.00  0.00     0.041 C 
ATOM      9  O   UNL     1      20.907 -40.985  30.218  1.00  0.00    -0.550 OA
ATOM     10  O   UNL     1      20.091 -42.798  31.358  1.00  0.00    -0.550 OA
ENDBRANCH   7   8
ENDBRANCH   6   7
ENDBRANCH   5   6
ENDBRANCH   4   5
ENDBRANCH   3   4
ENDBRANCH   2   3
ENDBRANCH   1   2
BRANCH   1  11
ATOM     11  C   UNL     1      18.099 -43.874  25.445  1.00  0.00     0.000 C 
BRANCH  11  12
ATOM     12  C   UNL     1      16.626 -43.711  25.849  1.00  0.00     0.000 C 
BRANCH  12  13
ATOM     13  C   UNL     1      16.364 -44.106  27.311  1.00  0.00     0.000 C 
BRANCH  13  14
ATOM     14  C   UNL     1      17.354 -45.169  27.821  1.00  0.00     0.000 C 
BRANCH  14  15
ATOM     15  C   UNL     1      17.124 -45.542  29.298  1.00  0.00     0.000 C 
BRANCH  15  16
ATOM     16  C   UNL     1      16.233 -44.565  30.087  1.00  0.00     0.006 C 
BRANCH  16  17
ATOM     17  C   UNL     1      16.860 -44.124  31.415  1.00  0.00     0.053 C 
BRANCH  17  18
ATOM     18  C   UNL     1      15.886 -43.307  32.205  1.00  0.00     0.041 C 
ATOM     19  O   UNL     1      15.606 -42.133  31.846  1.00  0.00    -0.550 OA
ATOM     20  O   UNL     1      15.251 -43.859  33.310  1.00  0.00    -0.550 OA
ENDBRANCH  17  18
ENDBRANCH  16  17
ENDBRANCH  15  16
ENDBRANCH  14  15
ENDBRANCH  13  14
ENDBRANCH  12  13
ENDBRANCH  11  12
ENDBRANCH   1  11
TORSDOF 15
ENDMDL
MODEL 3
REMARK VINA RESULT:    -4.512      1.625      2.563
REMARK INTER + INTRA:         -10.393
REMARK INTER:                  -8.483
REMARK INTRA:                  -1.910
REMARK UNBOUND:                -1.924
REMARK SMILES O=C([O-])CCCCCCCCCCCCCCC(=O)[O-]
REMARK SMILES IDX 10 1 9 2 8 3 7 4 6 5 5 6 4 7 2 8 1 9 3 10 11 11 12 12 13 13
REMARK SMILES IDX 14 14 15 15 16 16 17 17 18 18 19 19 20 20
REMARK H PARENT
REMARK Flexibility Score: inf
ROOT
ATOM      1  C   UNL     1      18.785 -41.842  24.235  1.00  0.00     0.000 C 
ENDROOT
BRANCH   1   2
ATOM      2  C   UNL     1      18.937 -42.617  25.553  1.00  0.00     0.000 C 
BRANCH   2   3
ATOM      3  C   UNL     1      17.606 -43.207  26.050  1.00  0.00     0.000 C 
BRANCH   3   4
ATOM      4  C   UNL     1      17.548 -44.736  25.899  1.00  0.00     0.000 C 
BRANCH   4   5
ATOM      5  C   UNL     1      17.184 -45.445  27.215  1.00  0.00     0.000 C 
BRANCH   5   6
ATOM      6  C   UNL     1      17.147 -44.483  28.414  1.00  0.00     0.006 C 
BRANCH   6   7
ATOM      7  C   UNL     1      16.527 -45.116  29.666  1.00  0.00     0.053 C 
BRANCH   7   8
ATOM      8  C   UNL     1      17.196 -44.596  30.899  1.00  0.00     0.041 C 
ATOM      9  O   UNL     1      18.261 -45.124  31.313  1.00  0.00    -0.550 OA
ATOM     10  O   UNL     1      16.616 -43.560  31.621  1.00  0.00    -0.550 OA
ENDBRANCH   7   8
ENDBRANCH   6   7
ENDBRANCH   5   6
ENDBRANCH   4   5
ENDBRANCH   3   4
ENDBRANCH   2   3
ENDBRANCH   1   2
BRANCH   1  11
ATOM     11  C   UNL     1      17.807 -40.661  24.349  1.00  0.00     0.000 C 
BRANCH  11  12
ATOM     12  C   UNL     1      18.545 -39.377  24.757  1.00  0.00     0.000 C 
BRANCH  12  13
ATOM     13  C   UNL     1      18.535 -39.144  26.276  1.00  0.00     0.000 C 
BRANCH  13  14
ATOM     14  C   UNL     1      17.168 -39.454  26.912  1.00  0.00     0.000 C 
BRANCH  14  15
ATOM     15  C   UNL     1      17.283 -40.290  28.201  1.00  0.00     0.000 C 
BRANCH  15  16
ATOM     16  C   UNL     1      18.701 -40.388  28.792  1.00  0.00     0.006 C 
BRANCH  16  17
ATOM     17  C   UNL     1      18.807 -41.413  29.927  1.00  0.00     0.053 C 
BRANCH  17  18
ATOM     18  C   UNL     1      20.236 -41.795  30.154  1.00  0.00     0.041 C 
ATOM     19  O   UNL     1      20.568 -43.009  30.194  1.00  0.00    -0.550 OA
ATOM     20  O   UNL     1      21.209 -40.811  30.274  1.00  0.00    -0.550 OA
ENDBRANCH  17  18
ENDBRANCH  16  17
ENDBRANCH  15  16
ENDBRANCH  14  15
ENDBRANCH  13  14
ENDBRANCH  12  13
ENDBRANCH  11  12
ENDBRANCH   1  11
TORSDOF 15
ENDMDL
MODEL 4
REMARK VINA RESULT:    -4.487      1.606      3.789
REMARK INTER + INTRA:         -10.345
REMARK INTER:                  -8.137
REMARK INTRA:                  -2.208
REMARK UNBOUND:                -1.924
REMARK SMILES O=C([O-])CCCCCCCCCCCCCCC(=O)[O-]
REMARK SMILES IDX 10 1 9 2 8 3 7 4 6 5 5 6 4 7 2 8 1 9 3 10 11 11 12 12 13 13
REMARK SMILES IDX 14 14 15 15 16 16 17 17 18 18 19 19 20 20
REMARK H PARENT
REMARK Flexibility Score: inf
ROOT
ATOM      1  C   UNL     1      18.992 -42.507  25.353  1.00  0.00     0.000 C 
ENDROOT
BRANCH   1   2
ATOM      2  C   UNL     1      18.201 -41.243  24.980  1.00  0.00     0.000 C 
BRANCH   2   3
ATOM      3  C   UNL     1      18.455 -40.078  25.952  1.00  0.00     0.000 C 
BRANCH   3   4
ATOM      4  C   UNL     1      17.690 -40.240  27.276  1.00  0.00     0.000 C 
BRANCH   4   5
ATOM      5  C   UNL     1      18.629 -40.433  28.479  1.00  0.00     0.000 C 
BRANCH   5   6
ATOM      6  C   UNL     1      17.961 -41.199  29.633  1.00  0.00     0.006 C 
BRANCH   6   7
ATOM      7  C   UNL     1      16.438 -41.294  29.481  1.00  0.00     0.053 C 
BRANCH   7   8
ATOM      8  C   UNL     1      15.855 -42.130  30.576  1.00  0.00     0.041 C 
ATOM      9  O   UNL     1      14.919 -42.936  30.328  1.00  0.00    -0.550 OA
ATOM     10  O   UNL     1      16.310 -41.984  31.880  1.00  0.00    -0.550 OA
ENDBRANCH   7   8
ENDBRANCH   6   7
ENDBRANCH   5   6
ENDBRANCH   4   5
ENDBRANCH   3   4
ENDBRANCH   2   3
ENDBRANCH   1   2
BRANCH   1  11
ATOM     11  C   UNL     1      18.119 -43.772  25.368  1.00  0.00     0.000 C 
BRANCH  11  12
ATOM     12  C   UNL     1      16.673 -43.434  25.761  1.00  0.00     0.000 C 
BRANCH  12  13
ATOM     13  C   UNL     1      16.272 -44.031  27.120  1.00  0.00     0.000 C 
BRANCH  13  14
ATOM     14  C   UNL     1      17.146 -45.234  27.517  1.00  0.00     0.000 C 
BRANCH  14  15
ATOM     15  C   UNL     1      17.106 -45.531  29.028  1.00  0.00     0.000 C 
BRANCH  15  16
ATOM     16  C   UNL     1      18.228 -44.876  29.853  1.00  0.00     0.006 C 
BRANCH  16  17
ATOM     17  C   UNL     1      18.031 -45.037  31.365  1.00  0.00     0.053 C 
BRANCH  17  18
ATOM     18  C   UNL     1      19.276 -44.648  32.098  1.00  0.00     0.041 C 
ATOM     19  O   UNL     1      19.793 -43.514  31.911  1.00  0.00    -0.550 OA
ATOM     20  O   UNL     1      19.839 -45.517  33.023  1.00  0.00    -0.550 OA
ENDBRANCH  17  18
ENDBRANCH  16  17
ENDBRANCH  15  16
ENDBRANCH  14  15
ENDBRANCH  13  14
ENDBRANCH  12  13
ENDBRANCH  11  12
ENDBRANCH   1  11
TORSDOF 15
ENDMDL
MODEL 5
REMARK VINA RESULT:    -4.452      1.814      3.432
REMARK INTER + INTRA:         -10.280
REMARK INTER:                  -8.650
REMARK INTRA:                  -1.630
REMARK UNBOUND:                -1.924
REMARK SMILES O=C([O-])CCCCCCCCCCCCCCC(=O)[O-]
REMARK SMILES IDX 10 1 9 2 8 3 7 4 6 5 5 6 4 7 2 8 1 9 3 10 11 11 12 12 13 13
REMARK SMILES IDX 14 14 15 15 16 16 17 17 18 18 19 19 20 20
REMARK H PARENT
REMARK Flexibility Score: inf
ROOT
ATOM      1  C   UNL     1      17.480 -45.308  29.058  1.00  0.00     0.000 C 
ENDROOT
BRANCH   1   2
ATOM      2  C   UNL     1      17.988 -43.892  29.372  1.00  0.00     0.000 C 
BRANCH   2   3
ATOM      3  C   UNL     1      17.894 -43.547  30.868  1.00  0.00     0.000 C 
BRANCH   3   4
ATOM      4  C   UNL     1      18.316 -44.719  31.769  1.00  0.00     0.000 C 
BRANCH   4   5
ATOM      5  C   UNL     1      17.295 -45.003  32.885  1.00  0.00     0.000 C 
BRANCH   5   6
ATOM      6  C   UNL     1      15.883 -45.269  32.339  1.00  0.00     0.006 C 
BRANCH   6   7
ATOM      7  C   UNL     1      14.824 -44.345  32.954  1.00  0.00     0.053 C 
BRANCH   7   8
ATOM      8  C   UNL     1      14.189 -43.501  31.895  1.00  0.00     0.041 C 
ATOM      9  O   UNL     1      13.441 -42.539  32.214  1.00  0.00    -0.550 OA
ATOM     10  O   UNL     1      14.383 -43.806  30.553  1.00  0.00    -0.550 OA
ENDBRANCH   7   8
ENDBRANCH   6   7
ENDBRANCH   5   6
ENDBRANCH   4   5
ENDBRANCH   3   4
ENDBRANCH   2   3
ENDBRANCH   1   2
BRANCH   1  11
ATOM     11  C   UNL     1      17.133 -45.500  27.573  1.00  0.00     0.000 C 
BRANCH  11  12
ATOM     12  C   UNL     1      17.102 -44.150  26.840  1.00  0.00     0.000 C 
BRANCH  12  13
ATOM     13  C   UNL     1      17.924 -44.162  25.541  1.00  0.00     0.000 C 
BRANCH  13  14
ATOM     14  C   UNL     1      18.724 -42.862  25.337  1.00  0.00     0.000 C 
BRANCH  14  15
ATOM     15  C   UNL     1      17.858 -41.597  25.489  1.00  0.00     0.000 C 
BRANCH  15  16
ATOM     16  C   UNL     1      18.466 -40.491  26.371  1.00  0.00     0.006 C 
BRANCH  16  17
ATOM     17  C   UNL     1      18.070 -40.617  27.847  1.00  0.00     0.053 C 
BRANCH  17  18
ATOM     18  C   UNL     1      19.041 -39.878  28.712  1.00  0.00     0.041 C 
ATOM     19  O   UNL     1      19.184 -38.633  28.583  1.00  0.00    -0.550 OA
ATOM     20  O   UNL     1      19.753 -40.554  29.694  1.00  0.00    -0.550 OA
ENDBRANCH  17  18
ENDBRANCH  16  17
ENDBRANCH  15  16
ENDBRANCH  14  15
ENDBRANCH  13  14
ENDBRANCH  12  13
ENDBRANCH  11  12
ENDBRANCH   1  11
TORSDOF 15
ENDMDL
MODEL 6
REMARK VINA RESULT:    -4.440      1.360      4.717
REMARK INTER + INTRA:         -10.257
REMARK INTER:                  -7.857
REMARK INTRA:                  -2.400
REMARK UNBOUND:                -1.924
REMARK SMILES O=C([O-])CCCCCCCCCCCCCCC(=O)[O-]
REMARK SMILES IDX 10 1 9 2 8 3 7 4 6 5 5 6 4 7 2 8 1 9 3 10 11 11 12 12 13 13
REMARK SMILES IDX 14 14 15 15 16 16 17 17 18 18 19 19 20 20
REMARK H PARENT
REMARK Flexibility Score: inf
ROOT
ATOM      1  C   UNL     1      18.180 -41.220  24.631  1.00  0.00     0.000 C 
ENDROOT
BRANCH   1   2
ATOM      2  C   UNL     1      18.460 -40.047  25.584  1.00  0.00     0.000 C 
BRANCH   2   3
ATOM      3  C   UNL     1      17.185 -39.522  26.267  1.00  0.00     0.000 C 
BRANCH   3   4
ATOM      4  C   UNL     1      17.204 -39.735  27.790  1.00  0.00     0.000 C 
BRANCH   4   5
ATOM      5  C   UNL     1      18.582 -40.185  28.305  1.00  0.00     0.000 C 
BRANCH   5   6
ATOM      6  C   UNL     1      18.481 -41.173  29.478  1.00  0.00     0.006 C 
BRANCH   6   7
ATOM      7  C   UNL     1      19.610 -42.212  29.480  1.00  0.00     0.053 C 
BRANCH   7   8
ATOM      8  C   UNL     1      19.346 -43.268  30.506  1.00  0.00     0.041 C 
ATOM      9  O   UNL     1      20.168 -44.205  30.677  1.00  0.00    -0.550 OA
ATOM     10  O   UNL     1      18.166 -43.244  31.241  1.00  0.00    -0.550 OA
ENDBRANCH   7   8
ENDBRANCH   6   7
ENDBRANCH   5   6
ENDBRANCH   4   5
ENDBRANCH   3   4
ENDBRANCH   2   3
ENDBRANCH   1   2
BRANCH   1  11
ATOM     11  C   UNL     1      18.909 -42.509  25.045  1.00  0.00     0.000 C 
BRANCH  11  12
ATOM     12  C   UNL     1      18.113 -43.269  26.116  1.00  0.00     0.000 C 
BRANCH  12  13
ATOM     13  C   UNL     1      16.617 -43.379  25.777  1.00  0.00     0.000 C 
BRANCH  13  14
ATOM     14  C   UNL     1      15.716 -43.130  26.999  1.00  0.00     0.000 C 
BRANCH  14  15
ATOM     15  C   UNL     1      16.260 -43.777  28.287  1.00  0.00     0.000 C 
BRANCH  15  16
ATOM     16  C   UNL     1      15.919 -45.268  28.463  1.00  0.00     0.006 C 
BRANCH  16  17
ATOM     17  C   UNL     1      14.507 -45.499  29.013  1.00  0.00     0.053 C 
BRANCH  17  18
ATOM     18  C   UNL     1      14.378 -44.913  30.384  1.00  0.00     0.041 C 
ATOM     19  O   UNL     1      13.506 -44.035  30.618  1.00  0.00    -0.550 OA
ATOM     20  O   UNL     1      15.188 -45.371  31.415  1.00  0.00    -0.550 OA
ENDBRANCH  17  18
ENDBRANCH  16  17
ENDBRANCH  15  16
ENDBRANCH  14  15
ENDBRANCH  13  14
ENDBRANCH  12  13
ENDBRANCH  11  12
ENDBRANCH   1  11
TORSDOF 15
ENDMDL
MODEL 7
REMARK VINA RESULT:    -4.431      1.414      2.920
REMARK INTER + INTRA:         -10.240
REMARK INTER:                  -8.286
REMARK INTRA:                  -1.954
REMARK UNBOUND:                -1.924
REMARK SMILES O=C([O-])CCCCCCCCCCCCCCC(=O)[O-]
REMARK SMILES IDX 10 1 9 2 8 3 7 4 6 5 5 6 4 7 2 8 1 9 3 10 11 11 12 12 13 13
REMARK SMILES IDX 14 14 15 15 16 16 17 17 18 18 19 19 20 20
REMARK H PARENT
REMARK Flexibility Score: inf
ROOT
ATOM      1  C   UNL     1      18.414 -40.897  25.425  1.00  0.00     0.000 C 
ENDROOT
BRANCH   1   2
ATOM      2  C   UNL     1      18.609 -42.418  25.314  1.00  0.00     0.000 C 
BRANCH   2   3
ATOM      3  C   UNL     1      17.339 -43.206  25.680  1.00  0.00     0.000 C 
BRANCH   3   4
ATOM      4  C   UNL     1      17.570 -44.727  25.678  1.00  0.00     0.000 C 
BRANCH   4   5
ATOM      5  C   UNL     1      17.390 -45.352  27.072  1.00  0.00     0.000 C 
BRANCH   5   6
ATOM      6  C   UNL     1      16.467 -44.520  27.977  1.00  0.00     0.006 C 
BRANCH   6   7
ATOM      7  C   UNL     1      16.095 -45.248  29.276  1.00  0.00     0.053 C 
BRANCH   7   8
ATOM      8  C   UNL     1      14.870 -44.641  29.882  1.00  0.00     0.041 C 
ATOM      9  O   UNL     1      14.008 -45.372  30.437  1.00  0.00    -0.550 OA
ATOM     10  O   UNL     1      14.654 -43.271  29.790  1.00  0.00    -0.550 OA
ENDBRANCH   7   8
ENDBRANCH   6   7
ENDBRANCH   5   6
ENDBRANCH   4   5
ENDBRANCH   3   4
ENDBRANCH   2   3
ENDBRANCH   1   2
BRANCH   1  11
ATOM     11  C   UNL     1      17.755 -40.478  26.749  1.00  0.00     0.000 C 
BRANCH  11  12
ATOM     12  C   UNL     1      18.667 -39.524  27.536  1.00  0.00     0.000 C 
BRANCH  12  13
ATOM     13  C   UNL     1      19.103 -40.103  28.891  1.00  0.00     0.000 C 
BRANCH  13  14
ATOM     14  C   UNL     1      18.672 -41.570  29.072  1.00  0.00     0.000 C 
BRANCH  14  15
ATOM     15  C   UNL     1      17.707 -41.769  30.256  1.00  0.00     0.000 C 
BRANCH  15  16
ATOM     16  C   UNL     1      18.177 -42.776  31.320  1.00  0.00     0.006 C 
BRANCH  16  17
ATOM     17  C   UNL     1      17.464 -42.603  32.666  1.00  0.00     0.053 C 
BRANCH  17  18
ATOM     18  C   UNL     1      16.559 -43.764  32.931  1.00  0.00     0.041 C 
ATOM     19  O   UNL     1      15.358 -43.570  33.259  1.00  0.00    -0.550 OA
ATOM     20  O   UNL     1      17.026 -45.062  32.769  1.00  0.00    -0.550 OA
ENDBRANCH  17  18
ENDBRANCH  16  17
ENDBRANCH  15  16
ENDBRANCH  14  15
ENDBRANCH  13  14
ENDBRANCH  12  13
ENDBRANCH  11  12
ENDBRANCH   1  11
TORSDOF 15
ENDMDL
MODEL 8
REMARK VINA RESULT:    -4.425      1.707      5.043
REMARK INTER + INTRA:         -10.229
REMARK INTER:                  -8.575
REMARK INTRA:                  -1.654
REMARK UNBOUND:                -1.924
REMARK SMILES O=C([O-])CCCCCCCCCCCCCCC(=O)[O-]
REMARK SMILES IDX 10 1 9 2 8 3 7 4 6 5 5 6 4 7 2 8 1 9 3 10 11 11 12 12 13 13
REMARK SMILES IDX 14 14 15 15 16 16 17 17 18 18 19 19 20 20
REMARK H PARENT
REMARK Flexibility Score: inf
ROOT
ATOM      1  C   UNL     1      17.118 -43.913  26.485  1.00  0.00     0.000 C 
ENDROOT
BRANCH   1   2
ATOM      2  C   UNL     1      18.174 -43.866  25.368  1.00  0.00     0.000 C 
BRANCH   2   3
ATOM      3  C   UNL     1      19.012 -42.576  25.401  1.00  0.00     0.000 C 
BRANCH   3   4
ATOM      4  C   UNL     1      18.397 -41.453  24.548  1.00  0.00     0.000 C 
BRANCH   4   5
ATOM      5  C   UNL     1      18.314 -40.117  25.306  1.00  0.00     0.000 C 
BRANCH   5   6
ATOM      6  C   UNL     1      18.054 -40.305  26.810  1.00  0.00     0.006 C 
BRANCH   6   7
ATOM      7  C   UNL     1      18.769 -39.258  27.673  1.00  0.00     0.053 C 
BRANCH   7   8
ATOM      8  C   UNL     1      18.695 -39.634  29.119  1.00  0.00     0.041 C 
ATOM      9  O   UNL     1      19.544 -40.422  29.612  1.00  0.00    -0.550 OA
ATOM     10  O   UNL     1      17.658 -39.156  29.910  1.00  0.00    -0.550 OA
ENDBRANCH   7   8
ENDBRANCH   6   7
ENDBRANCH   5   6
ENDBRANCH   4   5
ENDBRANCH   3   4
ENDBRANCH   2   3
ENDBRANCH   1   2
BRANCH   1  11
ATOM     11  C   UNL     1      17.032 -45.290  27.163  1.00  0.00     0.000 C 
BRANCH  11  12
ATOM     12  C   UNL     1      16.633 -45.148  28.640  1.00  0.00     0.000 C 
BRANCH  12  13
ATOM     13  C   UNL     1      17.847 -45.118  29.582  1.00  0.00     0.000 C 
BRANCH  13  14
ATOM     14  C   UNL     1      18.125 -43.711  30.141  1.00  0.00     0.000 C 
BRANCH  14  15
ATOM     15  C   UNL     1      16.934 -42.752  29.968  1.00  0.00     0.000 C 
BRANCH  15  16
ATOM     16  C   UNL     1      16.320 -42.228  31.279  1.00  0.00     0.006 C 
BRANCH  16  17
ATOM     17  C   UNL     1      16.718 -43.063  32.502  1.00  0.00     0.053 C 
BRANCH  17  18
ATOM     18  C   UNL     1      15.631 -44.030  32.850  1.00  0.00     0.041 C 
ATOM     19  O   UNL     1      14.498 -43.608  33.206  1.00  0.00    -0.550 OA
ATOM     20  O   UNL     1      15.851 -45.397  32.736  1.00  0.00    -0.550 OA
ENDBRANCH  17  18
ENDBRANCH  16  17
ENDBRANCH  15  16
ENDBRANCH  14  15
ENDBRANCH  13  14
ENDBRANCH  12  13
ENDBRANCH  11  12
ENDBRANCH   1  11
TORSDOF 15
ENDMDL
MODEL 9
REMARK VINA RESULT:    -4.335      1.716      3.846
REMARK INTER + INTRA:         -10.060
REMARK INTER:                  -7.514
REMARK INTRA:                  -2.546
REMARK UNBOUND:                -1.924
REMARK SMILES O=C([O-])CCCCCCCCCCCCCCC(=O)[O-]
REMARK SMILES IDX 10 1 9 2 8 3 7 4 6 5 5 6 4 7 2 8 1 9 3 10 11 11 12 12 13 13
REMARK SMILES IDX 14 14 15 15 16 16 17 17 18 18 19 19 20 20
REMARK H PARENT
REMARK Flexibility Score: inf
ROOT
ATOM      1  C   UNL     1      18.608 -39.787  26.424  1.00  0.00     0.000 C 
ENDROOT
BRANCH   1   2
ATOM      2  C   UNL     1      17.375 -39.724  27.340  1.00  0.00     0.000 C 
BRANCH   2   3
ATOM      3  C   UNL     1      17.531 -40.591  28.601  1.00  0.00     0.000 C 
BRANCH   3   4
ATOM      4  C   UNL     1      18.837 -41.404  28.598  1.00  0.00     0.000 C 
BRANCH   4   5
ATOM      5  C   UNL     1      18.825 -42.541  29.635  1.00  0.00     0.000 C 
BRANCH   5   6
ATOM      6  C   UNL     1      18.321 -42.079  31.012  1.00  0.00     0.006 C 
BRANCH   6   7
ATOM      7  C   UNL     1      18.599 -43.102  32.121  1.00  0.00     0.053 C 
BRANCH   7   8
ATOM      8  C   UNL     1      17.366 -43.339  32.934  1.00  0.00     0.041 C 
ATOM      9  O   UNL     1      16.915 -42.431  33.681  1.00  0.00    -0.550 OA
ATOM     10  O   UNL     1      16.742 -44.580  32.906  1.00  0.00    -0.550 OA
ENDBRANCH   7   8
ENDBRANCH   6   7
ENDBRANCH   5   6
ENDBRANCH   4   5
ENDBRANCH   3   4
ENDBRANCH   2   3
ENDBRANCH   1   2
BRANCH   1  11
ATOM     11  C   UNL     1      18.244 -39.715  24.932  1.00  0.00     0.000 C 
BRANCH  11  12
ATOM     12  C   UNL     1      18.030 -41.121  24.352  1.00  0.00     0.000 C 
BRANCH  12  13
ATOM     13  C   UNL     1      18.985 -42.163  24.955  1.00  0.00     0.000 C 
BRANCH  13  14
ATOM     14  C   UNL     1      18.257 -43.443  25.403  1.00  0.00     0.000 C 
BRANCH  14  15
ATOM     15  C   UNL     1      16.847 -43.166  25.958  1.00  0.00     0.000 C 
BRANCH  15  16
ATOM     16  C   UNL     1      16.451 -44.009  27.184  1.00  0.00     0.006 C 
BRANCH  16  17
ATOM     17  C   UNL     1      15.258 -43.426  27.951  1.00  0.00     0.053 C 
BRANCH  17  18
ATOM     18  C   UNL     1      15.342 -43.789  29.400  1.00  0.00     0.041 C 
ATOM     19  O   UNL     1      15.012 -42.953  30.283  1.00  0.00    -0.550 OA
ATOM     20  O   UNL     1      15.737 -45.067  29.776  1.00  0.00    -0.550 OA
ENDBRANCH  17  18
ENDBRANCH  16  17
ENDBRANCH  15  16
ENDBRANCH  14  15
ENDBRANCH  13  14
ENDBRANCH  12  13
ENDBRANCH  11  12
ENDBRANCH   1  11
TORSDOF 15
ENDMDL
