MODEL 1
REMARK VINA RESULT:    -4.857      0.000      0.000
REMARK INTER + INTRA:          -7.409
REMARK INTER:                  -6.986
REMARK INTRA:                  -0.423
REMARK UNBOUND:                -0.423
REMARK SMILES O=c1c(O[C@H]2O[C@H](CO)[C@@H](O)[C@@H](O)[C@H]2O)c(-c2ccc(O)cc2)oc2cc(O)cc(O)c12
REMARK SMILES IDX 4 1 3 2 16 3 24 4 2 5 25 6 1 7 32 8 26 9 30 10 27 11 29 12
REMARK SMILES IDX 17 13 18 14 19 15 20 16 23 17 22 18 21 19 31 21 28 23 5 25
REMARK SMILES IDX 14 26 6 27 12 28 7 29 10 30 15 31 13 33 8 35 9 36 11 38
REMARK H PARENT 21 20 31 22 28 24 15 32 13 34 9 37 11 39
REMARK Flexibility Score: inf
ROOT
ATOM      1  O   UNL     1       3.430 -16.788   6.403  1.00  0.00    -0.454 OA
ENDROOT
BRANCH   1   2
ATOM      2  C   UNL     1       3.784 -15.412   6.307  1.00  0.00     0.214 A 
ATOM      3  C   UNL     1       4.281 -14.759   7.464  1.00  0.00     0.180 A 
ATOM      4  O   UNL     1       4.464 -13.445   7.468  1.00  0.00    -0.452 OA
ATOM      5  C   UNL     1       3.603 -14.627   5.138  1.00  0.00     0.239 A 
ATOM      6  C   UNL     1       4.248 -12.667   6.418  1.00  0.00     0.146 A 
ATOM      7  O   UNL     1       3.339 -15.169   4.029  1.00  0.00    -0.285 OA
ATOM      8  C   UNL     1       3.780 -13.224   5.209  1.00  0.00     0.111 A 
ATOM      9  C   UNL     1       4.501 -11.305   6.523  1.00  0.00     0.094 A 
ATOM     10  C   UNL     1       3.479 -12.348   4.129  1.00  0.00     0.134 A 
ATOM     11  C   UNL     1       4.268 -10.450   5.429  1.00  0.00     0.123 A 
ATOM     12  C   UNL     1       3.729 -10.963   4.243  1.00  0.00     0.093 A 
BRANCH   3  13
ATOM     13  C   UNL     1       4.622 -15.481   8.704  1.00  0.00     0.021 A 
ATOM     14  C   UNL     1       5.611 -14.970   9.571  1.00  0.00     0.016 A 
ATOM     15  C   UNL     1       5.727 -15.499  10.885  1.00  0.00     0.047 A 
ATOM     16  C   UNL     1       4.772 -16.376  11.372  1.00  0.00     0.115 A 
ATOM     17  C   UNL     1       3.811 -16.525   9.147  1.00  0.00     0.016 A 
ATOM     18  C   UNL     1       3.811 -16.887  10.482  1.00  0.00     0.047 A 
BRANCH  16  19
ATOM     19  O   UNL     1       4.729 -16.660  12.733  1.00  0.00    -0.508 OA
ATOM     20  H   UNL     1       3.908 -17.108  13.150  1.00  0.00     0.293 HD
ENDBRANCH  16  19
ENDBRANCH   3  13
BRANCH  10  21
ATOM     21  O   UNL     1       2.968 -12.813   2.912  1.00  0.00    -0.507 OA
ATOM     22  H   UNL     1       2.849 -13.808   2.725  1.00  0.00     0.293 HD
ENDBRANCH  10  21
BRANCH  11  23
ATOM     23  O   UNL     1       4.558  -9.084   5.519  1.00  0.00    -0.508 OA
ATOM     24  H   UNL     1       4.131  -8.503   6.241  1.00  0.00     0.293 HD
ENDBRANCH  11  23
ENDBRANCH   1   2
BRANCH   1  25
ATOM     25  C   UNL     1       4.115 -18.019   6.150  1.00  0.00     0.339 C 
ATOM     26  C   UNL     1       4.176 -18.253   4.598  1.00  0.00     0.214 C 
ATOM     27  O   UNL     1       3.589 -19.129   6.890  1.00  0.00    -0.332 OA
ATOM     28  C   UNL     1       4.749 -19.645   4.261  1.00  0.00     0.180 C 
ATOM     29  C   UNL     1       4.189 -20.391   6.620  1.00  0.00     0.179 C 
ATOM     30  C   UNL     1       4.166 -20.781   5.119  1.00  0.00     0.177 C 
BRANCH  26  31
ATOM     31  O   UNL     1       2.950 -18.001   3.950  1.00  0.00    -0.384 OA
ATOM     32  H   UNL     1       2.232 -18.472   4.451  1.00  0.00     0.211 HD
ENDBRANCH  26  31
BRANCH  28  33
ATOM     33  O   UNL     1       4.618 -19.946   2.877  1.00  0.00    -0.387 OA
ATOM     34  H   UNL     1       5.524 -20.182   2.562  1.00  0.00     0.211 HD
ENDBRANCH  28  33
BRANCH  29  35
ATOM     35  C   UNL     1       5.592 -20.536   7.264  1.00  0.00     0.191 C 
BRANCH  35  36
ATOM     36  O   UNL     1       5.734 -19.626   8.319  1.00  0.00    -0.394 OA
ATOM     37  H   UNL     1       6.668 -19.310   8.327  1.00  0.00     0.210 HD
ENDBRANCH  35  36
ENDBRANCH  29  35
BRANCH  30  38
ATOM     38  O   UNL     1       2.875 -21.119   4.714  1.00  0.00    -0.387 OA
ATOM     39  H   UNL     1       2.239 -20.912   5.457  1.00  0.00     0.211 HD
ENDBRANCH  30  38
ENDBRANCH   1  25
TORSDOF 11
ENDMDL
MODEL 2
REMARK VINA RESULT:    -4.670      1.586      5.133
REMARK INTER + INTRA:          -7.140
REMARK INTER:                  -6.523
REMARK INTRA:                  -0.617
REMARK UNBOUND:                -0.423
REMARK SMILES O=c1c(O[C@H]2O[C@H](CO)[C@@H](O)[C@@H](O)[C@H]2O)c(-c2ccc(O)cc2)oc2cc(O)cc(O)c12
REMARK SMILES IDX 4 1 3 2 16 3 24 4 2 5 25 6 1 7 32 8 26 9 30 10 27 11 29 12
REMARK SMILES IDX 17 13 18 14 19 15 20 16 23 17 22 18 21 19 31 21 28 23 5 25
REMARK SMILES IDX 14 26 6 27 12 28 7 29 10 30 15 31 13 33 8 35 9 36 11 38
REMARK H PARENT 21 20 31 22 28 24 15 32 13 34 9 37 11 39
REMARK Flexibility Score: inf
ROOT
ATOM      1  O   UNL     1       4.861 -16.118   7.808  1.00  0.00    -0.454 OA
ENDROOT
BRANCH   1   2
ATOM      2  C   UNL     1       4.396 -15.119   6.906  1.00  0.00     0.214 A 
ATOM      3  C   UNL     1       3.795 -15.533   5.689  1.00  0.00     0.180 A 
ATOM      4  O   UNL     1       3.501 -14.644   4.748  1.00  0.00    -0.452 OA
ATOM      5  C   UNL     1       4.561 -13.725   7.115  1.00  0.00     0.239 A 
ATOM      6  C   UNL     1       3.696 -13.341   4.879  1.00  0.00     0.146 A 
ATOM      7  O   UNL     1       4.917 -13.277   8.240  1.00  0.00    -0.285 OA
ATOM      8  C   UNL     1       4.262 -12.824   6.063  1.00  0.00     0.111 A 
ATOM      9  C   UNL     1       3.324 -12.496   3.841  1.00  0.00     0.094 A 
ATOM     10  C   UNL     1       4.534 -11.430   6.135  1.00  0.00     0.134 A 
ATOM     11  C   UNL     1       3.531 -11.107   3.943  1.00  0.00     0.123 A 
ATOM     12  C   UNL     1       4.163 -10.575   5.074  1.00  0.00     0.093 A 
BRANCH   3  13
ATOM     13  C   UNL     1       3.463 -16.940   5.400  1.00  0.00     0.021 A 
ATOM     14  C   UNL     1       3.955 -17.557   4.230  1.00  0.00     0.016 A 
ATOM     15  C   UNL     1       3.881 -18.970   4.104  1.00  0.00     0.047 A 
ATOM     16  C   UNL     1       3.500 -19.750   5.183  1.00  0.00     0.115 A 
ATOM     17  C   UNL     1       2.877 -17.734   6.385  1.00  0.00     0.016 A 
ATOM     18  C   UNL     1       2.992 -19.111   6.329  1.00  0.00     0.047 A 
BRANCH  16  19
ATOM     19  O   UNL     1       3.705 -21.125   5.147  1.00  0.00    -0.508 OA
ATOM     20  H   UNL     1       4.640 -21.512   4.993  1.00  0.00     0.293 HD
ENDBRANCH  16  19
ENDBRANCH   3  13
BRANCH  10  21
ATOM     21  O   UNL     1       5.136 -10.844   7.254  1.00  0.00    -0.507 OA
ATOM     22  H   UNL     1       4.643 -10.166   7.834  1.00  0.00     0.293 HD
ENDBRANCH  10  21
BRANCH  11  23
ATOM     23  O   UNL     1       3.122 -10.249   2.915  1.00  0.00    -0.508 OA
ATOM     24  H   UNL     1       3.741  -9.518   2.564  1.00  0.00     0.293 HD
ENDBRANCH  11  23
ENDBRANCH   1   2
BRANCH   1  25
ATOM     25  C   UNL     1       4.308 -16.765   8.959  1.00  0.00     0.339 C 
ATOM     26  C   UNL     1       4.405 -15.787  10.183  1.00  0.00     0.214 C 
ATOM     27  O   UNL     1       4.858 -18.066   9.202  1.00  0.00    -0.332 OA
ATOM     28  C   UNL     1       3.984 -16.483  11.494  1.00  0.00     0.180 C 
ATOM     29  C   UNL     1       4.393 -18.723  10.376  1.00  0.00     0.179 C 
ATOM     30  C   UNL     1       4.583 -17.889  11.670  1.00  0.00     0.177 C 
BRANCH  26  31
ATOM     31  O   UNL     1       5.659 -15.150  10.286  1.00  0.00    -0.384 OA
ATOM     32  H   UNL     1       6.187 -15.618  10.987  1.00  0.00     0.211 HD
ENDBRANCH  26  31
BRANCH  28  33
ATOM     33  O   UNL     1       4.263 -15.675  12.631  1.00  0.00    -0.387 OA
ATOM     34  H   UNL     1       5.247 -15.627  12.697  1.00  0.00     0.211 HD
ENDBRANCH  28  33
BRANCH  29  35
ATOM     35  C   UNL     1       2.957 -19.283  10.220  1.00  0.00     0.191 C 
BRANCH  35  36
ATOM     36  O   UNL     1       2.985 -20.492   9.512  1.00  0.00    -0.394 OA
ATOM     37  H   UNL     1       3.488 -21.149  10.049  1.00  0.00     0.210 HD
ENDBRANCH  35  36
ENDBRANCH  29  35
BRANCH  30  38
ATOM     38  O   UNL     1       5.929 -17.832  12.031  1.00  0.00    -0.387 OA
ATOM     39  H   UNL     1       6.334 -18.737  11.909  1.00  0.00     0.211 HD
ENDBRANCH  30  38
ENDBRANCH   1  25
TORSDOF 11
ENDMDL
MODEL 3
REMARK VINA RESULT:    -4.060      5.835     12.474
REMARK INTER + INTRA:          -6.263
REMARK INTER:                  -4.967
REMARK INTRA:                  -1.296
REMARK UNBOUND:                -0.423
REMARK SMILES O=c1c(O[C@H]2O[C@H](CO)[C@@H](O)[C@@H](O)[C@H]2O)c(-c2ccc(O)cc2)oc2cc(O)cc(O)c12
REMARK SMILES IDX 4 1 3 2 16 3 24 4 2 5 25 6 1 7 32 8 26 9 30 10 27 11 29 12
REMARK SMILES IDX 17 13 18 14 19 15 20 16 23 17 22 18 21 19 31 21 28 23 5 25
REMARK SMILES IDX 14 26 6 27 12 28 7 29 10 30 15 31 13 33 8 35 9 36 11 38
REMARK H PARENT 21 20 31 22 28 24 15 32 13 34 9 37 11 39
REMARK Flexibility Score: inf
ROOT
ATOM      1  O   UNL     1       5.722  -5.800   6.307  1.00  0.00    -0.454 OA
ENDROOT
BRANCH   1   2
ATOM      2  C   UNL     1       5.248  -6.968   5.647  1.00  0.00     0.214 A 
ATOM      3  C   UNL     1       4.363  -6.814   4.549  1.00  0.00     0.180 A 
ATOM      4  O   UNL     1       3.766  -7.870   4.013  1.00  0.00    -0.452 OA
ATOM      5  C   UNL     1       5.550  -8.291   6.064  1.00  0.00     0.239 A 
ATOM      6  C   UNL     1       3.973  -9.116   4.413  1.00  0.00     0.146 A 
ATOM      7  O   UNL     1       6.462  -8.511   6.908  1.00  0.00    -0.285 OA
ATOM      8  C   UNL     1       4.858  -9.380   5.479  1.00  0.00     0.111 A 
ATOM      9  C   UNL     1       3.317 -10.152   3.760  1.00  0.00     0.094 A 
ATOM     10  C   UNL     1       4.990 -10.719   5.937  1.00  0.00     0.134 A 
ATOM     11  C   UNL     1       3.504 -11.486   4.171  1.00  0.00     0.123 A 
ATOM     12  C   UNL     1       4.315 -11.769   5.277  1.00  0.00     0.093 A 
BRANCH   3  13
ATOM     13  C   UNL     1       4.060  -5.502   3.946  1.00  0.00     0.021 A 
ATOM     14  C   UNL     1       2.982  -4.733   4.434  1.00  0.00     0.016 A 
ATOM     15  C   UNL     1       2.875  -3.367   4.058  1.00  0.00     0.047 A 
ATOM     16  C   UNL     1       3.907  -2.748   3.371  1.00  0.00     0.115 A 
ATOM     17  C   UNL     1       4.970  -4.910   3.072  1.00  0.00     0.016 A 
ATOM     18  C   UNL     1       4.958  -3.541   2.877  1.00  0.00     0.047 A 
BRANCH  16  19
ATOM     19  O   UNL     1       3.928  -1.362   3.262  1.00  0.00    -0.508 OA
ATOM     20  H   UNL     1       4.576  -0.800   3.821  1.00  0.00     0.293 HD
ENDBRANCH  16  19
ENDBRANCH   3  13
BRANCH  10  21
ATOM     21  O   UNL     1       5.811 -11.061   7.018  1.00  0.00    -0.507 OA
ATOM     22  H   UNL     1       5.994 -12.032   7.266  1.00  0.00     0.293 HD
ENDBRANCH  10  21
BRANCH  11  23
ATOM     23  O   UNL     1       2.875 -12.535   3.490  1.00  0.00    -0.508 OA
ATOM     24  H   UNL     1       2.090 -13.034   3.907  1.00  0.00     0.293 HD
ENDBRANCH  11  23
ENDBRANCH   1   2
BRANCH   1  25
ATOM     25  C   UNL     1       6.966  -5.091   6.321  1.00  0.00     0.339 C 
ATOM     26  C   UNL     1       6.699  -3.612   6.774  1.00  0.00     0.214 C 
ATOM     27  O   UNL     1       7.703  -5.206   5.097  1.00  0.00    -0.332 OA
ATOM     28  C   UNL     1       7.969  -2.745   6.646  1.00  0.00     0.180 C 
ATOM     29  C   UNL     1       8.914  -4.461   5.033  1.00  0.00     0.179 C 
ATOM     30  C   UNL     1       8.728  -2.949   5.323  1.00  0.00     0.177 C 
BRANCH  26  31
ATOM     31  O   UNL     1       5.581  -3.030   6.140  1.00  0.00    -0.384 OA
ATOM     32  H   UNL     1       4.967  -3.762   5.864  1.00  0.00     0.211 HD
ENDBRANCH  26  31
BRANCH  28  33
ATOM     33  O   UNL     1       7.689  -1.367   6.856  1.00  0.00    -0.387 OA
ATOM     34  H   UNL     1       8.313  -1.065   7.559  1.00  0.00     0.211 HD
ENDBRANCH  28  33
BRANCH  29  35
ATOM     35  C   UNL     1      10.056  -5.102   5.862  1.00  0.00     0.191 C 
BRANCH  35  36
ATOM     36  O   UNL     1      10.842  -5.924   5.044  1.00  0.00    -0.394 OA
ATOM     37  H   UNL     1      10.441  -5.933   4.143  1.00  0.00     0.210 HD
ENDBRANCH  35  36
ENDBRANCH  29  35
BRANCH  30  38
ATOM     38  O   UNL     1       8.084  -2.315   4.260  1.00  0.00    -0.387 OA
ATOM     39  H   UNL     1       7.296  -2.864   3.987  1.00  0.00     0.211 HD
ENDBRANCH  30  38
ENDBRANCH   1  25
TORSDOF 11
ENDMDL
MODEL 4
REMARK VINA RESULT:    -3.695      1.165      2.539
REMARK INTER + INTRA:          -5.738
REMARK INTER:                  -5.852
REMARK INTRA:                   0.113
REMARK UNBOUND:                -0.423
REMARK SMILES O=c1c(O[C@H]2O[C@H](CO)[C@@H](O)[C@@H](O)[C@H]2O)c(-c2ccc(O)cc2)oc2cc(O)cc(O)c12
REMARK SMILES IDX 4 1 3 2 16 3 24 4 2 5 25 6 1 7 32 8 26 9 30 10 27 11 29 12
REMARK SMILES IDX 17 13 18 14 19 15 20 16 23 17 22 18 21 19 31 21 28 23 5 25
REMARK SMILES IDX 14 26 6 27 12 28 7 29 10 30 15 31 13 33 8 35 9 36 11 38
REMARK H PARENT 21 20 31 22 28 24 15 32 13 34 9 37 11 39
REMARK Flexibility Score: inf
ROOT
ATOM      1  O   UNL     1       3.212 -17.545   7.063  1.00  0.00    -0.454 OA
ENDROOT
BRANCH   1   2
ATOM      2  C   UNL     1       3.609 -16.207   6.784  1.00  0.00     0.214 A 
ATOM      3  C   UNL     1       3.907 -15.348   7.875  1.00  0.00     0.180 A 
ATOM      4  O   UNL     1       4.117 -14.054   7.673  1.00  0.00    -0.452 OA
ATOM      5  C   UNL     1       3.658 -15.650   5.480  1.00  0.00     0.239 A 
ATOM      6  C   UNL     1       4.110 -13.483   6.478  1.00  0.00     0.146 A 
ATOM      7  O   UNL     1       3.584 -16.388   4.459  1.00  0.00    -0.285 OA
ATOM      8  C   UNL     1       3.852 -14.255   5.326  1.00  0.00     0.111 A 
ATOM      9  C   UNL     1       4.371 -12.123   6.378  1.00  0.00     0.094 A 
ATOM     10  C   UNL     1       3.769 -13.595   4.069  1.00  0.00     0.134 A 
ATOM     11  C   UNL     1       4.357 -11.483   5.124  1.00  0.00     0.123 A 
ATOM     12  C   UNL     1       4.026 -12.210   3.973  1.00  0.00     0.093 A 
BRANCH   3  13
ATOM     13  C   UNL     1       4.004 -15.829   9.266  1.00  0.00     0.021 A 
ATOM     14  C   UNL     1       3.114 -16.818   9.735  1.00  0.00     0.016 A 
ATOM     15  C   UNL     1       3.393 -17.480  10.961  1.00  0.00     0.047 A 
ATOM     16  C   UNL     1       4.607 -17.289  11.599  1.00  0.00     0.115 A 
ATOM     17  C   UNL     1       5.113 -15.496  10.042  1.00  0.00     0.016 A 
ATOM     18  C   UNL     1       5.466 -16.281  11.124  1.00  0.00     0.047 A 
BRANCH  16  19
ATOM     19  O   UNL     1       4.988 -18.145  12.627  1.00  0.00    -0.508 OA
ATOM     20  H   UNL     1       5.546 -17.804  13.414  1.00  0.00     0.293 HD
ENDBRANCH  16  19
ENDBRANCH   3  13
BRANCH  10  21
ATOM     21  O   UNL     1       3.472 -14.279   2.885  1.00  0.00    -0.507 OA
ATOM     22  H   UNL     1       2.616 -14.099   2.362  1.00  0.00     0.293 HD
ENDBRANCH  10  21
BRANCH  11  23
ATOM     23  O   UNL     1       4.659 -10.121   5.016  1.00  0.00    -0.508 OA
ATOM     24  H   UNL     1       4.796  -9.684   4.104  1.00  0.00     0.293 HD
ENDBRANCH  11  23
ENDBRANCH   1   2
BRANCH   1  25
ATOM     25  C   UNL     1       3.696 -18.836   6.676  1.00  0.00     0.339 C 
ATOM     26  C   UNL     1       4.598 -19.402   7.830  1.00  0.00     0.214 C 
ATOM     27  O   UNL     1       4.320 -18.849   5.385  1.00  0.00    -0.332 OA
ATOM     28  C   UNL     1       5.292 -20.715   7.409  1.00  0.00     0.180 C 
ATOM     29  C   UNL     1       4.882 -20.093   4.984  1.00  0.00     0.179 C 
ATOM     30  C   UNL     1       5.904 -20.668   5.999  1.00  0.00     0.177 C 
BRANCH  26  31
ATOM     31  O   UNL     1       5.503 -18.452   8.345  1.00  0.00    -0.384 OA
ATOM     32  H   UNL     1       5.026 -17.584   8.429  1.00  0.00     0.211 HD
ENDBRANCH  26  31
BRANCH  28  33
ATOM     33  O   UNL     1       6.263 -21.125   8.364  1.00  0.00    -0.387 OA
ATOM     34  H   UNL     1       6.850 -20.344   8.509  1.00  0.00     0.211 HD
ENDBRANCH  28  33
BRANCH  29  35
ATOM     35  C   UNL     1       3.809 -21.125   4.554  1.00  0.00     0.191 C 
BRANCH  35  36
ATOM     36  O   UNL     1       3.582 -21.037   3.174  1.00  0.00    -0.394 OA
ATOM     37  H   UNL     1       3.017 -21.800   2.907  1.00  0.00     0.210 HD
ENDBRANCH  35  36
ENDBRANCH  29  35
BRANCH  30  38
ATOM     38  O   UNL     1       7.090 -19.933   5.979  1.00  0.00    -0.387 OA
ATOM     39  H   UNL     1       7.693 -20.313   5.279  1.00  0.00     0.211 HD
ENDBRANCH  30  38
ENDBRANCH   1  25
TORSDOF 11
ENDMDL
MODEL 5
REMARK VINA RESULT:    -3.283      1.558      4.786
REMARK INTER + INTRA:          -5.145
REMARK INTER:                  -5.063
REMARK INTRA:                  -0.082
REMARK UNBOUND:                -0.423
REMARK SMILES O=c1c(O[C@H]2O[C@H](CO)[C@@H](O)[C@@H](O)[C@H]2O)c(-c2ccc(O)cc2)oc2cc(O)cc(O)c12
REMARK SMILES IDX 4 1 3 2 16 3 24 4 2 5 25 6 1 7 32 8 26 9 30 10 27 11 29 12
REMARK SMILES IDX 17 13 18 14 19 15 20 16 23 17 22 18 21 19 31 21 28 23 5 25
REMARK SMILES IDX 14 26 6 27 12 28 7 29 10 30 15 31 13 33 8 35 9 36 11 38
REMARK H PARENT 21 20 31 22 28 24 15 32 13 34 9 37 11 39
REMARK Flexibility Score: inf
ROOT
ATOM      1  O   UNL     1       5.115 -16.105   7.035  1.00  0.00    -0.454 OA
ENDROOT
BRANCH   1   2
ATOM      2  C   UNL     1       4.561 -14.976   6.369  1.00  0.00     0.214 A 
ATOM      3  C   UNL     1       3.841 -15.186   5.164  1.00  0.00     0.180 A 
ATOM      4  O   UNL     1       3.454 -14.155   4.424  1.00  0.00    -0.452 OA
ATOM      5  C   UNL     1       4.743 -13.635   6.798  1.00  0.00     0.239 A 
ATOM      6  C   UNL     1       3.658 -12.890   4.757  1.00  0.00     0.146 A 
ATOM      7  O   UNL     1       5.209 -13.380   7.942  1.00  0.00    -0.285 OA
ATOM      8  C   UNL     1       4.339 -12.573   5.951  1.00  0.00     0.111 A 
ATOM      9  C   UNL     1       3.183 -11.887   3.922  1.00  0.00     0.094 A 
ATOM     10  C   UNL     1       4.615 -11.208   6.235  1.00  0.00     0.134 A 
ATOM     11  C   UNL     1       3.396 -10.532   4.241  1.00  0.00     0.123 A 
ATOM     12  C   UNL     1       4.138 -10.191   5.379  1.00  0.00     0.093 A 
BRANCH   3  13
ATOM     13  C   UNL     1       3.485 -16.530   4.671  1.00  0.00     0.021 A 
ATOM     14  C   UNL     1       3.968 -16.976   3.422  1.00  0.00     0.016 A 
ATOM     15  C   UNL     1       3.870 -18.354   3.089  1.00  0.00     0.047 A 
ATOM     16  C   UNL     1       3.471 -19.276   4.042  1.00  0.00     0.115 A 
ATOM     17  C   UNL     1       2.882 -17.449   5.528  1.00  0.00     0.016 A 
ATOM     18  C   UNL     1       2.972 -18.804   5.270  1.00  0.00     0.047 A 
BRANCH  16  19
ATOM     19  O   UNL     1       3.652 -20.635   3.804  1.00  0.00    -0.508 OA
ATOM     20  H   UNL     1       3.002 -21.155   3.208  1.00  0.00     0.293 HD
ENDBRANCH  16  19
ENDBRANCH   3  13
BRANCH  10  21
ATOM     21  O   UNL     1       5.324 -10.810   7.375  1.00  0.00    -0.507 OA
ATOM     22  H   UNL     1       5.958 -11.444   7.859  1.00  0.00     0.293 HD
ENDBRANCH  10  21
BRANCH  11  23
ATOM     23  O   UNL     1       2.885  -9.519   3.422  1.00  0.00    -0.508 OA
ATOM     24  H   UNL     1       2.025  -9.657   2.891  1.00  0.00     0.293 HD
ENDBRANCH  11  23
ENDBRANCH   1   2
BRANCH   1  25
ATOM     25  C   UNL     1       5.047 -16.615   8.371  1.00  0.00     0.339 C 
ATOM     26  C   UNL     1       5.487 -18.122   8.360  1.00  0.00     0.214 C 
ATOM     27  O   UNL     1       3.785 -16.377   9.009  1.00  0.00    -0.332 OA
ATOM     28  C   UNL     1       5.272 -18.781   9.738  1.00  0.00     0.180 C 
ATOM     29  C   UNL     1       3.640 -16.926  10.314  1.00  0.00     0.179 C 
ATOM     30  C   UNL     1       3.913 -18.451  10.379  1.00  0.00     0.177 C 
BRANCH  26  31
ATOM     31  O   UNL     1       4.906 -18.861   7.309  1.00  0.00    -0.384 OA
ATOM     32  H   UNL     1       5.588 -18.973   6.595  1.00  0.00     0.211 HD
ENDBRANCH  26  31
BRANCH  28  33
ATOM     33  O   UNL     1       5.472 -20.188   9.684  1.00  0.00    -0.387 OA
ATOM     34  H   UNL     1       6.286 -20.369  10.214  1.00  0.00     0.211 HD
ENDBRANCH  28  33
BRANCH  29  35
ATOM     35  C   UNL     1       4.415 -16.125  11.391  1.00  0.00     0.191 C 
BRANCH  35  36
ATOM     36  O   UNL     1       4.807 -16.974  12.434  1.00  0.00    -0.394 OA
ATOM     37  H   UNL     1       4.540 -16.556  13.286  1.00  0.00     0.210 HD
ENDBRANCH  35  36
ENDBRANCH  29  35
BRANCH  30  38
ATOM     38  O   UNL     1       2.877 -19.167   9.779  1.00  0.00    -0.387 OA
ATOM     39  H   UNL     1       3.177 -20.109   9.633  1.00  0.00     0.211 HD
ENDBRANCH  30  38
ENDBRANCH   1  25
TORSDOF 11
ENDMDL
MODEL 6
REMARK VINA RESULT:    -3.093      6.150     12.923
REMARK INTER + INTRA:          -4.872
REMARK INTER:                  -4.238
REMARK INTRA:                  -0.634
REMARK UNBOUND:                -0.423
REMARK SMILES O=c1c(O[C@H]2O[C@H](CO)[C@@H](O)[C@@H](O)[C@H]2O)c(-c2ccc(O)cc2)oc2cc(O)cc(O)c12
REMARK SMILES IDX 4 1 3 2 16 3 24 4 2 5 25 6 1 7 32 8 26 9 30 10 27 11 29 12
REMARK SMILES IDX 17 13 18 14 19 15 20 16 23 17 22 18 21 19 31 21 28 23 5 25
REMARK SMILES IDX 14 26 6 27 12 28 7 29 10 30 15 31 13 33 8 35 9 36 11 38
REMARK H PARENT 21 20 31 22 28 24 15 32 13 34 9 37 11 39
REMARK Flexibility Score: inf
ROOT
ATOM      1  O   UNL     1       6.050  -5.376   6.516  1.00  0.00    -0.454 OA
ENDROOT
BRANCH   1   2
ATOM      2  C   UNL     1       5.487  -6.524   5.889  1.00  0.00     0.214 A 
ATOM      3  C   UNL     1       4.407  -6.341   4.987  1.00  0.00     0.180 A 
ATOM      4  O   UNL     1       3.743  -7.387   4.511  1.00  0.00    -0.452 OA
ATOM      5  C   UNL     1       5.892  -7.856   6.164  1.00  0.00     0.239 A 
ATOM      6  C   UNL     1       4.051  -8.644   4.792  1.00  0.00     0.146 A 
ATOM      7  O   UNL     1       6.952  -8.090   6.808  1.00  0.00    -0.285 OA
ATOM      8  C   UNL     1       5.127  -8.934   5.656  1.00  0.00     0.111 A 
ATOM      9  C   UNL     1       3.307  -9.665   4.214  1.00  0.00     0.094 A 
ATOM     10  C   UNL     1       5.374 -10.291   6.002  1.00  0.00     0.134 A 
ATOM     11  C   UNL     1       3.599 -11.012   4.504  1.00  0.00     0.123 A 
ATOM     12  C   UNL     1       4.610 -11.327   5.420  1.00  0.00     0.093 A 
BRANCH   3  13
ATOM     13  C   UNL     1       3.965  -5.010   4.530  1.00  0.00     0.021 A 
ATOM     14  C   UNL     1       3.281  -4.149   5.414  1.00  0.00     0.016 A 
ATOM     15  C   UNL     1       3.120  -2.780   5.070  1.00  0.00     0.047 A 
ATOM     16  C   UNL     1       3.779  -2.254   3.971  1.00  0.00     0.115 A 
ATOM     17  C   UNL     1       4.429  -4.500   3.318  1.00  0.00     0.016 A 
ATOM     18  C   UNL     1       4.434  -3.136   3.093  1.00  0.00     0.047 A 
BRANCH  16  19
ATOM     19  O   UNL     1       3.852  -0.875   3.807  1.00  0.00    -0.508 OA
ATOM     20  H   UNL     1       3.743  -0.244   4.605  1.00  0.00     0.293 HD
ENDBRANCH  16  19
ENDBRANCH   3  13
BRANCH  10  21
ATOM     21  O   UNL     1       6.392 -10.662   6.888  1.00  0.00    -0.507 OA
ATOM     22  H   UNL     1       6.396 -10.354   7.859  1.00  0.00     0.293 HD
ENDBRANCH  10  21
BRANCH  11  23
ATOM     23  O   UNL     1       2.876 -12.044   3.893  1.00  0.00    -0.508 OA
ATOM     24  H   UNL     1       1.983 -11.860   3.437  1.00  0.00     0.293 HD
ENDBRANCH  11  23
ENDBRANCH   1   2
BRANCH   1  25
ATOM     25  C   UNL     1       6.529  -4.111   6.046  1.00  0.00     0.339 C 
ATOM     26  C   UNL     1       7.594  -4.361   4.921  1.00  0.00     0.214 C 
ATOM     27  O   UNL     1       6.978  -3.245   7.097  1.00  0.00    -0.332 OA
ATOM     28  C   UNL     1       8.277  -3.046   4.490  1.00  0.00     0.180 C 
ATOM     29  C   UNL     1       7.531  -2.002   6.678  1.00  0.00     0.179 C 
ATOM     30  C   UNL     1       8.698  -2.151   5.668  1.00  0.00     0.177 C 
BRANCH  26  31
ATOM     31  O   UNL     1       8.522  -5.371   5.249  1.00  0.00    -0.384 OA
ATOM     32  H   UNL     1       8.045  -6.243   5.245  1.00  0.00     0.211 HD
ENDBRANCH  26  31
BRANCH  28  33
ATOM     33  O   UNL     1       9.380  -3.286   3.624  1.00  0.00    -0.387 OA
ATOM     34  H   UNL     1       9.150  -4.094   3.106  1.00  0.00     0.211 HD
ENDBRANCH  28  33
BRANCH  29  35
ATOM     35  C   UNL     1       6.450  -0.993   6.212  1.00  0.00     0.191 C 
BRANCH  35  36
ATOM     36  O   UNL     1       5.369  -1.000   7.103  1.00  0.00    -0.394 OA
ATOM     37  H   UNL     1       5.062  -1.932   7.205  1.00  0.00     0.210 HD
ENDBRANCH  35  36
ENDBRANCH  29  35
BRANCH  30  38
ATOM     38  O   UNL     1       9.842  -2.639   6.300  1.00  0.00    -0.387 OA
ATOM     39  H   UNL     1       9.732  -3.620   6.453  1.00  0.00     0.211 HD
ENDBRANCH  30  38
ENDBRANCH   1  25
TORSDOF 11
ENDMDL
MODEL 7
REMARK VINA RESULT:    -2.681      1.242      2.314
REMARK INTER + INTRA:          -4.280
REMARK INTER:                  -4.674
REMARK INTRA:                   0.394
REMARK UNBOUND:                -0.423
REMARK SMILES O=c1c(O[C@H]2O[C@H](CO)[C@@H](O)[C@@H](O)[C@H]2O)c(-c2ccc(O)cc2)oc2cc(O)cc(O)c12
REMARK SMILES IDX 4 1 3 2 16 3 24 4 2 5 25 6 1 7 32 8 26 9 30 10 27 11 29 12
REMARK SMILES IDX 17 13 18 14 19 15 20 16 23 17 22 18 21 19 31 21 28 23 5 25
REMARK SMILES IDX 14 26 6 27 12 28 7 29 10 30 15 31 13 33 8 35 9 36 11 38
REMARK H PARENT 21 20 31 22 28 24 15 32 13 34 9 37 11 39
REMARK Flexibility Score: inf
ROOT
ATOM      1  O   UNL     1       3.696 -16.290   7.125  1.00  0.00    -0.454 OA
ENDROOT
BRANCH   1   2
ATOM      2  C   UNL     1       4.131 -14.937   7.052  1.00  0.00     0.214 A 
ATOM      3  C   UNL     1       4.777 -14.371   8.182  1.00  0.00     0.180 A 
ATOM      4  O   UNL     1       5.047 -13.073   8.222  1.00  0.00    -0.452 OA
ATOM      5  C   UNL     1       3.895 -14.088   5.939  1.00  0.00     0.239 A 
ATOM      6  C   UNL     1       4.787 -12.235   7.230  1.00  0.00     0.146 A 
ATOM      7  O   UNL     1       3.493 -14.559   4.840  1.00  0.00    -0.285 OA
ATOM      8  C   UNL     1       4.171 -12.703   6.051  1.00  0.00     0.111 A 
ATOM      9  C   UNL     1       5.139 -10.898   7.366  1.00  0.00     0.094 A 
ATOM     10  C   UNL     1       3.830 -11.761   5.042  1.00  0.00     0.134 A 
ATOM     11  C   UNL     1       4.863  -9.979   6.336  1.00  0.00     0.123 A 
ATOM     12  C   UNL     1       4.182 -10.401   5.187  1.00  0.00     0.093 A 
BRANCH   3  13
ATOM     13  C   UNL     1       5.183 -15.171   9.353  1.00  0.00     0.021 A 
ATOM     14  C   UNL     1       5.703 -14.532  10.500  1.00  0.00     0.016 A 
ATOM     15  C   UNL     1       5.814 -15.263  11.713  1.00  0.00     0.047 A 
ATOM     16  C   UNL     1       5.257 -16.526  11.822  1.00  0.00     0.115 A 
ATOM     17  C   UNL     1       4.833 -16.518   9.432  1.00  0.00     0.016 A 
ATOM     18  C   UNL     1       4.767 -17.149  10.660  1.00  0.00     0.047 A 
BRANCH  16  19
ATOM     19  O   UNL     1       5.115 -17.111  13.076  1.00  0.00    -0.508 OA
ATOM     20  H   UNL     1       5.934 -17.346  13.643  1.00  0.00     0.293 HD
ENDBRANCH  16  19
ENDBRANCH   3  13
BRANCH  10  21
ATOM     21  O   UNL     1       3.177 -12.134   3.861  1.00  0.00    -0.507 OA
ATOM     22  H   UNL     1       2.224 -11.837   3.659  1.00  0.00     0.293 HD
ENDBRANCH  10  21
BRANCH  11  23
ATOM     23  O   UNL     1       5.251  -8.639   6.454  1.00  0.00    -0.508 OA
ATOM     24  H   UNL     1       6.061  -8.281   5.948  1.00  0.00     0.293 HD
ENDBRANCH  11  23
ENDBRANCH   1   2
BRANCH   1  25
ATOM     25  C   UNL     1       3.387 -17.298   6.156  1.00  0.00     0.339 C 
ATOM     26  C   UNL     1       3.159 -18.661   6.901  1.00  0.00     0.214 C 
ATOM     27  O   UNL     1       4.335 -17.368   5.083  1.00  0.00    -0.332 OA
ATOM     28  C   UNL     1       2.991 -19.826   5.903  1.00  0.00     0.180 C 
ATOM     29  C   UNL     1       4.113 -18.401   4.129  1.00  0.00     0.179 C 
ATOM     30  C   UNL     1       4.019 -19.815   4.758  1.00  0.00     0.177 C 
BRANCH  26  31
ATOM     31  O   UNL     1       4.134 -18.926   7.884  1.00  0.00    -0.384 OA
ATOM     32  H   UNL     1       4.359 -19.894   7.844  1.00  0.00     0.211 HD
ENDBRANCH  26  31
BRANCH  28  33
ATOM     33  O   UNL     1       2.990 -21.086   6.563  1.00  0.00    -0.387 OA
ATOM     34  H   UNL     1       3.408 -20.934   7.444  1.00  0.00     0.211 HD
ENDBRANCH  28  33
BRANCH  29  35
ATOM     35  C   UNL     1       2.940 -18.086   3.167  1.00  0.00     0.191 C 
BRANCH  35  36
ATOM     36  O   UNL     1       2.876 -16.708   2.922  1.00  0.00    -0.394 OA
ATOM     37  H   UNL     1       3.655 -16.283   3.352  1.00  0.00     0.210 HD
ENDBRANCH  35  36
ENDBRANCH  29  35
BRANCH  30  38
ATOM     38  O   UNL     1       5.272 -20.251   5.190  1.00  0.00    -0.387 OA
ATOM     39  H   UNL     1       5.973 -19.661   4.792  1.00  0.00     0.211 HD
ENDBRANCH  30  38
ENDBRANCH   1  25
TORSDOF 11
ENDMDL
MODEL 8
REMARK VINA RESULT:    -2.263      6.592     13.131
REMARK INTER + INTRA:          -3.678
REMARK INTER:                  -5.382
REMARK INTRA:                   1.704
REMARK UNBOUND:                -0.423
REMARK SMILES O=c1c(O[C@H]2O[C@H](CO)[C@@H](O)[C@@H](O)[C@H]2O)c(-c2ccc(O)cc2)oc2cc(O)cc(O)c12
REMARK SMILES IDX 4 1 3 2 16 3 24 4 2 5 25 6 1 7 32 8 26 9 30 10 27 11 29 12
REMARK SMILES IDX 17 13 18 14 19 15 20 16 23 17 22 18 21 19 31 21 28 23 5 25
REMARK SMILES IDX 14 26 6 27 12 28 7 29 10 30 15 31 13 33 8 35 9 36 11 38
REMARK H PARENT 21 20 31 22 28 24 15 32 13 34 9 37 11 39
REMARK Flexibility Score: inf
ROOT
ATOM      1  O   UNL     1       6.339  -4.401   4.595  1.00  0.00    -0.454 OA
ENDROOT
BRANCH   1   2
ATOM      2  C   UNL     1       6.236  -5.690   5.190  1.00  0.00     0.214 A 
ATOM      3  C   UNL     1       7.380  -6.232   5.834  1.00  0.00     0.180 A 
ATOM      4  O   UNL     1       7.382  -7.490   6.254  1.00  0.00    -0.452 OA
ATOM      5  C   UNL     1       5.076  -6.505   5.120  1.00  0.00     0.239 A 
ATOM      6  C   UNL     1       6.341  -8.303   6.151  1.00  0.00     0.146 A 
ATOM      7  O   UNL     1       3.975  -6.030   4.728  1.00  0.00    -0.285 OA
ATOM      8  C   UNL     1       5.146  -7.852   5.552  1.00  0.00     0.111 A 
ATOM      9  C   UNL     1       6.442  -9.595   6.651  1.00  0.00     0.094 A 
ATOM     10  C   UNL     1       4.079  -8.777   5.382  1.00  0.00     0.134 A 
ATOM     11  C   UNL     1       5.359 -10.489   6.544  1.00  0.00     0.123 A 
ATOM     12  C   UNL     1       4.189 -10.092   5.884  1.00  0.00     0.093 A 
BRANCH   3  13
ATOM     13  C   UNL     1       8.606  -5.449   6.075  1.00  0.00     0.021 A 
ATOM     14  C   UNL     1       9.837  -6.108   6.281  1.00  0.00     0.016 A 
ATOM     15  C   UNL     1      11.045  -5.363   6.220  1.00  0.00     0.047 A 
ATOM     16  C   UNL     1      11.033  -4.047   5.788  1.00  0.00     0.115 A 
ATOM     17  C   UNL     1       8.607  -4.072   5.860  1.00  0.00     0.016 A 
ATOM     18  C   UNL     1       9.793  -3.406   5.613  1.00  0.00     0.047 A 
BRANCH  16  19
ATOM     19  O   UNL     1      12.230  -3.420   5.457  1.00  0.00    -0.508 OA
ATOM     20  H   UNL     1      12.376  -2.427   5.657  1.00  0.00     0.293 HD
ENDBRANCH  16  19
ENDBRANCH   3  13
BRANCH  10  21
ATOM     21  O   UNL     1       2.877  -8.424   4.758  1.00  0.00    -0.507 OA
ATOM     22  H   UNL     1       2.563  -7.456   4.709  1.00  0.00     0.293 HD
ENDBRANCH  10  21
BRANCH  11  23
ATOM     23  O   UNL     1       5.444 -11.778   7.082  1.00  0.00    -0.508 OA
ATOM     24  H   UNL     1       5.123 -12.589   6.553  1.00  0.00     0.293 HD
ENDBRANCH  11  23
ENDBRANCH   1   2
BRANCH   1  25
ATOM     25  C   UNL     1       5.667  -3.152   4.786  1.00  0.00     0.339 C 
ATOM     26  C   UNL     1       5.926  -2.659   6.254  1.00  0.00     0.214 C 
ATOM     27  O   UNL     1       4.282  -3.185   4.415  1.00  0.00    -0.332 OA
ATOM     28  C   UNL     1       5.090  -1.404   6.582  1.00  0.00     0.180 C 
ATOM     29  C   UNL     1       3.550  -1.988   4.652  1.00  0.00     0.179 C 
ATOM     30  C   UNL     1       3.625  -1.497   6.121  1.00  0.00     0.177 C 
BRANCH  26  31
ATOM     31  O   UNL     1       5.774  -3.678   7.217  1.00  0.00    -0.384 OA
ATOM     32  H   UNL     1       5.469  -3.259   8.065  1.00  0.00     0.211 HD
ENDBRANCH  26  31
BRANCH  28  33
ATOM     33  O   UNL     1       5.160  -1.073   7.964  1.00  0.00    -0.387 OA
ATOM     34  H   UNL     1       4.298  -0.646   8.186  1.00  0.00     0.211 HD
ENDBRANCH  28  33
BRANCH  29  35
ATOM     35  C   UNL     1       3.872  -0.875   3.623  1.00  0.00     0.191 C 
BRANCH  35  36
ATOM     36  O   UNL     1       5.226  -0.925   3.267  1.00  0.00    -0.394 OA
ATOM     37  H   UNL     1       5.572  -1.817   3.504  1.00  0.00     0.210 HD
ENDBRANCH  35  36
ENDBRANCH  29  35
BRANCH  30  38
ATOM     38  O   UNL     1       2.875  -2.322   6.960  1.00  0.00    -0.387 OA
ATOM     39  H   UNL     1       3.345  -3.199   7.053  1.00  0.00     0.211 HD
ENDBRANCH  30  38
ENDBRANCH   1  25
TORSDOF 11
ENDMDL
MODEL 9
REMARK VINA RESULT:    -1.952      1.502      6.962
REMARK INTER + INTRA:          -3.231
REMARK INTER:                  -2.571
REMARK INTRA:                  -0.660
REMARK UNBOUND:                -0.423
REMARK SMILES O=c1c(O[C@H]2O[C@H](CO)[C@@H](O)[C@@H](O)[C@H]2O)c(-c2ccc(O)cc2)oc2cc(O)cc(O)c12
REMARK SMILES IDX 4 1 3 2 16 3 24 4 2 5 25 6 1 7 32 8 26 9 30 10 27 11 29 12
REMARK SMILES IDX 17 13 18 14 19 15 20 16 23 17 22 18 21 19 31 21 28 23 5 25
REMARK SMILES IDX 14 26 6 27 12 28 7 29 10 30 15 31 13 33 8 35 9 36 11 38
REMARK H PARENT 21 20 31 22 28 24 15 32 13 34 9 37 11 39
REMARK Flexibility Score: inf
ROOT
ATOM      1  O   UNL     1       4.207 -13.736   7.118  1.00  0.00    -0.454 OA
ENDROOT
BRANCH   1   2
ATOM      2  C   UNL     1       3.859 -15.087   6.836  1.00  0.00     0.214 A 
ATOM      3  C   UNL     1       3.920 -16.036   7.889  1.00  0.00     0.180 A 
ATOM      4  O   UNL     1       3.768 -17.330   7.637  1.00  0.00    -0.452 OA
ATOM      5  C   UNL     1       3.521 -15.564   5.542  1.00  0.00     0.239 A 
ATOM      6  C   UNL     1       3.513 -17.822   6.434  1.00  0.00     0.146 A 
ATOM      7  O   UNL     1       3.272 -14.760   4.601  1.00  0.00    -0.285 OA
ATOM      8  C   UNL     1       3.405 -16.958   5.324  1.00  0.00     0.111 A 
ATOM      9  C   UNL     1       3.343 -19.193   6.288  1.00  0.00     0.094 A 
ATOM     10  C   UNL     1       3.215 -17.528   4.035  1.00  0.00     0.134 A 
ATOM     11  C   UNL     1       3.085 -19.749   5.020  1.00  0.00     0.123 A 
ATOM     12  C   UNL     1       3.051 -18.924   3.889  1.00  0.00     0.093 A 
BRANCH   3  13
ATOM     13  C   UNL     1       4.145 -15.655   9.296  1.00  0.00     0.021 A 
ATOM     14  C   UNL     1       3.137 -15.875  10.258  1.00  0.00     0.016 A 
ATOM     15  C   UNL     1       3.461 -15.782  11.639  1.00  0.00     0.047 A 
ATOM     16  C   UNL     1       4.780 -15.654  12.041  1.00  0.00     0.115 A 
ATOM     17  C   UNL     1       5.425 -15.307   9.726  1.00  0.00     0.016 A 
ATOM     18  C   UNL     1       5.762 -15.412  11.063  1.00  0.00     0.047 A 
BRANCH  16  19
ATOM     19  O   UNL     1       5.116 -15.852  13.376  1.00  0.00    -0.508 OA
ATOM     20  H   UNL     1       5.956 -15.426  13.775  1.00  0.00     0.293 HD
ENDBRANCH  16  19
ENDBRANCH   3  13
BRANCH  10  21
ATOM     21  O   UNL     1       3.142 -16.747   2.877  1.00  0.00    -0.507 OA
ATOM     22  H   UNL     1       3.449 -15.775   2.865  1.00  0.00     0.293 HD
ENDBRANCH  10  21
BRANCH  11  23
ATOM     23  O   UNL     1       2.875 -21.125   4.876  1.00  0.00    -0.508 OA
ATOM     24  H   UNL     1       1.932 -21.512   4.850  1.00  0.00     0.293 HD
ENDBRANCH  11  23
ENDBRANCH   1   2
BRANCH   1  25
ATOM     25  C   UNL     1       4.207 -12.521   6.361  1.00  0.00     0.339 C 
ATOM     26  C   UNL     1       5.407 -11.628   6.840  1.00  0.00     0.214 C 
ATOM     27  O   UNL     1       2.941 -11.849   6.358  1.00  0.00    -0.332 OA
ATOM     28  C   UNL     1       5.364 -10.231   6.186  1.00  0.00     0.180 C 
ATOM     29  C   UNL     1       2.906 -10.599   5.678  1.00  0.00     0.179 C 
ATOM     30  C   UNL     1       3.967  -9.588   6.185  1.00  0.00     0.177 C 
BRANCH  26  31
ATOM     31  O   UNL     1       5.526 -11.565   8.243  1.00  0.00    -0.384 OA
ATOM     32  H   UNL     1       6.491 -11.487   8.469  1.00  0.00     0.211 HD
ENDBRANCH  26  31
BRANCH  28  33
ATOM     33  O   UNL     1       6.320  -9.350   6.764  1.00  0.00    -0.387 OA
ATOM     34  H   UNL     1       5.806  -8.713   7.315  1.00  0.00     0.211 HD
ENDBRANCH  28  33
BRANCH  29  35
ATOM     35  C   UNL     1       2.906 -10.756   4.136  1.00  0.00     0.191 C 
BRANCH  35  36
ATOM     36  O   UNL     1       3.004  -9.499   3.524  1.00  0.00    -0.394 OA
ATOM     37  H   UNL     1       2.659  -8.824   4.155  1.00  0.00     0.210 HD
ENDBRANCH  35  36
ENDBRANCH  29  35
BRANCH  30  38
ATOM     38  O   UNL     1       3.626  -9.102   7.448  1.00  0.00    -0.387 OA
ATOM     39  H   UNL     1       3.828  -9.805   8.129  1.00  0.00     0.211 HD
ENDBRANCH  30  38
ENDBRANCH   1  25
TORSDOF 11
ENDMDL
