MODEL 1
REMARK VINA RESULT:    -7.364      0.000      0.000
REMARK INTER + INTRA:          -8.973
REMARK INTER:                  -9.086
REMARK INTRA:                   0.113
REMARK UNBOUND:                 0.113
REMARK SMILES COc1cc(-c2oc3cc(O)cc(O)c3c(=O)c2O)ccc1O
REMARK SMILES IDX 6 1 18 2 16 3 17 4 15 5 13 6 12 7 10 8 9 9 8 10 7 11 5 12
REMARK SMILES IDX 3 13 22 14 4 15 21 16 20 17 2 18 1 19 23 20 19 22 14 24
REMARK SMILES IDX 11 26
REMARK H PARENT 23 21 19 23 14 25 11 27
REMARK Flexibility Score: inf
ROOT
ATOM      1  C   UNL     1       2.347   4.545 -22.165  1.00  0.00     0.180 A 
ATOM      2  C   UNL     1       2.731   5.086 -20.927  1.00  0.00     0.208 A 
ATOM      3  C   UNL     1       2.254   4.492 -19.747  1.00  0.00     0.238 A 
ATOM      4  O   UNL     1       2.557   5.014 -18.643  1.00  0.00    -0.285 OA
ATOM      5  C   UNL     1       1.412   3.357 -19.820  1.00  0.00     0.111 A 
ATOM      6  C   UNL     1       0.902   2.652 -18.689  1.00  0.00     0.134 A 
ATOM      7  C   UNL     1      -0.029   1.623 -18.879  1.00  0.00     0.093 A 
ATOM      8  C   UNL     1      -0.416   1.230 -20.159  1.00  0.00     0.123 A 
ATOM      9  C   UNL     1       0.121   1.872 -21.275  1.00  0.00     0.094 A 
ATOM     10  C   UNL     1       1.023   2.928 -21.116  1.00  0.00     0.146 A 
ATOM     11  O   UNL     1       1.502   3.520 -22.203  1.00  0.00    -0.452 OA
ENDROOT
BRANCH   1  12
ATOM     12  C   UNL     1       2.830   5.100 -23.451  1.00  0.00     0.025 A 
ATOM     13  C   UNL     1       3.596   4.807 -25.755  1.00  0.00     0.161 A 
ATOM     14  C   UNL     1       3.689   6.199 -25.893  1.00  0.00     0.157 A 
ATOM     15  C   UNL     1       3.159   4.262 -24.532  1.00  0.00     0.062 A 
ATOM     16  C   UNL     1       3.340   7.035 -24.826  1.00  0.00     0.051 A 
ATOM     17  C   UNL     1       2.907   6.491 -23.616  1.00  0.00     0.016 A 
BRANCH  13  18
ATOM     18  O   UNL     1       3.945   4.002 -26.852  1.00  0.00    -0.493 OA
ATOM     19  C   UNL     1       3.008   3.395 -27.737  1.00  0.00     0.278 C 
ENDBRANCH  13  18
BRANCH  14  20
ATOM     20  O   UNL     1       4.124   6.744 -27.100  1.00  0.00    -0.504 OA
ATOM     21  H   UNL     1       3.966   7.719 -27.329  1.00  0.00     0.293 HD
ENDBRANCH  14  20
ENDBRANCH   1  12
BRANCH   2  22
ATOM     22  O   UNL     1       3.546   6.220 -20.878  1.00  0.00    -0.502 OA
ATOM     23  H   UNL     1       4.102   6.457 -20.064  1.00  0.00     0.293 HD
ENDBRANCH   2  22
BRANCH   6  24
ATOM     24  O   UNL     1       1.294   2.903 -17.372  1.00  0.00    -0.507 OA
ATOM     25  H   UNL     1       1.990   2.375 -16.869  1.00  0.00     0.293 HD
ENDBRANCH   6  24
BRANCH   8  26
ATOM     26  O   UNL     1      -1.332   0.191 -20.311  1.00  0.00    -0.508 OA
ATOM     27  H   UNL     1      -1.586  -0.410 -19.536  1.00  0.00     0.293 HD
ENDBRANCH   8  26
TORSDOF 6
ENDMDL
MODEL 2
REMARK VINA RESULT:    -6.863      1.220      2.827
REMARK INTER + INTRA:          -8.354
REMARK INTER:                  -8.648
REMARK INTRA:                   0.294
REMARK UNBOUND:                 0.113
REMARK SMILES COc1cc(-c2oc3cc(O)cc(O)c3c(=O)c2O)ccc1O
REMARK SMILES IDX 6 1 18 2 16 3 17 4 15 5 13 6 12 7 10 8 9 9 8 10 7 11 5 12
REMARK SMILES IDX 3 13 22 14 4 15 21 16 20 17 2 18 1 19 23 20 19 22 14 24
REMARK SMILES IDX 11 26
REMARK H PARENT 23 21 19 23 14 25 11 27
REMARK Flexibility Score: inf
ROOT
ATOM      1  C   UNL     1       2.242   4.299 -22.531  1.00  0.00     0.180 A 
ATOM      2  C   UNL     1       1.571   3.065 -22.574  1.00  0.00     0.208 A 
ATOM      3  C   UNL     1       1.095   2.507 -21.378  1.00  0.00     0.238 A 
ATOM      4  O   UNL     1       0.543   1.376 -21.416  1.00  0.00    -0.285 OA
ATOM      5  C   UNL     1       1.281   3.196 -20.156  1.00  0.00     0.111 A 
ATOM      6  C   UNL     1       0.805   2.743 -18.889  1.00  0.00     0.134 A 
ATOM      7  C   UNL     1       1.160   3.440 -17.727  1.00  0.00     0.093 A 
ATOM      8  C   UNL     1       1.918   4.609 -17.793  1.00  0.00     0.123 A 
ATOM      9  C   UNL     1       2.339   5.094 -19.031  1.00  0.00     0.094 A 
ATOM     10  C   UNL     1       2.031   4.400 -20.204  1.00  0.00     0.146 A 
ATOM     11  O   UNL     1       2.460   4.889 -21.362  1.00  0.00    -0.452 OA
ENDROOT
BRANCH   1  12
ATOM     12  C   UNL     1       2.751   4.962 -23.755  1.00  0.00     0.025 A 
ATOM     13  C   UNL     1       3.497   4.877 -26.082  1.00  0.00     0.161 A 
ATOM     14  C   UNL     1       3.662   6.269 -26.072  1.00  0.00     0.157 A 
ATOM     15  C   UNL     1       3.034   4.228 -24.920  1.00  0.00     0.062 A 
ATOM     16  C   UNL     1       3.360   7.004 -24.919  1.00  0.00     0.051 A 
ATOM     17  C   UNL     1       2.901   6.357 -23.771  1.00  0.00     0.016 A 
BRANCH  13  18
ATOM     18  O   UNL     1       3.800   4.176 -27.260  1.00  0.00    -0.493 OA
ATOM     19  C   UNL     1       2.955   3.197 -27.857  1.00  0.00     0.278 C 
ENDBRANCH  13  18
BRANCH  14  20
ATOM     20  O   UNL     1       4.124   6.916 -27.217  1.00  0.00    -0.504 OA
ATOM     21  H   UNL     1       3.684   6.778 -28.119  1.00  0.00     0.293 HD
ENDBRANCH  14  20
ENDBRANCH   1  12
BRANCH   2  22
ATOM     22  O   UNL     1       1.417   2.391 -23.789  1.00  0.00    -0.502 OA
ATOM     23  H   UNL     1       1.225   2.873 -24.659  1.00  0.00     0.293 HD
ENDBRANCH   2  22
BRANCH   6  24
ATOM     24  O   UNL     1      -0.036   1.639 -18.721  1.00  0.00    -0.507 OA
ATOM     25  H   UNL     1       0.281   0.689 -18.603  1.00  0.00     0.293 HD
ENDBRANCH   6  24
BRANCH   8  26
ATOM     26  O   UNL     1       2.240   5.286 -16.619  1.00  0.00    -0.508 OA
ATOM     27  H   UNL     1       2.765   6.152 -16.633  1.00  0.00     0.293 HD
ENDBRANCH   8  26
TORSDOF 6
ENDMDL
MODEL 3
REMARK VINA RESULT:    -6.788      2.303      3.775
REMARK INTER + INTRA:          -8.262
REMARK INTER:                  -7.906
REMARK INTRA:                  -0.356
REMARK UNBOUND:                 0.113
REMARK SMILES COc1cc(-c2oc3cc(O)cc(O)c3c(=O)c2O)ccc1O
REMARK SMILES IDX 6 1 18 2 16 3 17 4 15 5 13 6 12 7 10 8 9 9 8 10 7 11 5 12
REMARK SMILES IDX 3 13 22 14 4 15 21 16 20 17 2 18 1 19 23 20 19 22 14 24
REMARK SMILES IDX 11 26
REMARK H PARENT 23 21 19 23 14 25 11 27
REMARK Flexibility Score: inf
ROOT
ATOM      1  C   UNL     1       0.794   2.680 -22.608  1.00  0.00     0.180 A 
ATOM      2  C   UNL     1       0.745   1.310 -22.297  1.00  0.00     0.208 A 
ATOM      3  C   UNL     1       0.930   0.907 -20.965  1.00  0.00     0.238 A 
ATOM      4  O   UNL     1       0.938  -0.324 -20.702  1.00  0.00    -0.285 OA
ATOM      5  C   UNL     1       1.146   1.878 -19.959  1.00  0.00     0.111 A 
ATOM      6  C   UNL     1       1.306   1.586 -18.571  1.00  0.00     0.134 A 
ATOM      7  C   UNL     1       1.646   2.614 -17.683  1.00  0.00     0.093 A 
ATOM      8  C   UNL     1       1.766   3.933 -18.121  1.00  0.00     0.123 A 
ATOM      9  C   UNL     1       1.553   4.240 -19.465  1.00  0.00     0.094 A 
ATOM     10  C   UNL     1       1.249   3.229 -20.381  1.00  0.00     0.146 A 
ATOM     11  O   UNL     1       1.065   3.562 -21.653  1.00  0.00    -0.452 OA
ENDROOT
BRANCH   1  12
ATOM     12  C   UNL     1       0.583   3.183 -23.986  1.00  0.00     0.025 A 
ATOM     13  C   UNL     1       1.385   3.596 -26.259  1.00  0.00     0.161 A 
ATOM     14  C   UNL     1       0.124   4.098 -26.604  1.00  0.00     0.157 A 
ATOM     15  C   UNL     1       1.609   3.133 -24.947  1.00  0.00     0.062 A 
ATOM     16  C   UNL     1      -0.905   4.128 -25.655  1.00  0.00     0.051 A 
ATOM     17  C   UNL     1      -0.680   3.667 -24.357  1.00  0.00     0.016 A 
BRANCH  13  18
ATOM     18  O   UNL     1       2.388   3.572 -27.241  1.00  0.00    -0.493 OA
ATOM     19  C   UNL     1       3.780   3.443 -26.971  1.00  0.00     0.278 C 
ENDBRANCH  13  18
BRANCH  14  20
ATOM     20  O   UNL     1      -0.102   4.562 -27.900  1.00  0.00    -0.504 OA
ATOM     21  H   UNL     1       0.179   5.492 -28.186  1.00  0.00     0.293 HD
ENDBRANCH  14  20
ENDBRANCH   1  12
BRANCH   2  22
ATOM     22  O   UNL     1       0.551   0.366 -23.310  1.00  0.00    -0.502 OA
ATOM     23  H   UNL     1       0.744   0.566 -24.284  1.00  0.00     0.293 HD
ENDBRANCH   2  22
BRANCH   6  24
ATOM     24  O   UNL     1       1.117   0.318 -18.014  1.00  0.00    -0.507 OA
ATOM     25  H   UNL     1       1.247  -0.552 -18.508  1.00  0.00     0.293 HD
ENDBRANCH   6  24
BRANCH   8  26
ATOM     26  O   UNL     1       2.089   4.933 -17.206  1.00  0.00    -0.508 OA
ATOM     27  H   UNL     1       2.566   4.723 -16.338  1.00  0.00     0.293 HD
ENDBRANCH   8  26
TORSDOF 6
ENDMDL
MODEL 4
REMARK VINA RESULT:    -6.770      2.180      7.482
REMARK INTER + INTRA:          -8.239
REMARK INTER:                  -7.850
REMARK INTRA:                  -0.389
REMARK UNBOUND:                 0.113
REMARK SMILES COc1cc(-c2oc3cc(O)cc(O)c3c(=O)c2O)ccc1O
REMARK SMILES IDX 6 1 18 2 16 3 17 4 15 5 13 6 12 7 10 8 9 9 8 10 7 11 5 12
REMARK SMILES IDX 3 13 22 14 4 15 21 16 20 17 2 18 1 19 23 20 19 22 14 24
REMARK SMILES IDX 11 26
REMARK H PARENT 23 21 19 23 14 25 11 27
REMARK Flexibility Score: inf
ROOT
ATOM      1  C   UNL     1       0.777   2.427 -22.487  1.00  0.00     0.180 A 
ATOM      2  C   UNL     1      -0.494   2.435 -23.085  1.00  0.00     0.208 A 
ATOM      3  C   UNL     1      -0.605   2.763 -24.445  1.00  0.00     0.238 A 
ATOM      4  O   UNL     1      -1.752   2.821 -24.961  1.00  0.00    -0.285 OA
ATOM      5  C   UNL     1       0.557   3.064 -25.195  1.00  0.00     0.111 A 
ATOM      6  C   UNL     1       0.566   3.371 -26.588  1.00  0.00     0.134 A 
ATOM      7  C   UNL     1       1.758   3.782 -27.198  1.00  0.00     0.093 A 
ATOM      8  C   UNL     1       2.953   3.832 -26.480  1.00  0.00     0.123 A 
ATOM      9  C   UNL     1       2.968   3.477 -25.132  1.00  0.00     0.094 A 
ATOM     10  C   UNL     1       1.787   3.099 -24.487  1.00  0.00     0.146 A 
ATOM     11  O   UNL     1       1.842   2.779 -23.200  1.00  0.00    -0.452 OA
ENDROOT
BRANCH   1  12
ATOM     12  C   UNL     1       0.977   2.067 -21.064  1.00  0.00     0.025 A 
ATOM     13  C   UNL     1       1.188   2.689 -18.709  1.00  0.00     0.161 A 
ATOM     14  C   UNL     1       1.302   1.335 -18.369  1.00  0.00     0.157 A 
ATOM     15  C   UNL     1       1.019   3.051 -20.060  1.00  0.00     0.062 A 
ATOM     16  C   UNL     1       1.238   0.353 -19.364  1.00  0.00     0.051 A 
ATOM     17  C   UNL     1       1.069   0.715 -20.702  1.00  0.00     0.016 A 
BRANCH  13  18
ATOM     18  O   UNL     1       1.246   3.644 -17.681  1.00  0.00    -0.493 OA
ATOM     19  C   UNL     1       2.185   4.714 -17.625  1.00  0.00     0.278 C 
ENDBRANCH  13  18
BRANCH  14  20
ATOM     20  O   UNL     1       1.473   0.971 -17.034  1.00  0.00    -0.504 OA
ATOM     21  H   UNL     1       1.542   1.666 -16.299  1.00  0.00     0.293 HD
ENDBRANCH  14  20
ENDBRANCH   1  12
BRANCH   2  22
ATOM     22  O   UNL     1      -1.631   2.156 -22.322  1.00  0.00    -0.502 OA
ATOM     23  H   UNL     1      -2.166   1.303 -22.433  1.00  0.00     0.293 HD
ENDBRANCH   2  22
BRANCH   6  24
ATOM     24  O   UNL     1      -0.553   3.264 -27.418  1.00  0.00    -0.507 OA
ATOM     25  H   UNL     1      -1.106   2.428 -27.533  1.00  0.00     0.293 HD
ENDBRANCH   6  24
BRANCH   8  26
ATOM     26  O   UNL     1       4.124   4.229 -27.123  1.00  0.00    -0.508 OA
ATOM     27  H   UNL     1       4.138   4.449 -28.112  1.00  0.00     0.293 HD
ENDBRANCH   8  26
TORSDOF 6
ENDMDL
MODEL 5
REMARK VINA RESULT:    -6.740      2.740      4.398
REMARK INTER + INTRA:          -8.203
REMARK INTER:                  -7.799
REMARK INTRA:                  -0.404
REMARK UNBOUND:                 0.113
REMARK SMILES COc1cc(-c2oc3cc(O)cc(O)c3c(=O)c2O)ccc1O
REMARK SMILES IDX 6 1 18 2 16 3 17 4 15 5 13 6 12 7 10 8 9 9 8 10 7 11 5 12
REMARK SMILES IDX 3 13 22 14 4 15 21 16 20 17 2 18 1 19 23 20 19 22 14 24
REMARK SMILES IDX 11 26
REMARK H PARENT 23 21 19 23 14 25 11 27
REMARK Flexibility Score: inf
ROOT
ATOM      1  C   UNL     1       0.831   2.309 -22.363  1.00  0.00     0.180 A 
ATOM      2  C   UNL     1       0.734   1.039 -21.768  1.00  0.00     0.208 A 
ATOM      3  C   UNL     1       0.919   0.922 -20.381  1.00  0.00     0.238 A 
ATOM      4  O   UNL     1       0.884  -0.224 -19.862  1.00  0.00    -0.285 OA
ATOM      5  C   UNL     1       1.184   2.075 -19.605  1.00  0.00     0.111 A 
ATOM      6  C   UNL     1       1.349   2.079 -18.188  1.00  0.00     0.134 A 
ATOM      7  C   UNL     1       1.738   3.258 -17.540  1.00  0.00     0.093 A 
ATOM      8  C   UNL     1       1.903   4.447 -18.249  1.00  0.00     0.123 A 
ATOM      9  C   UNL     1       1.686   4.470 -19.626  1.00  0.00     0.094 A 
ATOM     10  C   UNL     1       1.334   3.301 -20.306  1.00  0.00     0.146 A 
ATOM     11  O   UNL     1       1.147   3.362 -21.619  1.00  0.00    -0.452 OA
ENDROOT
BRANCH   1  12
ATOM     12  C   UNL     1       0.624   2.516 -23.815  1.00  0.00     0.025 A 
ATOM     13  C   UNL     1      -0.845   2.882 -25.736  1.00  0.00     0.161 A 
ATOM     14  C   UNL     1       0.278   2.963 -26.570  1.00  0.00     0.157 A 
ATOM     15  C   UNL     1      -0.666   2.664 -24.356  1.00  0.00     0.062 A 
ATOM     16  C   UNL     1       1.564   2.838 -26.030  1.00  0.00     0.051 A 
ATOM     17  C   UNL     1       1.737   2.623 -24.662  1.00  0.00     0.016 A 
BRANCH  13  18
ATOM     18  O   UNL     1      -2.118   3.024 -26.313  1.00  0.00    -0.493 OA
ATOM     19  C   UNL     1      -2.993   4.122 -26.076  1.00  0.00     0.278 C 
ENDBRANCH  13  18
BRANCH  14  20
ATOM     20  O   UNL     1       0.108   3.174 -27.937  1.00  0.00    -0.504 OA
ATOM     21  H   UNL     1      -0.776   2.989 -28.397  1.00  0.00     0.293 HD
ENDBRANCH  14  20
ENDBRANCH   1  12
BRANCH   2  22
ATOM     22  O   UNL     1       0.493  -0.090 -22.555  1.00  0.00    -0.502 OA
ATOM     23  H   UNL     1      -0.349  -0.198 -23.108  1.00  0.00     0.293 HD
ENDBRANCH   2  22
BRANCH   6  24
ATOM     24  O   UNL     1       1.119   0.967 -17.373  1.00  0.00    -0.507 OA
ATOM     25  H   UNL     1       1.663   0.117 -17.393  1.00  0.00     0.293 HD
ENDBRANCH   6  24
BRANCH   8  26
ATOM     26  O   UNL     1       2.275   5.606 -17.569  1.00  0.00    -0.508 OA
ATOM     27  H   UNL     1       2.913   6.278 -17.979  1.00  0.00     0.293 HD
ENDBRANCH   8  26
TORSDOF 6
ENDMDL
MODEL 6
REMARK VINA RESULT:    -6.676      2.639      3.829
REMARK INTER + INTRA:          -8.123
REMARK INTER:                  -7.760
REMARK INTRA:                  -0.364
REMARK UNBOUND:                 0.113
REMARK SMILES COc1cc(-c2oc3cc(O)cc(O)c3c(=O)c2O)ccc1O
REMARK SMILES IDX 6 1 18 2 16 3 17 4 15 5 13 6 12 7 10 8 9 9 8 10 7 11 5 12
REMARK SMILES IDX 3 13 22 14 4 15 21 16 20 17 2 18 1 19 23 20 19 22 14 24
REMARK SMILES IDX 11 26
REMARK H PARENT 23 21 19 23 14 25 11 27
REMARK Flexibility Score: inf
ROOT
ATOM      1  C   UNL     1       0.678   2.689 -23.870  1.00  0.00     0.180 A 
ATOM      2  C   UNL     1      -0.715   2.871 -23.880  1.00  0.00     0.208 A 
ATOM      3  C   UNL     1      -1.492   2.236 -22.899  1.00  0.00     0.238 A 
ATOM      4  O   UNL     1      -2.744   2.358 -22.946  1.00  0.00    -0.285 OA
ATOM      5  C   UNL     1      -0.866   1.440 -21.910  1.00  0.00     0.111 A 
ATOM      6  C   UNL     1      -1.550   0.783 -20.844  1.00  0.00     0.134 A 
ATOM      7  C   UNL     1      -0.845  -0.084 -20.000  1.00  0.00     0.093 A 
ATOM      8  C   UNL     1       0.530  -0.267 -20.143  1.00  0.00     0.123 A 
ATOM      9  C   UNL     1       1.221   0.417 -21.144  1.00  0.00     0.094 A 
ATOM     10  C   UNL     1       0.538   1.260 -22.024  1.00  0.00     0.146 A 
ATOM     11  O   UNL     1       1.230   1.883 -22.970  1.00  0.00    -0.452 OA
ENDROOT
BRANCH   1  12
ATOM     12  C   UNL     1       1.566   3.346 -24.857  1.00  0.00     0.025 A 
ATOM     13  C   UNL     1       3.154   5.102 -25.472  1.00  0.00     0.161 A 
ATOM     14  C   UNL     1       3.282   4.529 -26.744  1.00  0.00     0.157 A 
ATOM     15  C   UNL     1       2.297   4.502 -24.528  1.00  0.00     0.062 A 
ATOM     16  C   UNL     1       2.572   3.366 -27.067  1.00  0.00     0.051 A 
ATOM     17  C   UNL     1       1.725   2.775 -26.128  1.00  0.00     0.016 A 
BRANCH  13  18
ATOM     18  O   UNL     1       3.891   6.262 -25.183  1.00  0.00    -0.493 OA
ATOM     19  C   UNL     1       3.364   7.584 -25.226  1.00  0.00     0.278 C 
ENDBRANCH  13  18
BRANCH  14  20
ATOM     20  O   UNL     1       4.125   5.121 -27.685  1.00  0.00    -0.504 OA
ATOM     21  H   UNL     1       5.132   5.112 -27.574  1.00  0.00     0.293 HD
ENDBRANCH  14  20
ENDBRANCH   1  12
BRANCH   2  22
ATOM     22  O   UNL     1      -1.316   3.643 -24.879  1.00  0.00    -0.502 OA
ATOM     23  H   UNL     1      -0.837   4.408 -25.337  1.00  0.00     0.293 HD
ENDBRANCH   2  22
BRANCH   6  24
ATOM     24  O   UNL     1      -2.905   0.968 -20.557  1.00  0.00    -0.507 OA
ATOM     25  H   UNL     1      -3.353   1.865 -20.450  1.00  0.00     0.293 HD
ENDBRANCH   6  24
BRANCH   8  26
ATOM     26  O   UNL     1       1.202  -1.125 -19.275  1.00  0.00    -0.508 OA
ATOM     27  H   UNL     1       0.867  -1.298 -18.335  1.00  0.00     0.293 HD
ENDBRANCH   8  26
TORSDOF 6
ENDMDL
MODEL 7
REMARK VINA RESULT:    -6.492      3.139      7.018
REMARK INTER + INTRA:          -7.897
REMARK INTER:                  -7.549
REMARK INTRA:                  -0.348
REMARK UNBOUND:                 0.113
REMARK SMILES COc1cc(-c2oc3cc(O)cc(O)c3c(=O)c2O)ccc1O
REMARK SMILES IDX 6 1 18 2 16 3 17 4 15 5 13 6 12 7 10 8 9 9 8 10 7 11 5 12
REMARK SMILES IDX 3 13 22 14 4 15 21 16 20 17 2 18 1 19 23 20 19 22 14 24
REMARK SMILES IDX 11 26
REMARK H PARENT 23 21 19 23 14 25 11 27
REMARK Flexibility Score: inf
ROOT
ATOM      1  C   UNL     1       0.621   2.847 -22.976  1.00  0.00     0.180 A 
ATOM      2  C   UNL     1       1.622   3.386 -23.802  1.00  0.00     0.208 A 
ATOM      3  C   UNL     1       1.283   3.805 -25.098  1.00  0.00     0.238 A 
ATOM      4  O   UNL     1       2.194   4.237 -25.851  1.00  0.00    -0.285 OA
ATOM      5  C   UNL     1      -0.054   3.694 -25.548  1.00  0.00     0.111 A 
ATOM      6  C   UNL     1      -0.518   4.124 -26.827  1.00  0.00     0.134 A 
ATOM      7  C   UNL     1      -1.834   3.844 -27.215  1.00  0.00     0.093 A 
ATOM      8  C   UNL     1      -2.722   3.211 -26.345  1.00  0.00     0.123 A 
ATOM      9  C   UNL     1      -2.297   2.840 -25.069  1.00  0.00     0.094 A 
ATOM     10  C   UNL     1      -0.978   3.072 -24.668  1.00  0.00     0.146 A 
ATOM     11  O   UNL     1      -0.611   2.694 -23.449  1.00  0.00    -0.452 OA
ENDROOT
BRANCH   1  12
ATOM     12  C   UNL     1       0.896   2.407 -21.589  1.00  0.00     0.025 A 
ATOM     13  C   UNL     1       1.321   2.901 -19.231  1.00  0.00     0.161 A 
ATOM     14  C   UNL     1       1.361   1.527 -18.959  1.00  0.00     0.157 A 
ATOM     15  C   UNL     1       1.081   3.337 -20.550  1.00  0.00     0.062 A 
ATOM     16  C   UNL     1       1.155   0.600 -19.987  1.00  0.00     0.051 A 
ATOM     17  C   UNL     1       0.917   1.036 -21.292  1.00  0.00     0.016 A 
BRANCH  13  18
ATOM     18  O   UNL     1       1.521   3.800 -18.171  1.00  0.00    -0.493 OA
ATOM     19  C   UNL     1       2.458   4.873 -18.189  1.00  0.00     0.278 C 
ENDBRANCH  13  18
BRANCH  14  20
ATOM     20  O   UNL     1       1.602   1.090 -17.657  1.00  0.00    -0.504 OA
ATOM     21  H   UNL     1       2.263   1.564 -17.052  1.00  0.00     0.293 HD
ENDBRANCH  14  20
ENDBRANCH   1  12
BRANCH   2  22
ATOM     22  O   UNL     1       2.941   3.467 -23.346  1.00  0.00    -0.502 OA
ATOM     23  H   UNL     1       3.630   4.071 -23.777  1.00  0.00     0.293 HD
ENDBRANCH   2  22
BRANCH   6  24
ATOM     24  O   UNL     1       0.260   4.845 -27.736  1.00  0.00    -0.507 OA
ATOM     25  H   UNL     1       0.362   4.617 -28.714  1.00  0.00     0.293 HD
ENDBRANCH   6  24
BRANCH   8  26
ATOM     26  O   UNL     1      -4.029   2.964 -26.757  1.00  0.00    -0.508 OA
ATOM     27  H   UNL     1      -4.509   3.584 -27.399  1.00  0.00     0.293 HD
ENDBRANCH   8  26
TORSDOF 6
ENDMDL
MODEL 8
REMARK VINA RESULT:    -6.410      1.816      3.548
REMARK INTER + INTRA:          -7.796
REMARK INTER:                  -7.518
REMARK INTRA:                  -0.278
REMARK UNBOUND:                 0.113
REMARK SMILES COc1cc(-c2oc3cc(O)cc(O)c3c(=O)c2O)ccc1O
REMARK SMILES IDX 6 1 18 2 16 3 17 4 15 5 13 6 12 7 10 8 9 9 8 10 7 11 5 12
REMARK SMILES IDX 3 13 22 14 4 15 21 16 20 17 2 18 1 19 23 20 19 22 14 24
REMARK SMILES IDX 11 26
REMARK H PARENT 23 21 19 23 14 25 11 27
REMARK Flexibility Score: inf
ROOT
ATOM      1  C   UNL     1       1.445   2.851 -23.653  1.00  0.00     0.180 A 
ATOM      2  C   UNL     1       0.713   1.654 -23.738  1.00  0.00     0.208 A 
ATOM      3  C   UNL     1       0.145   1.118 -22.572  1.00  0.00     0.238 A 
ATOM      4  O   UNL     1      -0.462   0.019 -22.646  1.00  0.00    -0.285 OA
ATOM      5  C   UNL     1       0.302   1.792 -21.337  1.00  0.00     0.111 A 
ATOM      6  C   UNL     1      -0.264   1.361 -20.100  1.00  0.00     0.134 A 
ATOM      7  C   UNL     1       0.066   2.035 -18.918  1.00  0.00     0.093 A 
ATOM      8  C   UNL     1       0.887   3.162 -18.936  1.00  0.00     0.123 A 
ATOM      9  C   UNL     1       1.398   3.628 -20.148  1.00  0.00     0.094 A 
ATOM     10  C   UNL     1       1.116   2.955 -21.339  1.00  0.00     0.146 A 
ATOM     11  O   UNL     1       1.631   3.425 -22.469  1.00  0.00    -0.452 OA
ENDROOT
BRANCH   1  12
ATOM     12  C   UNL     1       2.052   3.490 -24.843  1.00  0.00     0.025 A 
ATOM     13  C   UNL     1       1.849   4.648 -26.988  1.00  0.00     0.161 A 
ATOM     14  C   UNL     1       3.245   4.746 -27.059  1.00  0.00     0.157 A 
ATOM     15  C   UNL     1       1.256   4.024 -25.872  1.00  0.00     0.062 A 
ATOM     16  C   UNL     1       4.038   4.235 -26.024  1.00  0.00     0.051 A 
ATOM     17  C   UNL     1       3.446   3.618 -24.921  1.00  0.00     0.016 A 
BRANCH  13  18
ATOM     18  O   UNL     1       1.086   5.182 -28.039  1.00  0.00    -0.493 OA
ATOM     19  C   UNL     1       0.188   4.429 -28.848  1.00  0.00     0.278 C 
ENDBRANCH  13  18
BRANCH  14  20
ATOM     20  O   UNL     1       3.838   5.358 -28.162  1.00  0.00    -0.504 OA
ATOM     21  H   UNL     1       4.840   5.329 -28.310  1.00  0.00     0.293 HD
ENDBRANCH  14  20
ENDBRANCH   1  12
BRANCH   2  22
ATOM     22  O   UNL     1       0.589   0.993 -24.964  1.00  0.00    -0.502 OA
ATOM     23  H   UNL     1       0.236   0.047 -25.038  1.00  0.00     0.293 HD
ENDBRANCH   2  22
BRANCH   6  24
ATOM     24  O   UNL     1      -1.168   0.303 -19.984  1.00  0.00    -0.507 OA
ATOM     25  H   UNL     1      -2.137   0.401 -19.722  1.00  0.00     0.293 HD
ENDBRANCH   6  24
BRANCH   8  26
ATOM     26  O   UNL     1       1.181   3.818 -17.743  1.00  0.00    -0.508 OA
ATOM     27  H   UNL     1       1.761   3.388 -17.031  1.00  0.00     0.293 HD
ENDBRANCH   8  26
TORSDOF 6
ENDMDL
