MODEL 1
REMARK VINA RESULT:    15.455      0.000      0.000
REMARK INTER + INTRA:          22.255
REMARK INTER:                  21.327
REMARK INTRA:                   0.928
REMARK UNBOUND:                 0.928
REMARK SMILES CC[C@@H](CC[C@@H](C)[C@@H]1CC[C@H]2[C@H]3CC=C4C[C@@H](O)CC[C@@]4(C)[C@H]3CC[C@]21C)C(C)C
REMARK SMILES IDX 5 1 4 2 3 3 2 4 1 5 28 6 29 7 30 8 6 9 7 10 8 11 9 12 26 13
REMARK SMILES IDX 10 14 11 15 25 16 27 17 12 18 24 19 23 20 13 21 21 22 14 23
REMARK SMILES IDX 15 24 20 25 22 26 16 27 19 28 17 29 18 30
REMARK H PARENT 18 31
REMARK Flexibility Score: inf
ROOT
ATOM      1  C   UNL     1       6.634 -34.244  14.634  1.00  0.00     0.004 C 
ENDROOT
BRANCH   1   2
ATOM      2  C   UNL     1       6.108 -35.519  13.921  1.00  0.00     0.004 C 
BRANCH   2   3
ATOM      3  C   UNL     1       7.021 -36.772  14.102  1.00  0.00    -0.009 C 
BRANCH   3   4
ATOM      4  C   UNL     1       7.190 -37.125  15.608  1.00  0.00     0.000 C 
ATOM      5  C   UNL     1       5.880 -37.050  16.399  1.00  0.00     0.004 C 
ENDBRANCH   3   4
BRANCH   3   6
ATOM      6  C   UNL     1       8.427 -36.650  13.417  1.00  0.00    -0.014 C 
ATOM      7  C   UNL     1       9.602 -37.125  14.294  1.00  0.00     0.007 C 
ATOM      8  C   UNL     1       8.717 -35.244  12.875  1.00  0.00     0.007 C 
ENDBRANCH   3   6
ENDBRANCH   2   3
ENDBRANCH   1   2
BRANCH   1   9
ATOM      9  C   UNL     1       7.098 -33.102  13.685  1.00  0.00    -0.011 C 
ATOM     10  C   UNL     1       5.878 -32.583  12.893  1.00  0.00     0.008 C 
BRANCH   9  11
ATOM     11  C   UNL     1       7.965 -31.997  14.431  1.00  0.00    -0.002 C 
ATOM     12  C   UNL     1       8.618 -30.989  13.469  1.00  0.00     0.005 C 
ATOM     13  C   UNL     1       9.212 -32.541  15.225  1.00  0.00    -0.026 C 
ATOM     14  C   UNL     1       9.965 -31.588  13.076  1.00  0.00     0.005 C 
ATOM     15  C   UNL     1      10.278 -32.689  14.112  1.00  0.00    -0.001 C 
ATOM     16  C   UNL     1       9.662 -31.508  16.326  1.00  0.00     0.007 C 
ATOM     17  C   UNL     1       8.975 -33.900  15.939  1.00  0.00     0.012 C 
ATOM     18  C   UNL     1      11.750 -32.727  14.631  1.00  0.00     0.000 C 
ATOM     19  C   UNL     1      10.914 -30.687  15.986  1.00  0.00     0.005 C 
ATOM     20  C   UNL     1      12.130 -31.585  15.655  1.00  0.00     0.003 C 
ATOM     21  C   UNL     1      12.743 -32.905  13.455  1.00  0.00     0.031 C 
ATOM     22  C   UNL     1      13.457 -30.788  15.285  1.00  0.00    -0.008 C 
ATOM     23  C   UNL     1      13.227 -31.590  12.934  1.00  0.00    -0.027 C 
ATOM     24  C   UNL     1      13.566 -30.597  13.772  1.00  0.00    -0.065 C 
ATOM     25  C   UNL     1      13.522 -29.380  15.962  1.00  0.00     0.014 C 
ATOM     26  C   UNL     1      14.683 -31.601  15.785  1.00  0.00     0.016 C 
ATOM     27  C   UNL     1      13.969 -29.251  13.206  1.00  0.00     0.063 C 
ATOM     28  C   UNL     1      14.757 -28.550  15.554  1.00  0.00     0.033 C 
ATOM     29  C   UNL     1      15.101 -28.632  14.045  1.00  0.00     0.118 C 
BRANCH  29  30
ATOM     30  O   UNL     1      15.398 -27.345  13.564  1.00  0.00    -0.393 OA
ATOM     31  H   UNL     1      14.690 -27.112  12.909  1.00  0.00     0.210 HD
ENDBRANCH  29  30
ENDBRANCH   9  11
ENDBRANCH   1   9
TORSDOF 7
ENDMDL
MODEL 2
REMARK VINA RESULT:    16.634      1.996      4.157
REMARK INTER + INTRA:          23.883
REMARK INTER:                  21.338
REMARK INTRA:                   2.545
REMARK UNBOUND:                 0.928
REMARK SMILES CC[C@@H](CC[C@@H](C)[C@@H]1CC[C@H]2[C@H]3CC=C4C[C@@H](O)CC[C@@]4(C)[C@H]3CC[C@]21C)C(C)C
REMARK SMILES IDX 5 1 4 2 3 3 2 4 1 5 28 6 29 7 30 8 6 9 7 10 8 11 9 12 26 13
REMARK SMILES IDX 10 14 11 15 25 16 27 17 12 18 24 19 23 20 13 21 21 22 14 23
REMARK SMILES IDX 15 24 20 25 22 26 16 27 19 28 17 29 18 30
REMARK H PARENT 18 31
REMARK Flexibility Score: inf
ROOT
ATOM      1  C   UNL     1       7.031 -36.330  16.973  1.00  0.00     0.004 C 
ENDROOT
BRANCH   1   2
ATOM      2  C   UNL     1       6.911 -34.875  17.504  1.00  0.00     0.004 C 
BRANCH   2   3
ATOM      3  C   UNL     1       8.076 -34.445  18.449  1.00  0.00    -0.009 C 
BRANCH   3   4
ATOM      4  C   UNL     1       8.039 -35.249  19.781  1.00  0.00     0.000 C 
ATOM      5  C   UNL     1       8.418 -36.724  19.611  1.00  0.00     0.004 C 
ENDBRANCH   3   4
BRANCH   3   6
ATOM      6  C   UNL     1       8.129 -32.907  18.751  1.00  0.00    -0.014 C 
ATOM      7  C   UNL     1       7.302 -32.043  17.780  1.00  0.00     0.007 C 
ATOM      8  C   UNL     1       9.559 -32.358  18.847  1.00  0.00     0.007 C 
ENDBRANCH   3   6
ENDBRANCH   2   3
ENDBRANCH   1   2
BRANCH   1   9
ATOM      9  C   UNL     1       7.079 -36.464  15.424  1.00  0.00    -0.011 C 
ATOM     10  C   UNL     1       5.875 -35.708  14.820  1.00  0.00     0.008 C 
BRANCH   9  11
ATOM     11  C   UNL     1       8.504 -36.098  14.820  1.00  0.00    -0.002 C 
ATOM     12  C   UNL     1       9.511 -35.630  15.886  1.00  0.00     0.005 C 
ATOM     13  C   UNL     1       8.518 -34.888  13.811  1.00  0.00    -0.026 C 
ATOM     14  C   UNL     1       9.326 -34.121  16.014  1.00  0.00     0.005 C 
ATOM     15  C   UNL     1       8.555 -33.663  14.757  1.00  0.00    -0.001 C 
ATOM     16  C   UNL     1       9.795 -34.950  12.890  1.00  0.00     0.007 C 
ATOM     17  C   UNL     1       7.280 -34.820  12.875  1.00  0.00     0.012 C 
ATOM     18  C   UNL     1       9.072 -32.350  14.091  1.00  0.00     0.000 C 
ATOM     19  C   UNL     1      10.915 -33.962  13.252  1.00  0.00     0.005 C 
ATOM     20  C   UNL     1      10.418 -32.497  13.274  1.00  0.00     0.003 C 
ATOM     21  C   UNL     1       9.048 -31.175  15.100  1.00  0.00     0.031 C 
ATOM     22  C   UNL     1      11.534 -31.428  13.652  1.00  0.00    -0.008 C 
ATOM     23  C   UNL     1      10.354 -31.029  15.814  1.00  0.00    -0.027 C 
ATOM     24  C   UNL     1      11.518 -31.141  15.154  1.00  0.00    -0.065 C 
ATOM     25  C   UNL     1      12.973 -31.896  13.257  1.00  0.00     0.014 C 
ATOM     26  C   UNL     1      11.245 -30.111  12.879  1.00  0.00     0.016 C 
ATOM     27  C   UNL     1      12.820 -31.073  15.925  1.00  0.00     0.063 C 
ATOM     28  C   UNL     1      14.084 -30.916  13.688  1.00  0.00     0.033 C 
ATOM     29  C   UNL     1      13.890 -30.328  15.109  1.00  0.00     0.118 C 
BRANCH  29  30
ATOM     30  O   UNL     1      15.116 -30.356  15.796  1.00  0.00    -0.393 OA
ATOM     31  H   UNL     1      15.398 -31.306  15.843  1.00  0.00     0.210 HD
ENDBRANCH  29  30
ENDBRANCH   9  11
ENDBRANCH   1   9
TORSDOF 7
ENDMDL
MODEL 3
REMARK VINA RESULT:    17.355      0.855      1.485
REMARK INTER + INTRA:          24.878
REMARK INTER:                  21.709
REMARK INTRA:                   3.169
REMARK UNBOUND:                 0.928
REMARK SMILES CC[C@@H](CC[C@@H](C)[C@@H]1CC[C@H]2[C@H]3CC=C4C[C@@H](O)CC[C@@]4(C)[C@H]3CC[C@]21C)C(C)C
REMARK SMILES IDX 5 1 4 2 3 3 2 4 1 5 28 6 29 7 30 8 6 9 7 10 8 11 9 12 26 13
REMARK SMILES IDX 10 14 11 15 25 16 27 17 12 18 24 19 23 20 13 21 21 22 14 23
REMARK SMILES IDX 15 24 20 25 22 26 16 27 19 28 17 29 18 30
REMARK H PARENT 18 31
REMARK Flexibility Score: inf
ROOT
ATOM      1  C   UNL     1       7.944 -34.505  13.687  1.00  0.00     0.004 C 
ENDROOT
BRANCH   1   2
ATOM      2  C   UNL     1       6.667 -35.386  13.622  1.00  0.00     0.004 C 
BRANCH   2   3
ATOM      3  C   UNL     1       6.172 -35.894  15.012  1.00  0.00    -0.009 C 
BRANCH   3   4
ATOM      4  C   UNL     1       6.084 -34.724  16.033  1.00  0.00     0.000 C 
ATOM      5  C   UNL     1       5.879 -33.357  15.374  1.00  0.00     0.004 C 
ENDBRANCH   3   4
BRANCH   3   6
ATOM      6  C   UNL     1       7.024 -37.068  15.611  1.00  0.00    -0.014 C 
ATOM      7  C   UNL     1       7.031 -37.124  17.150  1.00  0.00     0.007 C 
ATOM      8  C   UNL     1       8.464 -37.102  15.082  1.00  0.00     0.007 C 
ENDBRANCH   3   6
ENDBRANCH   2   3
ENDBRANCH   1   2
BRANCH   1   9
ATOM      9  C   UNL     1       7.774 -33.056  13.148  1.00  0.00    -0.011 C 
ATOM     10  C   UNL     1       6.275 -32.795  12.882  1.00  0.00     0.008 C 
BRANCH   9  11
ATOM     11  C   UNL     1       8.519 -31.976  14.046  1.00  0.00    -0.002 C 
ATOM     12  C   UNL     1       9.172 -30.851  13.222  1.00  0.00     0.005 C 
ATOM     13  C   UNL     1       9.743 -32.518  14.877  1.00  0.00    -0.026 C 
ATOM     14  C   UNL     1      10.576 -31.337  12.875  1.00  0.00     0.005 C 
ATOM     15  C   UNL     1      10.887 -32.506  13.834  1.00  0.00    -0.001 C 
ATOM     16  C   UNL     1      10.054 -31.563  16.091  1.00  0.00     0.007 C 
ATOM     17  C   UNL     1       9.543 -33.946  15.454  1.00  0.00     0.012 C 
ATOM     18  C   UNL     1      12.321 -32.509  14.451  1.00  0.00     0.000 C 
ATOM     19  C   UNL     1      11.273 -30.647  15.911  1.00  0.00     0.005 C 
ATOM     20  C   UNL     1      12.562 -31.443  15.593  1.00  0.00     0.003 C 
ATOM     21  C   UNL     1      13.398 -32.526  13.338  1.00  0.00     0.031 C 
ATOM     22  C   UNL     1      13.859 -30.544  15.387  1.00  0.00    -0.008 C 
ATOM     23  C   UNL     1      13.834 -31.145  12.966  1.00  0.00    -0.027 C 
ATOM     24  C   UNL     1      14.055 -30.213  13.907  1.00  0.00    -0.065 C 
ATOM     25  C   UNL     1      13.791 -29.200  16.184  1.00  0.00     0.014 C 
ATOM     26  C   UNL     1      15.097 -31.329  15.902  1.00  0.00     0.016 C 
ATOM     27  C   UNL     1      14.411 -28.802  13.488  1.00  0.00     0.063 C 
ATOM     28  C   UNL     1      14.997 -28.270  15.937  1.00  0.00     0.033 C 
ATOM     29  C   UNL     1      15.444 -28.198  14.455  1.00  0.00     0.118 C 
BRANCH  29  30
ATOM     30  O   UNL     1      15.693 -26.859  14.108  1.00  0.00    -0.393 OA
ATOM     31  H   UNL     1      16.213 -26.872  13.263  1.00  0.00     0.210 HD
ENDBRANCH  29  30
ENDBRANCH   9  11
ENDBRANCH   1   9
TORSDOF 7
ENDMDL
MODEL 4
REMARK VINA RESULT:    18.453      1.936      4.115
REMARK INTER + INTRA:          26.392
REMARK INTER:                  20.082
REMARK INTRA:                   6.310
REMARK UNBOUND:                 0.928
REMARK SMILES CC[C@@H](CC[C@@H](C)[C@@H]1CC[C@H]2[C@H]3CC=C4C[C@@H](O)CC[C@@]4(C)[C@H]3CC[C@]21C)C(C)C
REMARK SMILES IDX 5 1 4 2 3 3 2 4 1 5 28 6 29 7 30 8 6 9 7 10 8 11 9 12 26 13
REMARK SMILES IDX 10 14 11 15 25 16 27 17 12 18 24 19 23 20 13 21 21 22 14 23
REMARK SMILES IDX 15 24 20 25 22 26 16 27 19 28 17 29 18 30
REMARK H PARENT 18 31
REMARK Flexibility Score: inf
ROOT
ATOM      1  C   UNL     1       6.326 -35.155  16.089  1.00  0.00     0.004 C 
ENDROOT
BRANCH   1   2
ATOM      2  C   UNL     1       7.273 -34.198  16.864  1.00  0.00     0.004 C 
BRANCH   2   3
ATOM      3  C   UNL     1       7.532 -34.620  18.344  1.00  0.00    -0.009 C 
BRANCH   3   4
ATOM      4  C   UNL     1       8.727 -33.828  18.947  1.00  0.00     0.000 C 
ATOM      5  C   UNL     1       8.365 -32.394  19.348  1.00  0.00     0.004 C 
ENDBRANCH   3   4
BRANCH   3   6
ATOM      6  C   UNL     1       7.750 -36.161  18.547  1.00  0.00    -0.014 C 
ATOM      7  C   UNL     1       6.461 -36.999  18.457  1.00  0.00     0.007 C 
ATOM      8  C   UNL     1       8.502 -36.499  19.842  1.00  0.00     0.007 C 
ENDBRANCH   3   6
ENDBRANCH   2   3
ENDBRANCH   1   2
BRANCH   1   9
ATOM      9  C   UNL     1       7.025 -36.367  15.410  1.00  0.00    -0.011 C 
ATOM     10  C   UNL     1       6.031 -37.037  14.436  1.00  0.00     0.008 C 
BRANCH   9  11
ATOM     11  C   UNL     1       8.447 -35.995  14.804  1.00  0.00    -0.002 C 
ATOM     12  C   UNL     1       9.458 -35.535  15.871  1.00  0.00     0.005 C 
ATOM     13  C   UNL     1       8.456 -34.776  13.806  1.00  0.00    -0.026 C 
ATOM     14  C   UNL     1       9.272 -34.028  16.013  1.00  0.00     0.005 C 
ATOM     15  C   UNL     1       8.496 -33.560  14.762  1.00  0.00    -0.001 C 
ATOM     16  C   UNL     1       9.731 -34.828  12.880  1.00  0.00     0.007 C 
ATOM     17  C   UNL     1       7.215 -34.701  12.875  1.00  0.00     0.012 C 
ATOM     18  C   UNL     1       9.009 -32.240  14.105  1.00  0.00     0.000 C 
ATOM     19  C   UNL     1      10.850 -33.843  13.246  1.00  0.00     0.005 C 
ATOM     20  C   UNL     1      10.352 -32.378  13.283  1.00  0.00     0.003 C 
ATOM     21  C   UNL     1       8.987 -31.074  15.125  1.00  0.00     0.031 C 
ATOM     22  C   UNL     1      11.468 -31.311  13.666  1.00  0.00    -0.008 C 
ATOM     23  C   UNL     1      10.296 -30.932  15.835  1.00  0.00    -0.027 C 
ATOM     24  C   UNL     1      11.457 -31.037  15.170  1.00  0.00    -0.065 C 
ATOM     25  C   UNL     1      12.906 -31.774  13.262  1.00  0.00     0.014 C 
ATOM     26  C   UNL     1      11.175 -29.988  12.905  1.00  0.00     0.016 C 
ATOM     27  C   UNL     1      12.762 -30.975  15.937  1.00  0.00     0.063 C 
ATOM     28  C   UNL     1      14.018 -30.797  13.697  1.00  0.00     0.033 C 
ATOM     29  C   UNL     1      13.828 -30.221  15.124  1.00  0.00     0.118 C 
BRANCH  29  30
ATOM     30  O   UNL     1      15.056 -30.253  15.807  1.00  0.00    -0.393 OA
ATOM     31  H   UNL     1      14.847 -30.258  16.777  1.00  0.00     0.210 HD
ENDBRANCH  29  30
ENDBRANCH   9  11
ENDBRANCH   1   9
TORSDOF 7
ENDMDL
