MODEL 1
REMARK VINA RESULT:    -6.183      0.000      0.000
REMARK INTER + INTRA:          -7.831
REMARK INTER:                  -7.448
REMARK INTRA:                  -0.382
REMARK UNBOUND:                -0.382
REMARK SMILES O=c1c(O)c(-c2ccc(O)cc2O)oc2cc(O)cc(O)c12
REMARK SMILES IDX 5 1 3 2 2 3 1 4 22 5 20 6 19 7 17 8 16 9 15 10 14 11 6 12
REMARK SMILES IDX 8 13 7 14 9 15 11 16 12 17 10 18 13 20 4 22 21 24 18 26
REMARK H PARENT 10 19 13 21 4 23 21 25 18 27
REMARK Flexibility Score: inf
ROOT
ATOM      1  C   UNL     1       9.286  12.207  37.613  1.00  0.00     0.184 A 
ATOM      2  C   UNL     1       8.663  12.210  38.873  1.00  0.00     0.208 A 
ATOM      3  C   UNL     1       8.692  11.039  39.646  1.00  0.00     0.238 A 
ATOM      4  O   UNL     1       8.147  11.033  40.783  1.00  0.00    -0.285 OA
ATOM      5  C   UNL     1       9.324   9.885  39.138  1.00  0.00     0.111 A 
ATOM      6  C   UNL     1       9.394   8.664  39.852  1.00  0.00     0.134 A 
ATOM      7  C   UNL     1      10.033   7.557  39.274  1.00  0.00     0.093 A 
ATOM      8  C   UNL     1      10.599   7.645  38.000  1.00  0.00     0.123 A 
ATOM      9  C   UNL     1      10.533   8.849  37.291  1.00  0.00     0.094 A 
ATOM     10  C   UNL     1       9.904   9.965  37.849  1.00  0.00     0.146 A 
ATOM     11  O   UNL     1       9.859  11.097  37.157  1.00  0.00    -0.451 OA
ENDROOT
BRANCH   1  12
ATOM     12  C   UNL     1       9.301  13.408  36.752  1.00  0.00     0.063 A 
ATOM     13  C   UNL     1       8.391  14.609  34.845  1.00  0.00     0.047 A 
ATOM     14  C   UNL     1       8.398  13.490  35.681  1.00  0.00     0.020 A 
ATOM     15  C   UNL     1       9.296  15.655  35.061  1.00  0.00     0.119 A 
ATOM     16  C   UNL     1      10.215  15.571  36.111  1.00  0.00     0.093 A 
ATOM     17  C   UNL     1      10.233  14.448  36.952  1.00  0.00     0.130 A 
BRANCH  15  18
ATOM     18  O   UNL     1       9.295  16.777  34.236  1.00  0.00    -0.508 OA
ATOM     19  H   UNL     1       8.640  16.869  33.468  1.00  0.00     0.293 HD
ENDBRANCH  15  18
BRANCH  17  20
ATOM     20  O   UNL     1      11.188  14.356  37.965  1.00  0.00    -0.507 OA
ATOM     21  H   UNL     1      11.486  13.462  38.335  1.00  0.00     0.293 HD
ENDBRANCH  17  20
ENDBRANCH   1  12
BRANCH   2  22
ATOM     22  O   UNL     1       8.006  13.356  39.328  1.00  0.00    -0.502 OA
ATOM     23  H   UNL     1       7.560  13.400  40.238  1.00  0.00     0.293 HD
ENDBRANCH   2  22
BRANCH   6  24
ATOM     24  O   UNL     1       8.837   8.542  41.125  1.00  0.00    -0.507 OA
ATOM     25  H   UNL     1       9.356   8.787  41.960  1.00  0.00     0.293 HD
ENDBRANCH   6  24
BRANCH   8  26
ATOM     26  O   UNL     1      11.228   6.531  37.449  1.00  0.00    -0.508 OA
ATOM     27  H   UNL     1      10.942   6.150  36.554  1.00  0.00     0.293 HD
ENDBRANCH   8  26
TORSDOF 6
ENDMDL
MODEL 2
REMARK VINA RESULT:    -6.120      1.060      1.576
REMARK INTER + INTRA:          -7.755
REMARK INTER:                  -7.347
REMARK INTRA:                  -0.407
REMARK UNBOUND:                -0.382
REMARK SMILES O=c1c(O)c(-c2ccc(O)cc2O)oc2cc(O)cc(O)c12
REMARK SMILES IDX 5 1 3 2 2 3 1 4 22 5 20 6 19 7 17 8 16 9 15 10 14 11 6 12
REMARK SMILES IDX 8 13 7 14 9 15 11 16 12 17 10 18 13 20 4 22 21 24 18 26
REMARK H PARENT 10 19 13 21 4 23 21 25 18 27
REMARK Flexibility Score: inf
ROOT
ATOM      1  C   UNL     1       9.449  11.743  37.965  1.00  0.00     0.184 A 
ATOM      2  C   UNL     1       8.831  11.635  39.223  1.00  0.00     0.208 A 
ATOM      3  C   UNL     1       8.852  10.396  39.884  1.00  0.00     0.238 A 
ATOM      4  O   UNL     1       8.310  10.289  41.018  1.00  0.00    -0.285 OA
ATOM      5  C   UNL     1       9.472   9.289  39.268  1.00  0.00     0.111 A 
ATOM      6  C   UNL     1       9.534   8.006  39.864  1.00  0.00     0.134 A 
ATOM      7  C   UNL     1      10.161   6.953  39.183  1.00  0.00     0.093 A 
ATOM      8  C   UNL     1      10.724   7.155  37.921  1.00  0.00     0.123 A 
ATOM      9  C   UNL     1      10.666   8.420  37.327  1.00  0.00     0.094 A 
ATOM     10  C   UNL     1      10.048   9.484  37.990  1.00  0.00     0.146 A 
ATOM     11  O   UNL     1      10.011  10.676  37.406  1.00  0.00    -0.451 OA
ENDROOT
BRANCH   1  12
ATOM     12  C   UNL     1       9.472  13.019  37.220  1.00  0.00     0.063 A 
ATOM     13  C   UNL     1      10.305  15.295  37.022  1.00  0.00     0.047 A 
ATOM     14  C   UNL     1      10.266  14.073  37.699  1.00  0.00     0.020 A 
ATOM     15  C   UNL     1       9.541  15.482  35.864  1.00  0.00     0.119 A 
ATOM     16  C   UNL     1       8.729  14.446  35.393  1.00  0.00     0.093 A 
ATOM     17  C   UNL     1       8.680  13.218  36.070  1.00  0.00     0.130 A 
BRANCH  15  18
ATOM     18  O   UNL     1       9.575  16.694  35.178  1.00  0.00    -0.508 OA
ATOM     19  H   UNL     1       8.927  17.442  35.394  1.00  0.00     0.293 HD
ENDBRANCH  15  18
BRANCH  17  20
ATOM     20  O   UNL     1       7.828  12.210  35.617  1.00  0.00    -0.507 OA
ATOM     21  H   UNL     1       7.634  11.387  36.174  1.00  0.00     0.293 HD
ENDBRANCH  17  20
ENDBRANCH   1  12
BRANCH   2  22
ATOM     22  O   UNL     1       8.185  12.738  39.786  1.00  0.00    -0.502 OA
ATOM     23  H   UNL     1       8.635  13.642  39.877  1.00  0.00     0.293 HD
ENDBRANCH   2  22
BRANCH   6  24
ATOM     24  O   UNL     1       8.980   7.772  41.123  1.00  0.00    -0.507 OA
ATOM     25  H   UNL     1       9.019   8.465  41.861  1.00  0.00     0.293 HD
ENDBRANCH   6  24
BRANCH   8  26
ATOM     26  O   UNL     1      11.341   6.091  37.266  1.00  0.00    -0.508 OA
ATOM     27  H   UNL     1      11.460   6.086  36.260  1.00  0.00     0.293 HD
ENDBRANCH   8  26
TORSDOF 6
ENDMDL
MODEL 3
REMARK VINA RESULT:    -6.078      1.513      6.407
REMARK INTER + INTRA:          -7.704
REMARK INTER:                  -7.320
REMARK INTRA:                  -0.384
REMARK UNBOUND:                -0.382
REMARK SMILES O=c1c(O)c(-c2ccc(O)cc2O)oc2cc(O)cc(O)c12
REMARK SMILES IDX 5 1 3 2 2 3 1 4 22 5 20 6 19 7 17 8 16 9 15 10 14 11 6 12
REMARK SMILES IDX 8 13 7 14 9 15 11 16 12 17 10 18 13 20 4 22 21 24 18 26
REMARK H PARENT 10 19 13 21 4 23 21 25 18 27
REMARK Flexibility Score: inf
ROOT
ATOM      1  C   UNL     1       9.059  11.195  38.526  1.00  0.00     0.184 A 
ATOM      2  C   UNL     1       8.989  11.985  39.686  1.00  0.00     0.208 A 
ATOM      3  C   UNL     1       8.923  13.381  39.552  1.00  0.00     0.238 A 
ATOM      4  O   UNL     1       8.848  14.100  40.586  1.00  0.00    -0.285 OA
ATOM      5  C   UNL     1       8.948  13.959  38.266  1.00  0.00     0.111 A 
ATOM      6  C   UNL     1       8.889  15.356  38.044  1.00  0.00     0.134 A 
ATOM      7  C   UNL     1       8.928  15.854  36.734  1.00  0.00     0.093 A 
ATOM      8  C   UNL     1       9.026  14.986  35.644  1.00  0.00     0.123 A 
ATOM      9  C   UNL     1       9.085  13.605  35.857  1.00  0.00     0.094 A 
ATOM     10  C   UNL     1       9.045  13.088  37.155  1.00  0.00     0.146 A 
ATOM     11  O   UNL     1       9.097  11.772  37.329  1.00  0.00    -0.451 OA
ENDROOT
BRANCH   1  12
ATOM     12  C   UNL     1       9.121   9.720  38.595  1.00  0.00     0.063 A 
ATOM     13  C   UNL     1       8.047   7.621  39.186  1.00  0.00     0.047 A 
ATOM     14  C   UNL     1       8.018   9.015  39.102  1.00  0.00     0.020 A 
ATOM     15  C   UNL     1       9.184   6.914  38.777  1.00  0.00     0.119 A 
ATOM     16  C   UNL     1      10.296   7.609  38.292  1.00  0.00     0.093 A 
ATOM     17  C   UNL     1      10.278   9.010  38.210  1.00  0.00     0.130 A 
BRANCH  15  18
ATOM     18  O   UNL     1       9.222   5.524  38.853  1.00  0.00    -0.508 OA
ATOM     19  H   UNL     1       8.560   4.948  38.346  1.00  0.00     0.293 HD
ENDBRANCH  15  18
BRANCH  17  20
ATOM     20  O   UNL     1      11.412   9.693  37.771  1.00  0.00    -0.507 OA
ATOM     21  H   UNL     1      12.337   9.285  37.835  1.00  0.00     0.293 HD
ENDBRANCH  17  20
ENDBRANCH   1  12
BRANCH   2  22
ATOM     22  O   UNL     1       9.013  11.385  40.947  1.00  0.00    -0.502 OA
ATOM     23  H   UNL     1       8.339  10.679  41.225  1.00  0.00     0.293 HD
ENDBRANCH   2  22
BRANCH   6  24
ATOM     24  O   UNL     1       8.792  16.250  39.111  1.00  0.00    -0.507 OA
ATOM     25  H   UNL     1       8.225  16.047  39.927  1.00  0.00     0.293 HD
ENDBRANCH   6  24
BRANCH   8  26
ATOM     26  O   UNL     1       9.064  15.507  34.352  1.00  0.00    -0.508 OA
ATOM     27  H   UNL     1       8.233  15.548  33.774  1.00  0.00     0.293 HD
ENDBRANCH   8  26
TORSDOF 6
ENDMDL
MODEL 4
REMARK VINA RESULT:    -5.884      2.186      7.216
REMARK INTER + INTRA:          -7.470
REMARK INTER:                  -7.143
REMARK INTRA:                  -0.327
REMARK UNBOUND:                -0.382
REMARK SMILES O=c1c(O)c(-c2ccc(O)cc2O)oc2cc(O)cc(O)c12
REMARK SMILES IDX 5 1 3 2 2 3 1 4 22 5 20 6 19 7 17 8 16 9 15 10 14 11 6 12
REMARK SMILES IDX 8 13 7 14 9 15 11 16 12 17 10 18 13 20 4 22 21 24 18 26
REMARK H PARENT 10 19 13 21 4 23 21 25 18 27
REMARK Flexibility Score: inf
ROOT
ATOM      1  C   UNL     1       8.828  14.318  37.281  1.00  0.00     0.184 A 
ATOM      2  C   UNL     1       7.608  14.973  37.040  1.00  0.00     0.208 A 
ATOM      3  C   UNL     1       7.592  16.079  36.176  1.00  0.00     0.238 A 
ATOM      4  O   UNL     1       6.501  16.669  35.943  1.00  0.00    -0.285 OA
ATOM      5  C   UNL     1       8.795  16.518  35.585  1.00  0.00     0.111 A 
ATOM      6  C   UNL     1       8.866  17.626  34.705  1.00  0.00     0.134 A 
ATOM      7  C   UNL     1      10.103  18.006  34.166  1.00  0.00     0.093 A 
ATOM      8  C   UNL     1      11.268  17.306  34.488  1.00  0.00     0.123 A 
ATOM      9  C   UNL     1      11.204  16.211  35.356  1.00  0.00     0.094 A 
ATOM     10  C   UNL     1       9.980  15.813  35.903  1.00  0.00     0.146 A 
ATOM     11  O   UNL     1       9.946  14.768  36.721  1.00  0.00    -0.451 OA
ENDROOT
BRANCH   1  12
ATOM     12  C   UNL     1       8.914  13.142  38.172  1.00  0.00     0.063 A 
ATOM     13  C   UNL     1       9.200  10.741  38.422  1.00  0.00     0.047 A 
ATOM     14  C   UNL     1       9.120  11.873  37.608  1.00  0.00     0.020 A 
ATOM     15  C   UNL     1       9.062  10.860  39.810  1.00  0.00     0.119 A 
ATOM     16  C   UNL     1       8.832  12.117  40.379  1.00  0.00     0.093 A 
ATOM     17  C   UNL     1       8.745  13.259  39.568  1.00  0.00     0.130 A 
BRANCH  15  18
ATOM     18  O   UNL     1       9.143   9.738  40.631  1.00  0.00    -0.508 OA
ATOM     19  H   UNL     1       8.340   9.405  41.152  1.00  0.00     0.293 HD
ENDBRANCH  15  18
BRANCH  17  20
ATOM     20  O   UNL     1       8.466  14.498  40.144  1.00  0.00    -0.507 OA
ATOM     21  H   UNL     1       7.569  14.952  40.023  1.00  0.00     0.293 HD
ENDBRANCH  17  20
ENDBRANCH   1  12
BRANCH   2  22
ATOM     22  O   UNL     1       6.442  14.542  37.677  1.00  0.00    -0.502 OA
ATOM     23  H   UNL     1       6.268  14.708  38.661  1.00  0.00     0.293 HD
ENDBRANCH   2  22
BRANCH   6  24
ATOM     24  O   UNL     1       7.721  18.348  34.365  1.00  0.00    -0.507 OA
ATOM     25  H   UNL     1       6.811  17.907  34.307  1.00  0.00     0.293 HD
ENDBRANCH   6  24
BRANCH   8  26
ATOM     26  O   UNL     1      12.484  17.705  33.938  1.00  0.00    -0.508 OA
ATOM     27  H   UNL     1      13.108  17.041  33.495  1.00  0.00     0.293 HD
ENDBRANCH   8  26
TORSDOF 6
ENDMDL
MODEL 5
REMARK VINA RESULT:    -5.788      4.576      7.489
REMARK INTER + INTRA:          -7.355
REMARK INTER:                  -7.013
REMARK INTRA:                  -0.342
REMARK UNBOUND:                -0.382
REMARK SMILES O=c1c(O)c(-c2ccc(O)cc2O)oc2cc(O)cc(O)c12
REMARK SMILES IDX 5 1 3 2 2 3 1 4 22 5 20 6 19 7 17 8 16 9 15 10 14 11 6 12
REMARK SMILES IDX 8 13 7 14 9 15 11 16 12 17 10 18 13 20 4 22 21 24 18 26
REMARK H PARENT 10 19 13 21 4 23 21 25 18 27
REMARK Flexibility Score: inf
ROOT
ATOM      1  C   UNL     1       5.587   8.499  39.388  1.00  0.00     0.184 A 
ATOM      2  C   UNL     1       6.517   7.456  39.237  1.00  0.00     0.208 A 
ATOM      3  C   UNL     1       7.860   7.777  38.985  1.00  0.00     0.238 A 
ATOM      4  O   UNL     1       8.706   6.850  38.859  1.00  0.00    -0.285 OA
ATOM      5  C   UNL     1       8.243   9.129  38.870  1.00  0.00     0.111 A 
ATOM      6  C   UNL     1       9.575   9.538  38.615  1.00  0.00     0.134 A 
ATOM      7  C   UNL     1       9.874  10.903  38.506  1.00  0.00     0.093 A 
ATOM      8  C   UNL     1       8.872  11.866  38.645  1.00  0.00     0.123 A 
ATOM      9  C   UNL     1       7.555  11.469  38.898  1.00  0.00     0.094 A 
ATOM     10  C   UNL     1       7.236  10.113  39.013  1.00  0.00     0.146 A 
ATOM     11  O   UNL     1       5.978   9.763  39.258  1.00  0.00    -0.451 OA
ENDROOT
BRANCH   1  12
ATOM     12  C   UNL     1       4.160   8.232  39.664  1.00  0.00     0.063 A 
ATOM     13  C   UNL     1       2.471   7.264  41.120  1.00  0.00     0.047 A 
ATOM     14  C   UNL     1       3.811   7.538  40.833  1.00  0.00     0.020 A 
ATOM     15  C   UNL     1       1.464   7.669  40.236  1.00  0.00     0.119 A 
ATOM     16  C   UNL     1       1.805   8.339  39.057  1.00  0.00     0.093 A 
ATOM     17  C   UNL     1       3.148   8.614  38.758  1.00  0.00     0.130 A 
BRANCH  15  18
ATOM     18  O   UNL     1       0.125   7.404  40.514  1.00  0.00    -0.508 OA
ATOM     19  H   UNL     1      -0.613   8.020  40.194  1.00  0.00     0.293 HD
ENDBRANCH  15  18
BRANCH  17  20
ATOM     20  O   UNL     1       3.477   9.240  37.555  1.00  0.00    -0.507 OA
ATOM     21  H   UNL     1       4.196   9.950  37.504  1.00  0.00     0.293 HD
ENDBRANCH  17  20
ENDBRANCH   1  12
BRANCH   2  22
ATOM     22  O   UNL     1       6.098   6.126  39.310  1.00  0.00    -0.502 OA
ATOM     23  H   UNL     1       6.388   5.506  40.058  1.00  0.00     0.293 HD
ENDBRANCH   2  22
BRANCH   6  24
ATOM     24  O   UNL     1      10.598   8.601  38.469  1.00  0.00    -0.507 OA
ATOM     25  H   UNL     1      10.584   7.906  37.732  1.00  0.00     0.293 HD
ENDBRANCH   6  24
BRANCH   8  26
ATOM     26  O   UNL     1       9.196  13.216  38.532  1.00  0.00    -0.508 OA
ATOM     27  H   UNL     1       9.110  13.710  37.651  1.00  0.00     0.293 HD
ENDBRANCH   8  26
TORSDOF 6
ENDMDL
MODEL 6
REMARK VINA RESULT:    -5.773      2.021      2.990
REMARK INTER + INTRA:          -7.336
REMARK INTER:                  -7.091
REMARK INTRA:                  -0.245
REMARK UNBOUND:                -0.382
REMARK SMILES O=c1c(O)c(-c2ccc(O)cc2O)oc2cc(O)cc(O)c12
REMARK SMILES IDX 5 1 3 2 2 3 1 4 22 5 20 6 19 7 17 8 16 9 15 10 14 11 6 12
REMARK SMILES IDX 8 13 7 14 9 15 11 16 12 17 10 18 13 20 4 22 21 24 18 26
REMARK H PARENT 10 19 13 21 4 23 21 25 18 27
REMARK Flexibility Score: inf
ROOT
ATOM      1  C   UNL     1       8.965  10.546  38.630  1.00  0.00     0.184 A 
ATOM      2  C   UNL     1       7.816   9.823  38.994  1.00  0.00     0.208 A 
ATOM      3  C   UNL     1       7.841   8.422  38.905  1.00  0.00     0.238 A 
ATOM      4  O   UNL     1       6.820   7.761  39.239  1.00  0.00    -0.285 OA
ATOM      5  C   UNL     1       9.003   7.775  38.437  1.00  0.00     0.111 A 
ATOM      6  C   UNL     1       9.109   6.368  38.314  1.00  0.00     0.134 A 
ATOM      7  C   UNL     1      10.297   5.801  37.832  1.00  0.00     0.093 A 
ATOM      8  C   UNL     1      11.378   6.608  37.469  1.00  0.00     0.123 A 
ATOM      9  C   UNL     1      11.279   7.998  37.588  1.00  0.00     0.094 A 
ATOM     10  C   UNL     1      10.105   8.584  38.069  1.00  0.00     0.146 A 
ATOM     11  O   UNL     1      10.038   9.906  38.178  1.00  0.00    -0.451 OA
ENDROOT
BRANCH   1  12
ATOM     12  C   UNL     1       9.010  12.021  38.709  1.00  0.00     0.063 A 
ATOM     13  C   UNL     1       9.301  14.154  37.581  1.00  0.00     0.047 A 
ATOM     14  C   UNL     1       9.246  12.759  37.539  1.00  0.00     0.020 A 
ATOM     15  C   UNL     1       9.133  14.830  38.795  1.00  0.00     0.119 A 
ATOM     16  C   UNL     1       8.921  14.102  39.970  1.00  0.00     0.093 A 
ATOM     17  C   UNL     1       8.870  12.700  39.938  1.00  0.00     0.130 A 
BRANCH  15  18
ATOM     18  O   UNL     1       9.182  16.221  38.848  1.00  0.00    -0.508 OA
ATOM     19  H   UNL     1       8.578  16.793  38.269  1.00  0.00     0.293 HD
ENDBRANCH  15  18
BRANCH  17  20
ATOM     20  O   UNL     1       8.706  11.985  41.125  1.00  0.00    -0.507 OA
ATOM     21  H   UNL     1       9.099  12.310  42.000  1.00  0.00     0.293 HD
ENDBRANCH  17  20
ENDBRANCH   1  12
BRANCH   2  22
ATOM     22  O   UNL     1       6.665  10.496  39.410  1.00  0.00    -0.502 OA
ATOM     23  H   UNL     1       5.735  10.201  39.136  1.00  0.00     0.293 HD
ENDBRANCH   2  22
BRANCH   6  24
ATOM     24  O   UNL     1       8.048   5.534  38.666  1.00  0.00    -0.507 OA
ATOM     25  H   UNL     1       7.273   5.865  39.229  1.00  0.00     0.293 HD
ENDBRANCH   6  24
BRANCH   8  26
ATOM     26  O   UNL     1      12.546   6.018  36.992  1.00  0.00    -0.508 OA
ATOM     27  H   UNL     1      13.261   5.674  37.622  1.00  0.00     0.293 HD
ENDBRANCH   8  26
TORSDOF 6
ENDMDL
MODEL 7
REMARK VINA RESULT:    -5.740      8.876     11.147
REMARK INTER + INTRA:          -7.297
REMARK INTER:                  -7.036
REMARK INTRA:                  -0.261
REMARK UNBOUND:                -0.382
REMARK SMILES O=c1c(O)c(-c2ccc(O)cc2O)oc2cc(O)cc(O)c12
REMARK SMILES IDX 5 1 3 2 2 3 1 4 22 5 20 6 19 7 17 8 16 9 15 10 14 11 6 12
REMARK SMILES IDX 8 13 7 14 9 15 11 16 12 17 10 18 13 20 4 22 21 24 18 26
REMARK H PARENT 10 19 13 21 4 23 21 25 18 27
REMARK Flexibility Score: inf
ROOT
ATOM      1  C   UNL     1       8.142  21.750  35.028  1.00  0.00     0.184 A 
ATOM      2  C   UNL     1       8.932  22.909  35.131  1.00  0.00     0.208 A 
ATOM      3  C   UNL     1      10.310  22.813  34.882  1.00  0.00     0.238 A 
ATOM      4  O   UNL     1      11.027  23.848  34.960  1.00  0.00    -0.285 OA
ATOM      5  C   UNL     1      10.873  21.562  34.554  1.00  0.00     0.111 A 
ATOM      6  C   UNL     1      12.253  21.380  34.292  1.00  0.00     0.134 A 
ATOM      7  C   UNL     1      12.738  20.101  33.981  1.00  0.00     0.093 A 
ATOM      8  C   UNL     1      11.875  19.004  33.930  1.00  0.00     0.123 A 
ATOM      9  C   UNL     1      10.511  19.178  34.188  1.00  0.00     0.094 A 
ATOM     10  C   UNL     1      10.007  20.445  34.497  1.00  0.00     0.146 A 
ATOM     11  O   UNL     1       8.707  20.584  34.733  1.00  0.00    -0.451 OA
ENDROOT
BRANCH   1  12
ATOM     12  C   UNL     1       6.684  21.782  35.267  1.00  0.00     0.063 A 
ATOM     13  C   UNL     1       4.517  22.759  34.761  1.00  0.00     0.047 A 
ATOM     14  C   UNL     1       5.897  22.699  34.553  1.00  0.00     0.020 A 
ATOM     15  C   UNL     1       3.907  21.912  35.694  1.00  0.00     0.119 A 
ATOM     16  C   UNL     1       4.687  21.012  36.427  1.00  0.00     0.093 A 
ATOM     17  C   UNL     1       6.075  20.949  36.229  1.00  0.00     0.130 A 
BRANCH  15  18
ATOM     18  O   UNL     1       2.531  21.960  35.906  1.00  0.00    -0.508 OA
ATOM     19  H   UNL     1       1.912  21.258  35.519  1.00  0.00     0.293 HD
ENDBRANCH  15  18
BRANCH  17  20
ATOM     20  O   UNL     1       6.847  20.082  37.002  1.00  0.00    -0.507 OA
ATOM     21  H   UNL     1       7.740  20.364  37.386  1.00  0.00     0.293 HD
ENDBRANCH  17  20
ENDBRANCH   1  12
BRANCH   2  22
ATOM     22  O   UNL     1       8.351  24.124  35.502  1.00  0.00    -0.502 OA
ATOM     23  H   UNL     1       8.639  25.008  35.099  1.00  0.00     0.293 HD
ENDBRANCH   2  22
BRANCH   6  24
ATOM     24  O   UNL     1      13.141  22.455  34.337  1.00  0.00    -0.507 OA
ATOM     25  H   UNL     1      13.035  23.260  33.732  1.00  0.00     0.293 HD
ENDBRANCH   6  24
BRANCH   8  26
ATOM     26  O   UNL     1      12.383  17.745  33.619  1.00  0.00    -0.508 OA
ATOM     27  H   UNL     1      11.864  17.091  33.044  1.00  0.00     0.293 HD
ENDBRANCH   8  26
TORSDOF 6
ENDMDL
MODEL 8
REMARK VINA RESULT:    -5.708      5.120      7.311
REMARK INTER + INTRA:          -7.258
REMARK INTER:                  -6.842
REMARK INTRA:                  -0.416
REMARK UNBOUND:                -0.382
REMARK SMILES O=c1c(O)c(-c2ccc(O)cc2O)oc2cc(O)cc(O)c12
REMARK SMILES IDX 5 1 3 2 2 3 1 4 22 5 20 6 19 7 17 8 16 9 15 10 14 11 6 12
REMARK SMILES IDX 8 13 7 14 9 15 11 16 12 17 10 18 13 20 4 22 21 24 18 26
REMARK H PARENT 10 19 13 21 4 23 21 25 18 27
REMARK Flexibility Score: inf
ROOT
ATOM      1  C   UNL     1       5.583   7.606  39.546  1.00  0.00     0.184 A 
ATOM      2  C   UNL     1       6.459   8.536  40.132  1.00  0.00     0.208 A 
ATOM      3  C   UNL     1       7.827   8.463  39.826  1.00  0.00     0.238 A 
ATOM      4  O   UNL     1       8.622   9.299  40.337  1.00  0.00    -0.285 OA
ATOM      5  C   UNL     1       8.294   7.454  38.959  1.00  0.00     0.111 A 
ATOM      6  C   UNL     1       9.657   7.310  38.602  1.00  0.00     0.134 A 
ATOM      7  C   UNL     1      10.043   6.274  37.740  1.00  0.00     0.093 A 
ATOM      8  C   UNL     1       9.099   5.380  37.230  1.00  0.00     0.123 A 
ATOM      9  C   UNL     1       7.751   5.518  37.578  1.00  0.00     0.094 A 
ATOM     10  C   UNL     1       7.344   6.545  38.434  1.00  0.00     0.146 A 
ATOM     11  O   UNL     1       6.058   6.657  38.746  1.00  0.00    -0.451 OA
ENDROOT
BRANCH   1  12
ATOM     12  C   UNL     1       4.131   7.631  39.817  1.00  0.00     0.063 A 
ATOM     13  C   UNL     1       2.246   6.824  41.124  1.00  0.00     0.047 A 
ATOM     14  C   UNL     1       3.615   6.827  40.846  1.00  0.00     0.020 A 
ATOM     15  C   UNL     1       1.372   7.614  40.368  1.00  0.00     0.119 A 
ATOM     16  C   UNL     1       1.874   8.401  39.326  1.00  0.00     0.093 A 
ATOM     17  C   UNL     1       3.247   8.406  39.037  1.00  0.00     0.130 A 
BRANCH  15  18
ATOM     18  O   UNL     1       0.006   7.622  40.639  1.00  0.00    -0.508 OA
ATOM     19  H   UNL     1      -0.345   7.602  41.589  1.00  0.00     0.293 HD
ENDBRANCH  15  18
BRANCH  17  20
ATOM     20  O   UNL     1       3.726   9.157  37.963  1.00  0.00    -0.507 OA
ATOM     21  H   UNL     1       3.105   9.694  37.371  1.00  0.00     0.293 HD
ENDBRANCH  17  20
ENDBRANCH   1  12
BRANCH   2  22
ATOM     22  O   UNL     1       5.972   9.495  41.023  1.00  0.00    -0.502 OA
ATOM     23  H   UNL     1       6.287  10.458  41.009  1.00  0.00     0.293 HD
ENDBRANCH   2  22
BRANCH   6  24
ATOM     24  O   UNL     1      10.625   8.184  39.096  1.00  0.00    -0.507 OA
ATOM     25  H   UNL     1      10.397   9.131  39.376  1.00  0.00     0.293 HD
ENDBRANCH   6  24
BRANCH   8  26
ATOM     26  O   UNL     1       9.510   4.359  36.376  1.00  0.00    -0.508 OA
ATOM     27  H   UNL     1       8.840   3.778  35.884  1.00  0.00     0.293 HD
ENDBRANCH   8  26
TORSDOF 6
ENDMDL
MODEL 9
REMARK VINA RESULT:    -5.679      8.409     10.529
REMARK INTER + INTRA:          -7.223
REMARK INTER:                  -6.806
REMARK INTRA:                  -0.417
REMARK UNBOUND:                -0.382
REMARK SMILES O=c1c(O)c(-c2ccc(O)cc2O)oc2cc(O)cc(O)c12
REMARK SMILES IDX 5 1 3 2 2 3 1 4 22 5 20 6 19 7 17 8 16 9 15 10 14 11 6 12
REMARK SMILES IDX 8 13 7 14 9 15 11 16 12 17 10 18 13 20 4 22 21 24 18 26
REMARK H PARENT 10 19 13 21 4 23 21 25 18 27
REMARK Flexibility Score: inf
ROOT
ATOM      1  C   UNL     1       1.734  15.729  37.611  1.00  0.00     0.184 A 
ATOM      2  C   UNL     1       1.386  14.381  37.415  1.00  0.00     0.208 A 
ATOM      3  C   UNL     1       0.036  14.010  37.514  1.00  0.00     0.238 A 
ATOM      4  O   UNL     1      -0.290  12.805  37.329  1.00  0.00    -0.285 OA
ATOM      5  C   UNL     1      -0.934  14.985  37.823  1.00  0.00     0.111 A 
ATOM      6  C   UNL     1      -2.315  14.693  37.944  1.00  0.00     0.134 A 
ATOM      7  C   UNL     1      -3.216  15.718  38.264  1.00  0.00     0.093 A 
ATOM      8  C   UNL     1      -2.768  17.025  38.467  1.00  0.00     0.123 A 
ATOM      9  C   UNL     1      -1.406  17.320  38.349  1.00  0.00     0.094 A 
ATOM     10  C   UNL     1      -0.490  16.313  38.028  1.00  0.00     0.146 A 
ATOM     11  O   UNL     1       0.797  16.621  37.918  1.00  0.00    -0.451 OA
ENDROOT
BRANCH   1  12
ATOM     12  C   UNL     1       3.134  16.190  37.512  1.00  0.00     0.063 A 
ATOM     13  C   UNL     1       5.060  16.703  36.120  1.00  0.00     0.047 A 
ATOM     14  C   UNL     1       3.736  16.276  36.247  1.00  0.00     0.020 A 
ATOM     15  C   UNL     1       5.805  17.037  37.257  1.00  0.00     0.119 A 
ATOM     16  C   UNL     1       5.221  16.931  38.524  1.00  0.00     0.093 A 
ATOM     17  C   UNL     1       3.894  16.499  38.661  1.00  0.00     0.130 A 
BRANCH  15  18
ATOM     18  O   UNL     1       7.125  17.467  37.142  1.00  0.00    -0.508 OA
ATOM     19  H   UNL     1       7.588  17.958  37.897  1.00  0.00     0.293 HD
ENDBRANCH  15  18
BRANCH  17  20
ATOM     20  O   UNL     1       3.341  16.351  39.933  1.00  0.00    -0.507 OA
ATOM     21  H   UNL     1       2.659  15.631  40.137  1.00  0.00     0.293 HD
ENDBRANCH  17  20
ENDBRANCH   1  12
BRANCH   2  22
ATOM     22  O   UNL     1       2.376  13.431  37.155  1.00  0.00    -0.502 OA
ATOM     23  H   UNL     1       3.045  13.138  37.858  1.00  0.00     0.293 HD
ENDBRANCH   2  22
BRANCH   6  24
ATOM     24  O   UNL     1      -2.795  13.397  37.749  1.00  0.00    -0.507 OA
ATOM     25  H   UNL     1      -2.807  12.965  36.833  1.00  0.00     0.293 HD
ENDBRANCH   6  24
BRANCH   8  26
ATOM     26  O   UNL     1      -3.685  18.024  38.784  1.00  0.00    -0.508 OA
ATOM     27  H   UNL     1      -3.720  18.895  38.266  1.00  0.00     0.293 HD
ENDBRANCH   8  26
TORSDOF 6
ENDMDL
