MODEL 1
REMARK VINA RESULT:    -4.554      0.000      0.000
REMARK INTER + INTRA:          -7.797
REMARK INTER:                  -6.949
REMARK INTRA:                  -0.847
REMARK UNBOUND:                -0.847
REMARK SMILES CCCCCCCCCCC(=O)[O-]
REMARK SMILES IDX 7 1 8 2 9 3 10 4 11 5 12 6 13 7 6 8 5 9 4 10 3 11 2 12 1 13
REMARK H PARENT
REMARK Flexibility Score: inf
ROOT
ATOM      1  C   UNL     1       0.611 -20.945 -13.914  1.00  0.00     0.000 C 
ENDROOT
BRANCH   1   2
ATOM      2  C   UNL     1       2.063 -20.984 -14.417  1.00  0.00     0.000 C 
BRANCH   2   3
ATOM      3  C   UNL     1       3.019 -20.162 -13.539  1.00  0.00     0.006 C 
BRANCH   3   4
ATOM      4  C   UNL     1       2.976 -20.642 -12.085  1.00  0.00     0.053 C 
BRANCH   4   5
ATOM      5  C   UNL     1       4.184 -21.466 -11.769  1.00  0.00     0.041 C 
ATOM      6  O   UNL     1       5.225 -21.359 -12.469  1.00  0.00    -0.550 OA
ATOM      7  O   UNL     1       4.178 -22.316 -10.671  1.00  0.00    -0.550 OA
ENDBRANCH   4   5
ENDBRANCH   3   4
ENDBRANCH   2   3
ENDBRANCH   1   2
BRANCH   1   8
ATOM      8  C   UNL     1      -0.414 -21.020 -15.059  1.00  0.00     0.000 C 
BRANCH   8   9
ATOM      9  C   UNL     1       0.034 -21.957 -16.193  1.00  0.00    -0.000 C 
BRANCH   9  10
ATOM     10  C   UNL     1      -0.529 -23.381 -16.039  1.00  0.00    -0.000 C 
BRANCH  10  11
ATOM     11  C   UNL     1       0.493 -24.358 -15.439  1.00  0.00    -0.000 C 
BRANCH  11  12
ATOM     12  C   UNL     1      -0.069 -25.152 -14.251  1.00  0.00    -0.003 C 
ATOM     13  C   UNL     1       0.401 -24.563 -12.924  1.00  0.00     0.004 C 
ENDBRANCH  11  12
ENDBRANCH  10  11
ENDBRANCH   9  10
ENDBRANCH   8   9
ENDBRANCH   1   8
TORSDOF 9
ENDMDL
MODEL 2
REMARK VINA RESULT:    -4.538     12.399     13.705
REMARK INTER + INTRA:          -7.773
REMARK INTER:                  -7.023
REMARK INTRA:                  -0.750
REMARK UNBOUND:                -0.847
REMARK SMILES CCCCCCCCCCC(=O)[O-]
REMARK SMILES IDX 7 1 8 2 9 3 10 4 11 5 12 6 13 7 6 8 5 9 4 10 3 11 2 12 1 13
REMARK H PARENT
REMARK Flexibility Score: inf
ROOT
ATOM      1  C   UNL     1      -6.566 -20.258  -5.103  1.00  0.00     0.000 C 
ENDROOT
BRANCH   1   2
ATOM      2  C   UNL     1      -7.616 -19.986  -6.191  1.00  0.00     0.000 C 
BRANCH   2   3
ATOM      3  C   UNL     1      -8.885 -19.318  -5.639  1.00  0.00     0.006 C 
BRANCH   3   4
ATOM      4  C   UNL     1      -9.745 -18.753  -6.774  1.00  0.00     0.053 C 
BRANCH   4   5
ATOM      5  C   UNL     1     -10.449 -19.857  -7.499  1.00  0.00     0.041 C 
ATOM      6  O   UNL     1     -11.038 -20.764  -6.853  1.00  0.00    -0.550 OA
ATOM      7  O   UNL     1     -10.496 -19.859  -8.886  1.00  0.00    -0.550 OA
ENDBRANCH   4   5
ENDBRANCH   3   4
ENDBRANCH   2   3
ENDBRANCH   1   2
BRANCH   1   8
ATOM      8  C   UNL     1      -7.166 -20.249  -3.686  1.00  0.00     0.000 C 
BRANCH   8   9
ATOM      9  C   UNL     1      -6.296 -21.010  -2.672  1.00  0.00    -0.000 C 
BRANCH   9  10
ATOM     10  C   UNL     1      -6.180 -22.509  -3.001  1.00  0.00    -0.000 C 
BRANCH  10  11
ATOM     11  C   UNL     1      -4.739 -22.932  -3.323  1.00  0.00    -0.000 C 
BRANCH  11  12
ATOM     12  C   UNL     1      -4.646 -23.829  -4.567  1.00  0.00    -0.003 C 
ATOM     13  C   UNL     1      -6.011 -23.993  -5.229  1.00  0.00     0.004 C 
ENDBRANCH  11  12
ENDBRANCH  10  11
ENDBRANCH   9  10
ENDBRANCH   8   9
ENDBRANCH   1   8
TORSDOF 9
ENDMDL
MODEL 3
REMARK VINA RESULT:    -4.423     12.563     13.848
REMARK INTER + INTRA:          -7.597
REMARK INTER:                  -7.046
REMARK INTRA:                  -0.551
REMARK UNBOUND:                -0.847
REMARK SMILES CCCCCCCCCCC(=O)[O-]
REMARK SMILES IDX 7 1 8 2 9 3 10 4 11 5 12 6 13 7 6 8 5 9 4 10 3 11 2 12 1 13
REMARK H PARENT
REMARK Flexibility Score: inf
ROOT
ATOM      1  C   UNL     1      -7.148 -20.073  -5.990  1.00  0.00     0.000 C 
ENDROOT
BRANCH   1   2
ATOM      2  C   UNL     1      -7.832 -18.752  -5.600  1.00  0.00     0.000 C 
BRANCH   2   3
ATOM      3  C   UNL     1      -9.318 -18.716  -5.986  1.00  0.00     0.006 C 
BRANCH   3   4
ATOM      4  C   UNL     1      -9.488 -18.711  -7.509  1.00  0.00     0.053 C 
BRANCH   4   5
ATOM      5  C   UNL     1     -10.361 -19.847  -7.942  1.00  0.00     0.041 C 
ATOM      6  O   UNL     1     -10.507 -20.103  -9.166  1.00  0.00    -0.550 OA
ATOM      7  O   UNL     1     -10.975 -20.653  -6.993  1.00  0.00    -0.550 OA
ENDBRANCH   4   5
ENDBRANCH   3   4
ENDBRANCH   2   3
ENDBRANCH   1   2
BRANCH   1   8
ATOM      8  C   UNL     1      -6.376 -20.707  -4.820  1.00  0.00     0.000 C 
BRANCH   8   9
ATOM      9  C   UNL     1      -6.971 -20.339  -3.450  1.00  0.00    -0.000 C 
BRANCH   9  10
ATOM     10  C   UNL     1      -6.427 -21.223  -2.314  1.00  0.00    -0.000 C 
BRANCH  10  11
ATOM     11  C   UNL     1      -5.437 -22.286  -2.816  1.00  0.00    -0.000 C 
BRANCH  11  12
ATOM     12  C   UNL     1      -4.049 -22.156  -2.172  1.00  0.00    -0.003 C 
ATOM     13  C   UNL     1      -2.944 -22.405  -3.194  1.00  0.00     0.004 C 
ENDBRANCH  11  12
ENDBRANCH  10  11
ENDBRANCH   9  10
ENDBRANCH   8   9
ENDBRANCH   1   8
TORSDOF 9
ENDMDL
MODEL 4
REMARK VINA RESULT:    -4.327      1.034      1.366
REMARK INTER + INTRA:          -7.450
REMARK INTER:                  -6.761
REMARK INTRA:                  -0.689
REMARK UNBOUND:                -0.847
REMARK SMILES CCCCCCCCCCC(=O)[O-]
REMARK SMILES IDX 7 1 8 2 9 3 10 4 11 5 12 6 13 7 6 8 5 9 4 10 3 11 2 12 1 13
REMARK H PARENT
REMARK Flexibility Score: inf
ROOT
ATOM      1  C   UNL     1       1.168 -21.120 -13.420  1.00  0.00     0.000 C 
ENDROOT
BRANCH   1   2
ATOM      2  C   UNL     1       2.345 -20.400 -14.098  1.00  0.00     0.000 C 
BRANCH   2   3
ATOM      3  C   UNL     1       3.555 -20.230 -13.166  1.00  0.00     0.006 C 
BRANCH   3   4
ATOM      4  C   UNL     1       3.105 -20.017 -11.717  1.00  0.00     0.053 C 
BRANCH   4   5
ATOM      5  C   UNL     1       3.981 -20.785 -10.778  1.00  0.00     0.041 C 
ATOM      6  O   UNL     1       4.429 -20.236  -9.737  1.00  0.00    -0.550 OA
ATOM      7  O   UNL     1       4.261 -22.123 -11.025  1.00  0.00    -0.550 OA
ENDBRANCH   4   5
ENDBRANCH   3   4
ENDBRANCH   2   3
ENDBRANCH   1   2
BRANCH   1   8
ATOM      8  C   UNL     1      -0.052 -21.261 -14.347  1.00  0.00     0.000 C 
BRANCH   8   9
ATOM      9  C   UNL     1       0.342 -21.375 -15.829  1.00  0.00    -0.000 C 
BRANCH   9  10
ATOM     10  C   UNL     1       0.449 -22.837 -16.300  1.00  0.00    -0.000 C 
BRANCH  10  11
ATOM     11  C   UNL     1      -0.909 -23.557 -16.299  1.00  0.00    -0.000 C 
BRANCH  11  12
ATOM     12  C   UNL     1      -1.036 -24.583 -15.163  1.00  0.00    -0.003 C 
ATOM     13  C   UNL     1       0.337 -25.003 -14.645  1.00  0.00     0.004 C 
ENDBRANCH  11  12
ENDBRANCH  10  11
ENDBRANCH   9  10
ENDBRANCH   8   9
ENDBRANCH   1   8
TORSDOF 9
ENDMDL
MODEL 5
REMARK VINA RESULT:    -4.198      0.867      1.502
REMARK INTER + INTRA:          -7.255
REMARK INTER:                  -6.234
REMARK INTRA:                  -1.021
REMARK UNBOUND:                -0.847
REMARK SMILES CCCCCCCCCCC(=O)[O-]
REMARK SMILES IDX 7 1 8 2 9 3 10 4 11 5 12 6 13 7 6 8 5 9 4 10 3 11 2 12 1 13
REMARK H PARENT
REMARK Flexibility Score: inf
ROOT
ATOM      1  C   UNL     1       0.380 -20.523 -13.481  1.00  0.00     0.000 C 
ENDROOT
BRANCH   1   2
ATOM      2  C   UNL     1       0.343 -21.623 -12.407  1.00  0.00     0.000 C 
BRANCH   2   3
ATOM      3  C   UNL     1       1.683 -21.782 -11.672  1.00  0.00     0.006 C 
BRANCH   3   4
ATOM      4  C   UNL     1       2.840 -21.238 -12.517  1.00  0.00     0.053 C 
BRANCH   4   5
ATOM      5  C   UNL     1       4.150 -21.504 -11.845  1.00  0.00     0.041 C 
ATOM      6  O   UNL     1       4.194 -22.197 -10.795  1.00  0.00    -0.550 OA
ATOM      7  O   UNL     1       5.328 -21.029 -12.407  1.00  0.00    -0.550 OA
ENDBRANCH   4   5
ENDBRANCH   3   4
ENDBRANCH   2   3
ENDBRANCH   1   2
BRANCH   1   8
ATOM      8  C   UNL     1      -0.236 -20.978 -14.815  1.00  0.00     0.000 C 
BRANCH   8   9
ATOM      9  C   UNL     1       0.759 -21.759 -15.689  1.00  0.00    -0.000 C 
BRANCH   9  10
ATOM     10  C   UNL     1       0.163 -23.069 -16.236  1.00  0.00    -0.000 C 
BRANCH  10  11
ATOM     11  C   UNL     1       0.609 -24.300 -15.432  1.00  0.00    -0.000 C 
BRANCH  11  12
ATOM     12  C   UNL     1      -0.458 -24.781 -14.438  1.00  0.00    -0.003 C 
ATOM     13  C   UNL     1       0.180 -25.286 -13.147  1.00  0.00     0.004 C 
ENDBRANCH  11  12
ENDBRANCH  10  11
ENDBRANCH   9  10
ENDBRANCH   8   9
ENDBRANCH   1   8
TORSDOF 9
ENDMDL
MODEL 6
REMARK VINA RESULT:    -4.163     12.041     13.347
REMARK INTER + INTRA:          -7.201
REMARK INTER:                  -6.291
REMARK INTRA:                  -0.910
REMARK UNBOUND:                -0.847
REMARK SMILES CCCCCCCCCCC(=O)[O-]
REMARK SMILES IDX 7 1 8 2 9 3 10 4 11 5 12 6 13 7 6 8 5 9 4 10 3 11 2 12 1 13
REMARK H PARENT
REMARK Flexibility Score: inf
ROOT
ATOM      1  C   UNL     1      -6.145 -20.588  -6.636  1.00  0.00     0.000 C 
ENDROOT
BRANCH   1   2
ATOM      2  C   UNL     1      -7.061 -20.068  -5.517  1.00  0.00     0.000 C 
BRANCH   2   3
ATOM      3  C   UNL     1      -8.455 -19.670  -6.025  1.00  0.00     0.006 C 
BRANCH   3   4
ATOM      4  C   UNL     1      -8.673 -20.154  -7.462  1.00  0.00     0.053 C 
BRANCH   4   5
ATOM      5  C   UNL     1     -10.135 -20.285  -7.755  1.00  0.00     0.041 C 
ATOM      6  O   UNL     1     -10.931 -20.654  -6.853  1.00  0.00    -0.550 OA
ATOM      7  O   UNL     1     -10.625 -19.951  -9.011  1.00  0.00    -0.550 OA
ENDBRANCH   4   5
ENDBRANCH   3   4
ENDBRANCH   2   3
ENDBRANCH   1   2
BRANCH   1   8
ATOM      8  C   UNL     1      -5.325 -21.817  -6.208  1.00  0.00     0.000 C 
BRANCH   8   9
ATOM      9  C   UNL     1      -6.212 -23.006  -5.801  1.00  0.00    -0.000 C 
BRANCH   9  10
ATOM     10  C   UNL     1      -5.766 -23.648  -4.475  1.00  0.00    -0.000 C 
BRANCH  10  11
ATOM     11  C   UNL     1      -6.422 -22.989  -3.251  1.00  0.00    -0.000 C 
BRANCH  11  12
ATOM     12  C   UNL     1      -5.501 -21.977  -2.556  1.00  0.00    -0.003 C 
ATOM     13  C   UNL     1      -6.295 -20.792  -2.014  1.00  0.00     0.004 C 
ENDBRANCH  11  12
ENDBRANCH  10  11
ENDBRANCH   9  10
ENDBRANCH   8   9
ENDBRANCH   1   8
TORSDOF 9
ENDMDL
MODEL 7
REMARK VINA RESULT:    -4.078      1.231      2.601
REMARK INTER + INTRA:          -7.071
REMARK INTER:                  -6.235
REMARK INTRA:                  -0.837
REMARK UNBOUND:                -0.847
REMARK SMILES CCCCCCCCCCC(=O)[O-]
REMARK SMILES IDX 7 1 8 2 9 3 10 4 11 5 12 6 13 7 6 8 5 9 4 10 3 11 2 12 1 13
REMARK H PARENT
REMARK Flexibility Score: inf
ROOT
ATOM      1  C   UNL     1       0.560 -22.446 -12.237  1.00  0.00     0.000 C 
ENDROOT
BRANCH   1   2
ATOM      2  C   UNL     1       1.940 -21.834 -11.946  1.00  0.00     0.000 C 
BRANCH   2   3
ATOM      3  C   UNL     1       2.046 -20.367 -12.391  1.00  0.00     0.006 C 
BRANCH   3   4
ATOM      4  C   UNL     1       3.412 -20.083 -13.022  1.00  0.00     0.053 C 
BRANCH   4   5
ATOM      5  C   UNL     1       4.513 -20.515 -12.106  1.00  0.00     0.041 C 
ATOM      6  O   UNL     1       5.316 -21.418 -12.461  1.00  0.00    -0.550 OA
ATOM      7  O   UNL     1       4.684 -19.887 -10.879  1.00  0.00    -0.550 OA
ENDBRANCH   4   5
ENDBRANCH   3   4
ENDBRANCH   2   3
ENDBRANCH   1   2
BRANCH   1   8
ATOM      8  C   UNL     1       0.608 -23.978 -12.368  1.00  0.00     0.000 C 
BRANCH   8   9
ATOM      9  C   UNL     1      -0.420 -24.518 -13.376  1.00  0.00    -0.000 C 
BRANCH   9  10
ATOM     10  C   UNL     1       0.197 -24.788 -14.760  1.00  0.00    -0.000 C 
BRANCH  10  11
ATOM     11  C   UNL     1      -0.352 -23.848 -15.843  1.00  0.00    -0.000 C 
BRANCH  11  12
ATOM     12  C   UNL     1       0.656 -22.766 -16.258  1.00  0.00    -0.003 C 
ATOM     13  C   UNL     1       0.258 -21.402 -15.703  1.00  0.00     0.004 C 
ENDBRANCH  11  12
ENDBRANCH  10  11
ENDBRANCH   9  10
ENDBRANCH   8   9
ENDBRANCH   1   8
TORSDOF 9
ENDMDL
MODEL 8
REMARK VINA RESULT:    -3.938     12.602     14.786
REMARK INTER + INTRA:          -6.856
REMARK INTER:                  -5.615
REMARK INTRA:                  -1.241
REMARK UNBOUND:                -0.847
REMARK SMILES CCCCCCCCCCC(=O)[O-]
REMARK SMILES IDX 7 1 8 2 9 3 10 4 11 5 12 6 13 7 6 8 5 9 4 10 3 11 2 12 1 13
REMARK H PARENT
REMARK Flexibility Score: inf
ROOT
ATOM      1  C   UNL     1       1.196 -30.262  -2.559  1.00  0.00     0.000 C 
ENDROOT
BRANCH   1   2
ATOM      2  C   UNL     1       2.243 -31.128  -3.277  1.00  0.00     0.000 C 
BRANCH   2   3
ATOM      3  C   UNL     1       3.683 -30.673  -2.998  1.00  0.00     0.006 C 
BRANCH   3   4
ATOM      4  C   UNL     1       3.862 -29.188  -3.329  1.00  0.00     0.053 C 
BRANCH   4   5
ATOM      5  C   UNL     1       3.840 -28.974  -4.810  1.00  0.00     0.041 C 
ATOM      6  O   UNL     1       3.147 -28.047  -5.306  1.00  0.00    -0.550 OA
ATOM      7  O   UNL     1       4.624 -29.766  -5.638  1.00  0.00    -0.550 OA
ENDBRANCH   4   5
ENDBRANCH   3   4
ENDBRANCH   2   3
ENDBRANCH   1   2
BRANCH   1   8
ATOM      8  C   UNL     1       0.863 -30.782  -1.149  1.00  0.00     0.000 C 
BRANCH   8   9
ATOM      9  C   UNL     1       0.736 -29.649  -0.117  1.00  0.00    -0.000 C 
BRANCH   9  10
ATOM     10  C   UNL     1       1.847 -29.693   0.947  1.00  0.00    -0.000 C 
BRANCH  10  11
ATOM     11  C   UNL     1       3.177 -29.120   0.435  1.00  0.00    -0.000 C 
BRANCH  11  12
ATOM     12  C   UNL     1       4.388 -29.972   0.842  1.00  0.00    -0.003 C 
ATOM     13  C   UNL     1       4.114 -31.457   0.621  1.00  0.00     0.004 C 
ENDBRANCH  11  12
ENDBRANCH  10  11
ENDBRANCH   9  10
ENDBRANCH   8   9
ENDBRANCH   1   8
TORSDOF 9
ENDMDL
MODEL 9
REMARK VINA RESULT:    -3.897     12.658     14.907
REMARK INTER + INTRA:          -6.794
REMARK INTER:                  -5.674
REMARK INTRA:                  -1.120
REMARK UNBOUND:                -0.847
REMARK SMILES CCCCCCCCCCC(=O)[O-]
REMARK SMILES IDX 7 1 8 2 9 3 10 4 11 5 12 6 13 7 6 8 5 9 4 10 3 11 2 12 1 13
REMARK H PARENT
REMARK Flexibility Score: inf
ROOT
ATOM      1  C   UNL     1     -11.998 -30.475 -16.272  1.00  0.00     0.000 C 
ENDROOT
BRANCH   1   2
ATOM      2  C   UNL     1     -10.548 -29.965 -16.279  1.00  0.00     0.000 C 
BRANCH   2   3
ATOM      3  C   UNL     1     -10.107 -29.446 -17.656  1.00  0.00     0.006 C 
BRANCH   3   4
ATOM      4  C   UNL     1      -8.756 -28.730 -17.566  1.00  0.00     0.053 C 
BRANCH   4   5
ATOM      5  C   UNL     1      -8.902 -27.285 -17.930  1.00  0.00     0.041 C 
ATOM      6  O   UNL     1      -7.883 -26.555 -18.046  1.00  0.00    -0.550 OA
ATOM      7  O   UNL     1     -10.160 -26.758 -18.188  1.00  0.00    -0.550 OA
ENDBRANCH   4   5
ENDBRANCH   3   4
ENDBRANCH   2   3
ENDBRANCH   1   2
BRANCH   1   8
ATOM      8  C   UNL     1     -12.138 -31.871 -16.902  1.00  0.00     0.000 C 
BRANCH   8   9
ATOM      9  C   UNL     1     -11.102 -32.870 -16.360  1.00  0.00    -0.000 C 
BRANCH   9  10
ATOM     10  C   UNL     1     -10.360 -33.617 -17.483  1.00  0.00    -0.000 C 
BRANCH  10  11
ATOM     11  C   UNL     1      -9.005 -32.977 -17.822  1.00  0.00    -0.000 C 
BRANCH  11  12
ATOM     12  C   UNL     1      -8.126 -32.756 -16.583  1.00  0.00    -0.003 C 
ATOM     13  C   UNL     1      -6.893 -31.923 -16.925  1.00  0.00     0.004 C 
ENDBRANCH  11  12
ENDBRANCH  10  11
ENDBRANCH   9  10
ENDBRANCH   8   9
ENDBRANCH   1   8
TORSDOF 9
ENDMDL
