MODEL 1
REMARK VINA RESULT:    -3.838      0.000      0.000
REMARK INTER + INTRA:          -5.321
REMARK INTER:                  -5.184
REMARK INTRA:                  -0.137
REMARK UNBOUND:                -0.137
REMARK SMILES CCCCCCC=CC(=O)[O-]
REMARK SMILES IDX 5 1 6 2 7 3 8 4 9 5 10 6 11 7 4 8 3 9 2 10 1 11
REMARK H PARENT
REMARK Flexibility Score: inf
ROOT
ATOM      1  C   UNL     1     -21.398   1.849   7.264  1.00  0.00     0.004 C 
ENDROOT
BRANCH   1   2
ATOM      2  C   UNL     1     -20.374   0.757   6.901  1.00  0.00     0.027 C 
BRANCH   2   3
ATOM      3  C   UNL     1     -21.024  -0.506   6.402  1.00  0.00    -0.025 C 
ATOM      4  C   UNL     1     -21.111  -1.668   7.070  1.00  0.00     0.020 C 
BRANCH   4   5
ATOM      5  C   UNL     1     -20.650  -1.927   8.450  1.00  0.00     0.064 C 
ATOM      6  O   UNL     1     -19.976  -2.964   8.680  1.00  0.00    -0.545 OA
ATOM      7  O   UNL     1     -20.968  -1.087   9.508  1.00  0.00    -0.545 OA
ENDBRANCH   4   5
ENDBRANCH   2   3
ENDBRANCH   1   2
BRANCH   1   8
ATOM      8  C   UNL     1     -21.825   1.855   8.746  1.00  0.00     0.000 C 
BRANCH   8   9
ATOM      9  C   UNL     1     -22.541   3.136   9.214  1.00  0.00    -0.000 C 
BRANCH   9  10
ATOM     10  C   UNL     1     -22.402   4.296   8.218  1.00  0.00    -0.003 C 
ATOM     11  C   UNL     1     -22.048   5.597   8.935  1.00  0.00     0.004 C 
ENDBRANCH   9  10
ENDBRANCH   8   9
ENDBRANCH   1   8
TORSDOF 6
ENDMDL
MODEL 2
REMARK VINA RESULT:    -3.726      2.099      5.750
REMARK INTER + INTRA:          -5.170
REMARK INTER:                  -4.933
REMARK INTRA:                  -0.237
REMARK UNBOUND:                -0.137
REMARK SMILES CCCCCCC=CC(=O)[O-]
REMARK SMILES IDX 5 1 6 2 7 3 8 4 9 5 10 6 11 7 4 8 3 9 2 10 1 11
REMARK H PARENT
REMARK Flexibility Score: inf
ROOT
ATOM      1  C   UNL     1     -20.983  -1.793   7.091  1.00  0.00     0.004 C 
ENDROOT
BRANCH   1   2
ATOM      2  C   UNL     1     -21.837  -0.568   6.710  1.00  0.00     0.027 C 
BRANCH   2   3
ATOM      3  C   UNL     1     -21.016   0.682   6.538  1.00  0.00    -0.025 C 
ATOM      4  C   UNL     1     -21.037   1.759   7.341  1.00  0.00     0.020 C 
BRANCH   4   5
ATOM      5  C   UNL     1     -21.816   1.913   8.587  1.00  0.00     0.064 C 
ATOM      6  O   UNL     1     -22.537   2.934   8.730  1.00  0.00    -0.545 OA
ATOM      7  O   UNL     1     -21.748   0.990   9.621  1.00  0.00    -0.545 OA
ENDBRANCH   4   5
ENDBRANCH   2   3
ENDBRANCH   1   2
BRANCH   1   8
ATOM      8  C   UNL     1     -20.598  -1.863   8.583  1.00  0.00     0.000 C 
BRANCH   8   9
ATOM      9  C   UNL     1     -20.223  -3.265   9.095  1.00  0.00    -0.000 C 
BRANCH   9  10
ATOM     10  C   UNL     1     -19.860  -4.238   7.963  1.00  0.00    -0.003 C 
ATOM     11  C   UNL     1     -20.387  -5.641   8.255  1.00  0.00     0.004 C 
ENDBRANCH   9  10
ENDBRANCH   8   9
ENDBRANCH   1   8
TORSDOF 6
ENDMDL
MODEL 3
REMARK VINA RESULT:    -3.708      3.290      5.047
REMARK INTER + INTRA:          -5.146
REMARK INTER:                  -4.945
REMARK INTRA:                  -0.202
REMARK UNBOUND:                -0.137
REMARK SMILES CCCCCCC=CC(=O)[O-]
REMARK SMILES IDX 5 1 6 2 7 3 8 4 9 5 10 6 11 7 4 8 3 9 2 10 1 11
REMARK H PARENT
REMARK Flexibility Score: inf
ROOT
ATOM      1  C   UNL     1     -20.660  -1.973   9.520  1.00  0.00     0.004 C 
ENDROOT
BRANCH   1   2
ATOM      2  C   UNL     1     -20.319  -1.576  10.970  1.00  0.00     0.027 C 
BRANCH   2   3
ATOM      3  C   UNL     1     -21.187  -2.274  11.982  1.00  0.00    -0.025 C 
ATOM      4  C   UNL     1     -21.627  -1.754  13.140  1.00  0.00     0.020 C 
BRANCH   4   5
ATOM      5  C   UNL     1     -21.406  -0.377  13.627  1.00  0.00     0.064 C 
ATOM      6  O   UNL     1     -20.863  -0.208  14.749  1.00  0.00    -0.545 OA
ATOM      7  O   UNL     1     -21.814   0.737  12.906  1.00  0.00    -0.545 OA
ENDBRANCH   4   5
ENDBRANCH   2   3
ENDBRANCH   1   2
BRANCH   1   8
ATOM      8  C   UNL     1     -21.086  -0.795   8.620  1.00  0.00     0.000 C 
BRANCH   8   9
ATOM      9  C   UNL     1     -21.117  -1.103   7.112  1.00  0.00    -0.000 C 
BRANCH   9  10
ATOM     10  C   UNL     1     -21.235   0.159   6.246  1.00  0.00    -0.003 C 
ATOM     11  C   UNL     1     -21.138   1.422   7.099  1.00  0.00     0.004 C 
ENDBRANCH   9  10
ENDBRANCH   8   9
ENDBRANCH   1   8
TORSDOF 6
ENDMDL
MODEL 4
REMARK VINA RESULT:    -3.600      3.102      5.078
REMARK INTER + INTRA:          -5.000
REMARK INTER:                  -4.758
REMARK INTRA:                  -0.242
REMARK UNBOUND:                -0.137
REMARK SMILES CCCCCCC=CC(=O)[O-]
REMARK SMILES IDX 5 1 6 2 7 3 8 4 9 5 10 6 11 7 4 8 3 9 2 10 1 11
REMARK H PARENT
REMARK Flexibility Score: inf
ROOT
ATOM      1  C   UNL     1     -21.869   1.753   9.617  1.00  0.00     0.004 C 
ENDROOT
BRANCH   1   2
ATOM      2  C   UNL     1     -22.459   1.219  10.936  1.00  0.00     0.027 C 
BRANCH   2   3
ATOM      3  C   UNL     1     -21.727   1.729  12.149  1.00  0.00    -0.025 C 
ATOM      4  C   UNL     1     -21.432   1.020  13.252  1.00  0.00     0.020 C 
BRANCH   4   5
ATOM      5  C   UNL     1     -21.706  -0.414  13.476  1.00  0.00     0.064 C 
ATOM      6  O   UNL     1     -22.499  -0.746  14.394  1.00  0.00    -0.545 OA
ATOM      7  O   UNL     1     -21.087  -1.411  12.733  1.00  0.00    -0.545 OA
ENDBRANCH   4   5
ENDBRANCH   2   3
ENDBRANCH   1   2
BRANCH   1   8
ATOM      8  C   UNL     1     -21.378   0.658   8.648  1.00  0.00     0.000 C 
BRANCH   8   9
ATOM      9  C   UNL     1     -21.051   1.144   7.225  1.00  0.00    -0.000 C 
BRANCH   9  10
ATOM     10  C   UNL     1     -21.018   0.005   6.196  1.00  0.00    -0.003 C 
ATOM     11  C   UNL     1     -21.030  -1.358   6.885  1.00  0.00     0.004 C 
ENDBRANCH   9  10
ENDBRANCH   8   9
ENDBRANCH   1   8
TORSDOF 6
ENDMDL
MODEL 5
REMARK VINA RESULT:    -3.490      2.171      4.935
REMARK INTER + INTRA:          -4.851
REMARK INTER:                  -4.786
REMARK INTRA:                  -0.065
REMARK UNBOUND:                -0.137
REMARK SMILES CCCCCCC=CC(=O)[O-]
REMARK SMILES IDX 5 1 6 2 7 3 8 4 9 5 10 6 11 7 4 8 3 9 2 10 1 11
REMARK H PARENT
REMARK Flexibility Score: inf
ROOT
ATOM      1  C   UNL     1     -20.888  -1.866   6.960  1.00  0.00     0.004 C 
ENDROOT
BRANCH   1   2
ATOM      2  C   UNL     1     -21.743  -0.590   7.080  1.00  0.00     0.027 C 
BRANCH   2   3
ATOM      3  C   UNL     1     -20.991   0.653   6.685  1.00  0.00    -0.025 C 
ATOM      4  C   UNL     1     -21.080   1.854   7.278  1.00  0.00     0.020 C 
BRANCH   4   5
ATOM      5  C   UNL     1     -21.880   2.188   8.475  1.00  0.00     0.064 C 
ATOM      6  O   UNL     1     -22.494   3.285   8.509  1.00  0.00    -0.545 OA
ATOM      7  O   UNL     1     -21.944   1.350   9.580  1.00  0.00    -0.545 OA
ENDBRANCH   4   5
ENDBRANCH   2   3
ENDBRANCH   1   2
BRANCH   1   8
ATOM      8  C   UNL     1     -20.425  -2.453   8.309  1.00  0.00     0.000 C 
BRANCH   8   9
ATOM      9  C   UNL     1     -20.733  -1.583   9.540  1.00  0.00    -0.000 C 
BRANCH   9  10
ATOM     10  C   UNL     1     -20.178  -2.174  10.845  1.00  0.00    -0.003 C 
ATOM     11  C   UNL     1     -21.060  -1.804  12.034  1.00  0.00     0.004 C 
ENDBRANCH   9  10
ENDBRANCH   8   9
ENDBRANCH   1   8
TORSDOF 6
ENDMDL
MODEL 6
REMARK VINA RESULT:    -3.315      1.405      2.365
REMARK INTER + INTRA:          -4.614
REMARK INTER:                  -4.784
REMARK INTRA:                   0.169
REMARK UNBOUND:                -0.137
REMARK SMILES CCCCCCC=CC(=O)[O-]
REMARK SMILES IDX 5 1 6 2 7 3 8 4 9 5 10 6 11 7 4 8 3 9 2 10 1 11
REMARK H PARENT
REMARK Flexibility Score: inf
ROOT
ATOM      1  C   UNL     1     -21.586   1.931   7.286  1.00  0.00     0.004 C 
ENDROOT
BRANCH   1   2
ATOM      2  C   UNL     1     -20.593   0.753   7.248  1.00  0.00     0.027 C 
BRANCH   2   3
ATOM      3  C   UNL     1     -21.120  -0.426   6.475  1.00  0.00    -0.025 C 
ATOM      4  C   UNL     1     -21.101  -1.708   6.877  1.00  0.00     0.020 C 
BRANCH   4   5
ATOM      5  C   UNL     1     -20.622  -2.216   8.179  1.00  0.00     0.064 C 
ATOM      6  O   UNL     1     -20.796  -1.511   9.207  1.00  0.00    -0.545 OA
ATOM      7  O   UNL     1     -19.952  -3.425   8.302  1.00  0.00    -0.545 OA
ENDBRANCH   4   5
ENDBRANCH   2   3
ENDBRANCH   1   2
BRANCH   1   8
ATOM      8  C   UNL     1     -21.992   2.378   8.705  1.00  0.00     0.000 C 
BRANCH   8   9
ATOM      9  C   UNL     1     -21.801   1.317   9.804  1.00  0.00    -0.000 C 
BRANCH   9  10
ATOM     10  C   UNL     1     -22.629   1.607  11.065  1.00  0.00    -0.003 C 
ATOM     11  C   UNL     1     -21.839   1.278  12.328  1.00  0.00     0.004 C 
ENDBRANCH   9  10
ENDBRANCH   8   9
ENDBRANCH   1   8
TORSDOF 6
ENDMDL
MODEL 7
REMARK VINA RESULT:    -3.005      3.271      5.562
REMARK INTER + INTRA:          -4.196
REMARK INTER:                  -3.961
REMARK INTRA:                  -0.235
REMARK UNBOUND:                -0.137
REMARK SMILES CCCCCCC=CC(=O)[O-]
REMARK SMILES IDX 5 1 6 2 7 3 8 4 9 5 10 6 11 7 4 8 3 9 2 10 1 11
REMARK H PARENT
REMARK Flexibility Score: inf
ROOT
ATOM      1  C   UNL     1     -20.514   0.792   6.871  1.00  0.00     0.004 C 
ENDROOT
BRANCH   1   2
ATOM      2  C   UNL     1     -21.423   2.013   7.109  1.00  0.00     0.027 C 
BRANCH   2   3
ATOM      3  C   UNL     1     -21.943   2.084   8.521  1.00  0.00    -0.025 C 
ATOM      4  C   UNL     1     -22.265   3.203   9.190  1.00  0.00     0.020 C 
BRANCH   4   5
ATOM      5  C   UNL     1     -22.239   4.583   8.662  1.00  0.00     0.064 C 
ATOM      6  O   UNL     1     -22.996   4.881   7.703  1.00  0.00    -0.545 OA
ATOM      7  O   UNL     1     -21.380   5.551   9.163  1.00  0.00    -0.545 OA
ENDBRANCH   4   5
ENDBRANCH   2   3
ENDBRANCH   1   2
BRANCH   1   8
ATOM      8  C   UNL     1     -21.264  -0.553   6.777  1.00  0.00     0.000 C 
BRANCH   8   9
ATOM      9  C   UNL     1     -20.857  -1.602   7.827  1.00  0.00    -0.000 C 
BRANCH   9  10
ATOM     10  C   UNL     1     -20.945  -1.074   9.266  1.00  0.00    -0.003 C 
ATOM     11  C   UNL     1     -20.443  -2.113  10.265  1.00  0.00     0.004 C 
ENDBRANCH   9  10
ENDBRANCH   8   9
ENDBRANCH   1   8
TORSDOF 6
ENDMDL
MODEL 8
REMARK VINA RESULT:    -2.987      3.088      4.743
REMARK INTER + INTRA:          -4.172
REMARK INTER:                  -3.896
REMARK INTRA:                  -0.275
REMARK UNBOUND:                -0.137
REMARK SMILES CCCCCCC=CC(=O)[O-]
REMARK SMILES IDX 5 1 6 2 7 3 8 4 9 5 10 6 11 7 4 8 3 9 2 10 1 11
REMARK H PARENT
REMARK Flexibility Score: inf
ROOT
ATOM      1  C   UNL     1     -21.008  -2.267   9.724  1.00  0.00     0.004 C 
ENDROOT
BRANCH   1   2
ATOM      2  C   UNL     1     -20.182  -2.147   8.430  1.00  0.00     0.027 C 
BRANCH   2   3
ATOM      3  C   UNL     1     -21.027  -1.821   7.228  1.00  0.00    -0.025 C 
ATOM      4  C   UNL     1     -21.454  -0.599   6.868  1.00  0.00     0.020 C 
BRANCH   4   5
ATOM      5  C   UNL     1     -21.129   0.678   7.535  1.00  0.00     0.064 C 
ATOM      6  O   UNL     1     -20.342   1.478   6.966  1.00  0.00    -0.545 OA
ATOM      7  O   UNL     1     -21.629   1.008   8.787  1.00  0.00    -0.545 OA
ENDBRANCH   4   5
ENDBRANCH   2   3
ENDBRANCH   1   2
BRANCH   1   8
ATOM      8  C   UNL     1     -20.284  -1.772  10.993  1.00  0.00     0.000 C 
BRANCH   8   9
ATOM      9  C   UNL     1     -21.093  -1.895  12.297  1.00  0.00    -0.000 C 
BRANCH   9  10
ATOM     10  C   UNL     1     -21.361  -0.538  12.964  1.00  0.00    -0.003 C 
ATOM     11  C   UNL     1     -21.949  -0.719  14.361  1.00  0.00     0.004 C 
ENDBRANCH   9  10
ENDBRANCH   8   9
ENDBRANCH   1   8
TORSDOF 6
ENDMDL
MODEL 9
REMARK VINA RESULT:    -2.942      2.799      3.798
REMARK INTER + INTRA:          -4.112
REMARK INTER:                  -3.937
REMARK INTRA:                  -0.175
REMARK UNBOUND:                -0.137
REMARK SMILES CCCCCCC=CC(=O)[O-]
REMARK SMILES IDX 5 1 6 2 7 3 8 4 9 5 10 6 11 7 4 8 3 9 2 10 1 11
REMARK H PARENT
REMARK Flexibility Score: inf
ROOT
ATOM      1  C   UNL     1     -21.650   1.031   9.745  1.00  0.00     0.004 C 
ENDROOT
BRANCH   1   2
ATOM      2  C   UNL     1     -22.010   1.624   8.370  1.00  0.00     0.027 C 
BRANCH   2   3
ATOM      3  C   UNL     1     -20.912   1.447   7.356  1.00  0.00    -0.025 C 
ATOM      4  C   UNL     1     -20.498   0.281   6.832  1.00  0.00     0.020 C 
BRANCH   4   5
ATOM      5  C   UNL     1     -21.074  -1.054   7.092  1.00  0.00     0.064 C 
ATOM      6  O   UNL     1     -22.045  -1.443   6.393  1.00  0.00    -0.545 OA
ATOM      7  O   UNL     1     -20.607  -1.878   8.107  1.00  0.00    -0.545 OA
ENDBRANCH   4   5
ENDBRANCH   2   3
ENDBRANCH   1   2
BRANCH   1   8
ATOM      8  C   UNL     1     -22.297   1.758  10.943  1.00  0.00     0.000 C 
BRANCH   8   9
ATOM      9  C   UNL     1     -21.696   1.415  12.317  1.00  0.00    -0.000 C 
BRANCH   9  10
ATOM     10  C   UNL     1     -21.724  -0.090  12.624  1.00  0.00    -0.003 C 
ATOM     11  C   UNL     1     -21.370  -0.360  14.084  1.00  0.00     0.004 C 
ENDBRANCH   9  10
ENDBRANCH   8   9
ENDBRANCH   1   8
TORSDOF 6
ENDMDL
