MODEL 1
REMARK VINA RESULT:    -5.507      0.000      0.000
REMARK INTER + INTRA:          -5.507
REMARK INTER:                  -5.507
REMARK INTRA:                   0.000
REMARK UNBOUND:                 0.000
REMARK SMILES O=c1ccc2ccccc2o1
REMARK SMILES IDX 7 1 8 2 9 3 10 4 5 5 6 6 4 7 3 8 2 9 1 10 11 11
REMARK H PARENT
REMARK Flexibility Score: inf
ROOT
ATOM      1  C   UNL     1      31.437  24.153  46.872  1.00  0.00     0.001 A 
ATOM      2  C   UNL     1      31.679  23.008  47.638  1.00  0.00     0.004 A 
ATOM      3  C   UNL     1      30.664  22.464  48.431  1.00  0.00     0.048 A 
ATOM      4  C   UNL     1      29.400  23.063  48.461  1.00  0.00     0.138 A 
ATOM      5  C   UNL     1      29.155  24.219  47.688  1.00  0.00     0.018 A 
ATOM      6  C   UNL     1      30.176  24.761  46.895  1.00  0.00     0.012 A 
ATOM      7  C   UNL     1      27.882  24.797  47.737  1.00  0.00     0.019 A 
ATOM      8  C   UNL     1      26.900  24.220  48.542  1.00  0.00     0.094 A 
ATOM      9  C   UNL     1      27.215  23.073  49.281  1.00  0.00     0.336 A 
ATOM     10  O   UNL     1      26.342  22.538  50.012  1.00  0.00    -0.246 OA
ATOM     11  O   UNL     1      28.434  22.544  49.215  1.00  0.00    -0.423 OA
ENDROOT
TORSDOF 0
ENDMDL
MODEL 2
REMARK VINA RESULT:    -5.463      2.261      3.695
REMARK INTER + INTRA:          -5.463
REMARK INTER:                  -5.463
REMARK INTRA:                   0.000
REMARK UNBOUND:                 0.000
REMARK SMILES O=c1ccc2ccccc2o1
REMARK SMILES IDX 7 1 8 2 9 3 10 4 5 5 6 6 4 7 3 8 2 9 1 10 11 11
REMARK H PARENT
REMARK Flexibility Score: inf
ROOT
ATOM      1  C   UNL     1      28.162  23.237  51.762  1.00  0.00     0.001 A 
ATOM      2  C   UNL     1      27.257  22.235  51.392  1.00  0.00     0.004 A 
ATOM      3  C   UNL     1      26.810  22.143  50.071  1.00  0.00     0.048 A 
ATOM      4  C   UNL     1      27.265  23.054  49.111  1.00  0.00     0.138 A 
ATOM      5  C   UNL     1      28.177  24.066  49.484  1.00  0.00     0.018 A 
ATOM      6  C   UNL     1      28.623  24.154  50.810  1.00  0.00     0.012 A 
ATOM      7  C   UNL     1      28.615  24.962  48.503  1.00  0.00     0.019 A 
ATOM      8  C   UNL     1      28.142  24.832  47.198  1.00  0.00     0.094 A 
ATOM      9  C   UNL     1      27.239  23.804  46.902  1.00  0.00     0.336 A 
ATOM     10  O   UNL     1      26.802  23.671  45.730  1.00  0.00    -0.246 OA
ATOM     11  O   UNL     1      26.839  22.965  47.854  1.00  0.00    -0.423 OA
ENDROOT
TORSDOF 0
ENDMDL
MODEL 3
REMARK VINA RESULT:    -5.435      1.469      2.566
REMARK INTER + INTRA:          -5.435
REMARK INTER:                  -5.435
REMARK INTRA:                   0.000
REMARK UNBOUND:                 0.000
REMARK SMILES O=c1ccc2ccccc2o1
REMARK SMILES IDX 7 1 8 2 9 3 10 4 5 5 6 6 4 7 3 8 2 9 1 10 11 11
REMARK H PARENT
REMARK Flexibility Score: inf
ROOT
ATOM      1  C   UNL     1      29.081  25.019  45.935  1.00  0.00     0.001 A 
ATOM      2  C   UNL     1      27.764  24.676  45.608  1.00  0.00     0.004 A 
ATOM      3  C   UNL     1      26.985  23.942  46.507  1.00  0.00     0.048 A 
ATOM      4  C   UNL     1      27.519  23.547  47.740  1.00  0.00     0.138 A 
ATOM      5  C   UNL     1      28.848  23.894  48.069  1.00  0.00     0.018 A 
ATOM      6  C   UNL     1      29.625  24.630  47.163  1.00  0.00     0.012 A 
ATOM      7  C   UNL     1      29.356  23.486  49.307  1.00  0.00     0.019 A 
ATOM      8  C   UNL     1      28.542  22.755  50.172  1.00  0.00     0.094 A 
ATOM      9  C   UNL     1      27.234  22.449  49.779  1.00  0.00     0.336 A 
ATOM     10  O   UNL     1      26.485  21.791  50.546  1.00  0.00    -0.246 OA
ATOM     11  O   UNL     1      26.776  22.850  48.595  1.00  0.00    -0.423 OA
ENDROOT
TORSDOF 0
ENDMDL
MODEL 4
REMARK VINA RESULT:    -5.331      1.992      3.704
REMARK INTER + INTRA:          -5.331
REMARK INTER:                  -5.331
REMARK INTRA:                   0.000
REMARK UNBOUND:                 0.000
REMARK SMILES O=c1ccc2ccccc2o1
REMARK SMILES IDX 7 1 8 2 9 3 10 4 5 5 6 6 4 7 3 8 2 9 1 10 11 11
REMARK H PARENT
REMARK Flexibility Score: inf
ROOT
ATOM      1  C   UNL     1      27.016  22.021  50.231  1.00  0.00     0.001 A 
ATOM      2  C   UNL     1      28.369  21.916  50.576  1.00  0.00     0.004 A 
ATOM      3  C   UNL     1      29.343  22.560  49.808  1.00  0.00     0.048 A 
ATOM      4  C   UNL     1      28.970  23.314  48.689  1.00  0.00     0.138 A 
ATOM      5  C   UNL     1      27.605  23.420  48.340  1.00  0.00     0.018 A 
ATOM      6  C   UNL     1      26.632  22.772  49.114  1.00  0.00     0.012 A 
ATOM      7  C   UNL     1      27.260  24.180  47.217  1.00  0.00     0.019 A 
ATOM      8  C   UNL     1      28.267  24.804  46.481  1.00  0.00     0.094 A 
ATOM      9  C   UNL     1      29.598  24.656  46.886  1.00  0.00     0.336 A 
ATOM     10  O   UNL     1      30.519  25.212  46.234  1.00  0.00    -0.246 OA
ATOM     11  O   UNL     1      29.897  23.927  47.959  1.00  0.00    -0.423 OA
ENDROOT
TORSDOF 0
ENDMDL
MODEL 5
REMARK VINA RESULT:    -5.256      1.792      3.183
REMARK INTER + INTRA:          -5.256
REMARK INTER:                  -5.256
REMARK INTRA:                   0.000
REMARK UNBOUND:                 0.000
REMARK SMILES O=c1ccc2ccccc2o1
REMARK SMILES IDX 7 1 8 2 9 3 10 4 5 5 6 6 4 7 3 8 2 9 1 10 11 11
REMARK H PARENT
REMARK Flexibility Score: inf
ROOT
ATOM      1  C   UNL     1      28.661  24.488  47.118  1.00  0.00     0.001 A 
ATOM      2  C   UNL     1      27.330  24.731  47.478  1.00  0.00     0.004 A 
ATOM      3  C   UNL     1      26.866  24.362  48.744  1.00  0.00     0.048 A 
ATOM      4  C   UNL     1      27.731  23.749  49.658  1.00  0.00     0.138 A 
ATOM      5  C   UNL     1      29.074  23.503  49.294  1.00  0.00     0.018 A 
ATOM      6  C   UNL     1      29.535  23.875  48.022  1.00  0.00     0.012 A 
ATOM      7  C   UNL     1      29.916  22.889  50.226  1.00  0.00     0.019 A 
ATOM      8  C   UNL     1      29.409  22.538  51.477  1.00  0.00     0.094 A 
ATOM      9  C   UNL     1      28.068  22.812  51.769  1.00  0.00     0.336 A 
ATOM     10  O   UNL     1      27.593  22.504  52.892  1.00  0.00    -0.246 OA
ATOM     11  O   UNL     1      27.289  23.399  50.863  1.00  0.00    -0.423 OA
ENDROOT
TORSDOF 0
ENDMDL
MODEL 6
REMARK VINA RESULT:    -5.246      1.719      2.526
REMARK INTER + INTRA:          -5.246
REMARK INTER:                  -5.246
REMARK INTRA:                   0.000
REMARK UNBOUND:                 0.000
REMARK SMILES O=c1ccc2ccccc2o1
REMARK SMILES IDX 7 1 8 2 9 3 10 4 5 5 6 6 4 7 3 8 2 9 1 10 11 11
REMARK H PARENT
REMARK Flexibility Score: inf
ROOT
ATOM      1  C   UNL     1      28.046  24.897  45.740  1.00  0.00     0.001 A 
ATOM      2  C   UNL     1      29.423  24.901  45.990  1.00  0.00     0.004 A 
ATOM      3  C   UNL     1      29.909  24.570  47.258  1.00  0.00     0.048 A 
ATOM      4  C   UNL     1      29.019  24.234  48.285  1.00  0.00     0.138 A 
ATOM      5  C   UNL     1      27.629  24.231  48.033  1.00  0.00     0.018 A 
ATOM      6  C   UNL     1      27.147  24.563  46.759  1.00  0.00     0.012 A 
ATOM      7  C   UNL     1      26.764  23.890  49.078  1.00  0.00     0.019 A 
ATOM      8  C   UNL     1      27.294  23.568  50.327  1.00  0.00     0.094 A 
ATOM      9  C   UNL     1      28.682  23.592  50.503  1.00  0.00     0.336 A 
ATOM     10  O   UNL     1      29.178  23.304  51.623  1.00  0.00    -0.246 OA
ATOM     11  O   UNL     1      29.483  23.919  49.492  1.00  0.00    -0.423 OA
ENDROOT
TORSDOF 0
ENDMDL
MODEL 7
REMARK VINA RESULT:    -5.176      1.811      3.215
REMARK INTER + INTRA:          -5.176
REMARK INTER:                  -5.176
REMARK INTRA:                   0.000
REMARK UNBOUND:                 0.000
REMARK SMILES O=c1ccc2ccccc2o1
REMARK SMILES IDX 7 1 8 2 9 3 10 4 5 5 6 6 4 7 3 8 2 9 1 10 11 11
REMARK H PARENT
REMARK Flexibility Score: inf
ROOT
ATOM      1  C   UNL     1      27.378  24.769  47.549  1.00  0.00     0.001 A 
ATOM      2  C   UNL     1      28.695  24.479  47.175  1.00  0.00     0.004 A 
ATOM      3  C   UNL     1      29.526  23.752  48.032  1.00  0.00     0.048 A 
ATOM      4  C   UNL     1      29.044  23.311  49.270  1.00  0.00     0.138 A 
ATOM      5  C   UNL     1      27.715  23.604  49.649  1.00  0.00     0.018 A 
ATOM      6  C   UNL     1      26.885  24.333  48.785  1.00  0.00     0.012 A 
ATOM      7  C   UNL     1      27.260  23.151  50.891  1.00  0.00     0.019 A 
ATOM      8  C   UNL     1      28.125  22.430  51.714  1.00  0.00     0.094 A 
ATOM      9  C   UNL     1      29.429  22.177  51.273  1.00  0.00     0.336 A 
ATOM     10  O   UNL     1      30.224  21.527  52.001  1.00  0.00    -0.246 OA
ATOM     11  O   UNL     1      29.836  22.619  50.085  1.00  0.00    -0.423 OA
ENDROOT
TORSDOF 0
ENDMDL
MODEL 8
REMARK VINA RESULT:    -5.117      1.874      2.670
REMARK INTER + INTRA:          -5.117
REMARK INTER:                  -5.117
REMARK INTRA:                   0.000
REMARK UNBOUND:                 0.000
REMARK SMILES O=c1ccc2ccccc2o1
REMARK SMILES IDX 7 1 8 2 9 3 10 4 5 5 6 6 4 7 3 8 2 9 1 10 11 11
REMARK H PARENT
REMARK Flexibility Score: inf
ROOT
ATOM      1  C   UNL     1      30.840  22.612  50.446  1.00  0.00     0.001 A 
ATOM      2  C   UNL     1      31.444  22.546  49.185  1.00  0.00     0.004 A 
ATOM      3  C   UNL     1      30.773  23.029  48.058  1.00  0.00     0.048 A 
ATOM      4  C   UNL     1      29.493  23.582  48.185  1.00  0.00     0.138 A 
ATOM      5  C   UNL     1      28.883  23.647  49.458  1.00  0.00     0.018 A 
ATOM      6  C   UNL     1      29.560  23.161  50.586  1.00  0.00     0.012 A 
ATOM      7  C   UNL     1      27.603  24.204  49.556  1.00  0.00     0.019 A 
ATOM      8  C   UNL     1      26.973  24.673  48.404  1.00  0.00     0.094 A 
ATOM      9  C   UNL     1      27.638  24.576  47.177  1.00  0.00     0.336 A 
ATOM     10  O   UNL     1      27.085  24.994  46.127  1.00  0.00    -0.246 OA
ATOM     11  O   UNL     1      28.856  24.042  47.112  1.00  0.00    -0.423 OA
ENDROOT
TORSDOF 0
ENDMDL
MODEL 9
REMARK VINA RESULT:    -5.076      1.472      3.602
REMARK INTER + INTRA:          -5.076
REMARK INTER:                  -5.076
REMARK INTRA:                   0.000
REMARK UNBOUND:                 0.000
REMARK SMILES O=c1ccc2ccccc2o1
REMARK SMILES IDX 7 1 8 2 9 3 10 4 5 5 6 6 4 7 3 8 2 9 1 10 11 11
REMARK H PARENT
REMARK Flexibility Score: inf
ROOT
ATOM      1  C   UNL     1      27.423  24.813  47.504  1.00  0.00     0.001 A 
ATOM      2  C   UNL     1      26.939  24.432  48.761  1.00  0.00     0.004 A 
ATOM      3  C   UNL     1      27.758  23.723  49.645  1.00  0.00     0.048 A 
ATOM      4  C   UNL     1      29.066  23.390  49.276  1.00  0.00     0.138 A 
ATOM      5  C   UNL     1      29.555  23.775  48.007  1.00  0.00     0.018 A 
ATOM      6  C   UNL     1      28.730  24.486  47.125  1.00  0.00     0.012 A 
ATOM      7  C   UNL     1      30.867  23.429  47.666  1.00  0.00     0.019 A 
ATOM      8  C   UNL     1      31.647  22.721  48.579  1.00  0.00     0.094 A 
ATOM      9  C   UNL     1      31.096  22.375  49.818  1.00  0.00     0.336 A 
ATOM     10  O   UNL     1      31.785  21.736  50.656  1.00  0.00    -0.246 OA
ATOM     11  O   UNL     1      29.845  22.716  50.118  1.00  0.00    -0.423 OA
ENDROOT
TORSDOF 0
ENDMDL
