MODEL 1
REMARK VINA RESULT:    -3.997      0.000      0.000
REMARK INTER + INTRA:          -8.476
REMARK INTER:                  -7.035
REMARK INTRA:                  -1.441
REMARK UNBOUND:                -1.441
REMARK SMILES CCCCCCC=CCCCCCCCC(=O)[O-]
REMARK SMILES IDX 10 1 11 2 12 3 13 4 14 5 15 6 16 7 17 8 18 9 9 10 8 11 7 12
REMARK SMILES IDX 6 13 5 14 4 15 3 16 2 17 1 18
REMARK H PARENT
REMARK Flexibility Score: inf
ROOT
ATOM      1  C   UNL     1      15.775  25.002  81.716  1.00  0.00     0.004 C 
ENDROOT
BRANCH   1   2
ATOM      2  C   UNL     1      15.234  24.353  82.998  1.00  0.00     0.000 C 
BRANCH   2   3
ATOM      3  C   UNL     1      14.342  25.334  83.775  1.00  0.00     0.000 C 
BRANCH   3   4
ATOM      4  C   UNL     1      12.853  25.177  83.436  1.00  0.00     0.000 C 
BRANCH   4   5
ATOM      5  C   UNL     1      12.239  26.457  82.838  1.00  0.00     0.006 C 
BRANCH   5   6
ATOM      6  C   UNL     1      11.115  27.024  83.717  1.00  0.00     0.053 C 
BRANCH   6   7
ATOM      7  C   UNL     1      11.129  28.522  83.735  1.00  0.00     0.041 C 
ATOM      8  O   UNL     1      10.754  29.148  84.761  1.00  0.00    -0.550 OA
ATOM      9  O   UNL     1      11.520  29.227  82.604  1.00  0.00    -0.550 OA
ENDBRANCH   6   7
ENDBRANCH   5   6
ENDBRANCH   4   5
ENDBRANCH   3   4
ENDBRANCH   2   3
ENDBRANCH   1   2
BRANCH   1  10
ATOM     10  C   UNL     1      15.355  24.235  80.454  1.00  0.00     0.027 C 
BRANCH  10  11
ATOM     11  C   UNL     1      14.100  24.808  79.838  1.00  0.00    -0.031 C 
ATOM     12  C   UNL     1      12.879  24.248  79.926  1.00  0.00    -0.031 C 
BRANCH  12  13
ATOM     13  C   UNL     1      12.591  22.917  80.573  1.00  0.00     0.027 C 
BRANCH  13  14
ATOM     14  C   UNL     1      12.291  21.853  79.512  1.00  0.00     0.004 C 
BRANCH  14  15
ATOM     15  C   UNL     1      13.592  21.302  78.907  1.00  0.00     0.000 C 
BRANCH  15  16
ATOM     16  C   UNL     1      13.767  19.791  79.146  1.00  0.00    -0.000 C 
BRANCH  16  17
ATOM     17  C   UNL     1      13.535  18.908  77.907  1.00  0.00    -0.003 C 
ATOM     18  C   UNL     1      13.598  17.413  78.215  1.00  0.00     0.004 C 
ENDBRANCH  16  17
ENDBRANCH  15  16
ENDBRANCH  14  15
ENDBRANCH  13  14
ENDBRANCH  12  13
ENDBRANCH  10  11
ENDBRANCH   1  10
TORSDOF 13
ENDMDL
MODEL 2
REMARK VINA RESULT:    -3.971      1.556      3.218
REMARK INTER + INTRA:          -8.429
REMARK INTER:                  -6.244
REMARK INTRA:                  -2.186
REMARK UNBOUND:                -1.441
REMARK SMILES CCCCCCC=CCCCCCCCC(=O)[O-]
REMARK SMILES IDX 10 1 11 2 12 3 13 4 14 5 15 6 16 7 17 8 18 9 9 10 8 11 7 12
REMARK SMILES IDX 6 13 5 14 4 15 3 16 2 17 1 18
REMARK H PARENT
REMARK Flexibility Score: inf
ROOT
ATOM      1  C   UNL     1      15.706  24.234  80.308  1.00  0.00     0.004 C 
ENDROOT
BRANCH   1   2
ATOM      2  C   UNL     1      15.187  23.686  81.646  1.00  0.00     0.000 C 
BRANCH   2   3
ATOM      3  C   UNL     1      15.430  24.691  82.782  1.00  0.00     0.000 C 
BRANCH   3   4
ATOM      4  C   UNL     1      14.201  24.879  83.682  1.00  0.00     0.000 C 
BRANCH   4   5
ATOM      5  C   UNL     1      12.877  24.860  82.895  1.00  0.00     0.006 C 
BRANCH   5   6
ATOM      6  C   UNL     1      12.622  26.185  82.162  1.00  0.00     0.053 C 
BRANCH   6   7
ATOM      7  C   UNL     1      11.853  27.149  83.012  1.00  0.00     0.041 C 
ATOM      8  O   UNL     1      11.133  26.729  83.956  1.00  0.00    -0.550 OA
ATOM      9  O   UNL     1      11.900  28.509  82.736  1.00  0.00    -0.550 OA
ENDBRANCH   6   7
ENDBRANCH   5   6
ENDBRANCH   4   5
ENDBRANCH   3   4
ENDBRANCH   2   3
ENDBRANCH   1   2
BRANCH   1  10
ATOM     10  C   UNL     1      15.553  23.220  79.166  1.00  0.00     0.027 C 
BRANCH  10  11
ATOM     11  C   UNL     1      15.679  21.797  79.655  1.00  0.00    -0.031 C 
ATOM     12  C   UNL     1      14.715  20.863  79.552  1.00  0.00    -0.031 C 
BRANCH  12  13
ATOM     13  C   UNL     1      13.329  21.119  79.017  1.00  0.00     0.027 C 
BRANCH  13  14
ATOM     14  C   UNL     1      12.416  21.670  80.117  1.00  0.00     0.004 C 
BRANCH  14  15
ATOM     15  C   UNL     1      11.844  23.039  79.719  1.00  0.00     0.000 C 
BRANCH  15  16
ATOM     16  C   UNL     1      11.622  23.174  78.202  1.00  0.00    -0.000 C 
BRANCH  16  17
ATOM     17  C   UNL     1      12.274  24.412  77.560  1.00  0.00    -0.003 C 
ATOM     18  C   UNL     1      12.594  25.514  78.568  1.00  0.00     0.004 C 
ENDBRANCH  16  17
ENDBRANCH  15  16
ENDBRANCH  14  15
ENDBRANCH  13  14
ENDBRANCH  12  13
ENDBRANCH  10  11
ENDBRANCH   1  10
TORSDOF 13
ENDMDL
MODEL 3
REMARK VINA RESULT:    -3.882      2.243      4.613
REMARK INTER + INTRA:          -8.274
REMARK INTER:                  -6.502
REMARK INTRA:                  -1.772
REMARK UNBOUND:                -1.441
REMARK SMILES CCCCCCC=CCCCCCCCC(=O)[O-]
REMARK SMILES IDX 10 1 11 2 12 3 13 4 14 5 15 6 16 7 17 8 18 9 9 10 8 11 7 12
REMARK SMILES IDX 6 13 5 14 4 15 3 16 2 17 1 18
REMARK H PARENT
REMARK Flexibility Score: inf
ROOT
ATOM      1  C   UNL     1      15.020  21.203  78.306  1.00  0.00     0.004 C 
ENDROOT
BRANCH   1   2
ATOM      2  C   UNL     1      13.576  21.726  78.273  1.00  0.00     0.000 C 
BRANCH   2   3
ATOM      3  C   UNL     1      12.828  21.353  79.562  1.00  0.00     0.000 C 
BRANCH   3   4
ATOM      4  C   UNL     1      12.228  22.573  80.275  1.00  0.00     0.000 C 
BRANCH   4   5
ATOM      5  C   UNL     1      13.290  23.622  80.657  1.00  0.00     0.006 C 
BRANCH   5   6
ATOM      6  C   UNL     1      12.919  24.379  81.940  1.00  0.00     0.053 C 
BRANCH   6   7
ATOM      7  C   UNL     1      12.929  25.862  81.730  1.00  0.00     0.041 C 
ATOM      8  O   UNL     1      12.584  26.349  80.621  1.00  0.00    -0.550 OA
ATOM      9  O   UNL     1      13.357  26.705  82.747  1.00  0.00    -0.550 OA
ENDBRANCH   6   7
ENDBRANCH   5   6
ENDBRANCH   4   5
ENDBRANCH   3   4
ENDBRANCH   2   3
ENDBRANCH   1   2
BRANCH   1  10
ATOM     10  C   UNL     1      15.418  20.681  79.694  1.00  0.00     0.027 C 
BRANCH  10  11
ATOM     11  C   UNL     1      16.219  19.403  79.607  1.00  0.00    -0.031 C 
ATOM     12  C   UNL     1      15.693  18.165  79.663  1.00  0.00    -0.031 C 
BRANCH  12  13
ATOM     13  C   UNL     1      14.238  17.863  79.914  1.00  0.00     0.027 C 
BRANCH  13  14
ATOM     14  C   UNL     1      13.636  17.084  78.740  1.00  0.00     0.004 C 
BRANCH  14  15
ATOM     15  C   UNL     1      13.214  18.035  77.611  1.00  0.00     0.000 C 
BRANCH  15  16
ATOM     16  C   UNL     1      14.173  17.995  76.408  1.00  0.00    -0.000 C 
BRANCH  16  17
ATOM     17  C   UNL     1      13.490  18.079  75.031  1.00  0.00    -0.003 C 
ATOM     18  C   UNL     1      12.063  18.620  75.100  1.00  0.00     0.004 C 
ENDBRANCH  16  17
ENDBRANCH  15  16
ENDBRANCH  14  15
ENDBRANCH  13  14
ENDBRANCH  12  13
ENDBRANCH  10  11
ENDBRANCH   1  10
TORSDOF 13
ENDMDL
MODEL 4
REMARK VINA RESULT:    -3.874      4.759      8.309
REMARK INTER + INTRA:          -8.260
REMARK INTER:                  -6.676
REMARK INTRA:                  -1.584
REMARK UNBOUND:                -1.441
REMARK SMILES CCCCCCC=CCCCCCCCC(=O)[O-]
REMARK SMILES IDX 10 1 11 2 12 3 13 4 14 5 15 6 16 7 17 8 18 9 9 10 8 11 7 12
REMARK SMILES IDX 6 13 5 14 4 15 3 16 2 17 1 18
REMARK H PARENT
REMARK Flexibility Score: inf
ROOT
ATOM      1  C   UNL     1      12.268  21.845  80.022  1.00  0.00     0.004 C 
ENDROOT
BRANCH   1   2
ATOM      2  C   UNL     1      13.609  21.617  79.311  1.00  0.00     0.000 C 
BRANCH   2   3
ATOM      3  C   UNL     1      13.916  20.116  79.184  1.00  0.00     0.000 C 
BRANCH   3   4
ATOM      4  C   UNL     1      13.765  19.599  77.747  1.00  0.00     0.000 C 
BRANCH   4   5
ATOM      5  C   UNL     1      13.290  18.134  77.687  1.00  0.00     0.006 C 
BRANCH   5   6
ATOM      6  C   UNL     1      14.433  17.144  77.948  1.00  0.00     0.053 C 
BRANCH   6   7
ATOM      7  C   UNL     1      14.264  16.436  79.256  1.00  0.00     0.041 C 
ATOM      8  O   UNL     1      13.589  15.375  79.322  1.00  0.00    -0.550 OA
ATOM      9  O   UNL     1      14.820  16.969  80.412  1.00  0.00    -0.550 OA
ENDBRANCH   6   7
ENDBRANCH   5   6
ENDBRANCH   4   5
ENDBRANCH   3   4
ENDBRANCH   2   3
ENDBRANCH   1   2
BRANCH   1  10
ATOM     10  C   UNL     1      11.326  22.749  79.214  1.00  0.00     0.027 C 
BRANCH  10  11
ATOM     11  C   UNL     1      11.868  23.033  77.832  1.00  0.00    -0.031 C 
ATOM     12  C   UNL     1      12.188  24.257  77.372  1.00  0.00    -0.031 C 
BRANCH  12  13
ATOM     13  C   UNL     1      11.969  25.541  78.131  1.00  0.00     0.027 C 
BRANCH  13  14
ATOM     14  C   UNL     1      13.308  26.150  78.563  1.00  0.00     0.004 C 
BRANCH  14  15
ATOM     15  C   UNL     1      13.807  25.504  79.864  1.00  0.00     0.000 C 
BRANCH  15  16
ATOM     16  C   UNL     1      12.920  25.840  81.076  1.00  0.00    -0.000 C 
BRANCH  16  17
ATOM     17  C   UNL     1      12.819  24.727  82.135  1.00  0.00    -0.003 C 
ATOM     18  C   UNL     1      13.293  25.169  83.518  1.00  0.00     0.004 C 
ENDBRANCH  16  17
ENDBRANCH  15  16
ENDBRANCH  14  15
ENDBRANCH  13  14
ENDBRANCH  12  13
ENDBRANCH  10  11
ENDBRANCH   1  10
TORSDOF 13
ENDMDL
MODEL 5
REMARK VINA RESULT:    -3.862      1.433      2.084
REMARK INTER + INTRA:          -8.238
REMARK INTER:                  -6.258
REMARK INTRA:                  -1.981
REMARK UNBOUND:                -1.441
REMARK SMILES CCCCCCC=CCCCCCCCC(=O)[O-]
REMARK SMILES IDX 10 1 11 2 12 3 13 4 14 5 15 6 16 7 17 8 18 9 9 10 8 11 7 12
REMARK SMILES IDX 6 13 5 14 4 15 3 16 2 17 1 18
REMARK H PARENT
REMARK Flexibility Score: inf
ROOT
ATOM      1  C   UNL     1      15.154  23.148  80.723  1.00  0.00     0.004 C 
ENDROOT
BRANCH   1   2
ATOM      2  C   UNL     1      15.740  24.153  81.724  1.00  0.00     0.000 C 
BRANCH   2   3
ATOM      3  C   UNL     1      15.232  23.871  83.147  1.00  0.00     0.000 C 
BRANCH   3   4
ATOM      4  C   UNL     1      14.453  25.052  83.744  1.00  0.00     0.000 C 
BRANCH   4   5
ATOM      5  C   UNL     1      12.954  25.020  83.386  1.00  0.00     0.006 C 
BRANCH   5   6
ATOM      6  C   UNL     1      12.582  26.101  82.362  1.00  0.00     0.053 C 
BRANCH   6   7
ATOM      7  C   UNL     1      11.826  27.227  82.997  1.00  0.00     0.041 C 
ATOM      8  O   UNL     1      11.033  27.002  83.949  1.00  0.00    -0.550 OA
ATOM      9  O   UNL     1      11.967  28.520  82.511  1.00  0.00    -0.550 OA
ENDBRANCH   6   7
ENDBRANCH   5   6
ENDBRANCH   4   5
ENDBRANCH   3   4
ENDBRANCH   2   3
ENDBRANCH   1   2
BRANCH   1  10
ATOM     10  C   UNL     1      13.883  23.677  80.043  1.00  0.00     0.027 C 
BRANCH  10  11
ATOM     11  C   UNL     1      12.689  22.792  80.314  1.00  0.00    -0.031 C 
ATOM     12  C   UNL     1      11.655  22.621  79.469  1.00  0.00    -0.031 C 
BRANCH  12  13
ATOM     13  C   UNL     1      11.485  23.358  78.164  1.00  0.00     0.027 C 
BRANCH  13  14
ATOM     14  C   UNL     1      11.788  22.436  76.978  1.00  0.00     0.004 C 
BRANCH  14  15
ATOM     15  C   UNL     1      13.304  22.279  76.781  1.00  0.00     0.000 C 
BRANCH  15  16
ATOM     16  C   UNL     1      13.754  20.807  76.771  1.00  0.00    -0.000 C 
BRANCH  16  17
ATOM     17  C   UNL     1      14.668  20.400  77.941  1.00  0.00    -0.003 C 
ATOM     18  C   UNL     1      13.934  19.633  79.038  1.00  0.00     0.004 C 
ENDBRANCH  16  17
ENDBRANCH  15  16
ENDBRANCH  14  15
ENDBRANCH  13  14
ENDBRANCH  12  13
ENDBRANCH  10  11
ENDBRANCH   1  10
TORSDOF 13
ENDMDL
MODEL 6
REMARK VINA RESULT:    -3.849      2.113      3.795
REMARK INTER + INTRA:          -8.216
REMARK INTER:                  -6.812
REMARK INTRA:                  -1.403
REMARK UNBOUND:                -1.441
REMARK SMILES CCCCCCC=CCCCCCCCC(=O)[O-]
REMARK SMILES IDX 10 1 11 2 12 3 13 4 14 5 15 6 16 7 17 8 18 9 9 10 8 11 7 12
REMARK SMILES IDX 6 13 5 14 4 15 3 16 2 17 1 18
REMARK H PARENT
REMARK Flexibility Score: inf
ROOT
ATOM      1  C   UNL     1      12.535  24.301  77.519  1.00  0.00     0.004 C 
ENDROOT
BRANCH   1   2
ATOM      2  C   UNL     1      11.622  25.501  77.226  1.00  0.00     0.000 C 
BRANCH   2   3
ATOM      3  C   UNL     1      11.873  26.640  78.227  1.00  0.00     0.000 C 
BRANCH   3   4
ATOM      4  C   UNL     1      13.019  26.332  79.201  1.00  0.00     0.000 C 
BRANCH   4   5
ATOM      5  C   UNL     1      12.629  26.567  80.673  1.00  0.00     0.006 C 
BRANCH   5   6
ATOM      6  C   UNL     1      12.910  25.337  81.548  1.00  0.00     0.053 C 
BRANCH   6   7
ATOM      7  C   UNL     1      12.666  25.622  82.998  1.00  0.00     0.041 C 
ATOM      8  O   UNL     1      13.317  25.010  83.884  1.00  0.00    -0.550 OA
ATOM      9  O   UNL     1      11.690  26.538  83.371  1.00  0.00    -0.550 OA
ENDBRANCH   6   7
ENDBRANCH   5   6
ENDBRANCH   4   5
ENDBRANCH   3   4
ENDBRANCH   2   3
ENDBRANCH   1   2
BRANCH   1  10
ATOM     10  C   UNL     1      11.741  23.003  77.723  1.00  0.00     0.027 C 
BRANCH  10  11
ATOM     11  C   UNL     1      11.584  22.662  79.187  1.00  0.00    -0.031 C 
ATOM     12  C   UNL     1      12.508  22.023  79.928  1.00  0.00    -0.031 C 
BRANCH  12  13
ATOM     13  C   UNL     1      13.801  21.466  79.389  1.00  0.00     0.027 C 
BRANCH  13  14
ATOM     14  C   UNL     1      13.699  19.949  79.196  1.00  0.00     0.004 C 
BRANCH  14  15
ATOM     15  C   UNL     1      13.678  19.588  77.703  1.00  0.00     0.000 C 
BRANCH  15  16
ATOM     16  C   UNL     1      13.772  18.072  77.454  1.00  0.00    -0.000 C 
BRANCH  16  17
ATOM     17  C   UNL     1      13.350  17.193  78.645  1.00  0.00    -0.003 C 
ATOM     18  C   UNL     1      14.345  16.075  78.949  1.00  0.00     0.004 C 
ENDBRANCH  16  17
ENDBRANCH  15  16
ENDBRANCH  14  15
ENDBRANCH  13  14
ENDBRANCH  12  13
ENDBRANCH  10  11
ENDBRANCH   1  10
TORSDOF 13
ENDMDL
MODEL 7
REMARK VINA RESULT:    -3.836     13.084     14.621
REMARK INTER + INTRA:          -8.192
REMARK INTER:                  -6.320
REMARK INTRA:                  -1.873
REMARK UNBOUND:                -1.441
REMARK SMILES CCCCCCC=CCCCCCCCC(=O)[O-]
REMARK SMILES IDX 10 1 11 2 12 3 13 4 14 5 15 6 16 7 17 8 18 9 9 10 8 11 7 12
REMARK SMILES IDX 6 13 5 14 4 15 3 16 2 17 1 18
REMARK H PARENT
REMARK Flexibility Score: inf
ROOT
ATOM      1  C   UNL     1       4.900  26.338  72.134  1.00  0.00     0.004 C 
ENDROOT
BRANCH   1   2
ATOM      2  C   UNL     1       3.701  25.914  72.996  1.00  0.00     0.000 C 
BRANCH   2   3
ATOM      3  C   UNL     1       2.498  25.539  72.117  1.00  0.00     0.000 C 
BRANCH   3   4
ATOM      4  C   UNL     1       1.427  26.638  72.075  1.00  0.00     0.000 C 
BRANCH   4   5
ATOM      5  C   UNL     1       0.251  26.290  71.143  1.00  0.00     0.006 C 
BRANCH   5   6
ATOM      6  C   UNL     1      -0.367  24.926  71.478  1.00  0.00     0.053 C 
BRANCH   6   7
ATOM      7  C   UNL     1      -1.743  24.785  70.902  1.00  0.00     0.041 C 
ATOM      8  O   UNL     1      -2.108  25.516  69.944  1.00  0.00    -0.550 OA
ATOM      9  O   UNL     1      -2.636  23.873  71.450  1.00  0.00    -0.550 OA
ENDBRANCH   6   7
ENDBRANCH   5   6
ENDBRANCH   4   5
ENDBRANCH   3   4
ENDBRANCH   2   3
ENDBRANCH   1   2
BRANCH   1  10
ATOM     10  C   UNL     1       4.645  26.121  70.636  1.00  0.00     0.027 C 
BRANCH  10  11
ATOM     11  C   UNL     1       5.799  25.414  69.965  1.00  0.00    -0.031 C 
ATOM     12  C   UNL     1       5.863  24.087  69.748  1.00  0.00    -0.031 C 
BRANCH  12  13
ATOM     13  C   UNL     1       4.837  23.091  70.224  1.00  0.00     0.027 C 
BRANCH  13  14
ATOM     14  C   UNL     1       5.147  22.635  71.654  1.00  0.00     0.004 C 
BRANCH  14  15
ATOM     15  C   UNL     1       6.648  22.355  71.825  1.00  0.00     0.000 C 
BRANCH  15  16
ATOM     16  C   UNL     1       7.252  23.071  73.046  1.00  0.00    -0.000 C 
BRANCH  16  17
ATOM     17  C   UNL     1       8.587  23.790  72.782  1.00  0.00    -0.003 C 
ATOM     18  C   UNL     1       8.427  25.292  72.556  1.00  0.00     0.004 C 
ENDBRANCH  16  17
ENDBRANCH  15  16
ENDBRANCH  14  15
ENDBRANCH  13  14
ENDBRANCH  12  13
ENDBRANCH  10  11
ENDBRANCH   1  10
TORSDOF 13
ENDMDL
MODEL 8
REMARK VINA RESULT:    -3.813      1.770      3.196
REMARK INTER + INTRA:          -8.151
REMARK INTER:                  -5.880
REMARK INTRA:                  -2.271
REMARK UNBOUND:                -1.441
REMARK SMILES CCCCCCC=CCCCCCCCC(=O)[O-]
REMARK SMILES IDX 10 1 11 2 12 3 13 4 14 5 15 6 16 7 17 8 18 9 9 10 8 11 7 12
REMARK SMILES IDX 6 13 5 14 4 15 3 16 2 17 1 18
REMARK H PARENT
REMARK Flexibility Score: inf
ROOT
ATOM      1  C   UNL     1      14.895  25.049  81.002  1.00  0.00     0.004 C 
ENDROOT
BRANCH   1   2
ATOM      2  C   UNL     1      15.298  24.532  82.391  1.00  0.00     0.000 C 
BRANCH   2   3
ATOM      3  C   UNL     1      14.158  24.728  83.402  1.00  0.00     0.000 C 
BRANCH   3   4
ATOM      4  C   UNL     1      12.797  24.951  82.727  1.00  0.00     0.000 C 
BRANCH   4   5
ATOM      5  C   UNL     1      12.077  26.213  83.238  1.00  0.00     0.006 C 
BRANCH   5   6
ATOM      6  C   UNL     1      12.308  27.421  82.320  1.00  0.00     0.053 C 
BRANCH   6   7
ATOM      7  C   UNL     1      13.313  28.370  82.897  1.00  0.00     0.041 C 
ATOM      8  O   UNL     1      12.938  29.330  83.621  1.00  0.00    -0.550 OA
ATOM      9  O   UNL     1      14.662  28.217  82.603  1.00  0.00    -0.550 OA
ENDBRANCH   6   7
ENDBRANCH   5   6
ENDBRANCH   4   5
ENDBRANCH   3   4
ENDBRANCH   2   3
ENDBRANCH   1   2
BRANCH   1  10
ATOM     10  C   UNL     1      15.385  24.131  79.874  1.00  0.00     0.027 C 
BRANCH  10  11
ATOM     11  C   UNL     1      15.679  22.734  80.372  1.00  0.00    -0.031 C 
ATOM     12  C   UNL     1      15.001  21.631  80.003  1.00  0.00    -0.031 C 
BRANCH  12  13
ATOM     13  C   UNL     1      13.788  21.631  79.108  1.00  0.00     0.027 C 
BRANCH  13  14
ATOM     14  C   UNL     1      12.504  21.746  79.936  1.00  0.00     0.004 C 
BRANCH  14  15
ATOM     15  C   UNL     1      11.761  23.051  79.615  1.00  0.00     0.000 C 
BRANCH  15  16
ATOM     16  C   UNL     1      11.482  23.224  78.111  1.00  0.00    -0.000 C 
BRANCH  16  17
ATOM     17  C   UNL     1      11.735  24.641  77.564  1.00  0.00    -0.003 C 
ATOM     18  C   UNL     1      12.228  25.618  78.630  1.00  0.00     0.004 C 
ENDBRANCH  16  17
ENDBRANCH  15  16
ENDBRANCH  14  15
ENDBRANCH  13  14
ENDBRANCH  12  13
ENDBRANCH  10  11
ENDBRANCH   1  10
TORSDOF 13
ENDMDL
MODEL 9
REMARK VINA RESULT:    -3.810      1.278      2.222
REMARK INTER + INTRA:          -8.147
REMARK INTER:                  -6.288
REMARK INTRA:                  -1.859
REMARK UNBOUND:                -1.441
REMARK SMILES CCCCCCC=CCCCCCCCC(=O)[O-]
REMARK SMILES IDX 10 1 11 2 12 3 13 4 14 5 15 6 16 7 17 8 18 9 9 10 8 11 7 12
REMARK SMILES IDX 6 13 5 14 4 15 3 16 2 17 1 18
REMARK H PARENT
REMARK Flexibility Score: inf
ROOT
ATOM      1  C   UNL     1      14.899  24.991  79.085  1.00  0.00     0.004 C 
ENDROOT
BRANCH   1   2
ATOM      2  C   UNL     1      15.786  24.574  80.266  1.00  0.00     0.000 C 
BRANCH   2   3
ATOM      3  C   UNL     1      14.933  24.165  81.477  1.00  0.00     0.000 C 
BRANCH   3   4
ATOM      4  C   UNL     1      15.340  24.894  82.764  1.00  0.00     0.000 C 
BRANCH   4   5
ATOM      5  C   UNL     1      14.185  25.008  83.777  1.00  0.00     0.006 C 
BRANCH   5   6
ATOM      6  C   UNL     1      12.814  25.038  83.088  1.00  0.00     0.053 C 
BRANCH   6   7
ATOM      7  C   UNL     1      12.251  26.425  83.036  1.00  0.00     0.041 C 
ATOM      8  O   UNL     1      12.779  27.298  82.298  1.00  0.00    -0.550 OA
ATOM      9  O   UNL     1      11.165  26.765  83.833  1.00  0.00    -0.550 OA
ENDBRANCH   6   7
ENDBRANCH   5   6
ENDBRANCH   4   5
ENDBRANCH   3   4
ENDBRANCH   2   3
ENDBRANCH   1   2
BRANCH   1  10
ATOM     10  C   UNL     1      13.435  25.198  79.501  1.00  0.00     0.027 C 
BRANCH  10  11
ATOM     11  C   UNL     1      12.479  24.494  78.567  1.00  0.00    -0.031 C 
ATOM     12  C   UNL     1      11.868  23.325  78.834  1.00  0.00    -0.031 C 
BRANCH  12  13
ATOM     13  C   UNL     1      12.115  22.492  80.066  1.00  0.00     0.027 C 
BRANCH  13  14
ATOM     14  C   UNL     1      12.720  21.135  79.690  1.00  0.00     0.004 C 
BRANCH  14  15
ATOM     15  C   UNL     1      14.176  21.296  79.227  1.00  0.00     0.000 C 
BRANCH  15  16
ATOM     16  C   UNL     1      14.780  19.984  78.693  1.00  0.00    -0.000 C 
BRANCH  16  17
ATOM     17  C   UNL     1      14.096  18.702  79.200  1.00  0.00    -0.003 C 
ATOM     18  C   UNL     1      13.681  17.756  78.075  1.00  0.00     0.004 C 
ENDBRANCH  16  17
ENDBRANCH  15  16
ENDBRANCH  14  15
ENDBRANCH  13  14
ENDBRANCH  12  13
ENDBRANCH  10  11
ENDBRANCH   1  10
TORSDOF 13
ENDMDL
