MODEL 1
REMARK VINA RESULT:    -3.530      0.000      0.000
REMARK INTER + INTRA:          -7.674
REMARK INTER:                  -6.212
REMARK INTRA:                  -1.461
REMARK UNBOUND:                -1.461
REMARK SMILES CCCCCCCCCCCCCCC(=O)[O-]
REMARK SMILES IDX 9 1 10 2 11 3 12 4 13 5 14 6 15 7 16 8 17 9 8 10 7 11 6 12
REMARK SMILES IDX 5 13 4 14 3 15 2 16 1 17
REMARK H PARENT
REMARK Flexibility Score: inf
ROOT
ATOM      1  C   UNL     1     -41.529 -19.577  25.609  1.00  0.00     0.000 C 
ENDROOT
BRANCH   1   2
ATOM      2  C   UNL     1     -43.038 -19.603  25.902  1.00  0.00     0.000 C 
BRANCH   2   3
ATOM      3  C   UNL     1     -43.515 -20.970  26.421  1.00  0.00     0.000 C 
BRANCH   3   4
ATOM      4  C   UNL     1     -44.995 -20.962  26.835  1.00  0.00     0.000 C 
BRANCH   4   5
ATOM      5  C   UNL     1     -45.835 -19.963  26.022  1.00  0.00     0.006 C 
BRANCH   5   6
ATOM      6  C   UNL     1     -46.900 -19.301  26.901  1.00  0.00     0.053 C 
BRANCH   6   7
ATOM      7  C   UNL     1     -47.887 -20.316  27.384  1.00  0.00     0.041 C 
ATOM      8  O   UNL     1     -47.991 -20.564  28.614  1.00  0.00    -0.550 OA
ATOM      9  O   UNL     1     -48.658 -21.024  26.470  1.00  0.00    -0.550 OA
ENDBRANCH   6   7
ENDBRANCH   5   6
ENDBRANCH   4   5
ENDBRANCH   3   4
ENDBRANCH   2   3
ENDBRANCH   1   2
BRANCH   1  10
ATOM     10  C   UNL     1     -40.856 -18.282  26.098  1.00  0.00     0.000 C 
BRANCH  10  11
ATOM     11  C   UNL     1     -39.571 -18.550  26.897  1.00  0.00    -0.000 C 
BRANCH  11  12
ATOM     12  C   UNL     1     -39.047 -19.986  26.720  1.00  0.00    -0.000 C 
BRANCH  12  13
ATOM     13  C   UNL     1     -38.921 -20.731  28.067  1.00  0.00    -0.000 C 
BRANCH  13  14
ATOM     14  C   UNL     1     -40.119 -20.508  29.011  1.00  0.00    -0.000 C 
BRANCH  14  15
ATOM     15  C   UNL     1     -41.136 -21.661  29.044  1.00  0.00    -0.000 C 
BRANCH  15  16
ATOM     16  C   UNL     1     -40.759 -22.812  28.101  1.00  0.00    -0.003 C 
ATOM     17  C   UNL     1     -40.857 -24.158  28.813  1.00  0.00     0.004 C 
ENDBRANCH  15  16
ENDBRANCH  14  15
ENDBRANCH  13  14
ENDBRANCH  12  13
ENDBRANCH  11  12
ENDBRANCH  10  11
ENDBRANCH   1  10
TORSDOF 13
ENDMDL
MODEL 2
REMARK VINA RESULT:    -3.504      3.486      6.937
REMARK INTER + INTRA:          -7.629
REMARK INTER:                  -6.058
REMARK INTRA:                  -1.571
REMARK UNBOUND:                -1.461
REMARK SMILES CCCCCCCCCCCCCCC(=O)[O-]
REMARK SMILES IDX 9 1 10 2 11 3 12 4 13 5 14 6 15 7 16 8 17 9 8 10 7 11 6 12
REMARK SMILES IDX 5 13 4 14 3 15 2 16 1 17
REMARK H PARENT
REMARK Flexibility Score: inf
ROOT
ATOM      1  C   UNL     1     -45.000 -23.079  27.160  1.00  0.00     0.000 C 
ENDROOT
BRANCH   1   2
ATOM      2  C   UNL     1     -43.513 -23.026  27.549  1.00  0.00     0.000 C 
BRANCH   2   3
ATOM      3  C   UNL     1     -43.267 -22.205  28.826  1.00  0.00     0.000 C 
BRANCH   3   4
ATOM      4  C   UNL     1     -41.805 -22.270  29.297  1.00  0.00     0.000 C 
BRANCH   4   5
ATOM      5  C   UNL     1     -40.817 -21.733  28.249  1.00  0.00     0.006 C 
BRANCH   5   6
ATOM      6  C   UNL     1     -40.041 -20.531  28.795  1.00  0.00     0.053 C 
BRANCH   6   7
ATOM      7  C   UNL     1     -39.240 -19.886  27.708  1.00  0.00     0.041 C 
ATOM      8  O   UNL     1     -39.565 -18.752  27.269  1.00  0.00    -0.550 OA
ATOM      9  O   UNL     1     -38.164 -20.561  27.144  1.00  0.00    -0.550 OA
ENDBRANCH   6   7
ENDBRANCH   5   6
ENDBRANCH   4   5
ENDBRANCH   3   4
ENDBRANCH   2   3
ENDBRANCH   1   2
BRANCH   1  10
ATOM     10  C   UNL     1     -45.883 -22.235  28.097  1.00  0.00     0.000 C 
BRANCH  10  11
ATOM     11  C   UNL     1     -47.188 -21.777  27.425  1.00  0.00    -0.000 C 
BRANCH  11  12
ATOM     12  C   UNL     1     -47.518 -20.301  27.708  1.00  0.00    -0.000 C 
BRANCH  12  13
ATOM     13  C   UNL     1     -47.237 -19.397  26.488  1.00  0.00    -0.000 C 
BRANCH  13  14
ATOM     14  C   UNL     1     -46.277 -18.231  26.792  1.00  0.00    -0.000 C 
BRANCH  14  15
ATOM     15  C   UNL     1     -44.965 -18.251  25.988  1.00  0.00    -0.000 C 
BRANCH  15  16
ATOM     16  C   UNL     1     -44.333 -19.648  25.921  1.00  0.00    -0.003 C 
ATOM     17  C   UNL     1     -42.810 -19.563  25.970  1.00  0.00     0.004 C 
ENDBRANCH  15  16
ENDBRANCH  14  15
ENDBRANCH  13  14
ENDBRANCH  12  13
ENDBRANCH  11  12
ENDBRANCH  10  11
ENDBRANCH   1  10
TORSDOF 13
ENDMDL
MODEL 3
REMARK VINA RESULT:    -3.496      2.006      3.098
REMARK INTER + INTRA:          -7.614
REMARK INTER:                  -6.247
REMARK INTRA:                  -1.367
REMARK UNBOUND:                -1.461
REMARK SMILES CCCCCCCCCCCCCCC(=O)[O-]
REMARK SMILES IDX 9 1 10 2 11 3 12 4 13 5 14 6 15 7 16 8 17 9 8 10 7 11 6 12
REMARK SMILES IDX 5 13 4 14 3 15 2 16 1 17
REMARK H PARENT
REMARK Flexibility Score: inf
ROOT
ATOM      1  C   UNL     1     -43.542 -21.883  27.413  1.00  0.00     0.000 C 
ENDROOT
BRANCH   1   2
ATOM      2  C   UNL     1     -44.372 -22.599  28.491  1.00  0.00     0.000 C 
BRANCH   2   3
ATOM      3  C   UNL     1     -45.879 -22.317  28.358  1.00  0.00     0.000 C 
BRANCH   3   4
ATOM      4  C   UNL     1     -46.391 -22.502  26.921  1.00  0.00     0.000 C 
BRANCH   4   5
ATOM      5  C   UNL     1     -47.311 -21.359  26.466  1.00  0.00     0.006 C 
BRANCH   5   6
ATOM      6  C   UNL     1     -47.241 -20.179  27.439  1.00  0.00     0.053 C 
BRANCH   6   7
ATOM      7  C   UNL     1     -46.553 -19.013  26.803  1.00  0.00     0.041 C 
ATOM      8  O   UNL     1     -45.473 -19.179  26.177  1.00  0.00    -0.550 OA
ATOM      9  O   UNL     1     -47.078 -17.735  26.944  1.00  0.00    -0.550 OA
ENDBRANCH   6   7
ENDBRANCH   5   6
ENDBRANCH   4   5
ENDBRANCH   3   4
ENDBRANCH   2   3
ENDBRANCH   1   2
BRANCH   1  10
ATOM     10  C   UNL     1     -42.030 -22.122  27.581  1.00  0.00     0.000 C 
BRANCH  10  11
ATOM     11  C   UNL     1     -41.561 -21.938  29.033  1.00  0.00    -0.000 C 
BRANCH  11  12
ATOM     12  C   UNL     1     -40.478 -20.854  29.177  1.00  0.00    -0.000 C 
BRANCH  12  13
ATOM     13  C   UNL     1     -40.155 -20.169  27.831  1.00  0.00    -0.000 C 
BRANCH  13  14
ATOM     14  C   UNL     1     -38.698 -20.371  27.370  1.00  0.00    -0.000 C 
BRANCH  14  15
ATOM     15  C   UNL     1     -37.909 -21.422  28.169  1.00  0.00    -0.000 C 
BRANCH  15  16
ATOM     16  C   UNL     1     -37.877 -22.792  27.475  1.00  0.00    -0.003 C 
ATOM     17  C   UNL     1     -38.280 -23.904  28.440  1.00  0.00     0.004 C 
ENDBRANCH  15  16
ENDBRANCH  14  15
ENDBRANCH  13  14
ENDBRANCH  12  13
ENDBRANCH  11  12
ENDBRANCH  10  11
ENDBRANCH   1  10
TORSDOF 13
ENDMDL
MODEL 4
REMARK VINA RESULT:    -3.485      1.265      3.030
REMARK INTER + INTRA:          -7.595
REMARK INTER:                  -5.703
REMARK INTRA:                  -1.891
REMARK UNBOUND:                -1.461
REMARK SMILES CCCCCCCCCCCCCCC(=O)[O-]
REMARK SMILES IDX 9 1 10 2 11 3 12 4 13 5 14 6 15 7 16 8 17 9 8 10 7 11 6 12
REMARK SMILES IDX 5 13 4 14 3 15 2 16 1 17
REMARK H PARENT
REMARK Flexibility Score: inf
ROOT
ATOM      1  C   UNL     1     -42.112 -21.900  26.224  1.00  0.00     0.000 C 
ENDROOT
BRANCH   1   2
ATOM      2  C   UNL     1     -42.760 -20.864  25.291  1.00  0.00     0.000 C 
BRANCH   2   3
ATOM      3  C   UNL     1     -43.449 -19.726  26.062  1.00  0.00     0.000 C 
BRANCH   3   4
ATOM      4  C   UNL     1     -44.792 -19.317  25.437  1.00  0.00     0.000 C 
BRANCH   4   5
ATOM      5  C   UNL     1     -45.984 -19.557  26.377  1.00  0.00     0.006 C 
BRANCH   5   6
ATOM      6  C   UNL     1     -46.204 -21.054  26.610  1.00  0.00     0.053 C 
BRANCH   6   7
ATOM      7  C   UNL     1     -46.883 -21.287  27.923  1.00  0.00     0.041 C 
ATOM      8  O   UNL     1     -47.761 -20.484  28.333  1.00  0.00    -0.550 OA
ATOM      9  O   UNL     1     -46.510 -22.364  28.716  1.00  0.00    -0.550 OA
ENDBRANCH   6   7
ENDBRANCH   5   6
ENDBRANCH   4   5
ENDBRANCH   3   4
ENDBRANCH   2   3
ENDBRANCH   1   2
BRANCH   1  10
ATOM     10  C   UNL     1     -42.734 -21.894  27.632  1.00  0.00     0.000 C 
BRANCH  10  11
ATOM     11  C   UNL     1     -41.735 -22.318  28.720  1.00  0.00    -0.000 C 
BRANCH  11  12
ATOM     12  C   UNL     1     -40.281 -21.954  28.370  1.00  0.00    -0.000 C 
BRANCH  12  13
ATOM     13  C   UNL     1     -39.894 -20.547  28.875  1.00  0.00    -0.000 C 
BRANCH  13  14
ATOM     14  C   UNL     1     -39.032 -19.748  27.878  1.00  0.00    -0.000 C 
BRANCH  14  15
ATOM     15  C   UNL     1     -39.822 -18.816  26.945  1.00  0.00    -0.000 C 
BRANCH  15  16
ATOM     16  C   UNL     1     -39.525 -19.072  25.461  1.00  0.00    -0.003 C 
ATOM     17  C   UNL     1     -38.549 -20.233  25.290  1.00  0.00     0.004 C 
ENDBRANCH  15  16
ENDBRANCH  14  15
ENDBRANCH  13  14
ENDBRANCH  12  13
ENDBRANCH  11  12
ENDBRANCH  10  11
ENDBRANCH   1  10
TORSDOF 13
ENDMDL
MODEL 5
REMARK VINA RESULT:    -3.461      1.990      3.928
REMARK INTER + INTRA:          -7.553
REMARK INTER:                  -6.326
REMARK INTRA:                  -1.228
REMARK UNBOUND:                -1.461
REMARK SMILES CCCCCCCCCCCCCCC(=O)[O-]
REMARK SMILES IDX 9 1 10 2 11 3 12 4 13 5 14 6 15 7 16 8 17 9 8 10 7 11 6 12
REMARK SMILES IDX 5 13 4 14 3 15 2 16 1 17
REMARK H PARENT
REMARK Flexibility Score: inf
ROOT
ATOM      1  C   UNL     1     -44.914 -22.265  28.445  1.00  0.00     0.000 C 
ENDROOT
BRANCH   1   2
ATOM      2  C   UNL     1     -46.444 -22.379  28.352  1.00  0.00     0.000 C 
BRANCH   2   3
ATOM      3  C   UNL     1     -46.968 -22.149  26.924  1.00  0.00     0.000 C 
BRANCH   3   4
ATOM      4  C   UNL     1     -48.048 -21.058  26.859  1.00  0.00     0.000 C 
BRANCH   4   5
ATOM      5  C   UNL     1     -47.565 -19.709  27.415  1.00  0.00     0.006 C 
BRANCH   5   6
ATOM      6  C   UNL     1     -46.527 -19.074  26.484  1.00  0.00     0.053 C 
BRANCH   6   7
ATOM      7  C   UNL     1     -46.668 -17.584  26.480  1.00  0.00     0.041 C 
ATOM      8  O   UNL     1     -47.113 -16.993  25.462  1.00  0.00    -0.550 OA
ATOM      9  O   UNL     1     -46.260 -16.845  27.583  1.00  0.00    -0.550 OA
ENDBRANCH   6   7
ENDBRANCH   5   6
ENDBRANCH   4   5
ENDBRANCH   3   4
ENDBRANCH   2   3
ENDBRANCH   1   2
BRANCH   1  10
ATOM     10  C   UNL     1     -44.253 -22.089  27.065  1.00  0.00     0.000 C 
BRANCH  10  11
ATOM     11  C   UNL     1     -42.728 -21.925  27.158  1.00  0.00    -0.000 C 
BRANCH  11  12
ATOM     12  C   UNL     1     -42.180 -22.225  28.565  1.00  0.00    -0.000 C 
BRANCH  12  13
ATOM     13  C   UNL     1     -40.868 -23.040  28.519  1.00  0.00    -0.000 C 
BRANCH  13  14
ATOM     14  C   UNL     1     -39.632 -22.200  28.144  1.00  0.00    -0.000 C 
BRANCH  14  15
ATOM     15  C   UNL     1     -39.594 -20.795  28.770  1.00  0.00    -0.000 C 
BRANCH  15  16
ATOM     16  C   UNL     1     -39.085 -19.725  27.794  1.00  0.00    -0.003 C 
ATOM     17  C   UNL     1     -40.232 -19.146  26.971  1.00  0.00     0.004 C 
ENDBRANCH  15  16
ENDBRANCH  14  15
ENDBRANCH  13  14
ENDBRANCH  12  13
ENDBRANCH  11  12
ENDBRANCH  10  11
ENDBRANCH   1  10
TORSDOF 13
ENDMDL
MODEL 6
REMARK VINA RESULT:    -3.450      3.639      6.479
REMARK INTER + INTRA:          -7.533
REMARK INTER:                  -5.755
REMARK INTRA:                  -1.778
REMARK UNBOUND:                -1.461
REMARK SMILES CCCCCCCCCCCCCCC(=O)[O-]
REMARK SMILES IDX 9 1 10 2 11 3 12 4 13 5 14 6 15 7 16 8 17 9 8 10 7 11 6 12
REMARK SMILES IDX 5 13 4 14 3 15 2 16 1 17
REMARK H PARENT
REMARK Flexibility Score: inf
ROOT
ATOM      1  C   UNL     1     -44.560 -19.545  26.284  1.00  0.00     0.000 C 
ENDROOT
BRANCH   1   2
ATOM      2  C   UNL     1     -43.988 -20.137  24.986  1.00  0.00     0.000 C 
BRANCH   2   3
ATOM      3  C   UNL     1     -42.672 -20.898  25.214  1.00  0.00     0.000 C 
BRANCH   3   4
ATOM      4  C   UNL     1     -41.967 -20.485  26.516  1.00  0.00     0.000 C 
BRANCH   4   5
ATOM      5  C   UNL     1     -41.175 -21.636  27.156  1.00  0.00     0.006 C 
BRANCH   5   6
ATOM      6  C   UNL     1     -40.600 -21.217  28.511  1.00  0.00     0.053 C 
BRANCH   6   7
ATOM      7  C   UNL     1     -39.180 -20.767  28.362  1.00  0.00     0.041 C 
ATOM      8  O   UNL     1     -38.236 -21.524  28.710  1.00  0.00    -0.550 OA
ATOM      9  O   UNL     1     -38.902 -19.493  27.885  1.00  0.00    -0.550 OA
ENDBRANCH   6   7
ENDBRANCH   5   6
ENDBRANCH   4   5
ENDBRANCH   3   4
ENDBRANCH   2   3
ENDBRANCH   1   2
BRANCH   1  10
ATOM     10  C   UNL     1     -45.426 -18.298  26.031  1.00  0.00     0.000 C 
BRANCH  10  11
ATOM     11  C   UNL     1     -46.777 -18.359  26.763  1.00  0.00    -0.000 C 
BRANCH  11  12
ATOM     12  C   UNL     1     -47.501 -19.703  26.567  1.00  0.00    -0.000 C 
BRANCH  12  13
ATOM     13  C   UNL     1     -47.906 -20.348  27.911  1.00  0.00    -0.000 C 
BRANCH  13  14
ATOM     14  C   UNL     1     -47.003 -21.524  28.330  1.00  0.00    -0.000 C 
BRANCH  14  15
ATOM     15  C   UNL     1     -46.658 -22.505  27.197  1.00  0.00    -0.000 C 
BRANCH  15  16
ATOM     16  C   UNL     1     -45.232 -23.063  27.310  1.00  0.00    -0.003 C 
ATOM     17  C   UNL     1     -44.489 -22.431  28.484  1.00  0.00     0.004 C 
ENDBRANCH  15  16
ENDBRANCH  14  15
ENDBRANCH  13  14
ENDBRANCH  12  13
ENDBRANCH  11  12
ENDBRANCH  10  11
ENDBRANCH   1  10
TORSDOF 13
ENDMDL
MODEL 7
REMARK VINA RESULT:    -3.438      1.375      3.158
REMARK INTER + INTRA:          -7.511
REMARK INTER:                  -5.734
REMARK INTRA:                  -1.778
REMARK UNBOUND:                -1.461
REMARK SMILES CCCCCCCCCCCCCCC(=O)[O-]
REMARK SMILES IDX 9 1 10 2 11 3 12 4 13 5 14 6 15 7 16 8 17 9 8 10 7 11 6 12
REMARK SMILES IDX 5 13 4 14 3 15 2 16 1 17
REMARK H PARENT
REMARK Flexibility Score: inf
ROOT
ATOM      1  C   UNL     1     -40.466 -22.244  28.178  1.00  0.00     0.000 C 
ENDROOT
BRANCH   1   2
ATOM      2  C   UNL     1     -41.658 -23.011  28.774  1.00  0.00     0.000 C 
BRANCH   2   3
ATOM      3  C   UNL     1     -42.927 -22.148  28.870  1.00  0.00     0.000 C 
BRANCH   3   4
ATOM      4  C   UNL     1     -44.137 -22.797  28.178  1.00  0.00     0.000 C 
BRANCH   4   5
ATOM      5  C   UNL     1     -45.066 -21.768  27.515  1.00  0.00     0.006 C 
BRANCH   5   6
ATOM      6  C   UNL     1     -46.497 -21.901  28.044  1.00  0.00     0.053 C 
BRANCH   6   7
ATOM      7  C   UNL     1     -47.251 -20.624  27.844  1.00  0.00     0.041 C 
ATOM      8  O   UNL     1     -48.318 -20.413  28.477  1.00  0.00    -0.550 OA
ATOM      9  O   UNL     1     -46.801 -19.690  26.920  1.00  0.00    -0.550 OA
ENDBRANCH   6   7
ENDBRANCH   5   6
ENDBRANCH   4   5
ENDBRANCH   3   4
ENDBRANCH   2   3
ENDBRANCH   1   2
BRANCH   1  10
ATOM     10  C   UNL     1     -40.222 -20.897  28.884  1.00  0.00     0.000 C 
BRANCH  10  11
ATOM     11  C   UNL     1     -39.069 -20.101  28.252  1.00  0.00    -0.000 C 
BRANCH  11  12
ATOM     12  C   UNL     1     -39.358 -19.684  26.799  1.00  0.00    -0.000 C 
BRANCH  12  13
ATOM     13  C   UNL     1     -40.146 -18.358  26.718  1.00  0.00    -0.000 C 
BRANCH  13  14
ATOM     14  C   UNL     1     -41.423 -18.450  25.861  1.00  0.00    -0.000 C 
BRANCH  14  15
ATOM     15  C   UNL     1     -42.230 -19.746  26.045  1.00  0.00    -0.000 C 
BRANCH  15  16
ATOM     16  C   UNL     1     -42.391 -20.535  24.737  1.00  0.00    -0.003 C 
ATOM     17  C   UNL     1     -42.298 -22.037  24.989  1.00  0.00     0.004 C 
ENDBRANCH  15  16
ENDBRANCH  14  15
ENDBRANCH  13  14
ENDBRANCH  12  13
ENDBRANCH  11  12
ENDBRANCH  10  11
ENDBRANCH   1  10
TORSDOF 13
ENDMDL
MODEL 8
REMARK VINA RESULT:    -3.397      1.508      3.521
REMARK INTER + INTRA:          -7.441
REMARK INTER:                  -5.632
REMARK INTRA:                  -1.809
REMARK UNBOUND:                -1.461
REMARK SMILES CCCCCCCCCCCCCCC(=O)[O-]
REMARK SMILES IDX 9 1 10 2 11 3 12 4 13 5 14 6 15 7 16 8 17 9 8 10 7 11 6 12
REMARK SMILES IDX 5 13 4 14 3 15 2 16 1 17
REMARK H PARENT
REMARK Flexibility Score: inf
ROOT
ATOM      1  C   UNL     1     -41.176 -21.418  29.096  1.00  0.00     0.000 C 
ENDROOT
BRANCH   1   2
ATOM      2  C   UNL     1     -41.063 -22.823  28.484  1.00  0.00     0.000 C 
BRANCH   2   3
ATOM      3  C   UNL     1     -42.015 -23.024  27.292  1.00  0.00     0.000 C 
BRANCH   3   4
ATOM      4  C   UNL     1     -43.450 -23.355  27.730  1.00  0.00     0.000 C 
BRANCH   4   5
ATOM      5  C   UNL     1     -44.374 -22.127  27.717  1.00  0.00     0.006 C 
BRANCH   5   6
ATOM      6  C   UNL     1     -45.690 -22.424  28.442  1.00  0.00     0.053 C 
BRANCH   6   7
ATOM      7  C   UNL     1     -46.834 -21.754  27.748  1.00  0.00     0.041 C 
ATOM      8  O   UNL     1     -47.292 -20.666  28.187  1.00  0.00    -0.550 OA
ATOM      9  O   UNL     1     -47.426 -22.356  26.645  1.00  0.00    -0.550 OA
ENDBRANCH   6   7
ENDBRANCH   5   6
ENDBRANCH   4   5
ENDBRANCH   3   4
ENDBRANCH   2   3
ENDBRANCH   1   2
BRANCH   1  10
ATOM     10  C   UNL     1     -39.814 -20.705  29.188  1.00  0.00     0.000 C 
BRANCH  10  11
ATOM     11  C   UNL     1     -38.660 -21.567  28.652  1.00  0.00    -0.000 C 
BRANCH  11  12
ATOM     12  C   UNL     1     -37.818 -20.843  27.587  1.00  0.00    -0.000 C 
BRANCH  12  13
ATOM     13  C   UNL     1     -38.243 -21.220  26.151  1.00  0.00    -0.000 C 
BRANCH  13  14
ATOM     14  C   UNL     1     -38.981 -20.091  25.408  1.00  0.00    -0.000 C 
BRANCH  14  15
ATOM     15  C   UNL     1     -40.514 -20.213  25.410  1.00  0.00    -0.000 C 
BRANCH  15  16
ATOM     16  C   UNL     1     -41.198 -19.083  26.193  1.00  0.00    -0.003 C 
ATOM     17  C   UNL     1     -40.183 -18.037  26.643  1.00  0.00     0.004 C 
ENDBRANCH  15  16
ENDBRANCH  14  15
ENDBRANCH  13  14
ENDBRANCH  12  13
ENDBRANCH  11  12
ENDBRANCH  10  11
ENDBRANCH   1  10
TORSDOF 13
ENDMDL
MODEL 9
REMARK VINA RESULT:    -3.374      3.990      7.471
REMARK INTER + INTRA:          -7.400
REMARK INTER:                  -6.040
REMARK INTRA:                  -1.361
REMARK UNBOUND:                -1.461
REMARK SMILES CCCCCCCCCCCCCCC(=O)[O-]
REMARK SMILES IDX 9 1 10 2 11 3 12 4 13 5 14 6 15 7 16 8 17 9 8 10 7 11 6 12
REMARK SMILES IDX 5 13 4 14 3 15 2 16 1 17
REMARK H PARENT
REMARK Flexibility Score: inf
ROOT
ATOM      1  C   UNL     1     -43.344 -21.668  26.617  1.00  0.00     0.000 C 
ENDROOT
BRANCH   1   2
ATOM      2  C   UNL     1     -41.891 -21.859  27.083  1.00  0.00     0.000 C 
BRANCH   2   3
ATOM      3  C   UNL     1     -41.761 -21.879  28.615  1.00  0.00     0.000 C 
BRANCH   3   4
ATOM      4  C   UNL     1     -40.594 -21.016  29.120  1.00  0.00     0.000 C 
BRANCH   4   5
ATOM      5  C   UNL     1     -39.604 -20.642  28.006  1.00  0.00     0.006 C 
BRANCH   5   6
ATOM      6  C   UNL     1     -38.189 -21.112  28.350  1.00  0.00     0.053 C 
BRANCH   6   7
ATOM      7  C   UNL     1     -37.926 -22.462  27.759  1.00  0.00     0.041 C 
ATOM      8  O   UNL     1     -38.212 -23.503  28.406  1.00  0.00    -0.550 OA
ATOM      9  O   UNL     1     -37.319 -22.569  26.514  1.00  0.00    -0.550 OA
ENDBRANCH   6   7
ENDBRANCH   5   6
ENDBRANCH   4   5
ENDBRANCH   3   4
ENDBRANCH   2   3
ENDBRANCH   1   2
BRANCH   1  10
ATOM     10  C   UNL     1     -44.360 -21.899  27.751  1.00  0.00     0.000 C 
BRANCH  10  11
ATOM     11  C   UNL     1     -45.789 -22.114  27.227  1.00  0.00    -0.000 C 
BRANCH  11  12
ATOM     12  C   UNL     1     -46.861 -21.888  28.307  1.00  0.00    -0.000 C 
BRANCH  12  13
ATOM     13  C   UNL     1     -47.622 -20.559  28.105  1.00  0.00    -0.000 C 
BRANCH  13  14
ATOM     14  C   UNL     1     -47.468 -19.969  26.690  1.00  0.00    -0.000 C 
BRANCH  14  15
ATOM     15  C   UNL     1     -46.920 -18.532  26.647  1.00  0.00    -0.000 C 
BRANCH  15  16
ATOM     16  C   UNL     1     -45.430 -18.478  26.279  1.00  0.00    -0.003 C 
ATOM     17  C   UNL     1     -45.189 -19.046  24.884  1.00  0.00     0.004 C 
ENDBRANCH  15  16
ENDBRANCH  14  15
ENDBRANCH  13  14
ENDBRANCH  12  13
ENDBRANCH  11  12
ENDBRANCH  10  11
ENDBRANCH   1  10
TORSDOF 13
ENDMDL
