MODEL 1
REMARK VINA RESULT:    -7.071      0.000      0.000
REMARK INTER + INTRA:          -8.592
REMARK INTER:                  -8.311
REMARK INTRA:                  -0.281
REMARK UNBOUND:                -0.281
REMARK SMILES O=c1cc(-c2ccc(O)c(O)c2)oc2cc(O)cc(O)c12
REMARK SMILES IDX 4 1 3 2 2 3 1 4 21 5 19 6 18 7 16 8 15 9 14 10 13 11 5 12
REMARK SMILES IDX 6 13 7 14 8 15 12 16 10 17 9 18 11 20 20 22 17 24
REMARK H PARENT 9 19 11 21 20 23 17 25
REMARK Flexibility Score: inf
ROOT
ATOM      1  C   UNL     1       7.292  26.851  58.318  1.00  0.00     0.138 A 
ATOM      2  C   UNL     1       6.759  26.094  59.370  1.00  0.00     0.100 A 
ATOM      3  C   UNL     1       7.607  25.315  60.158  1.00  0.00     0.197 A 
ATOM      4  O   UNL     1       7.092  24.603  61.059  1.00  0.00    -0.289 OA
ATOM      5  C   UNL     1       9.001  25.323  59.913  1.00  0.00     0.107 A 
ATOM      6  C   UNL     1       9.966  24.596  60.673  1.00  0.00     0.134 A 
ATOM      7  C   UNL     1      11.309  24.605  60.274  1.00  0.00     0.093 A 
ATOM      8  C   UNL     1      11.730  25.359  59.181  1.00  0.00     0.123 A 
ATOM      9  C   UNL     1      10.804  26.114  58.460  1.00  0.00     0.094 A 
ATOM     10  C   UNL     1       9.453  26.098  58.811  1.00  0.00     0.146 A 
ATOM     11  O   UNL     1       8.600  26.818  58.088  1.00  0.00    -0.456 OA
ENDROOT
BRANCH   1  12
ATOM     12  C   UNL     1       6.437  27.701  57.450  1.00  0.00     0.021 A 
ATOM     13  C   UNL     1       6.867  28.960  56.994  1.00  0.00     0.016 A 
ATOM     14  C   UNL     1       6.037  29.741  56.187  1.00  0.00     0.051 A 
ATOM     15  C   UNL     1       4.764  29.292  55.824  1.00  0.00     0.157 A 
ATOM     16  C   UNL     1       5.152  27.257  57.096  1.00  0.00     0.062 A 
ATOM     17  C   UNL     1       4.314  28.034  56.286  1.00  0.00     0.158 A 
BRANCH  15  18
ATOM     18  O   UNL     1       3.987  30.122  55.013  1.00  0.00    -0.504 OA
ATOM     19  H   UNL     1       3.911  30.020  54.011  1.00  0.00     0.293 HD
ENDBRANCH  15  18
BRANCH  17  20
ATOM     20  O   UNL     1       3.054  27.520  55.970  1.00  0.00    -0.504 OA
ATOM     21  H   UNL     1       2.828  27.084  55.088  1.00  0.00     0.293 HD
ENDBRANCH  17  20
ENDBRANCH   1  12
BRANCH   6  22
ATOM     22  O   UNL     1       9.667  23.872  61.832  1.00  0.00    -0.507 OA
ATOM     23  H   UNL     1       9.149  23.008  61.858  1.00  0.00     0.293 HD
ENDBRANCH   6  22
BRANCH   8  24
ATOM     24  O   UNL     1      13.077  25.357  58.822  1.00  0.00    -0.508 OA
ATOM     25  H   UNL     1      13.811  25.304  59.519  1.00  0.00     0.293 HD
ENDBRANCH   8  24
TORSDOF 5
ENDMDL
MODEL 2
REMARK VINA RESULT:    -6.763      1.572      3.272
REMARK INTER + INTRA:          -8.230
REMARK INTER:                  -7.925
REMARK INTRA:                  -0.305
REMARK UNBOUND:                -0.281
REMARK SMILES O=c1cc(-c2ccc(O)c(O)c2)oc2cc(O)cc(O)c12
REMARK SMILES IDX 4 1 3 2 2 3 1 4 21 5 19 6 18 7 16 8 15 9 14 10 13 11 5 12
REMARK SMILES IDX 6 13 7 14 8 15 12 16 10 17 9 18 11 20 20 22 17 24
REMARK H PARENT 9 19 11 21 20 23 17 25
REMARK Flexibility Score: inf
ROOT
ATOM      1  C   UNL     1       6.772  26.600  58.444  1.00  0.00     0.138 A 
ATOM      2  C   UNL     1       8.167  26.471  58.480  1.00  0.00     0.100 A 
ATOM      3  C   UNL     1       8.753  25.555  59.355  1.00  0.00     0.197 A 
ATOM      4  O   UNL     1      10.009  25.502  59.403  1.00  0.00    -0.289 OA
ATOM      5  C   UNL     1       7.935  24.740  60.172  1.00  0.00     0.107 A 
ATOM      6  C   UNL     1       8.419  23.748  61.077  1.00  0.00     0.134 A 
ATOM      7  C   UNL     1       7.516  23.070  61.907  1.00  0.00     0.093 A 
ATOM      8  C   UNL     1       6.145  23.306  61.824  1.00  0.00     0.123 A 
ATOM      9  C   UNL     1       5.655  24.237  60.908  1.00  0.00     0.094 A 
ATOM     10  C   UNL     1       6.532  24.954  60.091  1.00  0.00     0.146 A 
ATOM     11  O   UNL     1       6.027  25.845  59.244  1.00  0.00    -0.456 OA
ENDROOT
BRANCH   1  12
ATOM     12  C   UNL     1       6.095  27.555  57.530  1.00  0.00     0.021 A 
ATOM     13  C   UNL     1       6.682  28.783  57.177  1.00  0.00     0.016 A 
ATOM     14  C   UNL     1       6.016  29.666  56.323  1.00  0.00     0.051 A 
ATOM     15  C   UNL     1       4.754  29.350  55.811  1.00  0.00     0.157 A 
ATOM     16  C   UNL     1       4.821  27.246  57.026  1.00  0.00     0.062 A 
ATOM     17  C   UNL     1       4.147  28.125  56.169  1.00  0.00     0.158 A 
BRANCH  15  18
ATOM     18  O   UNL     1       4.146  30.276  54.961  1.00  0.00    -0.504 OA
ATOM     19  H   UNL     1       3.315  30.083  54.419  1.00  0.00     0.293 HD
ENDBRANCH  15  18
BRANCH  17  20
ATOM     20  O   UNL     1       2.887  27.742  55.702  1.00  0.00    -0.504 OA
ATOM     21  H   UNL     1       2.019  28.135  56.035  1.00  0.00     0.293 HD
ENDBRANCH  17  20
ENDBRANCH   1  12
BRANCH   6  22
ATOM     22  O   UNL     1       9.762  23.375  61.186  1.00  0.00    -0.507 OA
ATOM     23  H   UNL     1      10.540  24.014  61.221  1.00  0.00     0.293 HD
ENDBRANCH   6  22
BRANCH   8  24
ATOM     24  O   UNL     1       5.275  22.602  62.654  1.00  0.00    -0.508 OA
ATOM     25  H   UNL     1       5.593  22.177  63.517  1.00  0.00     0.293 HD
ENDBRANCH   8  24
TORSDOF 5
ENDMDL
MODEL 3
REMARK VINA RESULT:    -6.642      1.621      6.799
REMARK INTER + INTRA:          -8.087
REMARK INTER:                  -7.816
REMARK INTRA:                  -0.271
REMARK UNBOUND:                -0.281
REMARK SMILES O=c1cc(-c2ccc(O)c(O)c2)oc2cc(O)cc(O)c12
REMARK SMILES IDX 4 1 3 2 2 3 1 4 21 5 19 6 18 7 16 8 15 9 14 10 13 11 5 12
REMARK SMILES IDX 6 13 7 14 8 15 12 16 10 17 9 18 11 20 20 22 17 24
REMARK H PARENT 9 19 11 21 20 23 17 25
REMARK Flexibility Score: inf
ROOT
ATOM      1  C   UNL     1       8.523  26.238  58.903  1.00  0.00     0.138 A 
ATOM      2  C   UNL     1       7.515  25.403  59.401  1.00  0.00     0.100 A 
ATOM      3  C   UNL     1       6.185  25.643  59.052  1.00  0.00     0.197 A 
ATOM      4  O   UNL     1       5.298  24.909  59.560  1.00  0.00    -0.289 OA
ATOM      5  C   UNL     1       5.869  26.703  58.170  1.00  0.00     0.107 A 
ATOM      6  C   UNL     1       4.552  27.021  57.718  1.00  0.00     0.134 A 
ATOM      7  C   UNL     1       4.351  28.157  56.923  1.00  0.00     0.093 A 
ATOM      8  C   UNL     1       5.422  28.951  56.517  1.00  0.00     0.123 A 
ATOM      9  C   UNL     1       6.719  28.622  56.911  1.00  0.00     0.094 A 
ATOM     10  C   UNL     1       6.949  27.516  57.733  1.00  0.00     0.146 A 
ATOM     11  O   UNL     1       8.198  27.247  58.101  1.00  0.00    -0.456 OA
ENDROOT
BRANCH   1  12
ATOM     12  C   UNL     1       9.955  26.027  59.237  1.00  0.00     0.021 A 
ATOM     13  C   UNL     1      10.460  26.289  60.524  1.00  0.00     0.016 A 
ATOM     14  C   UNL     1      11.813  26.091  60.806  1.00  0.00     0.051 A 
ATOM     15  C   UNL     1      12.691  25.638  59.817  1.00  0.00     0.157 A 
ATOM     16  C   UNL     1      10.841  25.586  58.241  1.00  0.00     0.062 A 
ATOM     17  C   UNL     1      12.200  25.385  58.517  1.00  0.00     0.158 A 
BRANCH  15  18
ATOM     18  O   UNL     1      14.031  25.459  60.168  1.00  0.00    -0.504 OA
ATOM     19  H   UNL     1      14.336  24.996  61.012  1.00  0.00     0.293 HD
ENDBRANCH  15  18
BRANCH  17  20
ATOM     20  O   UNL     1      13.016  24.935  57.476  1.00  0.00    -0.504 OA
ATOM     21  H   UNL     1      13.086  25.391  56.577  1.00  0.00     0.293 HD
ENDBRANCH  17  20
ENDBRANCH   1  12
BRANCH   6  22
ATOM     22  O   UNL     1       3.420  26.251  57.998  1.00  0.00    -0.507 OA
ATOM     23  H   UNL     1       2.633  26.132  57.379  1.00  0.00     0.293 HD
ENDBRANCH   6  22
BRANCH   8  24
ATOM     24  O   UNL     1       5.186  30.065  55.713  1.00  0.00    -0.508 OA
ATOM     25  H   UNL     1       4.276  30.508  55.675  1.00  0.00     0.293 HD
ENDBRANCH   8  24
TORSDOF 5
ENDMDL
MODEL 4
REMARK VINA RESULT:    -6.024      1.652      2.453
REMARK INTER + INTRA:          -7.361
REMARK INTER:                  -7.043
REMARK INTRA:                  -0.318
REMARK UNBOUND:                -0.281
REMARK SMILES O=c1cc(-c2ccc(O)c(O)c2)oc2cc(O)cc(O)c12
REMARK SMILES IDX 4 1 3 2 2 3 1 4 21 5 19 6 18 7 16 8 15 9 14 10 13 11 5 12
REMARK SMILES IDX 6 13 7 14 8 15 12 16 10 17 9 18 11 20 20 22 17 24
REMARK H PARENT 9 19 11 21 20 23 17 25
REMARK Flexibility Score: inf
ROOT
ATOM      1  C   UNL     1       6.372  26.097  59.078  1.00  0.00     0.138 A 
ATOM      2  C   UNL     1       5.464  25.273  59.756  1.00  0.00     0.100 A 
ATOM      3  C   UNL     1       5.936  24.327  60.666  1.00  0.00     0.197 A 
ATOM      4  O   UNL     1       5.100  23.564  61.216  1.00  0.00    -0.289 OA
ATOM      5  C   UNL     1       7.324  24.232  60.926  1.00  0.00     0.107 A 
ATOM      6  C   UNL     1       7.918  23.329  61.859  1.00  0.00     0.134 A 
ATOM      7  C   UNL     1       9.314  23.258  61.958  1.00  0.00     0.093 A 
ATOM      8  C   UNL     1      10.133  24.095  61.203  1.00  0.00     0.123 A 
ATOM      9  C   UNL     1       9.563  25.017  60.325  1.00  0.00     0.094 A 
ATOM     10  C   UNL     1       8.176  25.088  60.177  1.00  0.00     0.146 A 
ATOM     11  O   UNL     1       7.673  25.967  59.316  1.00  0.00    -0.456 OA
ENDROOT
BRANCH   1  12
ATOM     12  C   UNL     1       5.925  27.123  58.102  1.00  0.00     0.021 A 
ATOM     13  C   UNL     1       4.571  27.271  57.753  1.00  0.00     0.016 A 
ATOM     14  C   UNL     1       4.182  28.239  56.824  1.00  0.00     0.051 A 
ATOM     15  C   UNL     1       5.129  29.070  56.218  1.00  0.00     0.157 A 
ATOM     16  C   UNL     1       6.877  27.950  57.482  1.00  0.00     0.062 A 
ATOM     17  C   UNL     1       6.494  28.923  56.550  1.00  0.00     0.158 A 
BRANCH  15  18
ATOM     18  O   UNL     1       4.671  30.018  55.300  1.00  0.00    -0.504 OA
ATOM     19  H   UNL     1       5.143  30.890  55.108  1.00  0.00     0.293 HD
ENDBRANCH  15  18
BRANCH  17  20
ATOM     20  O   UNL     1       7.498  29.712  55.984  1.00  0.00    -0.504 OA
ATOM     21  H   UNL     1       7.326  30.453  55.320  1.00  0.00     0.293 HD
ENDBRANCH  17  20
ENDBRANCH   1  12
BRANCH   6  22
ATOM     22  O   UNL     1       7.192  22.502  62.721  1.00  0.00    -0.507 OA
ATOM     23  H   UNL     1       6.201  22.570  62.891  1.00  0.00     0.293 HD
ENDBRANCH   6  22
BRANCH   8  24
ATOM     24  O   UNL     1      11.518  24.007  61.340  1.00  0.00    -0.508 OA
ATOM     25  H   UNL     1      11.946  23.667  62.193  1.00  0.00     0.293 HD
ENDBRANCH   8  24
TORSDOF 5
ENDMDL
MODEL 5
REMARK VINA RESULT:    -5.864      3.157      6.750
REMARK INTER + INTRA:          -7.173
REMARK INTER:                  -6.885
REMARK INTRA:                  -0.288
REMARK UNBOUND:                -0.281
REMARK SMILES O=c1cc(-c2ccc(O)c(O)c2)oc2cc(O)cc(O)c12
REMARK SMILES IDX 4 1 3 2 2 3 1 4 21 5 19 6 18 7 16 8 15 9 14 10 13 11 5 12
REMARK SMILES IDX 6 13 7 14 8 15 12 16 10 17 9 18 11 20 20 22 17 24
REMARK H PARENT 9 19 11 21 20 23 17 25
REMARK Flexibility Score: inf
ROOT
ATOM      1  C   UNL     1       4.835  26.289  59.233  1.00  0.00     0.138 A 
ATOM      2  C   UNL     1       6.233  26.200  59.191  1.00  0.00     0.100 A 
ATOM      3  C   UNL     1       6.949  26.998  58.297  1.00  0.00     0.197 A 
ATOM      4  O   UNL     1       8.198  26.854  58.244  1.00  0.00    -0.289 OA
ATOM      5  C   UNL     1       6.262  27.915  57.467  1.00  0.00     0.107 A 
ATOM      6  C   UNL     1       6.890  28.803  56.542  1.00  0.00     0.134 A 
ATOM      7  C   UNL     1       6.098  29.597  55.702  1.00  0.00     0.093 A 
ATOM      8  C   UNL     1       4.707  29.578  55.793  1.00  0.00     0.123 A 
ATOM      9  C   UNL     1       4.084  28.751  56.728  1.00  0.00     0.094 A 
ATOM     10  C   UNL     1       4.844  27.922  57.556  1.00  0.00     0.146 A 
ATOM     11  O   UNL     1       4.211  27.135  58.421  1.00  0.00    -0.456 OA
ENDROOT
BRANCH   1  12
ATOM     12  C   UNL     1       4.023  25.467  60.167  1.00  0.00     0.021 A 
ATOM     13  C   UNL     1       4.189  24.074  60.261  1.00  0.00     0.016 A 
ATOM     14  C   UNL     1       3.404  23.326  61.141  1.00  0.00     0.051 A 
ATOM     15  C   UNL     1       2.435  23.944  61.937  1.00  0.00     0.157 A 
ATOM     16  C   UNL     1       3.040  26.085  60.957  1.00  0.00     0.062 A 
ATOM     17  C   UNL     1       2.249  25.342  61.842  1.00  0.00     0.158 A 
BRANCH  15  18
ATOM     18  O   UNL     1       1.686  23.138  62.796  1.00  0.00    -0.504 OA
ATOM     19  H   UNL     1       0.865  22.622  62.513  1.00  0.00     0.293 HD
ENDBRANCH  15  18
BRANCH  17  20
ATOM     20  O   UNL     1       1.298  26.030  62.600  1.00  0.00    -0.504 OA
ATOM     21  H   UNL     1       1.364  27.011  62.832  1.00  0.00     0.293 HD
ENDBRANCH  17  20
ENDBRANCH   1  12
BRANCH   6  22
ATOM     22  O   UNL     1       8.273  28.962  56.422  1.00  0.00    -0.507 OA
ATOM     23  H   UNL     1       8.736  29.804  56.118  1.00  0.00     0.293 HD
ENDBRANCH   6  22
BRANCH   8  24
ATOM     24  O   UNL     1       3.952  30.393  54.952  1.00  0.00    -0.508 OA
ATOM     25  H   UNL     1       4.372  31.158  54.437  1.00  0.00     0.293 HD
ENDBRANCH   8  24
TORSDOF 5
ENDMDL
MODEL 6
REMARK VINA RESULT:    -5.794      5.111      6.727
REMARK INTER + INTRA:          -7.091
REMARK INTER:                  -6.802
REMARK INTRA:                  -0.289
REMARK UNBOUND:                -0.281
REMARK SMILES O=c1cc(-c2ccc(O)c(O)c2)oc2cc(O)cc(O)c12
REMARK SMILES IDX 4 1 3 2 2 3 1 4 21 5 19 6 18 7 16 8 15 9 14 10 13 11 5 12
REMARK SMILES IDX 6 13 7 14 8 15 12 16 10 17 9 18 11 20 20 22 17 24
REMARK H PARENT 9 19 11 21 20 23 17 25
REMARK Flexibility Score: inf
ROOT
ATOM      1  C   UNL     1       5.748  30.083  61.223  1.00  0.00     0.138 A 
ATOM      2  C   UNL     1       6.337  28.957  61.813  1.00  0.00     0.100 A 
ATOM      3  C   UNL     1       6.342  27.741  61.128  1.00  0.00     0.197 A 
ATOM      4  O   UNL     1       6.829  26.736  61.708  1.00  0.00    -0.289 OA
ATOM      5  C   UNL     1       5.786  27.663  59.829  1.00  0.00     0.107 A 
ATOM      6  C   UNL     1       5.765  26.486  59.022  1.00  0.00     0.134 A 
ATOM      7  C   UNL     1       5.097  26.505  57.791  1.00  0.00     0.093 A 
ATOM      8  C   UNL     1       4.502  27.670  57.312  1.00  0.00     0.123 A 
ATOM      9  C   UNL     1       4.560  28.841  58.069  1.00  0.00     0.094 A 
ATOM     10  C   UNL     1       5.187  28.845  59.317  1.00  0.00     0.146 A 
ATOM     11  O   UNL     1       5.205  29.976  60.015  1.00  0.00    -0.456 OA
ENDROOT
BRANCH   1  12
ATOM     12  C   UNL     1       5.718  31.402  61.905  1.00  0.00     0.021 A 
ATOM     13  C   UNL     1       5.266  31.540  63.229  1.00  0.00     0.016 A 
ATOM     14  C   UNL     1       5.239  32.795  63.841  1.00  0.00     0.051 A 
ATOM     15  C   UNL     1       5.652  33.937  63.147  1.00  0.00     0.157 A 
ATOM     16  C   UNL     1       6.120  32.553  61.205  1.00  0.00     0.062 A 
ATOM     17  C   UNL     1       6.096  33.815  61.811  1.00  0.00     0.158 A 
BRANCH  15  18
ATOM     18  O   UNL     1       5.602  35.161  63.819  1.00  0.00    -0.504 OA
ATOM     19  H   UNL     1       4.964  35.907  63.583  1.00  0.00     0.293 HD
ENDBRANCH  15  18
BRANCH  17  20
ATOM     20  O   UNL     1       6.519  34.909  61.053  1.00  0.00    -0.504 OA
ATOM     21  H   UNL     1       7.431  34.980  60.625  1.00  0.00     0.293 HD
ENDBRANCH  17  20
ENDBRANCH   1  12
BRANCH   6  22
ATOM     22  O   UNL     1       6.396  25.287  59.367  1.00  0.00    -0.507 OA
ATOM     23  H   UNL     1       7.185  24.887  58.883  1.00  0.00     0.293 HD
ENDBRANCH   6  22
BRANCH   8  24
ATOM     24  O   UNL     1       3.860  27.657  56.075  1.00  0.00    -0.508 OA
ATOM     25  H   UNL     1       4.092  28.326  55.350  1.00  0.00     0.293 HD
ENDBRANCH   8  24
TORSDOF 5
ENDMDL
MODEL 7
REMARK VINA RESULT:    -5.681      1.371      2.203
REMARK INTER + INTRA:          -6.958
REMARK INTER:                  -6.675
REMARK INTRA:                  -0.283
REMARK UNBOUND:                -0.281
REMARK SMILES O=c1cc(-c2ccc(O)c(O)c2)oc2cc(O)cc(O)c12
REMARK SMILES IDX 4 1 3 2 2 3 1 4 21 5 19 6 18 7 16 8 15 9 14 10 13 11 5 12
REMARK SMILES IDX 6 13 7 14 8 15 12 16 10 17 9 18 11 20 20 22 17 24
REMARK H PARENT 9 19 11 21 20 23 17 25
REMARK Flexibility Score: inf
ROOT
ATOM      1  C   UNL     1       8.390  26.412  58.951  1.00  0.00     0.138 A 
ATOM      2  C   UNL     1       8.405  26.206  60.336  1.00  0.00     0.100 A 
ATOM      3  C   UNL     1       9.560  25.723  60.951  1.00  0.00     0.197 A 
ATOM      4  O   UNL     1       9.523  25.496  62.188  1.00  0.00    -0.289 OA
ATOM      5  C   UNL     1      10.719  25.479  60.177  1.00  0.00     0.107 A 
ATOM      6  C   UNL     1      11.965  25.017  60.699  1.00  0.00     0.134 A 
ATOM      7  C   UNL     1      13.014  24.717  59.820  1.00  0.00     0.093 A 
ATOM      8  C   UNL     1      12.882  24.915  58.447  1.00  0.00     0.123 A 
ATOM      9  C   UNL     1      11.686  25.413  57.929  1.00  0.00     0.094 A 
ATOM     10  C   UNL     1      10.610  25.689  58.776  1.00  0.00     0.146 A 
ATOM     11  O   UNL     1       9.482  26.146  58.241  1.00  0.00    -0.456 OA
ENDROOT
BRANCH   1  12
ATOM     12  C   UNL     1       7.190  26.929  58.245  1.00  0.00     0.021 A 
ATOM     13  C   UNL     1       5.944  26.284  58.337  1.00  0.00     0.016 A 
ATOM     14  C   UNL     1       4.834  26.787  57.654  1.00  0.00     0.051 A 
ATOM     15  C   UNL     1       4.943  27.933  56.861  1.00  0.00     0.157 A 
ATOM     16  C   UNL     1       7.300  28.073  57.437  1.00  0.00     0.062 A 
ATOM     17  C   UNL     1       6.193  28.583  56.749  1.00  0.00     0.158 A 
BRANCH  15  18
ATOM     18  O   UNL     1       3.794  28.384  56.207  1.00  0.00    -0.504 OA
ATOM     19  H   UNL     1       3.477  29.343  56.222  1.00  0.00     0.293 HD
ENDBRANCH  15  18
BRANCH  17  20
ATOM     20  O   UNL     1       6.380  29.730  55.973  1.00  0.00    -0.504 OA
ATOM     21  H   UNL     1       5.662  30.419  55.802  1.00  0.00     0.293 HD
ENDBRANCH  17  20
ENDBRANCH   1  12
BRANCH   6  22
ATOM     22  O   UNL     1      12.234  24.859  62.062  1.00  0.00    -0.507 OA
ATOM     23  H   UNL     1      12.554  24.006  62.495  1.00  0.00     0.293 HD
ENDBRANCH   6  22
BRANCH   8  24
ATOM     24  O   UNL     1      13.952  24.620  57.604  1.00  0.00    -0.508 OA
ATOM     25  H   UNL     1      14.881  24.446  57.968  1.00  0.00     0.293 HD
ENDBRANCH   8  24
TORSDOF 5
ENDMDL
MODEL 8
REMARK VINA RESULT:    -5.510      1.876      6.892
REMARK INTER + INTRA:          -6.757
REMARK INTER:                  -6.475
REMARK INTRA:                  -0.283
REMARK UNBOUND:                -0.281
REMARK SMILES O=c1cc(-c2ccc(O)c(O)c2)oc2cc(O)cc(O)c12
REMARK SMILES IDX 4 1 3 2 2 3 1 4 21 5 19 6 18 7 16 8 15 9 14 10 13 11 5 12
REMARK SMILES IDX 6 13 7 14 8 15 12 16 10 17 9 18 11 20 20 22 17 24
REMARK H PARENT 9 19 11 21 20 23 17 25
REMARK Flexibility Score: inf
ROOT
ATOM      1  C   UNL     1       8.942  26.065  59.657  1.00  0.00     0.138 A 
ATOM      2  C   UNL     1       8.582  26.491  60.942  1.00  0.00     0.100 A 
ATOM      3  C   UNL     1       7.309  27.018  61.164  1.00  0.00     0.197 A 
ATOM      4  O   UNL     1       7.036  27.443  62.316  1.00  0.00    -0.289 OA
ATOM      5  C   UNL     1       6.380  27.086  60.098  1.00  0.00     0.107 A 
ATOM      6  C   UNL     1       5.043  27.573  60.213  1.00  0.00     0.134 A 
ATOM      7  C   UNL     1       4.247  27.683  59.066  1.00  0.00     0.093 A 
ATOM      8  C   UNL     1       4.717  27.271  57.820  1.00  0.00     0.123 A 
ATOM      9  C   UNL     1       6.005  26.747  57.704  1.00  0.00     0.094 A 
ATOM     10  C   UNL     1       6.836  26.656  58.823  1.00  0.00     0.146 A 
ATOM     11  O   UNL     1       8.062  26.167  58.666  1.00  0.00    -0.456 OA
ENDROOT
BRANCH   1  12
ATOM     12  C   UNL     1      10.281  25.492  59.365  1.00  0.00     0.021 A 
ATOM     13  C   UNL     1      10.917  25.694  58.127  1.00  0.00     0.016 A 
ATOM     14  C   UNL     1      12.172  25.135  57.877  1.00  0.00     0.051 A 
ATOM     15  C   UNL     1      12.814  24.358  58.846  1.00  0.00     0.157 A 
ATOM     16  C   UNL     1      10.921  24.700  60.332  1.00  0.00     0.062 A 
ATOM     17  C   UNL     1      12.180  24.136  60.089  1.00  0.00     0.158 A 
BRANCH  15  18
ATOM     18  O   UNL     1      14.068  23.830  58.532  1.00  0.00    -0.504 OA
ATOM     19  H   UNL     1      14.269  23.318  57.685  1.00  0.00     0.293 HD
ENDBRANCH  15  18
BRANCH  17  20
ATOM     20  O   UNL     1      12.756  23.368  61.104  1.00  0.00    -0.504 OA
ATOM     21  H   UNL     1      12.346  22.522  61.473  1.00  0.00     0.293 HD
ENDBRANCH  17  20
ENDBRANCH   1  12
BRANCH   6  22
ATOM     22  O   UNL     1       4.442  27.937  61.422  1.00  0.00    -0.507 OA
ATOM     23  H   UNL     1       4.008  28.828  61.608  1.00  0.00     0.293 HD
ENDBRANCH   6  22
BRANCH   8  24
ATOM     24  O   UNL     1       3.892  27.381  56.703  1.00  0.00    -0.508 OA
ATOM     25  H   UNL     1       4.237  27.746  55.823  1.00  0.00     0.293 HD
ENDBRANCH   8  24
TORSDOF 5
ENDMDL
MODEL 9
REMARK VINA RESULT:    -5.469      5.292      6.809
REMARK INTER + INTRA:          -6.709
REMARK INTER:                  -6.443
REMARK INTRA:                  -0.266
REMARK UNBOUND:                -0.281
REMARK SMILES O=c1cc(-c2ccc(O)c(O)c2)oc2cc(O)cc(O)c12
REMARK SMILES IDX 4 1 3 2 2 3 1 4 21 5 19 6 18 7 16 8 15 9 14 10 13 11 5 12
REMARK SMILES IDX 6 13 7 14 8 15 12 16 10 17 9 18 11 20 20 22 17 24
REMARK H PARENT 9 19 11 21 20 23 17 25
REMARK Flexibility Score: inf
ROOT
ATOM      1  C   UNL     1       5.654  30.025  61.272  1.00  0.00     0.138 A 
ATOM      2  C   UNL     1       6.373  28.925  61.758  1.00  0.00     0.100 A 
ATOM      3  C   UNL     1       6.473  27.768  60.984  1.00  0.00     0.197 A 
ATOM      4  O   UNL     1       7.078  26.779  61.472  1.00  0.00    -0.289 OA
ATOM      5  C   UNL     1       5.877  27.727  59.701  1.00  0.00     0.107 A 
ATOM      6  C   UNL     1       5.942  26.614  58.809  1.00  0.00     0.134 A 
ATOM      7  C   UNL     1       5.229  26.653  57.603  1.00  0.00     0.093 A 
ATOM      8  C   UNL     1       4.503  27.783  57.232  1.00  0.00     0.123 A 
ATOM      9  C   UNL     1       4.474  28.896  58.073  1.00  0.00     0.094 A 
ATOM     10  C   UNL     1       5.145  28.876  59.297  1.00  0.00     0.146 A 
ATOM     11  O   UNL     1       5.077  29.950  60.077  1.00  0.00    -0.456 OA
ENDROOT
BRANCH   1  12
ATOM     12  C   UNL     1       5.519  31.282  62.051  1.00  0.00     0.021 A 
ATOM     13  C   UNL     1       6.069  32.495  61.599  1.00  0.00     0.016 A 
ATOM     14  C   UNL     1       5.935  33.659  62.357  1.00  0.00     0.051 A 
ATOM     15  C   UNL     1       5.260  33.641  63.582  1.00  0.00     0.157 A 
ATOM     16  C   UNL     1       4.853  31.263  63.288  1.00  0.00     0.062 A 
ATOM     17  C   UNL     1       4.714  32.427  64.054  1.00  0.00     0.158 A 
BRANCH  15  18
ATOM     18  O   UNL     1       5.160  34.841  64.288  1.00  0.00    -0.504 OA
ATOM     19  H   UNL     1       4.326  35.144  64.770  1.00  0.00     0.293 HD
ENDBRANCH  15  18
BRANCH  17  20
ATOM     20  O   UNL     1       4.030  32.329  65.269  1.00  0.00    -0.504 OA
ATOM     21  H   UNL     1       3.185  32.838  65.483  1.00  0.00     0.293 HD
ENDBRANCH  17  20
ENDBRANCH   1  12
BRANCH   6  22
ATOM     22  O   UNL     1       6.702  25.464  59.043  1.00  0.00    -0.507 OA
ATOM     23  H   UNL     1       7.494  25.171  58.493  1.00  0.00     0.293 HD
ENDBRANCH   6  22
BRANCH   8  24
ATOM     24  O   UNL     1       3.819  27.793  56.018  1.00  0.00    -0.508 OA
ATOM     25  H   UNL     1       4.157  28.322  55.223  1.00  0.00     0.293 HD
ENDBRANCH   8  24
TORSDOF 5
ENDMDL
