MODEL 1
REMARK VINA RESULT:    -3.311      0.000      0.000
REMARK INTER + INTRA:          -3.952
REMARK INTER:                  -3.891
REMARK INTRA:                  -0.061
REMARK UNBOUND:                -0.061
REMARK SMILES CCCCC(=O)[O-]
REMARK SMILES IDX 4 1 5 2 6 3 7 4 3 5 2 6 1 7
REMARK H PARENT
REMARK Flexibility Score: inf
ROOT
ATOM      1  C   UNL     1      15.127  31.358  11.681  1.00  0.00     0.053 C 
ENDROOT
BRANCH   1   2
ATOM      2  C   UNL     1      15.420  32.825  11.767  1.00  0.00     0.041 C 
ATOM      3  O   UNL     1      16.610  33.237  11.740  1.00  0.00    -0.550 OA
ATOM      4  O   UNL     1      14.378  33.739  11.846  1.00  0.00    -0.550 OA
ENDBRANCH   1   2
BRANCH   1   5
ATOM      5  C   UNL     1      13.649  31.092  11.367  1.00  0.00     0.006 C 
BRANCH   5   6
ATOM      6  C   UNL     1      12.932  30.371  12.518  1.00  0.00    -0.003 C 
ATOM      7  C   UNL     1      13.739  29.171  13.003  1.00  0.00     0.004 C 
ENDBRANCH   5   6
ENDBRANCH   1   5
TORSDOF 3
ENDMDL
MODEL 2
REMARK VINA RESULT:    -3.130      2.908      4.109
REMARK INTER + INTRA:          -3.740
REMARK INTER:                  -3.725
REMARK INTRA:                  -0.016
REMARK UNBOUND:                -0.061
REMARK SMILES CCCCC(=O)[O-]
REMARK SMILES IDX 4 1 5 2 6 3 7 4 3 5 2 6 1 7
REMARK H PARENT
REMARK Flexibility Score: inf
ROOT
ATOM      1  C   UNL     1      13.577  30.875  11.962  1.00  0.00     0.053 C 
ENDROOT
BRANCH   1   2
ATOM      2  C   UNL     1      13.510  29.412  12.278  1.00  0.00     0.041 C 
ATOM      3  O   UNL     1      13.419  28.565  11.350  1.00  0.00    -0.550 OA
ATOM      4  O   UNL     1      13.580  28.982  13.597  1.00  0.00    -0.550 OA
ENDBRANCH   1   2
BRANCH   1   5
ATOM      5  C   UNL     1      15.015  31.331  11.682  1.00  0.00     0.006 C 
BRANCH   5   6
ATOM      6  C   UNL     1      15.135  32.860  11.609  1.00  0.00    -0.003 C 
ATOM      7  C   UNL     1      16.589  33.291  11.444  1.00  0.00     0.004 C 
ENDBRANCH   5   6
ENDBRANCH   1   5
TORSDOF 3
ENDMDL
MODEL 3
REMARK VINA RESULT:    -3.117     21.121     21.753
REMARK INTER + INTRA:          -3.724
REMARK INTER:                  -3.706
REMARK INTRA:                  -0.018
REMARK UNBOUND:                -0.061
REMARK SMILES CCCCC(=O)[O-]
REMARK SMILES IDX 4 1 5 2 6 3 7 4 3 5 2 6 1 7
REMARK H PARENT
REMARK Flexibility Score: inf
ROOT
ATOM      1  C   UNL     1      27.707  20.770  25.634  1.00  0.00     0.053 C 
ENDROOT
BRANCH   1   2
ATOM      2  C   UNL     1      26.228  20.580  25.784  1.00  0.00     0.041 C 
ATOM      3  O   UNL     1      25.695  19.480  25.480  1.00  0.00    -0.550 OA
ATOM      4  O   UNL     1      25.443  21.609  26.288  1.00  0.00    -0.550 OA
ENDBRANCH   1   2
BRANCH   1   5
ATOM      5  C   UNL     1      28.189  20.392  24.228  1.00  0.00     0.006 C 
BRANCH   5   6
ATOM      6  C   UNL     1      29.720  20.444  24.106  1.00  0.00    -0.003 C 
ATOM      7  C   UNL     1      30.156  20.397  22.645  1.00  0.00     0.004 C 
ENDBRANCH   5   6
ENDBRANCH   1   5
TORSDOF 3
ENDMDL
MODEL 4
REMARK VINA RESULT:    -3.114     21.145     21.784
REMARK INTER + INTRA:          -3.721
REMARK INTER:                  -3.704
REMARK INTRA:                  -0.017
REMARK UNBOUND:                -0.061
REMARK SMILES CCCCC(=O)[O-]
REMARK SMILES IDX 4 1 5 2 6 3 7 4 3 5 2 6 1 7
REMARK H PARENT
REMARK Flexibility Score: inf
ROOT
ATOM      1  C   UNL     1      27.735  20.777  25.625  1.00  0.00     0.053 C 
ENDROOT
BRANCH   1   2
ATOM      2  C   UNL     1      26.258  20.574  25.774  1.00  0.00     0.041 C 
ATOM      3  O   UNL     1      25.530  21.505  26.211  1.00  0.00    -0.550 OA
ATOM      4  O   UNL     1      25.681  19.367  25.402  1.00  0.00    -0.550 OA
ENDBRANCH   1   2
BRANCH   1   5
ATOM      5  C   UNL     1      28.222  20.397  24.221  1.00  0.00     0.006 C 
BRANCH   5   6
ATOM      6  C   UNL     1      29.753  20.439  24.106  1.00  0.00    -0.003 C 
ATOM      7  C   UNL     1      30.195  20.421  22.646  1.00  0.00     0.004 C 
ENDBRANCH   5   6
ENDBRANCH   1   5
TORSDOF 3
ENDMDL
MODEL 5
REMARK VINA RESULT:    -3.107     17.129     18.166
REMARK INTER + INTRA:          -3.713
REMARK INTER:                  -3.691
REMARK INTRA:                  -0.022
REMARK UNBOUND:                -0.061
REMARK SMILES CCCCC(=O)[O-]
REMARK SMILES IDX 4 1 5 2 6 3 7 4 3 5 2 6 1 7
REMARK H PARENT
REMARK Flexibility Score: inf
ROOT
ATOM      1  C   UNL     1      25.378  38.378  25.567  1.00  0.00     0.053 C 
ENDROOT
BRANCH   1   2
ATOM      2  C   UNL     1      24.578  38.438  26.832  1.00  0.00     0.041 C 
ATOM      3  O   UNL     1      23.364  38.770  26.800  1.00  0.00    -0.550 OA
ATOM      4  O   UNL     1      25.167  38.098  28.043  1.00  0.00    -0.550 OA
ENDBRANCH   1   2
BRANCH   1   5
ATOM      5  C   UNL     1      24.533  37.890  24.383  1.00  0.00     0.006 C 
BRANCH   5   6
ATOM      6  C   UNL     1      25.188  38.208  23.031  1.00  0.00    -0.003 C 
ATOM      7  C   UNL     1      24.490  37.470  21.894  1.00  0.00     0.004 C 
ENDBRANCH   5   6
ENDBRANCH   1   5
TORSDOF 3
ENDMDL
MODEL 6
REMARK VINA RESULT:    -3.030     21.513     22.165
REMARK INTER + INTRA:          -3.622
REMARK INTER:                  -3.580
REMARK INTRA:                  -0.043
REMARK UNBOUND:                -0.061
REMARK SMILES CCCCC(=O)[O-]
REMARK SMILES IDX 4 1 5 2 6 3 7 4 3 5 2 6 1 7
REMARK H PARENT
REMARK Flexibility Score: inf
ROOT
ATOM      1  C   UNL     1      28.571  20.016  23.231  1.00  0.00     0.053 C 
ENDROOT
BRANCH   1   2
ATOM      2  C   UNL     1      30.048  19.980  22.983  1.00  0.00     0.041 C 
ATOM      3  O   UNL     1      30.567  20.746  22.128  1.00  0.00    -0.550 OA
ATOM      4  O   UNL     1      30.855  19.122  23.718  1.00  0.00    -0.550 OA
ENDBRANCH   1   2
BRANCH   1   5
ATOM      5  C   UNL     1      28.223  19.569  24.656  1.00  0.00     0.006 C 
BRANCH   5   6
ATOM      6  C   UNL     1      27.883  20.756  25.570  1.00  0.00    -0.003 C 
ATOM      7  C   UNL     1      26.403  20.758  25.941  1.00  0.00     0.004 C 
ENDBRANCH   5   6
ENDBRANCH   1   5
TORSDOF 3
ENDMDL
MODEL 7
REMARK VINA RESULT:    -2.992     16.584     17.639
REMARK INTER + INTRA:          -3.577
REMARK INTER:                  -3.547
REMARK INTRA:                  -0.031
REMARK UNBOUND:                -0.061
REMARK SMILES CCCCC(=O)[O-]
REMARK SMILES IDX 4 1 5 2 6 3 7 4 3 5 2 6 1 7
REMARK H PARENT
REMARK Flexibility Score: inf
ROOT
ATOM      1  C   UNL     1      24.614  37.920  24.045  1.00  0.00     0.053 C 
ENDROOT
BRANCH   1   2
ATOM      2  C   UNL     1      25.038  37.970  22.610  1.00  0.00     0.041 C 
ATOM      3  O   UNL     1      26.018  38.682  22.262  1.00  0.00    -0.550 OA
ATOM      4  O   UNL     1      24.371  37.207  21.661  1.00  0.00    -0.550 OA
ENDBRANCH   1   2
BRANCH   1   5
ATOM      5  C   UNL     1      25.543  38.750  24.942  1.00  0.00     0.006 C 
BRANCH   5   6
ATOM      6  C   UNL     1      25.914  38.009  26.235  1.00  0.00    -0.003 C 
ATOM      7  C   UNL     1      24.995  38.413  27.384  1.00  0.00     0.004 C 
ENDBRANCH   5   6
ENDBRANCH   1   5
TORSDOF 3
ENDMDL
MODEL 8
REMARK VINA RESULT:    -2.889     20.681     21.575
REMARK INTER + INTRA:          -3.457
REMARK INTER:                  -3.418
REMARK INTRA:                  -0.038
REMARK UNBOUND:                -0.061
REMARK SMILES CCCCC(=O)[O-]
REMARK SMILES IDX 4 1 5 2 6 3 7 4 3 5 2 6 1 7
REMARK H PARENT
REMARK Flexibility Score: inf
ROOT
ATOM      1  C   UNL     1      27.104  20.333  24.148  1.00  0.00     0.053 C 
ENDROOT
BRANCH   1   2
ATOM      2  C   UNL     1      25.825  19.724  24.635  1.00  0.00     0.041 C 
ATOM      3  O   UNL     1      25.515  19.788  25.854  1.00  0.00    -0.550 OA
ATOM      4  O   UNL     1      24.960  19.113  23.736  1.00  0.00    -0.550 OA
ENDBRANCH   1   2
BRANCH   1   5
ATOM      5  C   UNL     1      27.992  20.796  25.310  1.00  0.00     0.006 C 
BRANCH   5   6
ATOM      6  C   UNL     1      29.418  21.135  24.852  1.00  0.00    -0.003 C 
ATOM      7  C   UNL     1      29.819  20.300  23.639  1.00  0.00     0.004 C 
ENDBRANCH   5   6
ENDBRANCH   1   5
TORSDOF 3
ENDMDL
MODEL 9
REMARK VINA RESULT:    -2.720     20.765     21.382
REMARK INTER + INTRA:          -3.258
REMARK INTER:                  -3.220
REMARK INTRA:                  -0.038
REMARK UNBOUND:                -0.061
REMARK SMILES CCCCC(=O)[O-]
REMARK SMILES IDX 4 1 5 2 6 3 7 4 3 5 2 6 1 7
REMARK H PARENT
REMARK Flexibility Score: inf
ROOT
ATOM      1  C   UNL     1      27.579  20.694  25.662  1.00  0.00     0.053 C 
ENDROOT
BRANCH   1   2
ATOM      2  C   UNL     1      28.160  20.431  24.306  1.00  0.00     0.041 C 
ATOM      3  O   UNL     1      27.405  20.191  23.328  1.00  0.00    -0.550 OA
ATOM      4  O   UNL     1      29.535  20.481  24.118  1.00  0.00    -0.550 OA
ENDBRANCH   1   2
BRANCH   1   5
ATOM      5  C   UNL     1      26.049  20.790  25.616  1.00  0.00     0.006 C 
BRANCH   5   6
ATOM      6  C   UNL     1      25.372  19.492  26.080  1.00  0.00    -0.003 C 
ATOM      7  C   UNL     1      23.858  19.658  26.158  1.00  0.00     0.004 C 
ENDBRANCH   5   6
ENDBRANCH   1   5
TORSDOF 3
ENDMDL
