MODEL 1
REMARK VINA RESULT:    -3.589      0.000      0.000
REMARK INTER + INTRA:          -9.137
REMARK INTER:                  -6.527
REMARK INTRA:                  -2.611
REMARK UNBOUND:                -2.611
REMARK SMILES CCCCCC=CCC=CCCCCCCCC(=O)[O-]
REMARK SMILES IDX 11 1 12 2 13 3 14 4 15 5 16 6 17 7 18 8 19 9 20 10 10 11
REMARK SMILES IDX 9 12 8 13 7 14 6 15 5 16 4 17 3 18 2 19 1 20
REMARK H PARENT
REMARK Flexibility Score: inf
ROOT
ATOM      1  C   UNL     1      43.660  20.873  -4.656  1.00  0.00     0.027 C 
ENDROOT
BRANCH   1   2
ATOM      2  C   UNL     1      44.130  19.831  -5.683  1.00  0.00     0.004 C 
BRANCH   2   3
ATOM      3  C   UNL     1      44.053  18.394  -5.146  1.00  0.00     0.000 C 
BRANCH   3   4
ATOM      4  C   UNL     1      45.348  17.603  -5.389  1.00  0.00     0.000 C 
BRANCH   4   5
ATOM      5  C   UNL     1      45.735  16.790  -4.144  1.00  0.00     0.000 C 
BRANCH   5   6
ATOM      6  C   UNL     1      44.657  16.830  -3.050  1.00  0.00     0.006 C 
BRANCH   6   7
ATOM      7  C   UNL     1      43.960  15.476  -2.855  1.00  0.00     0.053 C 
BRANCH   7   8
ATOM      8  C   UNL     1      42.494  15.667  -2.629  1.00  0.00     0.041 C 
ATOM      9  O   UNL     1      41.658  14.996  -3.291  1.00  0.00    -0.550 OA
ATOM     10  O   UNL     1      42.049  16.559  -1.660  1.00  0.00    -0.550 OA
ENDBRANCH   7   8
ENDBRANCH   6   7
ENDBRANCH   5   6
ENDBRANCH   4   5
ENDBRANCH   3   4
ENDBRANCH   2   3
ENDBRANCH   1   2
BRANCH   1  11
ATOM     11  C   UNL     1      43.210  20.211  -3.382  1.00  0.00    -0.031 C 
ATOM     12  C   UNL     1      42.827  20.931  -2.316  1.00  0.00    -0.027 C 
BRANCH  12  13
ATOM     13  C   UNL     1      42.387  20.273  -1.037  1.00  0.00     0.054 C 
BRANCH  13  14
ATOM     14  C   UNL     1      41.061  20.818  -0.571  1.00  0.00    -0.027 C 
ATOM     15  C   UNL     1      39.863  20.299  -0.900  1.00  0.00    -0.031 C 
BRANCH  15  16
ATOM     16  C   UNL     1      39.665  19.060  -1.739  1.00  0.00     0.027 C 
BRANCH  16  17
ATOM     17  C   UNL     1      39.497  19.392  -3.230  1.00  0.00     0.004 C 
BRANCH  17  18
ATOM     18  C   UNL     1      40.165  18.340  -4.134  1.00  0.00     0.000 C 
BRANCH  18  19
ATOM     19  C   UNL     1      40.431  18.869  -5.551  1.00  0.00    -0.003 C 
ATOM     20  C   UNL     1      40.155  20.365  -5.686  1.00  0.00     0.004 C 
ENDBRANCH  18  19
ENDBRANCH  17  18
ENDBRANCH  16  17
ENDBRANCH  15  16
ENDBRANCH  13  14
ENDBRANCH  12  13
ENDBRANCH   1  11
TORSDOF 14
ENDMDL
MODEL 2
REMARK VINA RESULT:    -3.581      1.299      5.186
REMARK INTER + INTRA:          -9.123
REMARK INTER:                  -6.471
REMARK INTRA:                  -2.652
REMARK UNBOUND:                -2.611
REMARK SMILES CCCCCC=CCC=CCCCCCCCC(=O)[O-]
REMARK SMILES IDX 11 1 12 2 13 3 14 4 15 5 16 6 17 7 18 8 19 9 20 10 10 11
REMARK SMILES IDX 9 12 8 13 7 14 6 15 5 16 4 17 3 18 2 19 1 20
REMARK H PARENT
REMARK Flexibility Score: inf
ROOT
ATOM      1  C   UNL     1      42.504  20.347  -0.815  1.00  0.00     0.027 C 
ENDROOT
BRANCH   1   2
ATOM      2  C   UNL     1      41.148  21.052  -0.968  1.00  0.00     0.004 C 
BRANCH   2   3
ATOM      3  C   UNL     1      40.009  20.307  -0.255  1.00  0.00     0.000 C 
BRANCH   3   4
ATOM      4  C   UNL     1      38.957  19.759  -1.233  1.00  0.00     0.000 C 
BRANCH   4   5
ATOM      5  C   UNL     1      39.565  19.548  -2.628  1.00  0.00     0.000 C 
BRANCH   5   6
ATOM      6  C   UNL     1      39.178  18.196  -3.246  1.00  0.00     0.006 C 
BRANCH   6   7
ATOM      7  C   UNL     1      40.369  17.235  -3.362  1.00  0.00     0.053 C 
BRANCH   7   8
ATOM      8  C   UNL     1      40.604  16.529  -2.064  1.00  0.00     0.041 C 
ATOM      9  O   UNL     1      39.917  15.516  -1.761  1.00  0.00    -0.550 OA
ATOM     10  O   UNL     1      41.604  16.965  -1.204  1.00  0.00    -0.550 OA
ENDBRANCH   7   8
ENDBRANCH   6   7
ENDBRANCH   5   6
ENDBRANCH   4   5
ENDBRANCH   3   4
ENDBRANCH   2   3
ENDBRANCH   1   2
BRANCH   1  11
ATOM     11  C   UNL     1      43.087  19.999  -2.157  1.00  0.00    -0.031 C 
ATOM     12  C   UNL     1      42.986  20.833  -3.202  1.00  0.00    -0.027 C 
BRANCH  12  13
ATOM     13  C   UNL     1      43.558  20.484  -4.548  1.00  0.00     0.054 C 
BRANCH  13  14
ATOM     14  C   UNL     1      42.969  19.199  -5.075  1.00  0.00    -0.027 C 
ATOM     15  C   UNL     1      43.685  18.101  -5.385  1.00  0.00    -0.031 C 
BRANCH  15  16
ATOM     16  C   UNL     1      45.177  17.967  -5.199  1.00  0.00     0.027 C 
BRANCH  16  17
ATOM     17  C   UNL     1      45.542  16.783  -4.291  1.00  0.00     0.004 C 
BRANCH  17  18
ATOM     18  C   UNL     1      44.621  16.693  -3.061  1.00  0.00     0.000 C 
BRANCH  18  19
ATOM     19  C   UNL     1      44.208  15.248  -2.742  1.00  0.00    -0.003 C 
ATOM     20  C   UNL     1      43.271  14.655  -3.793  1.00  0.00     0.004 C 
ENDBRANCH  18  19
ENDBRANCH  17  18
ENDBRANCH  16  17
ENDBRANCH  15  16
ENDBRANCH  13  14
ENDBRANCH  12  13
ENDBRANCH   1  11
TORSDOF 14
ENDMDL
MODEL 3
REMARK VINA RESULT:    -3.574      3.597      5.304
REMARK INTER + INTRA:          -9.109
REMARK INTER:                  -8.034
REMARK INTRA:                  -1.075
REMARK UNBOUND:                -2.611
REMARK SMILES CCCCCC=CCC=CCCCCCCCC(=O)[O-]
REMARK SMILES IDX 11 1 12 2 13 3 14 4 15 5 16 6 17 7 18 8 19 9 20 10 10 11
REMARK SMILES IDX 9 12 8 13 7 14 6 15 5 16 4 17 3 18 2 19 1 20
REMARK H PARENT
REMARK Flexibility Score: inf
ROOT
ATOM      1  C   UNL     1      46.067  16.183  -3.912  1.00  0.00     0.027 C 
ENDROOT
BRANCH   1   2
ATOM      2  C   UNL     1      47.322  16.816  -4.533  1.00  0.00     0.004 C 
BRANCH   2   3
ATOM      3  C   UNL     1      48.549  15.894  -4.460  1.00  0.00     0.000 C 
BRANCH   3   4
ATOM      4  C   UNL     1      48.336  14.700  -3.516  1.00  0.00     0.000 C 
BRANCH   4   5
ATOM      5  C   UNL     1      49.281  13.544  -3.874  1.00  0.00     0.000 C 
BRANCH   5   6
ATOM      6  C   UNL     1      48.842  12.205  -3.261  1.00  0.00     0.006 C 
BRANCH   6   7
ATOM      7  C   UNL     1      47.544  12.322  -2.450  1.00  0.00     0.053 C 
BRANCH   7   8
ATOM      8  C   UNL     1      47.718  11.724  -1.090  1.00  0.00     0.041 C 
ATOM      9  O   UNL     1      46.822  11.870  -0.215  1.00  0.00    -0.550 OA
ATOM     10  O   UNL     1      48.850  10.974  -0.797  1.00  0.00    -0.550 OA
ENDBRANCH   7   8
ENDBRANCH   6   7
ENDBRANCH   5   6
ENDBRANCH   4   5
ENDBRANCH   3   4
ENDBRANCH   2   3
ENDBRANCH   1   2
BRANCH   1  11
ATOM     11  C   UNL     1      44.868  17.072  -4.091  1.00  0.00    -0.031 C 
ATOM     12  C   UNL     1      44.733  17.857  -5.170  1.00  0.00    -0.027 C 
BRANCH  12  13
ATOM     13  C   UNL     1      43.540  18.756  -5.348  1.00  0.00     0.054 C 
BRANCH  13  14
ATOM     14  C   UNL     1      43.904  20.201  -5.114  1.00  0.00    -0.027 C 
ATOM     15  C   UNL     1      43.354  20.984  -4.166  1.00  0.00    -0.031 C 
BRANCH  15  16
ATOM     16  C   UNL     1      42.330  20.521  -3.158  1.00  0.00     0.027 C 
BRANCH  16  17
ATOM     17  C   UNL     1      42.947  20.300  -1.768  1.00  0.00     0.004 C 
BRANCH  17  18
ATOM     18  C   UNL     1      41.950  20.611  -0.638  1.00  0.00     0.000 C 
BRANCH  18  19
ATOM     19  C   UNL     1      40.530  20.121  -0.956  1.00  0.00    -0.003 C 
ATOM     20  C   UNL     1      39.487  20.650   0.028  1.00  0.00     0.004 C 
ENDBRANCH  18  19
ENDBRANCH  17  18
ENDBRANCH  16  17
ENDBRANCH  15  16
ENDBRANCH  13  14
ENDBRANCH  12  13
ENDBRANCH   1  11
TORSDOF 14
ENDMDL
MODEL 4
REMARK VINA RESULT:    -3.502      3.194      7.617
REMARK INTER + INTRA:          -8.979
REMARK INTER:                  -7.044
REMARK INTRA:                  -1.935
REMARK UNBOUND:                -2.611
REMARK SMILES CCCCCC=CCC=CCCCCCCCC(=O)[O-]
REMARK SMILES IDX 11 1 12 2 13 3 14 4 15 5 16 6 17 7 18 8 19 9 20 10 10 11
REMARK SMILES IDX 9 12 8 13 7 14 6 15 5 16 4 17 3 18 2 19 1 20
REMARK H PARENT
REMARK Flexibility Score: inf
ROOT
ATOM      1  C   UNL     1      45.528  16.873  -3.893  1.00  0.00     0.027 C 
ENDROOT
BRANCH   1   2
ATOM      2  C   UNL     1      44.866  17.694  -5.011  1.00  0.00     0.004 C 
BRANCH   2   3
ATOM      3  C   UNL     1      43.606  18.434  -4.535  1.00  0.00     0.000 C 
BRANCH   3   4
ATOM      4  C   UNL     1      43.725  19.959  -4.681  1.00  0.00     0.000 C 
BRANCH   4   5
ATOM      5  C   UNL     1      43.121  20.675  -3.464  1.00  0.00     0.000 C 
BRANCH   5   6
ATOM      6  C   UNL     1      42.782  19.712  -2.315  1.00  0.00     0.006 C 
BRANCH   6   7
ATOM      7  C   UNL     1      42.222  20.434  -1.082  1.00  0.00     0.053 C 
BRANCH   7   8
ATOM      8  C   UNL     1      40.744  20.228  -0.979  1.00  0.00     0.041 C 
ATOM      9  O   UNL     1      40.099  20.737  -0.023  1.00  0.00    -0.550 OA
ATOM     10  O   UNL     1      40.070  19.507  -1.957  1.00  0.00    -0.550 OA
ENDBRANCH   7   8
ENDBRANCH   6   7
ENDBRANCH   5   6
ENDBRANCH   4   5
ENDBRANCH   3   4
ENDBRANCH   2   3
ENDBRANCH   1   2
BRANCH   1  11
ATOM     11  C   UNL     1      46.944  16.515  -4.252  1.00  0.00    -0.031 C 
ATOM     12  C   UNL     1      47.257  16.020  -5.460  1.00  0.00    -0.027 C 
BRANCH  12  13
ATOM     13  C   UNL     1      48.670  15.651  -5.818  1.00  0.00     0.054 C 
BRANCH  13  14
ATOM     14  C   UNL     1      49.571  15.700  -4.610  1.00  0.00    -0.027 C 
ATOM     15  C   UNL     1      50.053  14.616  -3.972  1.00  0.00    -0.031 C 
BRANCH  15  16
ATOM     16  C   UNL     1      49.813  13.189  -4.402  1.00  0.00     0.027 C 
BRANCH  16  17
ATOM     17  C   UNL     1      48.817  12.468  -3.482  1.00  0.00     0.004 C 
BRANCH  17  18
ATOM     18  C   UNL     1      47.374  12.557  -4.010  1.00  0.00     0.000 C 
BRANCH  18  19
ATOM     19  C   UNL     1      46.395  13.094  -2.955  1.00  0.00    -0.003 C 
ATOM     20  C   UNL     1      47.103  13.717  -1.753  1.00  0.00     0.004 C 
ENDBRANCH  18  19
ENDBRANCH  17  18
ENDBRANCH  16  17
ENDBRANCH  15  16
ENDBRANCH  13  14
ENDBRANCH  12  13
ENDBRANCH   1  11
TORSDOF 14
ENDMDL
MODEL 5
REMARK VINA RESULT:    -3.499      3.767      5.686
REMARK INTER + INTRA:          -8.973
REMARK INTER:                  -7.590
REMARK INTRA:                  -1.383
REMARK UNBOUND:                -2.611
REMARK SMILES CCCCCC=CCC=CCCCCCCCC(=O)[O-]
REMARK SMILES IDX 11 1 12 2 13 3 14 4 15 5 16 6 17 7 18 8 19 9 20 10 10 11
REMARK SMILES IDX 9 12 8 13 7 14 6 15 5 16 4 17 3 18 2 19 1 20
REMARK H PARENT
REMARK Flexibility Score: inf
ROOT
ATOM      1  C   UNL     1      44.393  15.994  -2.433  1.00  0.00     0.027 C 
ENDROOT
BRANCH   1   2
ATOM      2  C   UNL     1      44.933  14.646  -2.935  1.00  0.00     0.004 C 
BRANCH   2   3
ATOM      3  C   UNL     1      46.447  14.672  -3.190  1.00  0.00     0.000 C 
BRANCH   3   4
ATOM      4  C   UNL     1      47.238  13.884  -2.133  1.00  0.00     0.000 C 
BRANCH   4   5
ATOM      5  C   UNL     1      48.294  12.987  -2.795  1.00  0.00     0.000 C 
BRANCH   5   6
ATOM      6  C   UNL     1      48.747  13.514  -4.167  1.00  0.00     0.006 C 
BRANCH   6   7
ATOM      7  C   UNL     1      50.224  13.930  -4.183  1.00  0.00     0.053 C 
BRANCH   7   8
ATOM      8  C   UNL     1      50.360  15.370  -4.568  1.00  0.00     0.041 C 
ATOM      9  O   UNL     1      51.475  15.821  -4.945  1.00  0.00    -0.550 OA
ATOM     10  O   UNL     1      49.250  16.205  -4.546  1.00  0.00    -0.550 OA
ENDBRANCH   7   8
ENDBRANCH   6   7
ENDBRANCH   5   6
ENDBRANCH   4   5
ENDBRANCH   3   4
ENDBRANCH   2   3
ENDBRANCH   1   2
BRANCH   1  11
ATOM     11  C   UNL     1      43.715  16.752  -3.542  1.00  0.00    -0.031 C 
ATOM     12  C   UNL     1      44.368  17.681  -4.256  1.00  0.00    -0.027 C 
BRANCH  12  13
ATOM     13  C   UNL     1      43.690  18.448  -5.359  1.00  0.00     0.054 C 
BRANCH  13  14
ATOM     14  C   UNL     1      44.151  19.884  -5.389  1.00  0.00    -0.027 C 
ATOM     15  C   UNL     1      43.551  20.893  -4.729  1.00  0.00    -0.031 C 
BRANCH  15  16
ATOM     16  C   UNL     1      42.362  20.733  -3.813  1.00  0.00     0.027 C 
BRANCH  16  17
ATOM     17  C   UNL     1      42.778  20.635  -2.337  1.00  0.00     0.004 C 
BRANCH  17  18
ATOM     18  C   UNL     1      42.258  19.346  -1.675  1.00  0.00     0.000 C 
BRANCH  18  19
ATOM     19  C   UNL     1      41.431  19.627  -0.412  1.00  0.00    -0.003 C 
ATOM     20  C   UNL     1      40.718  20.978  -0.460  1.00  0.00     0.004 C 
ENDBRANCH  18  19
ENDBRANCH  17  18
ENDBRANCH  16  17
ENDBRANCH  15  16
ENDBRANCH  13  14
ENDBRANCH  12  13
ENDBRANCH   1  11
TORSDOF 14
ENDMDL
MODEL 6
REMARK VINA RESULT:    -3.488      1.354      5.326
REMARK INTER + INTRA:          -8.954
REMARK INTER:                  -6.641
REMARK INTRA:                  -2.313
REMARK UNBOUND:                -2.611
REMARK SMILES CCCCCC=CCC=CCCCCCCCC(=O)[O-]
REMARK SMILES IDX 11 1 12 2 13 3 14 4 15 5 16 6 17 7 18 8 19 9 20 10 10 11
REMARK SMILES IDX 9 12 8 13 7 14 6 15 5 16 4 17 3 18 2 19 1 20
REMARK H PARENT
REMARK Flexibility Score: inf
ROOT
ATOM      1  C   UNL     1      42.589  20.617  -0.608  1.00  0.00     0.027 C 
ENDROOT
BRANCH   1   2
ATOM      2  C   UNL     1      41.119  21.036  -0.766  1.00  0.00     0.004 C 
BRANCH   2   3
ATOM      3  C   UNL     1      40.141  19.891  -0.465  1.00  0.00     0.000 C 
BRANCH   3   4
ATOM      4  C   UNL     1      39.321  19.474  -1.697  1.00  0.00     0.000 C 
BRANCH   4   5
ATOM      5  C   UNL     1      40.165  18.614  -2.650  1.00  0.00     0.000 C 
BRANCH   5   6
ATOM      6  C   UNL     1      40.466  17.218  -2.082  1.00  0.00     0.006 C 
BRANCH   6   7
ATOM      7  C   UNL     1      41.970  16.935  -1.973  1.00  0.00     0.053 C 
BRANCH   7   8
ATOM      8  C   UNL     1      42.319  15.666  -2.685  1.00  0.00     0.041 C 
ATOM      9  O   UNL     1      43.487  15.199  -2.610  1.00  0.00    -0.550 OA
ATOM     10  O   UNL     1      41.347  14.979  -3.403  1.00  0.00    -0.550 OA
ENDBRANCH   7   8
ENDBRANCH   6   7
ENDBRANCH   5   6
ENDBRANCH   4   5
ENDBRANCH   3   4
ENDBRANCH   2   3
ENDBRANCH   1   2
BRANCH   1  11
ATOM     11  C   UNL     1      43.229  20.374  -1.947  1.00  0.00    -0.031 C 
ATOM     12  C   UNL     1      42.805  21.008  -3.051  1.00  0.00    -0.027 C 
BRANCH  12  13
ATOM     13  C   UNL     1      43.436  20.759  -4.394  1.00  0.00     0.054 C 
BRANCH  13  14
ATOM     14  C   UNL     1      42.759  19.620  -5.113  1.00  0.00    -0.027 C 
ATOM     15  C   UNL     1      43.273  18.382  -5.239  1.00  0.00    -0.031 C 
BRANCH  15  16
ATOM     16  C   UNL     1      44.579  17.928  -4.632  1.00  0.00     0.027 C 
BRANCH  16  17
ATOM     17  C   UNL     1      45.616  17.557  -5.702  1.00  0.00     0.004 C 
BRANCH  17  18
ATOM     18  C   UNL     1      46.994  17.251  -5.089  1.00  0.00     0.000 C 
BRANCH  18  19
ATOM     19  C   UNL     1      46.944  16.093  -4.081  1.00  0.00    -0.003 C 
ATOM     20  C   UNL     1      48.324  15.508  -3.783  1.00  0.00     0.004 C 
ENDBRANCH  18  19
ENDBRANCH  17  18
ENDBRANCH  16  17
ENDBRANCH  15  16
ENDBRANCH  13  14
ENDBRANCH  12  13
ENDBRANCH   1  11
TORSDOF 14
ENDMDL
MODEL 7
REMARK VINA RESULT:    -3.470      2.955      3.826
REMARK INTER + INTRA:          -8.921
REMARK INTER:                  -7.079
REMARK INTRA:                  -1.842
REMARK UNBOUND:                -2.611
REMARK SMILES CCCCCC=CCC=CCCCCCCCC(=O)[O-]
REMARK SMILES IDX 11 1 12 2 13 3 14 4 15 5 16 6 17 7 18 8 19 9 20 10 10 11
REMARK SMILES IDX 9 12 8 13 7 14 6 15 5 16 4 17 3 18 2 19 1 20
REMARK H PARENT
REMARK Flexibility Score: inf
ROOT
ATOM      1  C   UNL     1      44.000  18.294  -5.307  1.00  0.00     0.027 C 
ENDROOT
BRANCH   1   2
ATOM      2  C   UNL     1      44.343  16.850  -4.910  1.00  0.00     0.004 C 
BRANCH   2   3
ATOM      3  C   UNL     1      45.057  16.764  -3.552  1.00  0.00     0.000 C 
BRANCH   3   4
ATOM      4  C   UNL     1      44.395  15.756  -2.599  1.00  0.00     0.000 C 
BRANCH   4   5
ATOM      5  C   UNL     1      44.983  14.350  -2.794  1.00  0.00     0.000 C 
BRANCH   5   6
ATOM      6  C   UNL     1      46.519  14.335  -2.740  1.00  0.00     0.006 C 
BRANCH   6   7
ATOM      7  C   UNL     1      47.061  13.534  -1.547  1.00  0.00     0.053 C 
BRANCH   7   8
ATOM      8  C   UNL     1      47.778  12.309  -2.019  1.00  0.00     0.041 C 
ATOM      9  O   UNL     1      47.763  11.997  -3.240  1.00  0.00    -0.550 OA
ATOM     10  O   UNL     1      48.494  11.530  -1.118  1.00  0.00    -0.550 OA
ENDBRANCH   7   8
ENDBRANCH   6   7
ENDBRANCH   5   6
ENDBRANCH   4   5
ENDBRANCH   3   4
ENDBRANCH   2   3
ENDBRANCH   1   2
BRANCH   1  11
ATOM     11  C   UNL     1      43.371  19.036  -4.159  1.00  0.00    -0.031 C 
ATOM     12  C   UNL     1      43.357  20.377  -4.116  1.00  0.00    -0.027 C 
BRANCH  12  13
ATOM     13  C   UNL     1      42.740  21.122  -2.965  1.00  0.00     0.054 C 
BRANCH  13  14
ATOM     14  C   UNL     1      43.021  20.433  -1.653  1.00  0.00    -0.027 C 
ATOM     15  C   UNL     1      42.153  20.360  -0.626  1.00  0.00    -0.031 C 
BRANCH  15  16
ATOM     16  C   UNL     1      40.746  20.907  -0.650  1.00  0.00     0.027 C 
BRANCH  16  17
ATOM     17  C   UNL     1      39.702  19.804  -0.884  1.00  0.00     0.004 C 
BRANCH  17  18
ATOM     18  C   UNL     1      39.654  19.356  -2.356  1.00  0.00     0.000 C 
BRANCH  18  19
ATOM     19  C   UNL     1      39.667  17.828  -2.505  1.00  0.00    -0.003 C 
ATOM     20  C   UNL     1      40.995  17.202  -2.079  1.00  0.00     0.004 C 
ENDBRANCH  18  19
ENDBRANCH  17  18
ENDBRANCH  16  17
ENDBRANCH  15  16
ENDBRANCH  13  14
ENDBRANCH  12  13
ENDBRANCH   1  11
TORSDOF 14
ENDMDL
MODEL 8
REMARK VINA RESULT:    -3.441      3.445      5.431
REMARK INTER + INTRA:          -8.867
REMARK INTER:                  -7.270
REMARK INTRA:                  -1.597
REMARK UNBOUND:                -2.611
REMARK SMILES CCCCCC=CCC=CCCCCCCCC(=O)[O-]
REMARK SMILES IDX 11 1 12 2 13 3 14 4 15 5 16 6 17 7 18 8 19 9 20 10 10 11
REMARK SMILES IDX 9 12 8 13 7 14 6 15 5 16 4 17 3 18 2 19 1 20
REMARK H PARENT
REMARK Flexibility Score: inf
ROOT
ATOM      1  C   UNL     1      48.394  17.238  -5.361  1.00  0.00     0.027 C 
ENDROOT
BRANCH   1   2
ATOM      2  C   UNL     1      49.278  16.030  -5.707  1.00  0.00     0.004 C 
BRANCH   2   3
ATOM      3  C   UNL     1      50.343  15.749  -4.637  1.00  0.00     0.000 C 
BRANCH   3   4
ATOM      4  C   UNL     1      50.360  14.278  -4.191  1.00  0.00     0.000 C 
BRANCH   4   5
ATOM      5  C   UNL     1      48.975  13.637  -4.364  1.00  0.00     0.000 C 
BRANCH   5   6
ATOM      6  C   UNL     1      48.548  12.805  -3.145  1.00  0.00     0.006 C 
BRANCH   6   7
ATOM      7  C   UNL     1      47.498  13.517  -2.280  1.00  0.00     0.053 C 
BRANCH   7   8
ATOM      8  C   UNL     1      46.684  12.522  -1.516  1.00  0.00     0.041 C 
ATOM      9  O   UNL     1      47.069  12.125  -0.384  1.00  0.00    -0.550 OA
ATOM     10  O   UNL     1      45.480  12.060  -2.035  1.00  0.00    -0.550 OA
ENDBRANCH   7   8
ENDBRANCH   6   7
ENDBRANCH   5   6
ENDBRANCH   4   5
ENDBRANCH   3   4
ENDBRANCH   2   3
ENDBRANCH   1   2
BRANCH   1  11
ATOM     11  C   UNL     1      46.947  16.837  -5.259  1.00  0.00    -0.031 C 
ATOM     12  C   UNL     1      46.420  16.410  -4.102  1.00  0.00    -0.027 C 
BRANCH  12  13
ATOM     13  C   UNL     1      44.977  15.998  -3.998  1.00  0.00     0.054 C 
BRANCH  13  14
ATOM     14  C   UNL     1      44.338  16.557  -2.751  1.00  0.00    -0.027 C 
ATOM     15  C   UNL     1      43.665  17.723  -2.694  1.00  0.00    -0.031 C 
BRANCH  15  16
ATOM     16  C   UNL     1      43.398  18.619  -3.879  1.00  0.00     0.027 C 
BRANCH  16  17
ATOM     17  C   UNL     1      42.444  19.771  -3.529  1.00  0.00     0.004 C 
BRANCH  17  18
ATOM     18  C   UNL     1      42.896  20.532  -2.269  1.00  0.00     0.000 C 
BRANCH  18  19
ATOM     19  C   UNL     1      41.729  20.841  -1.319  1.00  0.00    -0.003 C 
ATOM     20  C   UNL     1      41.331  19.640  -0.462  1.00  0.00     0.004 C 
ENDBRANCH  18  19
ENDBRANCH  17  18
ENDBRANCH  16  17
ENDBRANCH  15  16
ENDBRANCH  13  14
ENDBRANCH  12  13
ENDBRANCH   1  11
TORSDOF 14
ENDMDL
MODEL 9
REMARK VINA RESULT:    -3.406      3.213      7.416
REMARK INTER + INTRA:          -8.805
REMARK INTER:                  -6.752
REMARK INTRA:                  -2.053
REMARK UNBOUND:                -2.611
REMARK SMILES CCCCCC=CCC=CCCCCCCCC(=O)[O-]
REMARK SMILES IDX 11 1 12 2 13 3 14 4 15 5 16 6 17 7 18 8 19 9 20 10 10 11
REMARK SMILES IDX 9 12 8 13 7 14 6 15 5 16 4 17 3 18 2 19 1 20
REMARK H PARENT
REMARK Flexibility Score: inf
ROOT
ATOM      1  C   UNL     1      47.259  17.234  -5.134  1.00  0.00     0.027 C 
ENDROOT
BRANCH   1   2
ATOM      2  C   UNL     1      45.822  16.952  -5.599  1.00  0.00     0.004 C 
BRANCH   2   3
ATOM      3  C   UNL     1      44.794  17.890  -4.949  1.00  0.00     0.000 C 
BRANCH   3   4
ATOM      4  C   UNL     1      44.573  19.177  -5.760  1.00  0.00     0.000 C 
BRANCH   4   5
ATOM      5  C   UNL     1      43.692  20.168  -4.984  1.00  0.00     0.000 C 
BRANCH   5   6
ATOM      6  C   UNL     1      43.217  19.610  -3.633  1.00  0.00     0.006 C 
BRANCH   6   7
ATOM      7  C   UNL     1      43.061  20.700  -2.564  1.00  0.00     0.053 C 
BRANCH   7   8
ATOM      8  C   UNL     1      41.759  20.549  -1.844  1.00  0.00     0.041 C 
ATOM      9  O   UNL     1      40.730  20.176  -2.469  1.00  0.00    -0.550 OA
ATOM     10  O   UNL     1      41.687  20.782  -0.476  1.00  0.00    -0.550 OA
ENDBRANCH   7   8
ENDBRANCH   6   7
ENDBRANCH   5   6
ENDBRANCH   4   5
ENDBRANCH   3   4
ENDBRANCH   2   3
ENDBRANCH   1   2
BRANCH   1  11
ATOM     11  C   UNL     1      48.082  15.975  -5.128  1.00  0.00    -0.031 C 
ATOM     12  C   UNL     1      49.080  15.794  -4.250  1.00  0.00    -0.027 C 
BRANCH  12  13
ATOM     13  C   UNL     1      49.912  14.541  -4.249  1.00  0.00     0.054 C 
BRANCH  13  14
ATOM     14  C   UNL     1      49.176  13.396  -4.897  1.00  0.00    -0.027 C 
ATOM     15  C   UNL     1      48.600  12.380  -4.226  1.00  0.00    -0.031 C 
BRANCH  15  16
ATOM     16  C   UNL     1      48.554  12.261  -2.722  1.00  0.00     0.027 C 
BRANCH  16  17
ATOM     17  C   UNL     1      47.147  12.527  -2.165  1.00  0.00     0.004 C 
BRANCH  17  18
ATOM     18  C   UNL     1      46.845  14.032  -2.054  1.00  0.00     0.000 C 
BRANCH  18  19
ATOM     19  C   UNL     1      45.494  14.408  -2.681  1.00  0.00    -0.003 C 
ATOM     20  C   UNL     1      45.247  13.708  -4.017  1.00  0.00     0.004 C 
ENDBRANCH  18  19
ENDBRANCH  17  18
ENDBRANCH  16  17
ENDBRANCH  15  16
ENDBRANCH  13  14
ENDBRANCH  12  13
ENDBRANCH   1  11
TORSDOF 14
ENDMDL
