MODEL 1
REMARK VINA RESULT:    -4.043      0.000      0.000
REMARK INTER + INTRA:          -4.827
REMARK INTER:                  -5.461
REMARK INTRA:                   0.634
REMARK UNBOUND:                 0.634
REMARK SMILES C=C1C(=O)O[C@@H]2[C@H]3O[C@@]3(C)CCC=C(C)CC[C@@H]12
REMARK SMILES IDX 6 1 18 2 2 3 1 4 3 5 4 6 5 7 17 8 16 9 14 10 15 11 13 12
REMARK SMILES IDX 7 14 9 15 8 16 10 17 11 18 12 19
REMARK H PARENT
REMARK Flexibility Score: 70.00
ROOT
ATOM      1  C   UNL     1      -5.812 -23.901 -21.918  1.00  0.00     0.216 C 
ATOM      2  C   UNL     1      -6.534 -22.530 -22.152  1.00  0.00     0.070 C 
ATOM      3  C   UNL     1      -6.331 -22.297 -23.622  1.00  0.00     0.037 C 
ATOM      4  C   UNL     1      -6.944 -21.376 -24.365  1.00  0.00     0.021 C 
ATOM      5  C   UNL     1      -5.362 -23.253 -24.093  1.00  0.00     0.334 C 
ATOM      6  O   UNL     1      -4.875 -23.298 -25.253  1.00  0.00    -0.247 OA
ATOM      7  O   UNL     1      -5.025 -24.128 -23.087  1.00  0.00    -0.455 OA
ENDROOT
BRANCH   2   8
ATOM      8  C   UNL     1      -5.895 -21.369 -21.351  1.00  0.00     0.017 C 
BRANCH   8   9
ATOM      9  C   UNL     1      -5.045 -21.826 -20.150  1.00  0.00     0.031 C 
BRANCH   9  10
ATOM     10  C   UNL     1      -5.752 -21.630 -18.820  1.00  0.00    -0.077 C 
ATOM     11  C   UNL     1      -5.562 -20.315 -18.108  1.00  0.00     0.039 C 
ATOM     12  C   UNL     1      -6.549 -22.553 -18.235  1.00  0.00    -0.028 CG0
ATOM     13  G   UNL     1      -6.797 -23.959 -18.722  1.00  0.00     0.000 G0
ENDBRANCH   9  10
ENDBRANCH   8   9
ENDBRANCH   2   8
BRANCH   1  14
ATOM     14  C   UNL     1      -6.848 -25.038 -21.819  1.00  0.00     0.192 C 
ATOM     15  C   UNL     1      -7.885 -25.062 -20.744  1.00  0.00     0.096 C 
ATOM     16  O   UNL     1      -6.675 -25.776 -20.625  1.00  0.00    -0.362 OA
ATOM     17  C   UNL     1      -9.081 -25.992 -20.947  1.00  0.00     0.045 C 
BRANCH  15  18
ATOM     18  C   UNL     1      -8.000 -23.939 -19.701  1.00  0.00     0.042 C 
BRANCH  18  19
ATOM     19  C   UNL     1      -6.804 -23.950 -18.730  1.00  0.00     0.030 CG0
ATOM     20  G   UNL     1      -6.526 -22.558 -18.219  1.00  0.00     0.000 G0
ENDBRANCH  18  19
ENDBRANCH  15  18
ENDBRANCH   1  14
TORSDOF 0
ENDMDL
MODEL 2
REMARK VINA RESULT:    -3.440      1.657      3.673
REMARK INTER + INTRA:          -4.013
REMARK INTER:                  -4.857
REMARK INTRA:                   0.844
REMARK UNBOUND:                 0.634
REMARK SMILES C=C1C(=O)O[C@@H]2[C@H]3O[C@@]3(C)CCC=C(C)CC[C@@H]12
REMARK SMILES IDX 6 1 18 2 2 3 1 4 3 5 4 6 5 7 17 8 16 9 14 10 15 11 13 12
REMARK SMILES IDX 7 14 9 15 8 16 10 17 11 18 12 19
REMARK H PARENT
REMARK Flexibility Score: 70.00
ROOT
ATOM      1  C   UNL     1      -6.586 -22.482 -21.603  1.00  0.00     0.216 C 
ATOM      2  C   UNL     1      -5.616 -23.378 -22.447  1.00  0.00     0.070 C 
ATOM      3  C   UNL     1      -5.688 -22.750 -23.810  1.00  0.00     0.037 C 
ATOM      4  C   UNL     1      -4.875 -23.002 -24.835  1.00  0.00     0.021 C 
ATOM      5  C   UNL     1      -6.784 -21.816 -23.810  1.00  0.00     0.334 C 
ATOM      6  O   UNL     1      -7.202 -21.172 -24.808  1.00  0.00    -0.247 OA
ATOM      7  O   UNL     1      -7.332 -21.720 -22.552  1.00  0.00    -0.455 OA
ENDROOT
BRANCH   2   8
ATOM      8  C   UNL     1      -6.080 -24.853 -22.532  1.00  0.00     0.017 C 
BRANCH   8   9
ATOM      9  C   UNL     1      -6.235 -25.544 -21.163  1.00  0.00     0.031 C 
BRANCH   9  10
ATOM     10  C   UNL     1      -7.576 -25.261 -20.509  1.00  0.00    -0.077 C 
ATOM     11  C   UNL     1      -8.809 -25.852 -21.142  1.00  0.00     0.039 C 
ATOM     12  C   UNL     1      -7.737 -24.520 -19.388  1.00  0.00    -0.028 CG0
ATOM     13  G   UNL     1      -6.659 -23.761 -18.653  1.00  0.00     0.000 G0
ENDBRANCH   9  10
ENDBRANCH   8   9
ENDBRANCH   2   8
BRANCH   1  14
ATOM     14  C   UNL     1      -5.781 -21.495 -20.735  1.00  0.00     0.192 C 
ATOM     15  C   UNL     1      -6.009 -21.381 -19.263  1.00  0.00     0.096 C 
ATOM     16  O   UNL     1      -6.625 -20.506 -20.180  1.00  0.00    -0.362 OA
ATOM     17  C   UNL     1      -4.928 -20.681 -18.440  1.00  0.00     0.045 C 
BRANCH  15  18
ATOM     18  C   UNL     1      -7.032 -22.263 -18.528  1.00  0.00     0.042 C 
BRANCH  18  19
ATOM     19  C   UNL     1      -6.670 -23.756 -18.641  1.00  0.00     0.030 CG0
ATOM     20  G   UNL     1      -7.745 -24.505 -19.389  1.00  0.00     0.000 G0
ENDBRANCH  18  19
ENDBRANCH  15  18
ENDBRANCH   1  14
TORSDOF 0
ENDMDL
MODEL 3
REMARK VINA RESULT:    -2.235      2.246      3.834
REMARK INTER + INTRA:          -2.385
REMARK INTER:                  -4.046
REMARK INTRA:                   1.661
REMARK UNBOUND:                 0.634
REMARK SMILES C=C1C(=O)O[C@@H]2[C@H]3O[C@@]3(C)CCC=C(C)CC[C@@H]12
REMARK SMILES IDX 6 1 18 2 2 3 1 4 3 5 4 6 5 7 17 8 16 9 14 10 15 11 13 12
REMARK SMILES IDX 7 14 9 15 8 16 10 17 11 18 12 19
REMARK H PARENT
REMARK Flexibility Score: 70.00
ROOT
ATOM      1  C   UNL     1      -7.493 -22.174 -22.375  1.00  0.00     0.216 C 
ATOM      2  C   UNL     1      -6.189 -22.057 -23.235  1.00  0.00     0.070 C 
ATOM      3  C   UNL     1      -6.616 -21.162 -24.363  1.00  0.00     0.037 C 
ATOM      4  C   UNL     1      -5.812 -20.576 -25.249  1.00  0.00     0.021 C 
ATOM      5  C   UNL     1      -8.050 -21.040 -24.313  1.00  0.00     0.334 C 
ATOM      6  O   UNL     1      -8.769 -20.443 -25.157  1.00  0.00    -0.247 OA
ATOM      7  O   UNL     1      -8.547 -21.680 -23.201  1.00  0.00    -0.455 OA
ENDROOT
BRANCH   2   8
ATOM      8  C   UNL     1      -5.719 -23.418 -23.804  1.00  0.00     0.017 C 
BRANCH   8   9
ATOM      9  C   UNL     1      -4.877 -24.254 -22.820  1.00  0.00     0.031 C 
BRANCH   9  10
ATOM     10  C   UNL     1      -5.707 -24.857 -21.700  1.00  0.00    -0.077 C 
ATOM     11  C   UNL     1      -6.683 -25.950 -22.054  1.00  0.00     0.039 C 
ATOM     12  C   UNL     1      -5.622 -24.486 -20.401  1.00  0.00    -0.028 CG0
ATOM     13  G   UNL     1      -4.790 -23.356 -19.846  1.00  0.00     0.000 G0
ENDBRANCH   9  10
ENDBRANCH   8   9
ENDBRANCH   2   8
BRANCH   1  14
ATOM     14  C   UNL     1      -7.399 -21.261 -21.136  1.00  0.00     0.192 C 
ATOM     15  C   UNL     1      -6.183 -21.240 -20.269  1.00  0.00     0.096 C 
ATOM     16  O   UNL     1      -7.309 -22.025 -19.950  1.00  0.00    -0.362 OA
ATOM     17  C   UNL     1      -6.023 -20.055 -19.317  1.00  0.00     0.045 C 
BRANCH  15  18
ATOM     18  C   UNL     1      -4.947 -22.100 -20.581  1.00  0.00     0.042 C 
BRANCH  18  19
ATOM     19  C   UNL     1      -4.911 -23.368 -19.708  1.00  0.00     0.030 CG0
ATOM     20  G   UNL     1      -5.677 -24.488 -20.369  1.00  0.00     0.000 G0
ENDBRANCH  18  19
ENDBRANCH  15  18
ENDBRANCH   1  14
TORSDOF 0
ENDMDL
