MODEL 1
REMARK VINA RESULT:    -7.240      0.000      0.000
REMARK INTER + INTRA:         -12.238
REMARK INTER:                  -9.991
REMARK INTRA:                  -2.248
REMARK UNBOUND:                -2.248
REMARK SMILES CC[C@H](CC[C@@H](C)[C@H]1CC[C@H]2[C@H]3CC=C4C[C@@H](O)CC[C@]4(C)[C@H]3CC[C@@]12C)C(C)C
REMARK SMILES IDX 5 1 4 2 3 3 2 4 1 5 28 6 29 7 30 8 6 9 7 10 8 11 9 12 26 13
REMARK SMILES IDX 10 14 11 15 25 16 27 17 12 18 24 19 23 20 13 21 21 22 14 23
REMARK SMILES IDX 15 24 20 25 22 26 16 27 19 28 17 29 18 30
REMARK H PARENT 18 31
REMARK Flexibility Score: inf
ROOT
ATOM      1  C   UNL     1     114.849 119.816 128.899  1.00  0.00     0.004 C 
ENDROOT
BRANCH   1   2
ATOM      2  C   UNL     1     114.100 120.059 130.229  1.00  0.00     0.004 C 
BRANCH   2   3
ATOM      3  C   UNL     1     114.905 120.995 131.191  1.00  0.00    -0.009 C 
BRANCH   3   4
ATOM      4  C   UNL     1     114.186 122.371 131.353  1.00  0.00     0.000 C 
ATOM      5  C   UNL     1     113.531 122.920 130.076  1.00  0.00     0.004 C 
ENDBRANCH   3   4
BRANCH   3   6
ATOM      6  C   UNL     1     115.259 120.315 132.562  1.00  0.00    -0.014 C 
ATOM      7  C   UNL     1     116.762 120.434 132.896  1.00  0.00     0.007 C 
ATOM      8  C   UNL     1     114.462 120.935 133.729  1.00  0.00     0.007 C 
ENDBRANCH   3   6
ENDBRANCH   2   3
ENDBRANCH   1   2
BRANCH   1   9
ATOM      9  C   UNL     1     116.401 119.895 128.994  1.00  0.00    -0.011 C 
ATOM     10  C   UNL     1     117.018 118.511 128.697  1.00  0.00     0.008 C 
BRANCH   9  11
ATOM     11  C   UNL     1     117.025 121.030 128.089  1.00  0.00    -0.002 C 
ATOM     12  C   UNL     1     115.991 121.967 127.458  1.00  0.00     0.005 C 
ATOM     13  C   UNL     1     118.088 122.022 128.684  1.00  0.00    -0.026 C 
ATOM     14  C   UNL     1     116.779 123.153 126.911  1.00  0.00     0.005 C 
ATOM     15  C   UNL     1     118.190 123.062 127.529  1.00  0.00    -0.001 C 
ATOM     16  C   UNL     1     117.646 122.701 130.043  1.00  0.00     0.007 C 
ATOM     17  C   UNL     1     119.463 121.331 128.880  1.00  0.00     0.012 C 
ATOM     18  C   UNL     1     118.836 124.423 127.921  1.00  0.00     0.000 C 
ATOM     19  C   UNL     1     117.228 124.172 129.930  1.00  0.00     0.005 C 
ATOM     20  C   UNL     1     118.340 125.026 129.282  1.00  0.00     0.003 C 
ATOM     21  C   UNL     1     118.826 125.417 126.747  1.00  0.00     0.031 C 
ATOM     22  C   UNL     1     118.026 126.582 129.275  1.00  0.00    -0.008 C 
ATOM     23  C   UNL     1     119.360 126.751 127.169  1.00  0.00    -0.027 C 
ATOM     24  C   UNL     1     118.996 127.315 128.335  1.00  0.00    -0.065 C 
ATOM     25  C   UNL     1     118.201 127.128 130.733  1.00  0.00     0.014 C 
ATOM     26  C   UNL     1     116.578 126.877 128.799  1.00  0.00     0.016 C 
ATOM     27  C   UNL     1     119.296 128.791 128.524  1.00  0.00     0.063 C 
ATOM     28  C   UNL     1     118.264 128.654 130.818  1.00  0.00     0.033 C 
ATOM     29  C   UNL     1     119.442 129.181 129.999  1.00  0.00     0.118 C 
BRANCH  29  30
ATOM     30  O   UNL     1     119.487 130.579 130.108  1.00  0.00    -0.393 OA
ATOM     31  H   UNL     1     119.867 130.925 129.258  1.00  0.00     0.210 HD
ENDBRANCH  29  30
ENDBRANCH   9  11
ENDBRANCH   1   9
TORSDOF 7
ENDMDL
MODEL 2
REMARK VINA RESULT:    -6.633      2.809      8.097
REMARK INTER + INTRA:         -11.402
REMARK INTER:                 -11.031
REMARK INTRA:                  -0.370
REMARK UNBOUND:                -2.248
REMARK SMILES CC[C@H](CC[C@@H](C)[C@H]1CC[C@H]2[C@H]3CC=C4C[C@@H](O)CC[C@]4(C)[C@H]3CC[C@@]12C)C(C)C
REMARK SMILES IDX 5 1 4 2 3 3 2 4 1 5 28 6 29 7 30 8 6 9 7 10 8 11 9 12 26 13
REMARK SMILES IDX 10 14 11 15 25 16 27 17 12 18 24 19 23 20 13 21 21 22 14 23
REMARK SMILES IDX 15 24 20 25 22 26 16 27 19 28 17 29 18 30
REMARK H PARENT 18 31
REMARK Flexibility Score: inf
ROOT
ATOM      1  C   UNL     1     119.495 127.343 128.360  1.00  0.00     0.004 C 
ENDROOT
BRANCH   1   2
ATOM      2  C   UNL     1     120.379 128.567 128.031  1.00  0.00     0.004 C 
BRANCH   2   3
ATOM      3  C   UNL     1     119.826 129.879 128.681  1.00  0.00    -0.009 C 
BRANCH   3   4
ATOM      4  C   UNL     1     119.944 129.818 130.236  1.00  0.00     0.000 C 
ATOM      5  C   UNL     1     118.637 129.502 130.979  1.00  0.00     0.004 C 
ENDBRANCH   3   4
BRANCH   3   6
ATOM      6  C   UNL     1     120.445 131.183 128.062  1.00  0.00    -0.014 C 
ATOM      7  C   UNL     1     119.710 132.455 128.539  1.00  0.00     0.007 C 
ATOM      8  C   UNL     1     121.938 131.333 128.424  1.00  0.00     0.007 C 
ENDBRANCH   3   6
ENDBRANCH   2   3
ENDBRANCH   1   2
BRANCH   1   9
ATOM      9  C   UNL     1     118.925 126.590 127.123  1.00  0.00    -0.011 C 
ATOM     10  C   UNL     1     120.012 125.676 126.515  1.00  0.00     0.008 C 
BRANCH   9  11
ATOM     11  C   UNL     1     117.591 125.802 127.431  1.00  0.00    -0.002 C 
ATOM     12  C   UNL     1     117.556 124.381 126.861  1.00  0.00     0.005 C 
ATOM     13  C   UNL     1     117.113 125.603 128.915  1.00  0.00    -0.026 C 
ATOM     14  C   UNL     1     116.368 123.692 127.524  1.00  0.00     0.005 C 
ATOM     15  C   UNL     1     115.949 124.589 128.708  1.00  0.00    -0.001 C 
ATOM     16  C   UNL     1     118.228 125.023 129.877  1.00  0.00     0.007 C 
ATOM     17  C   UNL     1     116.553 126.920 129.513  1.00  0.00     0.012 C 
ATOM     18  C   UNL     1     115.497 123.833 129.992  1.00  0.00     0.000 C 
ATOM     19  C   UNL     1     118.054 123.550 130.261  1.00  0.00     0.005 C 
ATOM     20  C   UNL     1     116.665 123.290 130.888  1.00  0.00     0.003 C 
ATOM     21  C   UNL     1     114.401 122.797 129.687  1.00  0.00     0.031 C 
ATOM     22  C   UNL     1     116.483 121.814 131.443  1.00  0.00    -0.008 C 
ATOM     23  C   UNL     1     114.049 122.012 130.911  1.00  0.00    -0.027 C 
ATOM     24  C   UNL     1     115.000 121.538 131.738  1.00  0.00    -0.065 C 
ATOM     25  C   UNL     1     117.311 121.678 132.766  1.00  0.00     0.014 C 
ATOM     26  C   UNL     1     116.980 120.750 130.428  1.00  0.00     0.016 C 
ATOM     27  C   UNL     1     114.591 120.474 132.741  1.00  0.00     0.063 C 
ATOM     28  C   UNL     1     116.964 120.435 133.588  1.00  0.00     0.033 C 
ATOM     29  C   UNL     1     115.487 120.458 133.984  1.00  0.00     0.118 C 
BRANCH  29  30
ATOM     30  O   UNL     1     115.201 119.317 134.749  1.00  0.00    -0.393 OA
ATOM     31  H   UNL     1     115.821 118.602 134.448  1.00  0.00     0.210 HD
ENDBRANCH  29  30
ENDBRANCH   9  11
ENDBRANCH   1   9
TORSDOF 7
ENDMDL
MODEL 3
REMARK VINA RESULT:    -6.473      1.824      4.404
REMARK INTER + INTRA:         -11.180
REMARK INTER:                  -8.872
REMARK INTRA:                  -2.309
REMARK UNBOUND:                -2.248
REMARK SMILES CC[C@H](CC[C@@H](C)[C@H]1CC[C@H]2[C@H]3CC=C4C[C@@H](O)CC[C@]4(C)[C@H]3CC[C@@]12C)C(C)C
REMARK SMILES IDX 5 1 4 2 3 3 2 4 1 5 28 6 29 7 30 8 6 9 7 10 8 11 9 12 26 13
REMARK SMILES IDX 10 14 11 15 25 16 27 17 12 18 24 19 23 20 13 21 21 22 14 23
REMARK SMILES IDX 15 24 20 25 22 26 16 27 19 28 17 29 18 30
REMARK H PARENT 18 31
REMARK Flexibility Score: inf
ROOT
ATOM      1  C   UNL     1     117.144 119.736 128.360  1.00  0.00     0.004 C 
ENDROOT
BRANCH   1   2
ATOM      2  C   UNL     1     118.325 119.710 127.363  1.00  0.00     0.004 C 
BRANCH   2   3
ATOM      3  C   UNL     1     119.350 120.859 127.641  1.00  0.00    -0.009 C 
BRANCH   3   4
ATOM      4  C   UNL     1     119.997 120.694 129.051  1.00  0.00     0.000 C 
ATOM      5  C   UNL     1     120.471 121.999 129.710  1.00  0.00     0.004 C 
ENDBRANCH   3   4
BRANCH   3   6
ATOM      6  C   UNL     1     120.406 121.036 126.491  1.00  0.00    -0.014 C 
ATOM      7  C   UNL     1     120.315 119.903 125.444  1.00  0.00     0.007 C 
ATOM      8  C   UNL     1     120.227 122.380 125.755  1.00  0.00     0.007 C 
ENDBRANCH   3   6
ENDBRANCH   2   3
ENDBRANCH   1   2
BRANCH   1   9
ATOM      9  C   UNL     1     115.972 120.683 127.968  1.00  0.00    -0.011 C 
ATOM     10  C   UNL     1     114.663 119.876 127.837  1.00  0.00     0.008 C 
BRANCH   9  11
ATOM     11  C   UNL     1     115.815 121.918 128.942  1.00  0.00    -0.002 C 
ATOM     12  C   UNL     1     116.827 121.942 130.091  1.00  0.00     0.005 C 
ATOM     13  C   UNL     1     115.879 123.384 128.380  1.00  0.00    -0.026 C 
ATOM     14  C   UNL     1     116.730 123.334 130.706  1.00  0.00     0.005 C 
ATOM     15  C   UNL     1     115.933 124.198 129.707  1.00  0.00    -0.001 C 
ATOM     16  C   UNL     1     117.140 123.669 127.469  1.00  0.00     0.007 C 
ATOM     17  C   UNL     1     114.589 123.750 127.600  1.00  0.00     0.012 C 
ATOM     18  C   UNL     1     116.421 125.669 129.559  1.00  0.00     0.000 C 
ATOM     19  C   UNL     1     118.237 124.517 128.122  1.00  0.00     0.005 C 
ATOM     20  C   UNL     1     117.677 125.862 128.639  1.00  0.00     0.003 C 
ATOM     21  C   UNL     1     116.520 126.376 130.921  1.00  0.00     0.031 C 
ATOM     22  C   UNL     1     118.794 126.847 129.190  1.00  0.00    -0.008 C 
ATOM     23  C   UNL     1     117.084 127.754 130.770  1.00  0.00    -0.027 C 
ATOM     24  C   UNL     1     118.145 127.996 129.978  1.00  0.00    -0.065 C 
ATOM     25  C   UNL     1     119.583 127.433 127.970  1.00  0.00     0.014 C 
ATOM     26  C   UNL     1     119.792 126.120 130.131  1.00  0.00     0.016 C 
ATOM     27  C   UNL     1     118.861 129.323 130.150  1.00  0.00     0.063 C 
ATOM     28  C   UNL     1     120.453 128.642 128.319  1.00  0.00     0.033 C 
ATOM     29  C   UNL     1     119.587 129.772 128.877  1.00  0.00     0.118 C 
BRANCH  29  30
ATOM     30  O   UNL     1     120.406 130.872 129.173  1.00  0.00    -0.393 OA
ATOM     31  H   UNL     1     120.995 131.015 128.387  1.00  0.00     0.210 HD
ENDBRANCH  29  30
ENDBRANCH   9  11
ENDBRANCH   1   9
TORSDOF 7
ENDMDL
MODEL 4
REMARK VINA RESULT:    -6.452      1.569      2.769
REMARK INTER + INTRA:         -11.151
REMARK INTER:                  -8.826
REMARK INTRA:                  -2.325
REMARK UNBOUND:                -2.248
REMARK SMILES CC[C@H](CC[C@@H](C)[C@H]1CC[C@H]2[C@H]3CC=C4C[C@@H](O)CC[C@]4(C)[C@H]3CC[C@@]12C)C(C)C
REMARK SMILES IDX 5 1 4 2 3 3 2 4 1 5 28 6 29 7 30 8 6 9 7 10 8 11 9 12 26 13
REMARK SMILES IDX 10 14 11 15 25 16 27 17 12 18 24 19 23 20 13 21 21 22 14 23
REMARK SMILES IDX 15 24 20 25 22 26 16 27 19 28 17 29 18 30
REMARK H PARENT 18 31
REMARK Flexibility Score: inf
ROOT
ATOM      1  C   UNL     1     116.389 118.855 128.192  1.00  0.00     0.004 C 
ENDROOT
BRANCH   1   2
ATOM      2  C   UNL     1     115.150 119.084 129.087  1.00  0.00     0.004 C 
BRANCH   2   3
ATOM      3  C   UNL     1     114.226 120.217 128.528  1.00  0.00    -0.009 C 
BRANCH   3   4
ATOM      4  C   UNL     1     113.992 121.322 129.605  1.00  0.00     0.000 C 
ATOM      5  C   UNL     1     114.051 120.837 131.063  1.00  0.00     0.004 C 
ENDBRANCH   3   4
BRANCH   3   6
ATOM      6  C   UNL     1     114.715 120.788 127.149  1.00  0.00    -0.014 C 
ATOM      7  C   UNL     1     113.736 120.448 126.003  1.00  0.00     0.007 C 
ATOM      8  C   UNL     1     114.881 122.321 127.193  1.00  0.00     0.007 C 
ENDBRANCH   3   6
ENDBRANCH   2   3
ENDBRANCH   1   2
BRANCH   1   9
ATOM      9  C   UNL     1     117.749 118.811 128.949  1.00  0.00    -0.011 C 
ATOM     10  C   UNL     1     118.463 117.471 128.671  1.00  0.00     0.008 C 
BRANCH   9  11
ATOM     11  C   UNL     1     118.675 120.054 128.643  1.00  0.00    -0.002 C 
ATOM     12  C   UNL     1     118.296 120.818 127.370  1.00  0.00     0.005 C 
ATOM     13  C   UNL     1     118.845 121.197 129.707  1.00  0.00    -0.026 C 
ATOM     14  C   UNL     1     119.071 122.130 127.423  1.00  0.00     0.005 C 
ATOM     15  C   UNL     1     119.606 122.264 128.865  1.00  0.00    -0.001 C 
ATOM     16  C   UNL     1     117.478 121.763 130.268  1.00  0.00     0.007 C 
ATOM     17  C   UNL     1     119.736 120.741 130.892  1.00  0.00     0.012 C 
ATOM     18  C   UNL     1     119.588 123.704 129.453  1.00  0.00     0.000 C 
ATOM     19  C   UNL     1     117.079 123.145 129.738  1.00  0.00     0.005 C 
ATOM     20  C   UNL     1     118.193 124.187 129.985  1.00  0.00     0.003 C 
ATOM     21  C   UNL     1     120.292 124.708 128.523  1.00  0.00     0.031 C 
ATOM     22  C   UNL     1     117.778 125.669 129.594  1.00  0.00    -0.008 C 
ATOM     23  C   UNL     1     120.179 126.103 129.056  1.00  0.00    -0.027 C 
ATOM     24  C   UNL     1     119.019 126.573 129.550  1.00  0.00    -0.065 C 
ATOM     25  C   UNL     1     116.780 126.205 130.676  1.00  0.00     0.014 C 
ATOM     26  C   UNL     1     117.089 125.727 128.203  1.00  0.00     0.016 C 
ATOM     27  C   UNL     1     118.894 128.074 129.739  1.00  0.00     0.063 C 
ATOM     28  C   UNL     1     116.561 127.718 130.619  1.00  0.00     0.033 C 
ATOM     29  C   UNL     1     117.885 128.452 130.829  1.00  0.00     0.118 C 
BRANCH  29  30
ATOM     30  O   UNL     1     117.654 129.835 130.789  1.00  0.00    -0.393 OA
ATOM     31  H   UNL     1     118.458 130.275 131.170  1.00  0.00     0.210 HD
ENDBRANCH  29  30
ENDBRANCH   9  11
ENDBRANCH   1   9
TORSDOF 7
ENDMDL
MODEL 5
REMARK VINA RESULT:    -6.364      2.920      4.797
REMARK INTER + INTRA:         -11.030
REMARK INTER:                  -8.683
REMARK INTRA:                  -2.347
REMARK UNBOUND:                -2.248
REMARK SMILES CC[C@H](CC[C@@H](C)[C@H]1CC[C@H]2[C@H]3CC=C4C[C@@H](O)CC[C@]4(C)[C@H]3CC[C@@]12C)C(C)C
REMARK SMILES IDX 5 1 4 2 3 3 2 4 1 5 28 6 29 7 30 8 6 9 7 10 8 11 9 12 26 13
REMARK SMILES IDX 10 14 11 15 25 16 27 17 12 18 24 19 23 20 13 21 21 22 14 23
REMARK SMILES IDX 15 24 20 25 22 26 16 27 19 28 17 29 18 30
REMARK H PARENT 18 31
REMARK Flexibility Score: inf
ROOT
ATOM      1  C   UNL     1     113.861 122.029 128.790  1.00  0.00     0.004 C 
ENDROOT
BRANCH   1   2
ATOM      2  C   UNL     1     114.093 120.546 128.426  1.00  0.00     0.004 C 
BRANCH   2   3
ATOM      3  C   UNL     1     114.764 119.754 129.598  1.00  0.00    -0.009 C 
BRANCH   3   4
ATOM      4  C   UNL     1     116.112 119.119 129.135  1.00  0.00     0.000 C 
ATOM      5  C   UNL     1     116.234 118.871 127.623  1.00  0.00     0.004 C 
ENDBRANCH   3   4
BRANCH   3   6
ATOM      6  C   UNL     1     114.895 120.597 130.917  1.00  0.00    -0.014 C 
ATOM      7  C   UNL     1     113.912 120.119 132.008  1.00  0.00     0.007 C 
ATOM      8  C   UNL     1     116.322 120.527 131.498  1.00  0.00     0.007 C 
ENDBRANCH   3   6
ENDBRANCH   2   3
ENDBRANCH   1   2
BRANCH   1   9
ATOM      9  C   UNL     1     114.422 123.055 127.761  1.00  0.00    -0.011 C 
ATOM     10  C   UNL     1     113.265 123.869 127.144  1.00  0.00     0.008 C 
BRANCH   9  11
ATOM     11  C   UNL     1     115.550 123.986 128.361  1.00  0.00    -0.002 C 
ATOM     12  C   UNL     1     115.612 123.989 129.891  1.00  0.00     0.005 C 
ATOM     13  C   UNL     1     117.051 123.780 127.944  1.00  0.00    -0.026 C 
ATOM     14  C   UNL     1     116.930 124.663 130.256  1.00  0.00     0.005 C 
ATOM     15  C   UNL     1     117.763 124.725 128.958  1.00  0.00    -0.001 C 
ATOM     16  C   UNL     1     117.559 122.288 128.081  1.00  0.00     0.007 C 
ATOM     17  C   UNL     1     117.313 124.281 126.499  1.00  0.00     0.012 C 
ATOM     18  C   UNL     1     119.290 124.476 129.132  1.00  0.00     0.000 C 
ATOM     19  C   UNL     1     118.484 122.022 129.274  1.00  0.00     0.005 C 
ATOM     20  C   UNL     1     119.706 122.968 129.262  1.00  0.00     0.003 C 
ATOM     21  C   UNL     1     119.898 125.395 130.205  1.00  0.00     0.031 C 
ATOM     22  C   UNL     1     120.777 122.641 130.387  1.00  0.00    -0.008 C 
ATOM     23  C   UNL     1     121.343 125.074 130.429  1.00  0.00    -0.027 C 
ATOM     24  C   UNL     1     121.773 123.803 130.525  1.00  0.00    -0.065 C 
ATOM     25  C   UNL     1     121.547 121.341 129.974  1.00  0.00     0.014 C 
ATOM     26  C   UNL     1     120.109 122.411 131.770  1.00  0.00     0.016 C 
ATOM     27  C   UNL     1     123.162 123.573 131.092  1.00  0.00     0.063 C 
ATOM     28  C   UNL     1     122.824 121.096 130.779  1.00  0.00     0.033 C 
ATOM     29  C   UNL     1     123.793 122.265 130.602  1.00  0.00     0.118 C 
BRANCH  29  30
ATOM     30  O   UNL     1     124.960 122.008 131.336  1.00  0.00    -0.393 OA
ATOM     31  H   UNL     1     125.457 121.298 130.852  1.00  0.00     0.210 HD
ENDBRANCH  29  30
ENDBRANCH   9  11
ENDBRANCH   1   9
TORSDOF 7
ENDMDL
MODEL 6
REMARK VINA RESULT:    -6.340      3.840      6.598
REMARK INTER + INTRA:         -10.998
REMARK INTER:                  -8.971
REMARK INTRA:                  -2.027
REMARK UNBOUND:                -2.248
REMARK SMILES CC[C@H](CC[C@@H](C)[C@H]1CC[C@H]2[C@H]3CC=C4C[C@@H](O)CC[C@]4(C)[C@H]3CC[C@@]12C)C(C)C
REMARK SMILES IDX 5 1 4 2 3 3 2 4 1 5 28 6 29 7 30 8 6 9 7 10 8 11 9 12 26 13
REMARK SMILES IDX 10 14 11 15 25 16 27 17 12 18 24 19 23 20 13 21 21 22 14 23
REMARK SMILES IDX 15 24 20 25 22 26 16 27 19 28 17 29 18 30
REMARK H PARENT 18 31
REMARK Flexibility Score: inf
ROOT
ATOM      1  C   UNL     1     115.763 124.637 129.299  1.00  0.00     0.004 C 
ENDROOT
BRANCH   1   2
ATOM      2  C   UNL     1     115.057 124.228 127.987  1.00  0.00     0.004 C 
BRANCH   2   3
ATOM      3  C   UNL     1     114.562 122.744 128.027  1.00  0.00    -0.009 C 
BRANCH   3   4
ATOM      4  C   UNL     1     114.546 122.128 126.593  1.00  0.00     0.000 C 
ATOM      5  C   UNL     1     113.257 122.373 125.791  1.00  0.00     0.004 C 
ENDBRANCH   3   4
BRANCH   3   6
ATOM      6  C   UNL     1     115.337 121.863 129.072  1.00  0.00    -0.014 C 
ATOM      7  C   UNL     1     114.383 120.974 129.899  1.00  0.00     0.007 C 
ATOM      8  C   UNL     1     116.371 120.944 128.387  1.00  0.00     0.007 C 
ENDBRANCH   3   6
ENDBRANCH   2   3
ENDBRANCH   1   2
BRANCH   1   9
ATOM      9  C   UNL     1     116.854 125.737 129.143  1.00  0.00    -0.011 C 
ATOM     10  C   UNL     1     116.620 126.861 130.176  1.00  0.00     0.008 C 
BRANCH   9  11
ATOM     11  C   UNL     1     118.327 125.169 129.207  1.00  0.00    -0.002 C 
ATOM     12  C   UNL     1     118.440 123.796 129.875  1.00  0.00     0.005 C 
ATOM     13  C   UNL     1     119.166 124.994 127.890  1.00  0.00    -0.026 C 
ATOM     14  C   UNL     1     119.842 123.287 129.553  1.00  0.00     0.005 C 
ATOM     15  C   UNL     1     120.388 124.194 128.432  1.00  0.00    -0.001 C 
ATOM     16  C   UNL     1     118.412 124.203 126.746  1.00  0.00     0.007 C 
ATOM     17  C   UNL     1     119.647 126.362 127.337  1.00  0.00     0.012 C 
ATOM     18  C   UNL     1     121.239 123.474 127.345  1.00  0.00     0.000 C 
ATOM     19  C   UNL     1     118.892 122.764 126.524  1.00  0.00     0.005 C 
ATOM     20  C   UNL     1     120.412 122.713 126.251  1.00  0.00     0.003 C 
ATOM     21  C   UNL     1     122.376 122.646 127.969  1.00  0.00     0.031 C 
ATOM     22  C   UNL     1     120.942 121.267 125.864  1.00  0.00    -0.008 C 
ATOM     23  C   UNL     1     123.122 121.882 126.919  1.00  0.00    -0.027 C 
ATOM     24  C   UNL     1     122.476 121.227 125.937  1.00  0.00    -0.065 C 
ATOM     25  C   UNL     1     120.481 120.946 124.402  1.00  0.00     0.014 C 
ATOM     26  C   UNL     1     120.385 120.175 126.817  1.00  0.00     0.016 C 
ATOM     27  C   UNL     1     123.266 120.208 125.136  1.00  0.00     0.063 C 
ATOM     28  C   UNL     1     121.195 119.746 123.778  1.00  0.00     0.033 C 
ATOM     29  C   UNL     1     122.703 119.997 123.727  1.00  0.00     0.118 C 
BRANCH  29  30
ATOM     30  O   UNL     1     123.331 118.891 123.136  1.00  0.00    -0.393 OA
ATOM     31  H   UNL     1     122.872 118.723 122.271  1.00  0.00     0.210 HD
ENDBRANCH  29  30
ENDBRANCH   9  11
ENDBRANCH   1   9
TORSDOF 7
ENDMDL
MODEL 7
REMARK VINA RESULT:    -6.175      3.115      5.528
REMARK INTER + INTRA:         -10.770
REMARK INTER:                  -8.553
REMARK INTRA:                  -2.217
REMARK UNBOUND:                -2.248
REMARK SMILES CC[C@H](CC[C@@H](C)[C@H]1CC[C@H]2[C@H]3CC=C4C[C@@H](O)CC[C@]4(C)[C@H]3CC[C@@]12C)C(C)C
REMARK SMILES IDX 5 1 4 2 3 3 2 4 1 5 28 6 29 7 30 8 6 9 7 10 8 11 9 12 26 13
REMARK SMILES IDX 10 14 11 15 25 16 27 17 12 18 24 19 23 20 13 21 21 22 14 23
REMARK SMILES IDX 15 24 20 25 22 26 16 27 19 28 17 29 18 30
REMARK H PARENT 18 31
REMARK Flexibility Score: inf
ROOT
ATOM      1  C   UNL     1     114.652 120.698 130.618  1.00  0.00     0.004 C 
ENDROOT
BRANCH   1   2
ATOM      2  C   UNL     1     114.414 119.759 129.414  1.00  0.00     0.004 C 
BRANCH   2   3
ATOM      3  C   UNL     1     115.073 120.308 128.105  1.00  0.00    -0.009 C 
BRANCH   3   4
ATOM      4  C   UNL     1     116.058 119.260 127.500  1.00  0.00     0.000 C 
ATOM      5  C   UNL     1     117.113 118.716 128.477  1.00  0.00     0.004 C 
ENDBRANCH   3   4
BRANCH   3   6
ATOM      6  C   UNL     1     114.025 120.846 127.065  1.00  0.00    -0.014 C 
ATOM      7  C   UNL     1     114.273 122.329 126.709  1.00  0.00     0.007 C 
ATOM      8  C   UNL     1     114.051 120.031 125.755  1.00  0.00     0.007 C 
ENDBRANCH   3   6
ENDBRANCH   2   3
ENDBRANCH   1   2
BRANCH   1   9
ATOM      9  C   UNL     1     114.891 122.192 130.250  1.00  0.00    -0.011 C 
ATOM     10  C   UNL     1     113.708 123.052 130.744  1.00  0.00     0.008 C 
BRANCH   9  11
ATOM     11  C   UNL     1     116.281 122.746 130.759  1.00  0.00    -0.002 C 
ATOM     12  C   UNL     1     117.167 121.692 131.430  1.00  0.00     0.005 C 
ATOM     13  C   UNL     1     117.266 123.455 129.760  1.00  0.00    -0.026 C 
ATOM     14  C   UNL     1     118.551 122.322 131.550  1.00  0.00     0.005 C 
ATOM     15  C   UNL     1     118.540 123.574 130.648  1.00  0.00    -0.001 C 
ATOM     16  C   UNL     1     117.549 122.629 128.441  1.00  0.00     0.007 C 
ATOM     17  C   UNL     1     116.765 124.873 129.380  1.00  0.00     0.012 C 
ATOM     18  C   UNL     1     119.861 123.850 129.873  1.00  0.00     0.000 C 
ATOM     19  C   UNL     1     118.927 121.960 128.375  1.00  0.00     0.005 C 
ATOM     20  C   UNL     1     120.063 122.987 128.578  1.00  0.00     0.003 C 
ATOM     21  C   UNL     1     121.079 123.875 130.812  1.00  0.00     0.031 C 
ATOM     22  C   UNL     1     121.515 122.380 128.370  1.00  0.00    -0.008 C 
ATOM     23  C   UNL     1     122.350 124.042 130.039  1.00  0.00    -0.027 C 
ATOM     24  C   UNL     1     122.578 123.352 128.907  1.00  0.00    -0.065 C 
ATOM     25  C   UNL     1     121.742 122.154 126.837  1.00  0.00     0.014 C 
ATOM     26  C   UNL     1     121.685 121.024 129.108  1.00  0.00     0.016 C 
ATOM     27  C   UNL     1     124.002 123.312 128.384  1.00  0.00     0.063 C 
ATOM     28  C   UNL     1     123.203 121.897 126.459  1.00  0.00     0.033 C 
ATOM     29  C   UNL     1     124.072 123.086 126.870  1.00  0.00     0.118 C 
BRANCH  29  30
ATOM     30  O   UNL     1     125.400 122.832 126.498  1.00  0.00    -0.393 OA
ATOM     31  H   UNL     1     125.773 123.684 126.151  1.00  0.00     0.210 HD
ENDBRANCH  29  30
ENDBRANCH   9  11
ENDBRANCH   1   9
TORSDOF 7
ENDMDL
MODEL 8
REMARK VINA RESULT:    -6.124      3.608      6.771
REMARK INTER + INTRA:         -10.699
REMARK INTER:                  -8.520
REMARK INTRA:                  -2.179
REMARK UNBOUND:                -2.248
REMARK SMILES CC[C@H](CC[C@@H](C)[C@H]1CC[C@H]2[C@H]3CC=C4C[C@@H](O)CC[C@]4(C)[C@H]3CC[C@@]12C)C(C)C
REMARK SMILES IDX 5 1 4 2 3 3 2 4 1 5 28 6 29 7 30 8 6 9 7 10 8 11 9 12 26 13
REMARK SMILES IDX 10 14 11 15 25 16 27 17 12 18 24 19 23 20 13 21 21 22 14 23
REMARK SMILES IDX 15 24 20 25 22 26 16 27 19 28 17 29 18 30
REMARK H PARENT 18 31
REMARK Flexibility Score: inf
ROOT
ATOM      1  C   UNL     1     115.845 124.090 130.967  1.00  0.00     0.004 C 
ENDROOT
BRANCH   1   2
ATOM      2  C   UNL     1     114.650 123.191 130.576  1.00  0.00     0.004 C 
BRANCH   2   3
ATOM      3  C   UNL     1     114.650 121.841 131.369  1.00  0.00    -0.009 C 
BRANCH   3   4
ATOM      4  C   UNL     1     114.463 120.631 130.402  1.00  0.00     0.000 C 
ATOM      5  C   UNL     1     113.967 120.992 128.992  1.00  0.00     0.004 C 
ENDBRANCH   3   4
BRANCH   3   6
ATOM      6  C   UNL     1     115.887 121.686 132.325  1.00  0.00    -0.014 C 
ATOM      7  C   UNL     1     115.463 121.325 133.765  1.00  0.00     0.007 C 
ATOM      8  C   UNL     1     116.858 120.595 131.826  1.00  0.00     0.007 C 
ENDBRANCH   3   6
ENDBRANCH   2   3
ENDBRANCH   1   2
BRANCH   1   9
ATOM      9  C   UNL     1     116.472 124.897 129.793  1.00  0.00    -0.011 C 
ATOM     10  C   UNL     1     116.564 126.391 130.172  1.00  0.00     0.008 C 
BRANCH   9  11
ATOM     11  C   UNL     1     117.862 124.319 129.311  1.00  0.00    -0.002 C 
ATOM     12  C   UNL     1     118.565 123.436 130.344  1.00  0.00     0.005 C 
ATOM     13  C   UNL     1     117.951 123.467 127.994  1.00  0.00    -0.026 C 
ATOM     14  C   UNL     1     119.691 122.729 129.595  1.00  0.00     0.005 C 
ATOM     15  C   UNL     1     119.412 122.937 128.092  1.00  0.00    -0.001 C 
ATOM     16  C   UNL     1     116.904 122.282 127.922  1.00  0.00     0.007 C 
ATOM     17  C   UNL     1     117.806 124.356 126.731  1.00  0.00     0.012 C 
ATOM     18  C   UNL     1     119.735 121.720 127.178  1.00  0.00     0.000 C 
ATOM     19  C   UNL     1     117.488 120.883 128.147  1.00  0.00     0.005 C 
ATOM     20  C   UNL     1     118.646 120.590 127.167  1.00  0.00     0.003 C 
ATOM     21  C   UNL     1     121.171 121.211 127.393  1.00  0.00     0.031 C 
ATOM     22  C   UNL     1     119.191 119.102 127.251  1.00  0.00    -0.008 C 
ATOM     23  C   UNL     1     121.432 119.981 126.581  1.00  0.00    -0.027 C 
ATOM     24  C   UNL     1     120.531 118.985 126.507  1.00  0.00    -0.065 C 
ATOM     25  C   UNL     1     118.140 118.151 126.585  1.00  0.00     0.014 C 
ATOM     26  C   UNL     1     119.415 118.651 128.720  1.00  0.00     0.016 C 
ATOM     27  C   UNL     1     121.005 117.649 125.964  1.00  0.00     0.063 C 
ATOM     28  C   UNL     1     118.674 116.748 126.289  1.00  0.00     0.033 C 
ATOM     29  C   UNL     1     119.871 116.827 125.341  1.00  0.00     0.118 C 
BRANCH  29  30
ATOM     30  O   UNL     1     120.330 115.529 125.074  1.00  0.00    -0.393 OA
ATOM     31  H   UNL     1     120.448 115.459 124.091  1.00  0.00     0.210 HD
ENDBRANCH  29  30
ENDBRANCH   9  11
ENDBRANCH   1   9
TORSDOF 7
ENDMDL
MODEL 9
REMARK VINA RESULT:    -6.001      2.173      4.948
REMARK INTER + INTRA:         -10.530
REMARK INTER:                  -9.179
REMARK INTRA:                  -1.350
REMARK UNBOUND:                -2.248
REMARK SMILES CC[C@H](CC[C@@H](C)[C@H]1CC[C@H]2[C@H]3CC=C4C[C@@H](O)CC[C@]4(C)[C@H]3CC[C@@]12C)C(C)C
REMARK SMILES IDX 5 1 4 2 3 3 2 4 1 5 28 6 29 7 30 8 6 9 7 10 8 11 9 12 26 13
REMARK SMILES IDX 10 14 11 15 25 16 27 17 12 18 24 19 23 20 13 21 21 22 14 23
REMARK SMILES IDX 15 24 20 25 22 26 16 27 19 28 17 29 18 30
REMARK H PARENT 18 31
REMARK Flexibility Score: inf
ROOT
ATOM      1  C   UNL     1     118.228 119.352 127.947  1.00  0.00     0.004 C 
ENDROOT
BRANCH   1   2
ATOM      2  C   UNL     1     119.351 120.134 127.230  1.00  0.00     0.004 C 
BRANCH   2   3
ATOM      3  C   UNL     1     120.069 119.263 126.146  1.00  0.00    -0.009 C 
BRANCH   3   4
ATOM      4  C   UNL     1     119.041 118.368 125.385  1.00  0.00     0.000 C 
ATOM      5  C   UNL     1     119.364 116.865 125.375  1.00  0.00     0.004 C 
ENDBRANCH   3   4
BRANCH   3   6
ATOM      6  C   UNL     1     120.988 120.103 125.188  1.00  0.00    -0.014 C 
ATOM      7  C   UNL     1     120.502 120.044 123.723  1.00  0.00     0.007 C 
ATOM      8  C   UNL     1     121.048 121.586 125.610  1.00  0.00     0.007 C 
ENDBRANCH   3   6
ENDBRANCH   2   3
ENDBRANCH   1   2
BRANCH   1   9
ATOM      9  C   UNL     1     116.787 119.882 127.687  1.00  0.00    -0.011 C 
ATOM     10  C   UNL     1     115.782 118.711 127.716  1.00  0.00     0.008 C 
BRANCH   9  11
ATOM     11  C   UNL     1     116.367 121.052 128.663  1.00  0.00    -0.002 C 
ATOM     12  C   UNL     1     117.248 121.175 129.908  1.00  0.00     0.005 C 
ATOM     13  C   UNL     1     116.282 122.530 128.137  1.00  0.00    -0.026 C 
ATOM     14  C   UNL     1     116.900 122.521 130.536  1.00  0.00     0.005 C 
ATOM     15  C   UNL     1     116.093 123.301 129.478  1.00  0.00    -0.001 C 
ATOM     16  C   UNL     1     117.575 123.013 127.364  1.00  0.00     0.007 C 
ATOM     17  C   UNL     1     115.036 122.743 127.238  1.00  0.00     0.012 C 
ATOM     18  C   UNL     1     116.385 124.828 129.407  1.00  0.00     0.000 C 
ATOM     19  C   UNL     1     118.475 123.981 128.140  1.00  0.00     0.005 C 
ATOM     20  C   UNL     1     117.687 125.220 128.623  1.00  0.00     0.003 C 
ATOM     21  C   UNL     1     116.252 125.498 130.786  1.00  0.00     0.031 C 
ATOM     22  C   UNL     1     118.597 126.329 129.302  1.00  0.00    -0.008 C 
ATOM     23  C   UNL     1     116.632 126.944 130.718  1.00  0.00    -0.027 C 
ATOM     24  C   UNL     1     117.722 127.353 130.042  1.00  0.00    -0.065 C 
ATOM     25  C   UNL     1     119.413 127.055 128.180  1.00  0.00     0.014 C 
ATOM     26  C   UNL     1     119.590 125.713 130.326  1.00  0.00     0.016 C 
ATOM     27  C   UNL     1     118.228 128.759 130.309  1.00  0.00     0.063 C 
ATOM     28  C   UNL     1     120.069 128.359 128.637  1.00  0.00     0.033 C 
ATOM     29  C   UNL     1     119.006 129.343 129.126  1.00  0.00     0.118 C 
BRANCH  29  30
ATOM     30  O   UNL     1     119.632 130.534 129.523  1.00  0.00    -0.393 OA
ATOM     31  H   UNL     1     119.922 131.000 128.695  1.00  0.00     0.210 HD
ENDBRANCH  29  30
ENDBRANCH   9  11
ENDBRANCH   1   9
TORSDOF 7
ENDMDL
