MODEL 1
REMARK VINA RESULT:    -2.571      0.000      0.000
REMARK INTER + INTRA:          -6.318
REMARK INTER:                  -4.224
REMARK INTRA:                  -2.094
REMARK UNBOUND:                -2.094
REMARK SMILES C[C@H]1O[C@@H](OC[C@@H]2O[C@H](Oc3c(-c4ccc(O)c(O)c4)oc4cc(O)cc(O)c4c3=O)[C@H](O)[C@@H](O)[C@H]2O)[C@H](O)[C@H](O)[C@@H]1O
REMARK SMILES IDX 7 1 36 2 34 3 32 4 9 5 8 6 6 7 5 8 4 9 1 10 2 11 42 12 3 13
REMARK SMILES IDX 40 14 38 15 43 16 41 18 39 20 37 22 35 24 10 26 11 27 12 28
REMARK SMILES IDX 30 29 21 30 29 31 31 32 22 33 27 34 23 35 26 36 24 37 13 38
REMARK SMILES IDX 20 39 14 40 18 41 15 42 16 43 19 44 17 46 28 48 25 50 33 52
REMARK H PARENT 43 17 41 19 39 21 37 23 35 25 19 45 17 47 28 49 25 51 33 53
REMARK Flexibility Score: inf
ROOT
ATOM      1  C   UNL     1     -27.308  80.352   6.102  1.00  0.00     0.180 C 
ATOM      2  C   UNL     1     -26.294  81.539   6.335  1.00  0.00     0.177 C 
ATOM      3  C   UNL     1     -26.734  82.596   5.329  1.00  0.00     0.180 C 
ATOM      4  C   UNL     1     -26.635  81.824   3.930  1.00  0.00     0.214 C 
ATOM      5  C   UNL     1     -25.948  80.264   4.083  1.00  0.00     0.339 C 
ATOM      6  O   UNL     1     -26.823  79.522   5.024  1.00  0.00    -0.332 OA
ENDROOT
BRANCH   1   7
ATOM      7  C   UNL     1     -28.422  80.065   7.302  1.00  0.00     0.198 C 
BRANCH   7   8
ATOM      8  O   UNL     1     -29.144  78.743   6.989  1.00  0.00    -0.347 OA
BRANCH   8   9
ATOM      9  C   UNL     1     -30.438  78.750   6.272  1.00  0.00     0.281 C 
ATOM     10  C   UNL     1     -30.131  80.821   3.841  1.00  0.00     0.041 C 
ATOM     11  C   UNL     1     -31.015  79.650   3.972  1.00  0.00     0.150 C 
ATOM     12  C   UNL     1     -32.354  80.086   4.670  1.00  0.00     0.174 C 
ATOM     13  O   UNL     1     -30.339  78.720   4.857  1.00  0.00    -0.344 OA
ATOM     14  C   UNL     1     -32.204  80.715   6.063  1.00  0.00     0.179 C 
ATOM     15  C   UNL     1     -31.608  79.696   7.048  1.00  0.00     0.202 C 
BRANCH  12  16
ATOM     16  O   UNL     1     -33.257  78.955   4.766  1.00  0.00    -0.388 OA
ATOM     17  H   UNL     1     -33.261  78.536   5.702  1.00  0.00     0.211 HD
ENDBRANCH  12  16
BRANCH  14  18
ATOM     18  O   UNL     1     -33.372  81.267   6.605  1.00  0.00    -0.387 OA
ATOM     19  H   UNL     1     -33.141  81.935   7.327  1.00  0.00     0.211 HD
ENDBRANCH  14  18
BRANCH  15  20
ATOM     20  O   UNL     1     -32.758  79.037   7.646  1.00  0.00    -0.385 OA
ATOM     21  H   UNL     1     -32.351  78.698   8.513  1.00  0.00     0.211 HD
ENDBRANCH  15  20
ENDBRANCH   8   9
ENDBRANCH   7   8
ENDBRANCH   1   7
BRANCH   2  22
ATOM     22  O   UNL     1     -25.928  81.610   7.688  1.00  0.00    -0.387 OA
ATOM     23  H   UNL     1     -25.906  80.621   8.017  1.00  0.00     0.211 HD
ENDBRANCH   2  22
BRANCH   3  24
ATOM     24  O   UNL     1     -28.015  82.980   5.785  1.00  0.00    -0.387 OA
ATOM     25  H   UNL     1     -28.078  82.564   6.684  1.00  0.00     0.211 HD
ENDBRANCH   3  24
BRANCH   5  26
ATOM     26  O   UNL     1     -24.467  80.005   4.595  1.00  0.00    -0.454 OA
BRANCH  26  27
ATOM     27  C   UNL     1     -23.216  80.234   3.848  1.00  0.00     0.214 A 
ATOM     28  C   UNL     1     -22.443  79.313   2.935  1.00  0.00     0.180 A 
ATOM     29  C   UNL     1     -22.868  81.674   3.620  1.00  0.00     0.239 A 
ATOM     30  O   UNL     1     -21.438  79.845   2.126  1.00  0.00    -0.452 OA
ATOM     31  C   UNL     1     -22.062  82.084   2.469  1.00  0.00     0.111 A 
ATOM     32  O   UNL     1     -23.284  82.427   4.597  1.00  0.00    -0.285 OA
ATOM     33  C   UNL     1     -21.179  81.115   1.873  1.00  0.00     0.146 A 
ATOM     34  C   UNL     1     -22.161  83.312   1.684  1.00  0.00     0.134 A 
ATOM     35  C   UNL     1     -20.290  81.406   0.784  1.00  0.00     0.094 A 
ATOM     36  C   UNL     1     -21.341  83.541   0.511  1.00  0.00     0.093 A 
ATOM     37  C   UNL     1     -20.289  82.653   0.175  1.00  0.00     0.123 A 
BRANCH  28  38
ATOM     38  C   UNL     1     -22.378  77.723   3.032  1.00  0.00     0.025 A 
ATOM     39  C   UNL     1     -23.292  76.971   2.252  1.00  0.00     0.062 A 
ATOM     40  C   UNL     1     -21.307  77.060   3.589  1.00  0.00     0.016 A 
ATOM     41  C   UNL     1     -23.330  75.520   2.410  1.00  0.00     0.158 A 
ATOM     42  C   UNL     1     -21.337  75.705   3.812  1.00  0.00     0.051 A 
ATOM     43  C   UNL     1     -22.307  74.897   3.189  1.00  0.00     0.157 A 
BRANCH  41  44
ATOM     44  O   UNL     1     -24.260  74.850   1.647  1.00  0.00    -0.504 OA
ATOM     45  H   UNL     1     -24.246  74.933   0.650  1.00  0.00     0.293 HD
ENDBRANCH  41  44
BRANCH  43  46
ATOM     46  O   UNL     1     -22.211  73.445   3.275  1.00  0.00    -0.504 OA
ATOM     47  H   UNL     1     -21.869  73.034   4.157  1.00  0.00     0.293 HD
ENDBRANCH  43  46
ENDBRANCH  28  38
BRANCH  34  48
ATOM     48  O   UNL     1     -23.332  84.098   1.930  1.00  0.00    -0.507 OA
ATOM     49  H   UNL     1     -24.178  83.590   2.240  1.00  0.00     0.293 HD
ENDBRANCH  34  48
BRANCH  37  50
ATOM     50  O   UNL     1     -19.300  82.984  -0.792  1.00  0.00    -0.508 OA
ATOM     51  H   UNL     1     -19.283  82.570  -1.731  1.00  0.00     0.293 HD
ENDBRANCH  37  50
ENDBRANCH  26  27
ENDBRANCH   5  26
BRANCH   4  52
ATOM     52  O   UNL     1     -26.067  82.592   2.868  1.00  0.00    -0.384 OA
ATOM     53  H   UNL     1     -25.221  82.145   2.553  1.00  0.00     0.211 HD
ENDBRANCH   4  52
TORSDOF 16
ENDMDL
MODEL 2
REMARK VINA RESULT:    -2.514      0.932      1.691
REMARK INTER + INTRA:          -6.225
REMARK INTER:                  -4.121
REMARK INTRA:                  -2.104
REMARK UNBOUND:                -2.094
REMARK SMILES C[C@H]1O[C@@H](OC[C@@H]2O[C@H](Oc3c(-c4ccc(O)c(O)c4)oc4cc(O)cc(O)c4c3=O)[C@H](O)[C@@H](O)[C@H]2O)[C@H](O)[C@H](O)[C@@H]1O
REMARK SMILES IDX 7 1 36 2 34 3 32 4 9 5 8 6 6 7 5 8 4 9 1 10 2 11 42 12 3 13
REMARK SMILES IDX 40 14 38 15 43 16 41 18 39 20 37 22 35 24 10 26 11 27 12 28
REMARK SMILES IDX 30 29 21 30 29 31 31 32 22 33 27 34 23 35 26 36 24 37 13 38
REMARK SMILES IDX 20 39 14 40 18 41 15 42 16 43 19 44 17 46 28 48 25 50 33 52
REMARK H PARENT 43 17 41 19 39 21 37 23 35 25 19 45 17 47 28 49 25 51 33 53
REMARK Flexibility Score: inf
ROOT
ATOM      1  C   UNL     1     -27.204  80.390   6.202  1.00  0.00     0.180 C 
ATOM      2  C   UNL     1     -26.177  81.578   6.363  1.00  0.00     0.177 C 
ATOM      3  C   UNL     1     -26.640  82.602   5.334  1.00  0.00     0.180 C 
ATOM      4  C   UNL     1     -26.586  81.780   3.960  1.00  0.00     0.214 C 
ATOM      5  C   UNL     1     -25.902  80.223   4.149  1.00  0.00     0.339 C 
ATOM      6  O   UNL     1     -26.755  79.520   5.140  1.00  0.00    -0.332 OA
ENDROOT
BRANCH   1   7
ATOM      7  C   UNL     1     -28.284  80.153   7.442  1.00  0.00     0.198 C 
BRANCH   7   8
ATOM      8  O   UNL     1     -29.214  81.375   7.517  1.00  0.00    -0.347 OA
BRANCH   8   9
ATOM      9  C   UNL     1     -30.584  81.308   6.960  1.00  0.00     0.281 C 
ATOM     10  C   UNL     1     -31.960  78.697   8.218  1.00  0.00     0.041 C 
ATOM     11  C   UNL     1     -32.578  79.936   7.717  1.00  0.00     0.150 C 
ATOM     12  C   UNL     1     -32.846  79.797   6.174  1.00  0.00     0.174 C 
ATOM     13  O   UNL     1     -31.597  80.989   7.900  1.00  0.00    -0.344 OA
ATOM     14  C   UNL     1     -31.612  79.509   5.308  1.00  0.00     0.179 C 
ATOM     15  C   UNL     1     -30.618  80.679   5.389  1.00  0.00     0.202 C 
BRANCH  12  16
ATOM     16  O   UNL     1     -33.499  80.991   5.672  1.00  0.00    -0.388 OA
ATOM     17  H   UNL     1     -34.204  80.781   4.958  1.00  0.00     0.211 HD
ENDBRANCH  12  16
BRANCH  14  18
ATOM     18  O   UNL     1     -31.874  79.205   3.965  1.00  0.00    -0.387 OA
ATOM     19  H   UNL     1     -31.304  78.427   3.666  1.00  0.00     0.211 HD
ENDBRANCH  14  18
BRANCH  15  20
ATOM     20  O   UNL     1     -30.985  81.558   4.291  1.00  0.00    -0.385 OA
ATOM     21  H   UNL     1     -30.454  82.391   4.530  1.00  0.00     0.211 HD
ENDBRANCH  15  20
ENDBRANCH   8   9
ENDBRANCH   7   8
ENDBRANCH   1   7
BRANCH   2  22
ATOM     22  O   UNL     1     -25.772  81.694   7.702  1.00  0.00    -0.387 OA
ATOM     23  H   UNL     1     -24.730  81.654   7.677  1.00  0.00     0.211 HD
ENDBRANCH   2  22
BRANCH   3  24
ATOM     24  O   UNL     1     -27.905  83.010   5.813  1.00  0.00    -0.387 OA
ATOM     25  H   UNL     1     -28.409  82.160   5.896  1.00  0.00     0.211 HD
ENDBRANCH   3  24
BRANCH   5  26
ATOM     26  O   UNL     1     -24.409  79.972   4.627  1.00  0.00    -0.454 OA
BRANCH  26  27
ATOM     27  C   UNL     1     -23.177  80.196   3.848  1.00  0.00     0.214 A 
ATOM     28  C   UNL     1     -22.432  79.272   2.916  1.00  0.00     0.180 A 
ATOM     29  C   UNL     1     -22.830  81.635   3.609  1.00  0.00     0.239 A 
ATOM     30  O   UNL     1     -21.446  79.800   2.080  1.00  0.00    -0.452 OA
ATOM     31  C   UNL     1     -22.053  82.042   2.438  1.00  0.00     0.111 A 
ATOM     32  O   UNL     1     -23.218  82.389   4.596  1.00  0.00    -0.285 OA
ATOM     33  C   UNL     1     -21.190  81.069   1.819  1.00  0.00     0.146 A 
ATOM     34  C   UNL     1     -22.168  83.270   1.655  1.00  0.00     0.134 A 
ATOM     35  C   UNL     1     -20.328  81.356   0.707  1.00  0.00     0.094 A 
ATOM     36  C   UNL     1     -21.378  83.495   0.461  1.00  0.00     0.093 A 
ATOM     37  C   UNL     1     -20.338  82.603   0.098  1.00  0.00     0.123 A 
BRANCH  28  38
ATOM     38  C   UNL     1     -22.370  77.682   3.011  1.00  0.00     0.025 A 
ATOM     39  C   UNL     1     -23.281  76.932   2.227  1.00  0.00     0.062 A 
ATOM     40  C   UNL     1     -21.303  77.017   3.573  1.00  0.00     0.016 A 
ATOM     41  C   UNL     1     -23.323  75.481   2.383  1.00  0.00     0.158 A 
ATOM     42  C   UNL     1     -21.336  75.661   3.795  1.00  0.00     0.051 A 
ATOM     43  C   UNL     1     -22.304  74.855   3.167  1.00  0.00     0.157 A 
BRANCH  41  44
ATOM     44  O   UNL     1     -24.250  74.813   1.615  1.00  0.00    -0.504 OA
ATOM     45  H   UNL     1     -25.194  75.143   1.567  1.00  0.00     0.293 HD
ENDBRANCH  41  44
BRANCH  43  46
ATOM     46  O   UNL     1     -22.212  73.403   3.252  1.00  0.00    -0.504 OA
ATOM     47  H   UNL     1     -21.309  72.962   3.021  1.00  0.00     0.293 HD
ENDBRANCH  43  46
ENDBRANCH  28  38
BRANCH  34  48
ATOM     48  O   UNL     1     -23.330  84.060   1.931  1.00  0.00    -0.507 OA
ATOM     49  H   UNL     1     -23.403  84.467   2.879  1.00  0.00     0.293 HD
ENDBRANCH  34  48
BRANCH  37  50
ATOM     50  O   UNL     1     -19.374  82.930  -0.895  1.00  0.00    -0.508 OA
ATOM     51  H   UNL     1     -19.076  82.266  -1.618  1.00  0.00     0.293 HD
ENDBRANCH  37  50
ENDBRANCH  26  27
ENDBRANCH   5  26
BRANCH   4  52
ATOM     52  O   UNL     1     -26.044  82.507   2.856  1.00  0.00    -0.384 OA
ATOM     53  H   UNL     1     -26.698  82.482   2.091  1.00  0.00     0.211 HD
ENDBRANCH   4  52
TORSDOF 16
ENDMDL
MODEL 3
REMARK VINA RESULT:    -1.745      1.133      2.099
REMARK INTER + INTRA:          -4.962
REMARK INTER:                  -4.046
REMARK INTRA:                  -0.916
REMARK UNBOUND:                -2.094
REMARK SMILES C[C@H]1O[C@@H](OC[C@@H]2O[C@H](Oc3c(-c4ccc(O)c(O)c4)oc4cc(O)cc(O)c4c3=O)[C@H](O)[C@@H](O)[C@H]2O)[C@H](O)[C@H](O)[C@@H]1O
REMARK SMILES IDX 7 1 36 2 34 3 32 4 9 5 8 6 6 7 5 8 4 9 1 10 2 11 42 12 3 13
REMARK SMILES IDX 40 14 38 15 43 16 41 18 39 20 37 22 35 24 10 26 11 27 12 28
REMARK SMILES IDX 30 29 21 30 29 31 31 32 22 33 27 34 23 35 26 36 24 37 13 38
REMARK SMILES IDX 20 39 14 40 18 41 15 42 16 43 19 44 17 46 28 48 25 50 33 52
REMARK H PARENT 43 17 41 19 39 21 37 23 35 25 19 45 17 47 28 49 25 51 33 53
REMARK Flexibility Score: inf
ROOT
ATOM      1  C   UNL     1     -27.973  79.490   4.993  1.00  0.00     0.180 C 
ATOM      2  C   UNL     1     -27.006  79.131   6.188  1.00  0.00     0.177 C 
ATOM      3  C   UNL     1     -26.999  80.394   7.042  1.00  0.00     0.180 C 
ATOM      4  C   UNL     1     -26.498  81.517   6.017  1.00  0.00     0.214 C 
ATOM      5  C   UNL     1     -26.025  80.869   4.505  1.00  0.00     0.339 C 
ATOM      6  O   UNL     1     -27.221  80.174   3.967  1.00  0.00    -0.332 OA
ENDROOT
BRANCH   1   7
ATOM      7  C   UNL     1     -29.443  78.716   4.954  1.00  0.00     0.198 C 
BRANCH   7   8
ATOM      8  O   UNL     1     -30.367  79.476   3.987  1.00  0.00    -0.347 OA
BRANCH   8   9
ATOM      9  C   UNL     1     -31.631  80.073   4.473  1.00  0.00     0.281 C 
ATOM     10  C   UNL     1     -31.688  79.636   7.652  1.00  0.00     0.041 C 
ATOM     11  C   UNL     1     -32.337  80.675   6.834  1.00  0.00     0.150 C 
ATOM     12  C   UNL     1     -33.744  80.159   6.358  1.00  0.00     0.174 C 
ATOM     13  O   UNL     1     -31.509  80.849   5.655  1.00  0.00    -0.344 OA
ATOM     14  C   UNL     1     -33.733  78.860   5.539  1.00  0.00     0.179 C 
ATOM     15  C   UNL     1     -32.967  79.066   4.221  1.00  0.00     0.202 C 
BRANCH  12  16
ATOM     16  O   UNL     1     -34.418  81.188   5.589  1.00  0.00    -0.388 OA
ATOM     17  H   UNL     1     -35.432  81.187   5.740  1.00  0.00     0.211 HD
ENDBRANCH  12  16
BRANCH  14  18
ATOM     18  O   UNL     1     -34.991  78.305   5.271  1.00  0.00    -0.387 OA
ATOM     19  H   UNL     1     -35.128  77.469   5.821  1.00  0.00     0.211 HD
ENDBRANCH  14  18
BRANCH  15  20
ATOM     20  O   UNL     1     -33.980  79.475   3.261  1.00  0.00    -0.385 OA
ATOM     21  H   UNL     1     -34.431  80.229   3.771  1.00  0.00     0.211 HD
ENDBRANCH  15  20
ENDBRANCH   8   9
ENDBRANCH   7   8
ENDBRANCH   1   7
BRANCH   2  22
ATOM     22  O   UNL     1     -27.111  77.769   6.509  1.00  0.00    -0.387 OA
ATOM     23  H   UNL     1     -27.771  77.728   7.316  1.00  0.00     0.211 HD
ENDBRANCH   2  22
BRANCH   3  24
ATOM     24  O   UNL     1     -28.325  80.481   7.523  1.00  0.00    -0.387 OA
ATOM     25  H   UNL     1     -28.678  79.562   7.401  1.00  0.00     0.211 HD
ENDBRANCH   3  24
BRANCH   5  26
ATOM     26  O   UNL     1     -24.827  79.843   4.327  1.00  0.00    -0.454 OA
BRANCH  26  27
ATOM     27  C   UNL     1     -23.508  80.111   3.725  1.00  0.00     0.214 A 
ATOM     28  C   UNL     1     -22.617  79.222   2.893  1.00  0.00     0.180 A 
ATOM     29  C   UNL     1     -23.174  81.562   3.551  1.00  0.00     0.239 A 
ATOM     30  O   UNL     1     -21.543  79.789   2.204  1.00  0.00    -0.452 OA
ATOM     31  C   UNL     1     -22.258  82.007   2.500  1.00  0.00     0.111 A 
ATOM     32  O   UNL     1     -23.714  82.292   4.484  1.00  0.00    -0.285 OA
ATOM     33  C   UNL     1     -21.291  81.067   1.994  1.00  0.00     0.146 A 
ATOM     34  C   UNL     1     -22.301  83.243   1.722  1.00  0.00     0.134 A 
ATOM     35  C   UNL     1     -20.296  81.394   1.012  1.00  0.00     0.094 A 
ATOM     36  C   UNL     1     -21.364  83.506   0.649  1.00  0.00     0.093 A 
ATOM     37  C   UNL     1     -20.259  82.649   0.421  1.00  0.00     0.123 A 
BRANCH  28  38
ATOM     38  C   UNL     1     -22.522  77.633   2.979  1.00  0.00     0.025 A 
ATOM     39  C   UNL     1     -23.397  76.868   2.167  1.00  0.00     0.062 A 
ATOM     40  C   UNL     1     -21.455  76.987   3.562  1.00  0.00     0.016 A 
ATOM     41  C   UNL     1     -23.410  75.416   2.312  1.00  0.00     0.158 A 
ATOM     42  C   UNL     1     -21.463  75.629   3.774  1.00  0.00     0.051 A 
ATOM     43  C   UNL     1     -22.398  74.807   3.117  1.00  0.00     0.157 A 
BRANCH  41  44
ATOM     44  O   UNL     1     -24.303  74.734   1.517  1.00  0.00    -0.504 OA
ATOM     45  H   UNL     1     -23.979  74.228   0.716  1.00  0.00     0.293 HD
ENDBRANCH  41  44
BRANCH  43  46
ATOM     46  O   UNL     1     -22.275  73.356   3.195  1.00  0.00    -0.504 OA
ATOM     47  H   UNL     1     -23.126  72.791   3.054  1.00  0.00     0.293 HD
ENDBRANCH  43  46
ENDBRANCH  28  38
BRANCH  34  48
ATOM     48  O   UNL     1     -23.513  83.997   1.846  1.00  0.00    -0.507 OA
ATOM     49  H   UNL     1     -24.399  83.464   1.818  1.00  0.00     0.293 HD
ENDBRANCH  34  48
BRANCH  37  50
ATOM     50  O   UNL     1     -19.179  83.017  -0.429  1.00  0.00    -0.508 OA
ATOM     51  H   UNL     1     -19.291  83.663  -1.218  1.00  0.00     0.293 HD
ENDBRANCH  37  50
ENDBRANCH  26  27
ENDBRANCH   5  26
BRANCH   4  52
ATOM     52  O   UNL     1     -25.548  82.435   6.561  1.00  0.00    -0.384 OA
ATOM     53  H   UNL     1     -24.617  82.089   6.388  1.00  0.00     0.211 HD
ENDBRANCH   4  52
TORSDOF 16
ENDMDL
MODEL 4
REMARK VINA RESULT:    -1.631      1.454      2.293
REMARK INTER + INTRA:          -4.775
REMARK INTER:                  -5.408
REMARK INTRA:                   0.633
REMARK UNBOUND:                -2.094
REMARK SMILES C[C@H]1O[C@@H](OC[C@@H]2O[C@H](Oc3c(-c4ccc(O)c(O)c4)oc4cc(O)cc(O)c4c3=O)[C@H](O)[C@@H](O)[C@H]2O)[C@H](O)[C@H](O)[C@@H]1O
REMARK SMILES IDX 7 1 36 2 34 3 32 4 9 5 8 6 6 7 5 8 4 9 1 10 2 11 42 12 3 13
REMARK SMILES IDX 40 14 38 15 43 16 41 18 39 20 37 22 35 24 10 26 11 27 12 28
REMARK SMILES IDX 30 29 21 30 29 31 31 32 22 33 27 34 23 35 26 36 24 37 13 38
REMARK SMILES IDX 20 39 14 40 18 41 15 42 16 43 19 44 17 46 28 48 25 50 33 52
REMARK H PARENT 43 17 41 19 39 21 37 23 35 25 19 45 17 47 28 49 25 51 33 53
REMARK Flexibility Score: inf
ROOT
ATOM      1  C   UNL     1     -27.723  79.858   5.069  1.00  0.00     0.180 C 
ATOM      2  C   UNL     1     -26.731  79.245   6.133  1.00  0.00     0.177 C 
ATOM      3  C   UNL     1     -26.520  80.378   7.130  1.00  0.00     0.180 C 
ATOM      4  C   UNL     1     -25.956  81.563   6.214  1.00  0.00     0.214 C 
ATOM      5  C   UNL     1     -25.661  81.069   4.602  1.00  0.00     0.339 C 
ATOM      6  O   UNL     1     -26.963  80.584   4.079  1.00  0.00    -0.332 OA
ENDROOT
BRANCH   1   7
ATOM      7  C   UNL     1     -29.274  79.261   5.051  1.00  0.00     0.198 C 
BRANCH   7   8
ATOM      8  O   UNL     1     -30.225  80.390   4.619  1.00  0.00    -0.347 OA
BRANCH   8   9
ATOM      9  C   UNL     1     -30.807  81.304   5.627  1.00  0.00     0.281 C 
ATOM     10  C   UNL     1     -28.411  83.167   6.670  1.00  0.00     0.041 C 
ATOM     11  C   UNL     1     -29.859  83.435   6.626  1.00  0.00     0.150 C 
ATOM     12  C   UNL     1     -30.526  82.905   7.947  1.00  0.00     0.174 C 
ATOM     13  O   UNL     1     -30.388  82.656   5.522  1.00  0.00    -0.344 OA
ATOM     14  C   UNL     1     -30.337  81.409   8.234  1.00  0.00     0.179 C 
ATOM     15  C   UNL     1     -31.009  80.566   7.137  1.00  0.00     0.202 C 
BRANCH  12  16
ATOM     16  O   UNL     1     -31.946  83.202   7.942  1.00  0.00    -0.388 OA
ATOM     17  H   UNL     1     -32.396  82.946   7.057  1.00  0.00     0.211 HD
ENDBRANCH  12  16
BRANCH  14  18
ATOM     18  O   UNL     1     -30.773  80.976   9.493  1.00  0.00    -0.387 OA
ATOM     19  H   UNL     1     -31.699  80.578   9.425  1.00  0.00     0.211 HD
ENDBRANCH  14  18
BRANCH  15  20
ATOM     20  O   UNL     1     -32.358  80.325   7.623  1.00  0.00    -0.385 OA
ATOM     21  H   UNL     1     -32.255  79.392   8.012  1.00  0.00     0.211 HD
ENDBRANCH  15  20
ENDBRANCH   8   9
ENDBRANCH   7   8
ENDBRANCH   1   7
BRANCH   2  22
ATOM     22  O   UNL     1     -26.975  77.872   6.292  1.00  0.00    -0.387 OA
ATOM     23  H   UNL     1     -27.240  77.756   7.294  1.00  0.00     0.211 HD
ENDBRANCH   2  22
BRANCH   3  24
ATOM     24  O   UNL     1     -27.793  80.545   7.720  1.00  0.00    -0.387 OA
ATOM     25  H   UNL     1     -28.334  79.815   7.322  1.00  0.00     0.211 HD
ENDBRANCH   3  24
BRANCH   5  26
ATOM     26  O   UNL     1     -24.606  79.950   4.207  1.00  0.00    -0.454 OA
BRANCH  26  27
ATOM     27  C   UNL     1     -23.281  80.155   3.594  1.00  0.00     0.214 A 
ATOM     28  C   UNL     1     -22.421  79.208   2.792  1.00  0.00     0.180 A 
ATOM     29  C   UNL     1     -22.900  81.587   3.370  1.00  0.00     0.239 A 
ATOM     30  O   UNL     1     -21.331  79.716   2.083  1.00  0.00    -0.452 OA
ATOM     31  C   UNL     1     -21.973  81.966   2.303  1.00  0.00     0.111 A 
ATOM     32  O   UNL     1     -23.413  82.366   4.278  1.00  0.00    -0.285 OA
ATOM     33  C   UNL     1     -21.038  80.978   1.828  1.00  0.00     0.146 A 
ATOM     34  C   UNL     1     -21.977  83.174   1.482  1.00  0.00     0.134 A 
ATOM     35  C   UNL     1     -20.035  81.238   0.834  1.00  0.00     0.094 A 
ATOM     36  C   UNL     1     -21.035  83.370   0.400  1.00  0.00     0.093 A 
ATOM     37  C   UNL     1     -19.959  82.470   0.200  1.00  0.00     0.123 A 
BRANCH  28  38
ATOM     38  C   UNL     1     -22.378  77.621   2.933  1.00  0.00     0.025 A 
ATOM     39  C   UNL     1     -23.262  76.857   2.130  1.00  0.00     0.062 A 
ATOM     40  C   UNL     1     -21.342  76.963   3.558  1.00  0.00     0.016 A 
ATOM     41  C   UNL     1     -23.323  75.411   2.324  1.00  0.00     0.158 A 
ATOM     42  C   UNL     1     -21.397  75.614   3.814  1.00  0.00     0.051 A 
ATOM     43  C   UNL     1     -22.345  74.799   3.167  1.00  0.00     0.157 A 
BRANCH  41  44
ATOM     44  O   UNL     1     -24.223  74.731   1.535  1.00  0.00    -0.504 OA
ATOM     45  H   UNL     1     -25.092  74.417   1.919  1.00  0.00     0.293 HD
ENDBRANCH  41  44
BRANCH  43  46
ATOM     46  O   UNL     1     -22.270  73.349   3.296  1.00  0.00    -0.504 OA
ATOM     47  H   UNL     1     -21.343  72.904   3.217  1.00  0.00     0.293 HD
ENDBRANCH  43  46
ENDBRANCH  28  38
BRANCH  34  48
ATOM     48  O   UNL     1     -23.163  83.971   1.583  1.00  0.00    -0.507 OA
ATOM     49  H   UNL     1     -23.952  83.569   2.118  1.00  0.00     0.293 HD
ENDBRANCH  34  48
BRANCH  37  50
ATOM     50  O   UNL     1     -18.870  82.773  -0.664  1.00  0.00    -0.508 OA
ATOM     51  H   UNL     1     -18.241  82.052  -1.034  1.00  0.00     0.293 HD
ENDBRANCH  37  50
ENDBRANCH  26  27
ENDBRANCH   5  26
BRANCH   4  52
ATOM     52  O   UNL     1     -24.872  82.293   6.790  1.00  0.00    -0.384 OA
ATOM     53  H   UNL     1     -24.911  82.206   7.793  1.00  0.00     0.211 HD
ENDBRANCH   4  52
TORSDOF 16
ENDMDL
MODEL 5
REMARK VINA RESULT:    -1.228      1.695      2.907
REMARK INTER + INTRA:          -4.112
REMARK INTER:                  -3.446
REMARK INTRA:                  -0.666
REMARK UNBOUND:                -2.094
REMARK SMILES C[C@H]1O[C@@H](OC[C@@H]2O[C@H](Oc3c(-c4ccc(O)c(O)c4)oc4cc(O)cc(O)c4c3=O)[C@H](O)[C@@H](O)[C@H]2O)[C@H](O)[C@H](O)[C@@H]1O
REMARK SMILES IDX 7 1 36 2 34 3 32 4 9 5 8 6 6 7 5 8 4 9 1 10 2 11 42 12 3 13
REMARK SMILES IDX 40 14 38 15 43 16 41 18 39 20 37 22 35 24 10 26 11 27 12 28
REMARK SMILES IDX 30 29 21 30 29 31 31 32 22 33 27 34 23 35 26 36 24 37 13 38
REMARK SMILES IDX 20 39 14 40 18 41 15 42 16 43 19 44 17 46 28 48 25 50 33 52
REMARK H PARENT 43 17 41 19 39 21 37 23 35 25 19 45 17 47 28 49 25 51 33 53
REMARK Flexibility Score: inf
ROOT
ATOM      1  C   UNL     1     -26.494  81.238   4.196  1.00  0.00     0.180 C 
ATOM      2  C   UNL     1     -25.667  80.278   5.138  1.00  0.00     0.177 C 
ATOM      3  C   UNL     1     -25.007  81.226   6.133  1.00  0.00     0.180 C 
ATOM      4  C   UNL     1     -24.170  82.212   5.189  1.00  0.00     0.214 C 
ATOM      5  C   UNL     1     -24.200  81.736   3.545  1.00  0.00     0.339 C 
ATOM      6  O   UNL     1     -25.630  81.729   3.148  1.00  0.00    -0.332 OA
ENDROOT
BRANCH   1   7
ATOM      7  C   UNL     1     -28.150  81.178   4.325  1.00  0.00     0.198 C 
BRANCH   7   8
ATOM      8  O   UNL     1     -28.520  80.059   5.313  1.00  0.00    -0.347 OA
BRANCH   8   9
ATOM      9  C   UNL     1     -29.166  80.386   6.604  1.00  0.00     0.281 C 
ATOM     10  C   UNL     1     -32.333  80.232   6.110  1.00  0.00     0.041 C 
ATOM     11  C   UNL     1     -31.565  80.037   7.351  1.00  0.00     0.150 C 
ATOM     12  C   UNL     1     -31.362  81.426   8.060  1.00  0.00     0.174 C 
ATOM     13  O   UNL     1     -30.257  79.550   6.955  1.00  0.00    -0.344 OA
ATOM     14  C   UNL     1     -30.642  82.497   7.229  1.00  0.00     0.179 C 
ATOM     15  C   UNL     1     -29.206  82.050   6.911  1.00  0.00     0.202 C 
BRANCH  12  16
ATOM     16  O   UNL     1     -30.647  81.248   9.310  1.00  0.00    -0.388 OA
ATOM     17  H   UNL     1     -30.663  80.275   9.634  1.00  0.00     0.211 HD
ENDBRANCH  12  16
BRANCH  14  18
ATOM     18  O   UNL     1     -30.622  83.782   7.787  1.00  0.00    -0.387 OA
ATOM     19  H   UNL     1     -29.854  84.316   7.407  1.00  0.00     0.211 HD
ENDBRANCH  14  18
BRANCH  15  20
ATOM     20  O   UNL     1     -28.399  82.580   7.999  1.00  0.00    -0.385 OA
ATOM     21  H   UNL     1     -28.412  81.794   8.643  1.00  0.00     0.211 HD
ENDBRANCH  15  20
ENDBRANCH   8   9
ENDBRANCH   7   8
ENDBRANCH   1   7
BRANCH   2  22
ATOM     22  O   UNL     1     -26.333  79.053   5.292  1.00  0.00    -0.387 OA
ATOM     23  H   UNL     1     -25.816  78.553   6.047  1.00  0.00     0.211 HD
ENDBRANCH   2  22
BRANCH   3  24
ATOM     24  O   UNL     1     -26.095  81.765   6.854  1.00  0.00    -0.387 OA
ATOM     25  H   UNL     1     -26.567  80.964   7.199  1.00  0.00     0.211 HD
ENDBRANCH   3  24
BRANCH   5  26
ATOM     26  O   UNL     1     -23.611  80.359   3.020  1.00  0.00    -0.454 OA
BRANCH  26  27
ATOM     27  C   UNL     1     -22.240  80.103   2.540  1.00  0.00     0.214 A 
ATOM     28  C   UNL     1     -21.613  78.836   2.010  1.00  0.00     0.180 A 
ATOM     29  C   UNL     1     -21.473  81.324   2.130  1.00  0.00     0.239 A 
ATOM     30  O   UNL     1     -20.381  78.909   1.359  1.00  0.00    -0.452 OA
ATOM     31  C   UNL     1     -20.407  81.247   1.131  1.00  0.00     0.111 A 
ATOM     32  O   UNL     1     -21.820  82.364   2.832  1.00  0.00    -0.285 OA
ATOM     33  C   UNL     1     -19.742  79.984   0.937  1.00  0.00     0.146 A 
ATOM     34  C   UNL     1     -20.030  82.241   0.128  1.00  0.00     0.134 A 
ATOM     35  C   UNL     1     -18.640  79.791   0.037  1.00  0.00     0.094 A 
ATOM     36  C   UNL     1     -18.997  81.984  -0.855  1.00  0.00     0.093 A 
ATOM     37  C   UNL     1     -18.192  80.821  -0.778  1.00  0.00     0.123 A 
BRANCH  28  38
ATOM     38  C   UNL     1     -22.009  77.345   2.413  1.00  0.00     0.025 A 
ATOM     39  C   UNL     1     -21.345  76.756   3.518  1.00  0.00     0.062 A 
ATOM     40  C   UNL     1     -23.147  76.730   1.941  1.00  0.00     0.016 A 
ATOM     41  C   UNL     1     -21.605  75.355   3.836  1.00  0.00     0.158 A 
ATOM     42  C   UNL     1     -23.389  75.396   2.166  1.00  0.00     0.051 A 
ATOM     43  C   UNL     1     -22.669  74.692   3.150  1.00  0.00     0.157 A 
BRANCH  41  44
ATOM     44  O   UNL     1     -20.906  74.834   4.901  1.00  0.00    -0.504 OA
ATOM     45  H   UNL     1     -20.366  73.999   4.789  1.00  0.00     0.293 HD
ENDBRANCH  41  44
BRANCH  43  46
ATOM     46  O   UNL     1     -23.065  73.337   3.515  1.00  0.00    -0.504 OA
ATOM     47  H   UNL     1     -22.696  72.557   2.951  1.00  0.00     0.293 HD
ENDBRANCH  43  46
ENDBRANCH  28  38
BRANCH  34  48
ATOM     48  O   UNL     1     -20.962  83.315  -0.043  1.00  0.00    -0.507 OA
ATOM     49  H   UNL     1     -21.206  83.571  -1.015  1.00  0.00     0.293 HD
ENDBRANCH  34  48
BRANCH  37  50
ATOM     50  O   UNL     1     -17.004  80.670  -1.546  1.00  0.00    -0.508 OA
ATOM     51  H   UNL     1     -16.557  79.760  -1.701  1.00  0.00     0.293 HD
ENDBRANCH  37  50
ENDBRANCH  26  27
ENDBRANCH   5  26
BRANCH   4  52
ATOM     52  O   UNL     1     -22.859  82.517   5.666  1.00  0.00    -0.384 OA
ATOM     53  H   UNL     1     -22.691  82.010   6.521  1.00  0.00     0.211 HD
ENDBRANCH   4  52
TORSDOF 16
ENDMDL
MODEL 6
REMARK VINA RESULT:    -0.930      2.318      9.760
REMARK INTER + INTRA:          -3.622
REMARK INTER:                  -2.487
REMARK INTRA:                  -1.135
REMARK UNBOUND:                -2.094
REMARK SMILES C[C@H]1O[C@@H](OC[C@@H]2O[C@H](Oc3c(-c4ccc(O)c(O)c4)oc4cc(O)cc(O)c4c3=O)[C@H](O)[C@@H](O)[C@H]2O)[C@H](O)[C@H](O)[C@@H]1O
REMARK SMILES IDX 7 1 36 2 34 3 32 4 9 5 8 6 6 7 5 8 4 9 1 10 2 11 42 12 3 13
REMARK SMILES IDX 40 14 38 15 43 16 41 18 39 20 37 22 35 24 10 26 11 27 12 28
REMARK SMILES IDX 30 29 21 30 29 31 31 32 22 33 27 34 23 35 26 36 24 37 13 38
REMARK SMILES IDX 20 39 14 40 18 41 15 42 16 43 19 44 17 46 28 48 25 50 33 52
REMARK H PARENT 43 17 41 19 39 21 37 23 35 25 19 45 17 47 28 49 25 51 33 53
REMARK Flexibility Score: inf
ROOT
ATOM      1  C   UNL     1     -26.160  81.473   4.060  1.00  0.00     0.180 C 
ATOM      2  C   UNL     1     -26.708  81.055   5.481  1.00  0.00     0.177 C 
ATOM      3  C   UNL     1     -26.922  79.551   5.361  1.00  0.00     0.180 C 
ATOM      4  C   UNL     1     -27.938  79.431   4.128  1.00  0.00     0.214 C 
ATOM      5  C   UNL     1     -28.490  80.953   3.576  1.00  0.00     0.339 C 
ATOM      6  O   UNL     1     -27.276  81.707   3.174  1.00  0.00    -0.332 OA
ENDROOT
BRANCH   1   7
ATOM      7  C   UNL     1     -24.565  81.932   3.972  1.00  0.00     0.198 C 
BRANCH   7   8
ATOM      8  O   UNL     1     -23.695  80.663   3.950  1.00  0.00    -0.347 OA
BRANCH   8   9
ATOM      9  C   UNL     1     -22.464  80.615   3.131  1.00  0.00     0.281 C 
ATOM     10  C   UNL     1     -22.381  83.340   1.439  1.00  0.00     0.041 C 
ATOM     11  C   UNL     1     -21.275  82.473   1.879  1.00  0.00     0.150 C 
ATOM     12  C   UNL     1     -21.031  81.354   0.802  1.00  0.00     0.174 C 
ATOM     13  O   UNL     1     -21.720  81.823   3.097  1.00  0.00    -0.344 OA
ATOM     14  C   UNL     1     -22.236  80.453   0.495  1.00  0.00     0.179 C 
ATOM     15  C   UNL     1     -22.640  79.657   1.747  1.00  0.00     0.202 C 
BRANCH  12  16
ATOM     16  O   UNL     1     -19.913  80.517   1.196  1.00  0.00    -0.388 OA
ATOM     17  H   UNL     1     -20.062  80.070   2.107  1.00  0.00     0.211 HD
ENDBRANCH  12  16
BRANCH  14  18
ATOM     18  O   UNL     1     -22.076  79.579  -0.588  1.00  0.00    -0.387 OA
ATOM     19  H   UNL     1     -22.973  79.358  -0.995  1.00  0.00     0.211 HD
ENDBRANCH  14  18
BRANCH  15  20
ATOM     20  O   UNL     1     -21.890  78.414   1.657  1.00  0.00    -0.385 OA
ATOM     21  H   UNL     1     -22.637  77.734   1.776  1.00  0.00     0.211 HD
ENDBRANCH  15  20
ENDBRANCH   8   9
ENDBRANCH   7   8
ENDBRANCH   1   7
BRANCH   2  22
ATOM     22  O   UNL     1     -26.133  81.856   6.480  1.00  0.00    -0.387 OA
ATOM     23  H   UNL     1     -25.404  82.420   5.993  1.00  0.00     0.211 HD
ENDBRANCH   2  22
BRANCH   3  24
ATOM     24  O   UNL     1     -25.616  79.039   5.195  1.00  0.00    -0.387 OA
ATOM     25  H   UNL     1     -25.041  79.846   5.240  1.00  0.00     0.211 HD
ENDBRANCH   3  24
BRANCH   5  26
ATOM     26  O   UNL     1     -29.332  81.958   4.471  1.00  0.00    -0.454 OA
BRANCH  26  27
ATOM     27  C   UNL     1     -29.967  81.672   5.771  1.00  0.00     0.214 A 
ATOM     28  C   UNL     1     -30.994  80.631   6.146  1.00  0.00     0.180 A 
ATOM     29  C   UNL     1     -29.224  82.185   6.967  1.00  0.00     0.239 A 
ATOM     30  O   UNL     1     -31.238  80.374   7.496  1.00  0.00    -0.452 OA
ATOM     31  C   UNL     1     -29.348  81.534   8.272  1.00  0.00     0.111 A 
ATOM     32  O   UNL     1     -28.579  83.283   6.694  1.00  0.00    -0.285 OA
ATOM     33  C   UNL     1     -30.539  80.771   8.543  1.00  0.00     0.146 A 
ATOM     34  C   UNL     1     -28.329  81.374   9.307  1.00  0.00     0.134 A 
ATOM     35  C   UNL     1     -30.813  80.138   9.803  1.00  0.00     0.094 A 
ATOM     36  C   UNL     1     -28.581  80.626  10.522  1.00  0.00     0.093 A 
ATOM     37  C   UNL     1     -29.883  80.161  10.833  1.00  0.00     0.123 A 
BRANCH  28  38
ATOM     38  C   UNL     1     -32.117  80.024   5.192  1.00  0.00     0.025 A 
ATOM     39  C   UNL     1     -31.704  79.426   3.975  1.00  0.00     0.062 A 
ATOM     40  C   UNL     1     -33.404  79.789   5.622  1.00  0.00     0.016 A 
ATOM     41  C   UNL     1     -32.719  78.967   3.031  1.00  0.00     0.158 A 
ATOM     42  C   UNL     1     -34.398  79.420   4.748  1.00  0.00     0.051 A 
ATOM     43  C   UNL     1     -34.083  78.950   3.459  1.00  0.00     0.157 A 
BRANCH  41  44
ATOM     44  O   UNL     1     -32.254  78.424   1.855  1.00  0.00    -0.504 OA
ATOM     45  H   UNL     1     -31.340  78.658   1.519  1.00  0.00     0.293 HD
ENDBRANCH  41  44
BRANCH  43  46
ATOM     46  O   UNL     1     -35.125  78.379   2.615  1.00  0.00    -0.504 OA
ATOM     47  H   UNL     1     -34.834  77.818   1.800  1.00  0.00     0.293 HD
ENDBRANCH  43  46
ENDBRANCH  28  38
BRANCH  34  48
ATOM     48  O   UNL     1     -26.993  81.691   8.898  1.00  0.00    -0.507 OA
ATOM     49  H   UNL     1     -26.612  82.598   9.214  1.00  0.00     0.293 HD
ENDBRANCH  34  48
BRANCH  37  50
ATOM     50  O   UNL     1     -30.223  79.673  12.125  1.00  0.00    -0.508 OA
ATOM     51  H   UNL     1     -30.452  78.689  12.302  1.00  0.00     0.293 HD
ENDBRANCH  37  50
ENDBRANCH  26  27
ENDBRANCH   5  26
BRANCH   4  52
ATOM     52  O   UNL     1     -28.988  78.481   4.318  1.00  0.00    -0.384 OA
ATOM     53  H   UNL     1     -28.587  77.574   4.494  1.00  0.00     0.211 HD
ENDBRANCH   4  52
TORSDOF 16
ENDMDL
MODEL 7
REMARK VINA RESULT:    -0.414      6.799     12.360
REMARK INTER + INTRA:          -2.774
REMARK INTER:                  -2.226
REMARK INTRA:                  -0.548
REMARK UNBOUND:                -2.094
REMARK SMILES C[C@H]1O[C@@H](OC[C@@H]2O[C@H](Oc3c(-c4ccc(O)c(O)c4)oc4cc(O)cc(O)c4c3=O)[C@H](O)[C@@H](O)[C@H]2O)[C@H](O)[C@H](O)[C@@H]1O
REMARK SMILES IDX 7 1 36 2 34 3 32 4 9 5 8 6 6 7 5 8 4 9 1 10 2 11 42 12 3 13
REMARK SMILES IDX 40 14 38 15 43 16 41 18 39 20 37 22 35 24 10 26 11 27 12 28
REMARK SMILES IDX 30 29 21 30 29 31 31 32 22 33 27 34 23 35 26 36 24 37 13 38
REMARK SMILES IDX 20 39 14 40 18 41 15 42 16 43 19 44 17 46 28 48 25 50 33 52
REMARK H PARENT 43 17 41 19 39 21 37 23 35 25 19 45 17 47 28 49 25 51 33 53
REMARK Flexibility Score: inf
ROOT
ATOM      1  C   UNL     1     -23.209  68.061   2.413  1.00  0.00     0.180 C 
ATOM      2  C   UNL     1     -22.701  69.443   2.982  1.00  0.00     0.177 C 
ATOM      3  C   UNL     1     -23.847  69.915   3.869  1.00  0.00     0.180 C 
ATOM      4  C   UNL     1     -25.087  69.961   2.857  1.00  0.00     0.214 C 
ATOM      5  C   UNL     1     -24.631  69.650   1.237  1.00  0.00     0.339 C 
ATOM      6  O   UNL     1     -24.013  68.301   1.238  1.00  0.00    -0.332 OA
ENDROOT
BRANCH   1   7
ATOM      7  C   UNL     1     -22.451  66.691   2.971  1.00  0.00     0.198 C 
BRANCH   7   8
ATOM      8  O   UNL     1     -20.987  67.040   3.289  1.00  0.00    -0.347 OA
BRANCH   8   9
ATOM      9  C   UNL     1     -20.452  66.849   4.655  1.00  0.00     0.281 C 
ATOM     10  C   UNL     1     -21.197  69.494   6.312  1.00  0.00     0.041 C 
ATOM     11  C   UNL     1     -20.961  68.121   6.790  1.00  0.00     0.150 C 
ATOM     12  C   UNL     1     -19.426  67.924   7.067  1.00  0.00     0.174 C 
ATOM     13  O   UNL     1     -21.329  67.236   5.701  1.00  0.00    -0.344 OA
ATOM     14  C   UNL     1     -18.498  68.166   5.868  1.00  0.00     0.179 C 
ATOM     15  C   UNL     1     -18.789  67.149   4.752  1.00  0.00     0.202 C 
BRANCH  12  16
ATOM     16  O   UNL     1     -19.180  66.591   7.583  1.00  0.00    -0.388 OA
ATOM     17  H   UNL     1     -18.555  66.596   8.396  1.00  0.00     0.211 HD
ENDBRANCH  12  16
BRANCH  14  18
ATOM     18  O   UNL     1     -17.127  68.169   6.156  1.00  0.00    -0.387 OA
ATOM     19  H   UNL     1     -16.917  68.872   6.850  1.00  0.00     0.211 HD
ENDBRANCH  14  18
BRANCH  15  20
ATOM     20  O   UNL     1     -17.892  66.036   5.018  1.00  0.00    -0.385 OA
ATOM     21  H   UNL     1     -17.724  66.161   6.012  1.00  0.00     0.211 HD
ENDBRANCH  15  20
ENDBRANCH   8   9
ENDBRANCH   7   8
ENDBRANCH   1   7
BRANCH   2  22
ATOM     22  O   UNL     1     -21.309  69.413   3.164  1.00  0.00    -0.387 OA
ATOM     23  H   UNL     1     -20.907  69.474   2.204  1.00  0.00     0.211 HD
ENDBRANCH   2  22
BRANCH   3  24
ATOM     24  O   UNL     1     -23.877  68.963   4.912  1.00  0.00    -0.387 OA
ATOM     25  H   UNL     1     -24.829  68.689   4.951  1.00  0.00     0.211 HD
ENDBRANCH   3  24
BRANCH   5  26
ATOM     26  O   UNL     1     -23.631  70.571   0.417  1.00  0.00    -0.454 OA
BRANCH  26  27
ATOM     27  C   UNL     1     -23.394  72.014   0.604  1.00  0.00     0.214 A 
ATOM     28  C   UNL     1     -24.263  73.198   0.258  1.00  0.00     0.180 A 
ATOM     29  C   UNL     1     -22.359  72.358   1.633  1.00  0.00     0.239 A 
ATOM     30  O   UNL     1     -23.945  74.451   0.783  1.00  0.00    -0.452 OA
ATOM     31  C   UNL     1     -22.404  73.630   2.356  1.00  0.00     0.111 A 
ATOM     32  O   UNL     1     -21.429  71.450   1.698  1.00  0.00    -0.285 OA
ATOM     33  C   UNL     1     -23.082  74.742   1.739  1.00  0.00     0.146 A 
ATOM     34  C   UNL     1     -22.021  73.902   3.739  1.00  0.00     0.134 A 
ATOM     35  C   UNL     1     -23.143  76.057   2.311  1.00  0.00     0.094 A 
ATOM     36  C   UNL     1     -22.202  75.207   4.342  1.00  0.00     0.093 A 
ATOM     37  C   UNL     1     -22.604  76.320   3.562  1.00  0.00     0.123 A 
BRANCH  28  38
ATOM     38  C   UNL     1     -25.314  73.282  -0.938  1.00  0.00     0.025 A 
ATOM     39  C   UNL     1     -24.822  73.196  -2.264  1.00  0.00     0.062 A 
ATOM     40  C   UNL     1     -26.669  73.133  -0.742  1.00  0.00     0.016 A 
ATOM     41  C   UNL     1     -25.748  73.386  -3.377  1.00  0.00     0.158 A 
ATOM     42  C   UNL     1     -27.572  73.368  -1.751  1.00  0.00     0.051 A 
ATOM     43  C   UNL     1     -27.147  73.444  -3.091  1.00  0.00     0.157 A 
BRANCH  41  44
ATOM     44  O   UNL     1     -25.202  73.320  -4.639  1.00  0.00    -0.504 OA
ATOM     45  H   UNL     1     -25.797  73.304  -5.444  1.00  0.00     0.293 HD
ENDBRANCH  41  44
BRANCH  43  46
ATOM     46  O   UNL     1     -28.129  73.498  -4.166  1.00  0.00    -0.504 OA
ATOM     47  H   UNL     1     -27.845  73.928  -5.059  1.00  0.00     0.293 HD
ENDBRANCH  43  46
ENDBRANCH  28  38
BRANCH  34  48
ATOM     48  O   UNL     1     -21.791  72.741   4.545  1.00  0.00    -0.507 OA
ATOM     49  H   UNL     1     -20.978  72.153   4.295  1.00  0.00     0.293 HD
ENDBRANCH  34  48
BRANCH  37  50
ATOM     50  O   UNL     1     -22.526  77.653   4.051  1.00  0.00    -0.508 OA
ATOM     51  H   UNL     1     -22.695  77.893   5.034  1.00  0.00     0.293 HD
ENDBRANCH  37  50
ENDBRANCH  26  27
ENDBRANCH   5  26
BRANCH   4  52
ATOM     52  O   UNL     1     -25.926  71.108   3.000  1.00  0.00    -0.384 OA
ATOM     53  H   UNL     1     -26.151  71.234   3.974  1.00  0.00     0.211 HD
ENDBRANCH   4  52
TORSDOF 16
ENDMDL
MODEL 8
REMARK VINA RESULT:    -0.384      5.032      9.652
REMARK INTER + INTRA:          -2.725
REMARK INTER:                  -3.089
REMARK INTRA:                   0.364
REMARK UNBOUND:                -2.094
REMARK SMILES C[C@H]1O[C@@H](OC[C@@H]2O[C@H](Oc3c(-c4ccc(O)c(O)c4)oc4cc(O)cc(O)c4c3=O)[C@H](O)[C@@H](O)[C@H]2O)[C@H](O)[C@H](O)[C@@H]1O
REMARK SMILES IDX 7 1 36 2 34 3 32 4 9 5 8 6 6 7 5 8 4 9 1 10 2 11 42 12 3 13
REMARK SMILES IDX 40 14 38 15 43 16 41 18 39 20 37 22 35 24 10 26 11 27 12 28
REMARK SMILES IDX 30 29 21 30 29 31 31 32 22 33 27 34 23 35 26 36 24 37 13 38
REMARK SMILES IDX 20 39 14 40 18 41 15 42 16 43 19 44 17 46 28 48 25 50 33 52
REMARK H PARENT 43 17 41 19 39 21 37 23 35 25 19 45 17 47 28 49 25 51 33 53
REMARK Flexibility Score: inf
ROOT
ATOM      1  C   UNL     1     -21.094  77.945   2.009  1.00  0.00     0.180 C 
ATOM      2  C   UNL     1     -22.552  77.980   1.403  1.00  0.00     0.177 C 
ATOM      3  C   UNL     1     -23.393  78.593   2.516  1.00  0.00     0.180 C 
ATOM      4  C   UNL     1     -23.143  77.598   3.745  1.00  0.00     0.214 C 
ATOM      5  C   UNL     1     -22.226  76.221   3.305  1.00  0.00     0.339 C 
ATOM      6  O   UNL     1     -20.935  76.739   2.787  1.00  0.00    -0.332 OA
ENDROOT
BRANCH   1   7
ATOM      7  C   UNL     1     -19.981  78.993   1.356  1.00  0.00     0.198 C 
BRANCH   7   8
ATOM      8  O   UNL     1     -20.036  80.313   2.144  1.00  0.00    -0.347 OA
BRANCH   8   9
ATOM      9  C   UNL     1     -21.132  81.280   1.907  1.00  0.00     0.281 C 
ATOM     10  C   UNL     1     -19.965  83.525  -0.066  1.00  0.00     0.041 C 
ATOM     11  C   UNL     1     -21.354  83.077   0.131  1.00  0.00     0.150 C 
ATOM     12  C   UNL     1     -22.005  83.904   1.299  1.00  0.00     0.174 C 
ATOM     13  O   UNL     1     -21.284  81.693   0.558  1.00  0.00    -0.344 OA
ATOM     14  C   UNL     1     -21.290  83.817   2.654  1.00  0.00     0.179 C 
ATOM     15  C   UNL     1     -21.322  82.374   3.184  1.00  0.00     0.202 C 
BRANCH  12  16
ATOM     16  O   UNL     1     -23.390  83.510   1.477  1.00  0.00    -0.388 OA
ATOM     17  H   UNL     1     -23.915  84.177   2.052  1.00  0.00     0.211 HD
ENDBRANCH  12  16
BRANCH  14  18
ATOM     18  O   UNL     1     -21.761  84.692   3.643  1.00  0.00    -0.387 OA
ATOM     19  H   UNL     1     -21.843  85.627   3.271  1.00  0.00     0.211 HD
ENDBRANCH  14  18
BRANCH  15  20
ATOM     20  O   UNL     1     -22.527  82.300   3.995  1.00  0.00    -0.385 OA
ATOM     21  H   UNL     1     -22.127  82.100   4.908  1.00  0.00     0.211 HD
ENDBRANCH  15  20
ENDBRANCH   8   9
ENDBRANCH   7   8
ENDBRANCH   1   7
BRANCH   2  22
ATOM     22  O   UNL     1     -22.499  78.204   0.018  1.00  0.00    -0.387 OA
ATOM     23  H   UNL     1     -21.595  78.696  -0.145  1.00  0.00     0.211 HD
ENDBRANCH   2  22
BRANCH   3  24
ATOM     24  O   UNL     1     -22.899  79.913   2.621  1.00  0.00    -0.387 OA
ATOM     25  H   UNL     1     -22.025  79.800   3.076  1.00  0.00     0.211 HD
ENDBRANCH   3  24
BRANCH   5  26
ATOM     26  O   UNL     1     -22.709  75.152   2.236  1.00  0.00    -0.454 OA
BRANCH  26  27
ATOM     27  C   UNL     1     -23.176  73.778   2.501  1.00  0.00     0.214 A 
ATOM     28  C   UNL     1     -23.685  72.721   1.552  1.00  0.00     0.180 A 
ATOM     29  C   UNL     1     -22.714  73.191   3.801  1.00  0.00     0.239 A 
ATOM     30  O   UNL     1     -23.807  71.406   2.001  1.00  0.00    -0.452 OA
ATOM     31  C   UNL     1     -22.565  71.744   3.967  1.00  0.00     0.111 A 
ATOM     32  O   UNL     1     -22.577  74.106   4.716  1.00  0.00    -0.285 OA
ATOM     33  C   UNL     1     -23.337  70.876   3.116  1.00  0.00     0.146 A 
ATOM     34  C   UNL     1     -21.575  71.019   4.759  1.00  0.00     0.134 A 
ATOM     35  C   UNL     1     -23.332  69.444   3.219  1.00  0.00     0.094 A 
ATOM     36  C   UNL     1     -21.502  69.572   4.758  1.00  0.00     0.093 A 
ATOM     37  C   UNL     1     -22.499  68.794   4.119  1.00  0.00     0.123 A 
BRANCH  28  38
ATOM     38  C   UNL     1     -24.455  72.976   0.179  1.00  0.00     0.025 A 
ATOM     39  C   UNL     1     -23.719  72.867  -1.027  1.00  0.00     0.062 A 
ATOM     40  C   UNL     1     -25.830  72.997   0.096  1.00  0.00     0.016 A 
ATOM     41  C   UNL     1     -24.371  73.209  -2.288  1.00  0.00     0.158 A 
ATOM     42  C   UNL     1     -26.475  73.378  -1.056  1.00  0.00     0.051 A 
ATOM     43  C   UNL     1     -25.781  73.439  -2.280  1.00  0.00     0.157 A 
BRANCH  41  44
ATOM     44  O   UNL     1     -23.593  73.112  -3.420  1.00  0.00    -0.504 OA
ATOM     45  H   UNL     1     -23.017  73.880  -3.702  1.00  0.00     0.293 HD
ENDBRANCH  41  44
BRANCH  43  46
ATOM     46  O   UNL     1     -26.512  73.651  -3.523  1.00  0.00    -0.504 OA
ATOM     47  H   UNL     1     -27.249  72.975  -3.772  1.00  0.00     0.293 HD
ENDBRANCH  43  46
ENDBRANCH  28  38
BRANCH  34  48
ATOM     48  O   UNL     1     -20.486  71.813   5.245  1.00  0.00    -0.507 OA
ATOM     49  H   UNL     1     -20.534  72.117   6.232  1.00  0.00     0.293 HD
ENDBRANCH  34  48
BRANCH  37  50
ATOM     50  O   UNL     1     -22.613  67.392   4.327  1.00  0.00    -0.508 OA
ATOM     51  H   UNL     1     -21.878  66.838   4.779  1.00  0.00     0.293 HD
ENDBRANCH  37  50
ENDBRANCH  26  27
ENDBRANCH   5  26
BRANCH   4  52
ATOM     52  O   UNL     1     -24.315  77.281   4.498  1.00  0.00    -0.384 OA
ATOM     53  H   UNL     1     -24.499  76.293   4.424  1.00  0.00     0.211 HD
ENDBRANCH   4  52
TORSDOF 16
ENDMDL
MODEL 9
REMARK VINA RESULT:     0.119      1.297      2.459
REMARK INTER + INTRA:          -1.898
REMARK INTER:                  -1.903
REMARK INTRA:                   0.004
REMARK UNBOUND:                -2.094
REMARK SMILES C[C@H]1O[C@@H](OC[C@@H]2O[C@H](Oc3c(-c4ccc(O)c(O)c4)oc4cc(O)cc(O)c4c3=O)[C@H](O)[C@@H](O)[C@H]2O)[C@H](O)[C@H](O)[C@@H]1O
REMARK SMILES IDX 7 1 36 2 34 3 32 4 9 5 8 6 6 7 5 8 4 9 1 10 2 11 42 12 3 13
REMARK SMILES IDX 40 14 38 15 43 16 41 18 39 20 37 22 35 24 10 26 11 27 12 28
REMARK SMILES IDX 30 29 21 30 29 31 31 32 22 33 27 34 23 35 26 36 24 37 13 38
REMARK SMILES IDX 20 39 14 40 18 41 15 42 16 43 19 44 17 46 28 48 25 50 33 52
REMARK H PARENT 43 17 41 19 39 21 37 23 35 25 19 45 17 47 28 49 25 51 33 53
REMARK Flexibility Score: inf
ROOT
ATOM      1  C   UNL     1     -27.055  81.467   5.632  1.00  0.00     0.180 C 
ATOM      2  C   UNL     1     -27.549  80.429   4.550  1.00  0.00     0.177 C 
ATOM      3  C   UNL     1     -27.729  79.138   5.338  1.00  0.00     0.180 C 
ATOM      4  C   UNL     1     -26.275  78.894   5.964  1.00  0.00     0.214 C 
ATOM      5  C   UNL     1     -25.114  80.015   5.393  1.00  0.00     0.339 C 
ATOM      6  O   UNL     1     -25.622  81.357   5.770  1.00  0.00    -0.332 OA
ENDROOT
BRANCH   1   7
ATOM      7  C   UNL     1     -28.117  82.669   6.065  1.00  0.00     0.198 C 
BRANCH   7   8
ATOM      8  O   UNL     1     -29.044  82.125   7.166  1.00  0.00    -0.347 OA
BRANCH   8   9
ATOM      9  C   UNL     1     -30.473  81.868   6.881  1.00  0.00     0.281 C 
ATOM     10  C   UNL     1     -31.310  79.306   8.622  1.00  0.00     0.041 C 
ATOM     11  C   UNL     1     -32.140  80.417   8.126  1.00  0.00     0.150 C 
ATOM     12  C   UNL     1     -32.656  80.075   6.680  1.00  0.00     0.174 C 
ATOM     13  O   UNL     1     -31.266  81.569   8.019  1.00  0.00    -0.344 OA
ATOM     14  C   UNL     1     -31.567  79.802   5.633  1.00  0.00     0.179 C 
ATOM     15  C   UNL     1     -30.710  81.060   5.414  1.00  0.00     0.202 C 
BRANCH  12  16
ATOM     16  O   UNL     1     -33.514  81.138   6.193  1.00  0.00    -0.388 OA
ATOM     17  H   UNL     1     -33.435  81.992   6.754  1.00  0.00     0.211 HD
ENDBRANCH  12  16
BRANCH  14  18
ATOM     18  O   UNL     1     -32.024  79.322   4.398  1.00  0.00    -0.387 OA
ATOM     19  H   UNL     1     -32.684  79.969   3.994  1.00  0.00     0.211 HD
ENDBRANCH  14  18
BRANCH  15  20
ATOM     20  O   UNL     1     -31.359  81.768   4.321  1.00  0.00    -0.385 OA
ATOM     21  H   UNL     1     -30.626  82.420   4.058  1.00  0.00     0.211 HD
ENDBRANCH  15  20
ENDBRANCH   8   9
ENDBRANCH   7   8
ENDBRANCH   1   7
BRANCH   2  22
ATOM     22  O   UNL     1     -28.342  81.071   3.585  1.00  0.00    -0.387 OA
ATOM     23  H   UNL     1     -27.667  81.550   2.951  1.00  0.00     0.211 HD
ENDBRANCH   2  22
BRANCH   3  24
ATOM     24  O   UNL     1     -28.790  79.431   6.224  1.00  0.00    -0.387 OA
ATOM     25  H   UNL     1     -28.652  80.387   6.446  1.00  0.00     0.211 HD
ENDBRANCH   3  24
BRANCH   5  26
ATOM     26  O   UNL     1     -24.691  80.138   3.867  1.00  0.00    -0.454 OA
BRANCH  26  27
ATOM     27  C   UNL     1     -23.331  80.338   3.335  1.00  0.00     0.214 A 
ATOM     28  C   UNL     1     -22.406  79.373   2.634  1.00  0.00     0.180 A 
ATOM     29  C   UNL     1     -22.955  81.766   3.074  1.00  0.00     0.239 A 
ATOM     30  O   UNL     1     -21.279  79.867   1.977  1.00  0.00    -0.452 OA
ATOM     31  C   UNL     1     -21.964  82.113   2.055  1.00  0.00     0.111 A 
ATOM     32  O   UNL     1     -23.538  82.574   3.911  1.00  0.00    -0.285 OA
ATOM     33  C   UNL     1     -20.986  81.121   1.687  1.00  0.00     0.146 A 
ATOM     34  C   UNL     1     -21.930  83.286   1.184  1.00  0.00     0.134 A 
ATOM     35  C   UNL     1     -19.923  81.356   0.751  1.00  0.00     0.094 A 
ATOM     36  C   UNL     1     -20.921  83.450   0.158  1.00  0.00     0.093 A 
ATOM     37  C   UNL     1     -19.822  82.560   0.069  1.00  0.00     0.123 A 
BRANCH  28  38
ATOM     38  C   UNL     1     -22.351  77.794   2.846  1.00  0.00     0.025 A 
ATOM     39  C   UNL     1     -23.234  76.988   2.085  1.00  0.00     0.062 A 
ATOM     40  C   UNL     1     -21.307  77.172   3.494  1.00  0.00     0.016 A 
ATOM     41  C   UNL     1     -23.285  75.552   2.345  1.00  0.00     0.158 A 
ATOM     42  C   UNL     1     -21.351  75.836   3.812  1.00  0.00     0.051 A 
ATOM     43  C   UNL     1     -22.297  74.986   3.209  1.00  0.00     0.157 A 
BRANCH  41  44
ATOM     44  O   UNL     1     -24.184  74.830   1.594  1.00  0.00    -0.504 OA
ATOM     45  H   UNL     1     -24.899  74.293   2.044  1.00  0.00     0.293 HD
ENDBRANCH  41  44
BRANCH  43  46
ATOM     46  O   UNL     1     -22.211  73.543   3.403  1.00  0.00    -0.504 OA
ATOM     47  H   UNL     1     -22.915  72.951   2.939  1.00  0.00     0.293 HD
ENDBRANCH  43  46
ENDBRANCH  28  38
BRANCH  34  48
ATOM     48  O   UNL     1     -23.131  84.066   1.170  1.00  0.00    -0.507 OA
ATOM     49  H   UNL     1     -23.199  84.806   0.451  1.00  0.00     0.293 HD
ENDBRANCH  34  48
BRANCH  37  50
ATOM     50  O   UNL     1     -18.681  82.844  -0.733  1.00  0.00    -0.508 OA
ATOM     51  H   UNL     1     -17.810  83.218  -0.342  1.00  0.00     0.293 HD
ENDBRANCH  37  50
ENDBRANCH  26  27
ENDBRANCH   5  26
BRANCH   4  52
ATOM     52  O   UNL     1     -25.827  77.538   5.912  1.00  0.00    -0.384 OA
ATOM     53  H   UNL     1     -24.936  77.502   5.443  1.00  0.00     0.211 HD
ENDBRANCH   4  52
TORSDOF 16
ENDMDL
