MODEL 1
REMARK VINA RESULT:    -1.515      0.000      0.000
REMARK INTER + INTRA:          -2.200
REMARK INTER:                  -2.224
REMARK INTRA:                   0.024
REMARK UNBOUND:                 0.024
REMARK SMILES O=C([O-])CCCCCCCC(=O)[O-]
REMARK SMILES IDX 7 1 6 2 5 3 4 4 2 5 1 6 3 7 8 8 9 9 10 10 11 11 12 12 13 13
REMARK H PARENT
REMARK Flexibility Score: inf
ROOT
ATOM      1  C   UNL     1       9.923  15.012  -0.733  1.00  0.00     0.000 C 
ENDROOT
BRANCH   1   2
ATOM      2  C   UNL     1       8.699  14.626   0.107  1.00  0.00     0.000 C 
BRANCH   2   3
ATOM      3  C   UNL     1       8.989  14.780   1.607  1.00  0.00     0.006 C 
BRANCH   3   4
ATOM      4  C   UNL     1       8.657  16.185   2.122  1.00  0.00     0.053 C 
BRANCH   4   5
ATOM      5  C   UNL     1       9.512  17.231   1.474  1.00  0.00     0.041 C 
ATOM      6  O   UNL     1       8.998  18.081   0.700  1.00  0.00    -0.550 OA
ATOM      7  O   UNL     1      10.882  17.247   1.699  1.00  0.00    -0.550 OA
ENDBRANCH   4   5
ENDBRANCH   3   4
ENDBRANCH   2   3
ENDBRANCH   1   2
BRANCH   1   8
ATOM      8  C   UNL     1      10.545  13.779  -1.398  1.00  0.00     0.000 C 
BRANCH   8   9
ATOM      9  C   UNL     1      11.905  13.441  -0.768  1.00  0.00     0.006 C 
BRANCH   9  10
ATOM     10  C   UNL     1      11.764  12.875   0.651  1.00  0.00     0.053 C 
BRANCH  10  11
ATOM     11  C   UNL     1      12.702  13.541   1.610  1.00  0.00     0.041 C 
ATOM     12  O   UNL     1      13.754  12.954   1.980  1.00  0.00    -0.550 OA
ATOM     13  O   UNL     1      12.431  14.823   2.070  1.00  0.00    -0.550 OA
ENDBRANCH  10  11
ENDBRANCH   9  10
ENDBRANCH   8   9
ENDBRANCH   1   8
TORSDOF 8
ENDMDL
MODEL 2
REMARK VINA RESULT:    -1.425      2.577      3.455
REMARK INTER + INTRA:          -2.067
REMARK INTER:                  -2.101
REMARK INTRA:                   0.034
REMARK UNBOUND:                 0.024
REMARK SMILES O=C([O-])CCCCCCCC(=O)[O-]
REMARK SMILES IDX 7 1 6 2 5 3 4 4 2 5 1 6 3 7 8 8 9 9 10 10 11 11 12 12 13 13
REMARK H PARENT
REMARK Flexibility Score: inf
ROOT
ATOM      1  C   UNL     1      11.509  16.148   1.166  1.00  0.00     0.000 C 
ENDROOT
BRANCH   1   2
ATOM      2  C   UNL     1      10.474  17.055   1.842  1.00  0.00     0.000 C 
BRANCH   2   3
ATOM      3  C   UNL     1       9.111  16.953   1.142  1.00  0.00     0.006 C 
BRANCH   3   4
ATOM      4  C   UNL     1       7.981  16.603   2.117  1.00  0.00     0.053 C 
BRANCH   4   5
ATOM      5  C   UNL     1       7.668  15.138   2.101  1.00  0.00     0.041 C 
ATOM      6  O   UNL     1       8.598  14.290   2.125  1.00  0.00    -0.550 OA
ATOM      7  O   UNL     1       6.349  14.709   2.026  1.00  0.00    -0.550 OA
ENDBRANCH   4   5
ENDBRANCH   3   4
ENDBRANCH   2   3
ENDBRANCH   1   2
BRANCH   1   8
ATOM      8  C   UNL     1      11.840  14.938   2.046  1.00  0.00     0.000 C 
BRANCH   8   9
ATOM      9  C   UNL     1      11.547  13.623   1.308  1.00  0.00     0.006 C 
BRANCH   9  10
ATOM     10  C   UNL     1      11.964  13.679  -0.167  1.00  0.00     0.053 C 
BRANCH  10  11
ATOM     11  C   UNL     1      10.797  13.959  -1.064  1.00  0.00     0.041 C 
ATOM     12  O   UNL     1       9.621  13.858  -0.625  1.00  0.00    -0.550 OA
ATOM     13  O   UNL     1      11.010  14.362  -2.375  1.00  0.00    -0.550 OA
ENDBRANCH  10  11
ENDBRANCH   9  10
ENDBRANCH   8   9
ENDBRANCH   1   8
TORSDOF 8
ENDMDL
MODEL 3
REMARK VINA RESULT:    -1.133      2.516      4.898
REMARK INTER + INTRA:          -1.638
REMARK INTER:                  -1.476
REMARK INTRA:                  -0.163
REMARK UNBOUND:                 0.024
REMARK SMILES O=C([O-])CCCCCCCC(=O)[O-]
REMARK SMILES IDX 7 1 6 2 5 3 4 4 2 5 1 6 3 7 8 8 9 9 10 10 11 11 12 12 13 13
REMARK H PARENT
REMARK Flexibility Score: inf
ROOT
ATOM      1  C   UNL     1      11.123  16.574   1.086  1.00  0.00     0.000 C 
ENDROOT
BRANCH   1   2
ATOM      2  C   UNL     1      11.863  15.679   2.088  1.00  0.00     0.000 C 
BRANCH   2   3
ATOM      3  C   UNL     1      11.255  14.269   2.122  1.00  0.00     0.006 C 
BRANCH   3   4
ATOM      4  C   UNL     1      12.041  13.276   1.258  1.00  0.00     0.053 C 
BRANCH   4   5
ATOM      5  C   UNL     1      11.592  13.308  -0.171  1.00  0.00     0.041 C 
ATOM      6  O   UNL     1      12.414  13.569  -1.089  1.00  0.00    -0.550 OA
ATOM      7  O   UNL     1      10.259  13.080  -0.487  1.00  0.00    -0.550 OA
ENDBRANCH   4   5
ENDBRANCH   3   4
ENDBRANCH   2   3
ENDBRANCH   1   2
BRANCH   1   8
ATOM      8  C   UNL     1       9.999  17.357   1.774  1.00  0.00     0.000 C 
BRANCH   8   9
ATOM      9  C   UNL     1       8.637  17.041   1.136  1.00  0.00     0.006 C 
BRANCH   9  10
ATOM     10  C   UNL     1       7.674  16.372   2.125  1.00  0.00     0.053 C 
BRANCH  10  11
ATOM     11  C   UNL     1       7.402  14.946   1.757  1.00  0.00     0.041 C 
ATOM     12  O   UNL     1       8.271  14.272   1.142  1.00  0.00    -0.550 OA
ATOM     13  O   UNL     1       6.201  14.351   2.121  1.00  0.00    -0.550 OA
ENDBRANCH  10  11
ENDBRANCH   9  10
ENDBRANCH   8   9
ENDBRANCH   1   8
TORSDOF 8
ENDMDL
MODEL 4
REMARK VINA RESULT:    -1.129      2.161      3.309
REMARK INTER + INTRA:          -1.633
REMARK INTER:                  -2.340
REMARK INTRA:                   0.708
REMARK UNBOUND:                 0.024
REMARK SMILES O=C([O-])CCCCCCCC(=O)[O-]
REMARK SMILES IDX 7 1 6 2 5 3 4 4 2 5 1 6 3 7 8 8 9 9 10 10 11 11 12 12 13 13
REMARK H PARENT
REMARK Flexibility Score: inf
ROOT
ATOM      1  C   UNL     1      12.928  14.940   1.954  1.00  0.00     0.000 C 
ENDROOT
BRANCH   1   2
ATOM      2  C   UNL     1      11.506  15.488   2.123  1.00  0.00     0.000 C 
BRANCH   2   3
ATOM      3  C   UNL     1      11.443  16.978   1.756  1.00  0.00     0.006 C 
BRANCH   3   4
ATOM      4  C   UNL     1      10.141  17.345   1.035  1.00  0.00     0.053 C 
BRANCH   4   5
ATOM      5  C   UNL     1       8.944  16.748   1.712  1.00  0.00     0.041 C 
ATOM      6  O   UNL     1       8.869  15.503   1.885  1.00  0.00    -0.550 OA
ATOM      7  O   UNL     1       7.898  17.563   2.122  1.00  0.00    -0.550 OA
ENDBRANCH   4   5
ENDBRANCH   3   4
ENDBRANCH   2   3
ENDBRANCH   1   2
BRANCH   1   8
ATOM      8  C   UNL     1      12.915  13.414   1.804  1.00  0.00     0.000 C 
BRANCH   8   9
ATOM      9  C   UNL     1      12.383  13.001   0.424  1.00  0.00     0.006 C 
BRANCH   9  10
ATOM     10  C   UNL     1      10.864  13.185   0.308  1.00  0.00     0.053 C 
BRANCH  10  11
ATOM     11  C   UNL     1      10.485  13.887  -0.960  1.00  0.00     0.041 C 
ATOM     12  O   UNL     1       9.381  14.488  -1.047  1.00  0.00    -0.550 OA
ATOM     13  O   UNL     1      11.366  13.907  -2.033  1.00  0.00    -0.550 OA
ENDBRANCH  10  11
ENDBRANCH   9  10
ENDBRANCH   8   9
ENDBRANCH   1   8
TORSDOF 8
ENDMDL
MODEL 5
REMARK VINA RESULT:    -0.523      0.883      4.505
REMARK INTER + INTRA:          -0.744
REMARK INTER:                  -1.745
REMARK INTRA:                   1.001
REMARK UNBOUND:                 0.024
REMARK SMILES O=C([O-])CCCCCCCC(=O)[O-]
REMARK SMILES IDX 7 1 6 2 5 3 4 4 2 5 1 6 3 7 8 8 9 9 10 10 11 11 12 12 13 13
REMARK H PARENT
REMARK Flexibility Score: inf
ROOT
ATOM      1  C   UNL     1      10.476  15.040  -0.482  1.00  0.00     0.000 C 
ENDROOT
BRANCH   1   2
ATOM      2  C   UNL     1      11.691  14.181  -0.852  1.00  0.00     0.000 C 
BRANCH   2   3
ATOM      3  C   UNL     1      11.710  12.876  -0.044  1.00  0.00     0.006 C 
BRANCH   3   4
ATOM      4  C   UNL     1      11.733  13.129   1.469  1.00  0.00     0.053 C 
BRANCH   4   5
ATOM      5  C   UNL     1      13.023  13.751   1.907  1.00  0.00     0.041 C 
ATOM      6  O   UNL     1      14.038  13.032   2.108  1.00  0.00    -0.550 OA
ATOM      7  O   UNL     1      13.097  15.120   2.125  1.00  0.00    -0.550 OA
ENDBRANCH   4   5
ENDBRANCH   3   4
ENDBRANCH   2   3
ENDBRANCH   1   2
BRANCH   1   8
ATOM      8  C   UNL     1       9.349  14.179   0.099  1.00  0.00     0.000 C 
BRANCH   8   9
ATOM      9  C   UNL     1       9.087  14.536   1.570  1.00  0.00     0.006 C 
BRANCH   9  10
ATOM     10  C   UNL     1       8.036  15.644   1.721  1.00  0.00     0.053 C 
BRANCH  10  11
ATOM     11  C   UNL     1       8.669  16.998   1.821  1.00  0.00     0.041 C 
ATOM     12  O   UNL     1       9.917  17.126   1.705  1.00  0.00    -0.550 OA
ATOM     13  O   UNL     1       7.876  18.123   2.009  1.00  0.00    -0.550 OA
ENDBRANCH  10  11
ENDBRANCH   9  10
ENDBRANCH   8   9
ENDBRANCH   1   8
TORSDOF 8
ENDMDL
MODEL 6
REMARK VINA RESULT:     0.129      2.967      3.814
REMARK INTER + INTRA:           0.214
REMARK INTER:                   0.737
REMARK INTRA:                  -0.523
REMARK UNBOUND:                 0.024
REMARK SMILES O=C([O-])CCCCCCCC(=O)[O-]
REMARK SMILES IDX 7 1 6 2 5 3 4 4 2 5 1 6 3 7 8 8 9 9 10 10 11 11 12 12 13 13
REMARK H PARENT
REMARK Flexibility Score: inf
ROOT
ATOM      1  C   UNL     1       9.553  16.683   2.125  1.00  0.00     0.000 C 
ENDROOT
BRANCH   1   2
ATOM      2  C   UNL     1       8.238  17.269   1.599  1.00  0.00     0.000 C 
BRANCH   2   3
ATOM      3  C   UNL     1       7.033  16.463   2.106  1.00  0.00     0.006 C 
BRANCH   3   4
ATOM      4  C   UNL     1       7.309  14.955   2.125  1.00  0.00     0.053 C 
BRANCH   4   5
ATOM      5  C   UNL     1       6.085  14.163   1.780  1.00  0.00     0.041 C 
ATOM      6  O   UNL     1       6.071  12.914   1.945  1.00  0.00    -0.550 OA
ATOM      7  O   UNL     1       4.972  14.798   1.246  1.00  0.00    -0.550 OA
ENDBRANCH   4   5
ENDBRANCH   3   4
ENDBRANCH   2   3
ENDBRANCH   1   2
BRANCH   1   8
ATOM      8  C   UNL     1      10.744  17.166   1.290  1.00  0.00     0.000 C 
BRANCH   8   9
ATOM      9  C   UNL     1      11.890  16.143   1.321  1.00  0.00     0.006 C 
BRANCH   9  10
ATOM     10  C   UNL     1      11.389  14.718   1.594  1.00  0.00     0.053 C 
BRANCH  10  11
ATOM     11  C   UNL     1      11.148  13.962   0.323  1.00  0.00     0.041 C 
ATOM     12  O   UNL     1      12.040  13.204  -0.143  1.00  0.00    -0.550 OA
ATOM     13  O   UNL     1       9.926  14.069  -0.328  1.00  0.00    -0.550 OA
ENDBRANCH  10  11
ENDBRANCH   9  10
ENDBRANCH   8   9
ENDBRANCH   1   8
TORSDOF 8
ENDMDL
MODEL 7
REMARK VINA RESULT:     0.497      2.040      4.008
REMARK INTER + INTRA:           0.753
REMARK INTER:                  -0.327
REMARK INTRA:                   1.080
REMARK UNBOUND:                 0.024
REMARK SMILES O=C([O-])CCCCCCCC(=O)[O-]
REMARK SMILES IDX 7 1 6 2 5 3 4 4 2 5 1 6 3 7 8 8 9 9 10 10 11 11 12 12 13 13
REMARK H PARENT
REMARK Flexibility Score: inf
ROOT
ATOM      1  C   UNL     1      11.865  13.849  -0.375  1.00  0.00     0.000 C 
ENDROOT
BRANCH   1   2
ATOM      2  C   UNL     1      12.185  13.240   0.996  1.00  0.00     0.000 C 
BRANCH   2   3
ATOM      3  C   UNL     1      11.890  14.239   2.124  1.00  0.00     0.006 C 
BRANCH   3   4
ATOM      4  C   UNL     1      12.856  15.430   2.113  1.00  0.00     0.053 C 
BRANCH   4   5
ATOM      5  C   UNL     1      12.134  16.726   1.900  1.00  0.00     0.041 C 
ATOM      6  O   UNL     1      12.716  17.820   2.125  1.00  0.00    -0.550 OA
ATOM      7  O   UNL     1      10.809  16.725   1.485  1.00  0.00    -0.550 OA
ENDBRANCH   4   5
ENDBRANCH   3   4
ENDBRANCH   2   3
ENDBRANCH   1   2
BRANCH   1   8
ATOM      8  C   UNL     1      10.352  13.928  -0.603  1.00  0.00     0.000 C 
BRANCH   8   9
ATOM      9  C   UNL     1       9.626  14.387   0.670  1.00  0.00     0.006 C 
BRANCH   9  10
ATOM     10  C   UNL     1       8.130  14.051   0.640  1.00  0.00     0.053 C 
BRANCH  10  11
ATOM     11  C   UNL     1       7.356  14.872   1.625  1.00  0.00     0.041 C 
ATOM     12  O   UNL     1       7.864  15.912   2.122  1.00  0.00    -0.550 OA
ATOM     13  O   UNL     1       6.061  14.506   1.970  1.00  0.00    -0.550 OA
ENDBRANCH  10  11
ENDBRANCH   9  10
ENDBRANCH   8   9
ENDBRANCH   1   8
TORSDOF 8
ENDMDL
