MODEL 1
REMARK VINA RESULT:    -4.962      0.000      0.000
REMARK INTER + INTRA:          -5.107
REMARK INTER:                  -5.107
REMARK INTRA:                   0.000
REMARK UNBOUND:                 0.000
REMARK SMILES Nc1ncnc2nc[nH]c12
REMARK SMILES IDX 8 1 7 2 6 3 5 4 4 5 3 6 2 7 10 8 9 9 1 11
REMARK H PARENT 9 10 1 12 1 13
REMARK Flexibility Score: inf
ROOT
ATOM      1  C   UNL     1     -24.544 -25.119 -15.490  1.00  0.00     0.199 A 
ATOM      2  N   UNL     1     -23.914 -25.154 -14.285  1.00  0.00    -0.217 NA
ATOM      3  C   UNL     1     -23.942 -23.864 -13.909  1.00  0.00     0.182 A 
ATOM      4  N   UNL     1     -23.439 -23.344 -12.764  1.00  0.00    -0.215 NA
ATOM      5  C   UNL     1     -23.565 -21.999 -12.556  1.00  0.00     0.226 A 
ATOM      6  N   UNL     1     -24.186 -21.205 -13.487  1.00  0.00    -0.217 NA
ATOM      7  C   UNL     1     -24.694 -21.728 -14.644  1.00  0.00     0.152 A 
ATOM      8  C   UNL     1     -24.558 -23.100 -14.840  1.00  0.00     0.127 A 
ATOM      9  N   UNL     1     -24.950 -23.876 -15.857  1.00  0.00    -0.340 N 
ATOM     10  H   UNL     1     -25.452 -23.604 -16.731  1.00  0.00     0.168 HD
ENDROOT
BRANCH   7  11
ATOM     11  N   UNL     1     -25.337 -20.884 -15.599  1.00  0.00    -0.382 N 
ATOM     12  H   UNL     1     -24.792 -20.375 -16.329  1.00  0.00     0.158 HD
ATOM     13  H   UNL     1     -26.374 -20.764 -15.575  1.00  0.00     0.158 HD
ENDBRANCH   7  11
TORSDOF 1
ENDMDL
MODEL 2
REMARK VINA RESULT:    -4.805      1.086      3.066
REMARK INTER + INTRA:          -4.945
REMARK INTER:                  -4.945
REMARK INTRA:                   0.000
REMARK UNBOUND:                 0.000
REMARK SMILES Nc1ncnc2nc[nH]c12
REMARK SMILES IDX 8 1 7 2 6 3 5 4 4 5 3 6 2 7 10 8 9 9 1 11
REMARK H PARENT 9 10 1 12 1 13
REMARK Flexibility Score: inf
ROOT
ATOM      1  C   UNL     1     -25.334 -20.020 -14.764  1.00  0.00     0.199 A 
ATOM      2  N   UNL     1     -24.755 -20.184 -13.543  1.00  0.00    -0.217 NA
ATOM      3  C   UNL     1     -24.351 -21.464 -13.588  1.00  0.00     0.182 A 
ATOM      4  N   UNL     1     -23.706 -22.143 -12.609  1.00  0.00    -0.215 NA
ATOM      5  C   UNL     1     -23.373 -23.449 -12.841  1.00  0.00     0.226 A 
ATOM      6  N   UNL     1     -23.689 -24.047 -14.035  1.00  0.00    -0.217 NA
ATOM      7  C   UNL     1     -24.340 -23.363 -15.024  1.00  0.00     0.152 A 
ATOM      8  C   UNL     1     -24.672 -22.035 -14.772  1.00  0.00     0.127 A 
ATOM      9  N   UNL     1     -25.299 -21.134 -15.538  1.00  0.00    -0.340 N 
ATOM     10  H   UNL     1     -25.676 -21.249 -16.505  1.00  0.00     0.168 HD
ENDROOT
BRANCH   7  11
ATOM     11  N   UNL     1     -24.658 -24.005 -16.258  1.00  0.00    -0.382 N 
ATOM     12  H   UNL     1     -25.437 -23.666 -16.864  1.00  0.00     0.158 HD
ATOM     13  H   UNL     1     -24.106 -24.834 -16.573  1.00  0.00     0.158 HD
ENDBRANCH   7  11
TORSDOF 1
ENDMDL
MODEL 3
REMARK VINA RESULT:    -4.692      2.452      3.384
REMARK INTER + INTRA:          -4.830
REMARK INTER:                  -4.830
REMARK INTRA:                   0.000
REMARK UNBOUND:                 0.000
REMARK SMILES Nc1ncnc2nc[nH]c12
REMARK SMILES IDX 8 1 7 2 6 3 5 4 4 5 3 6 2 7 10 8 9 9 1 11
REMARK H PARENT 9 10 1 12 1 13
REMARK Flexibility Score: inf
ROOT
ATOM      1  C   UNL     1     -23.085 -22.506 -13.593  1.00  0.00     0.199 A 
ATOM      2  N   UNL     1     -24.160 -22.438 -12.762  1.00  0.00    -0.217 NA
ATOM      3  C   UNL     1     -24.399 -21.117 -12.711  1.00  0.00     0.182 A 
ATOM      4  N   UNL     1     -25.380 -20.499 -12.010  1.00  0.00    -0.215 NA
ATOM      5  C   UNL     1     -25.467 -19.136 -12.084  1.00  0.00     0.226 A 
ATOM      6  N   UNL     1     -24.580 -18.423 -12.851  1.00  0.00    -0.217 NA
ATOM      7  C   UNL     1     -23.589 -19.045 -13.559  1.00  0.00     0.152 A 
ATOM      8  C   UNL     1     -23.515 -20.432 -13.472  1.00  0.00     0.127 A 
ATOM      9  N   UNL     1     -22.667 -21.295 -14.044  1.00  0.00    -0.340 N 
ATOM     10  H   UNL     1     -21.869 -21.098 -14.688  1.00  0.00     0.168 HD
ENDROOT
BRANCH   7  11
ATOM     11  N   UNL     1     -22.677 -18.282 -14.349  1.00  0.00    -0.382 N 
ATOM     12  H   UNL     1     -22.828 -17.265 -14.525  1.00  0.00     0.158 HD
ATOM     13  H   UNL     1     -21.838 -18.742 -14.767  1.00  0.00     0.158 HD
ENDBRANCH   7  11
TORSDOF 1
ENDMDL
MODEL 4
REMARK VINA RESULT:    -4.690      3.100      4.967
REMARK INTER + INTRA:          -4.827
REMARK INTER:                  -4.827
REMARK INTRA:                   0.000
REMARK UNBOUND:                 0.000
REMARK SMILES Nc1ncnc2nc[nH]c12
REMARK SMILES IDX 8 1 7 2 6 3 5 4 4 5 3 6 2 7 10 8 9 9 1 11
REMARK H PARENT 9 10 1 12 1 13
REMARK Flexibility Score: inf
ROOT
ATOM      1  C   UNL     1     -23.501 -17.470 -14.620  1.00  0.00     0.199 A 
ATOM      2  N   UNL     1     -24.239 -17.263 -13.496  1.00  0.00    -0.217 NA
ATOM      3  C   UNL     1     -24.252 -18.482 -12.933  1.00  0.00     0.182 A 
ATOM      4  N   UNL     1     -24.861 -18.831 -11.774  1.00  0.00    -0.215 NA
ATOM      5  C   UNL     1     -24.762 -20.130 -11.359  1.00  0.00     0.226 A 
ATOM      6  N   UNL     1     -24.063 -21.048 -12.103  1.00  0.00    -0.217 NA
ATOM      7  C   UNL     1     -23.448 -20.697 -13.272  1.00  0.00     0.152 A 
ATOM      8  C   UNL     1     -23.558 -19.371 -13.681  1.00  0.00     0.127 A 
ATOM      9  N   UNL     1     -23.070 -18.750 -14.761  1.00  0.00    -0.340 N 
ATOM     10  H   UNL     1     -22.493 -19.145 -15.536  1.00  0.00     0.168 HD
ENDROOT
BRANCH   7  11
ATOM     11  N   UNL     1     -22.726 -21.668 -14.029  1.00  0.00    -0.382 N 
ATOM     12  H   UNL     1     -22.128 -22.386 -13.565  1.00  0.00     0.158 HD
ATOM     13  H   UNL     1     -22.789 -21.670 -15.072  1.00  0.00     0.158 HD
ENDBRANCH   7  11
TORSDOF 1
ENDMDL
MODEL 5
REMARK VINA RESULT:    -4.616      1.263      3.080
REMARK INTER + INTRA:          -4.751
REMARK INTER:                  -4.751
REMARK INTRA:                   0.000
REMARK UNBOUND:                 0.000
REMARK SMILES Nc1ncnc2nc[nH]c12
REMARK SMILES IDX 8 1 7 2 6 3 5 4 4 5 3 6 2 7 10 8 9 9 1 11
REMARK H PARENT 9 10 1 12 1 13
REMARK Flexibility Score: inf
ROOT
ATOM      1  C   UNL     1     -24.757 -20.868 -13.855  1.00  0.00     0.199 A 
ATOM      2  N   UNL     1     -23.662 -21.586 -13.484  1.00  0.00    -0.217 NA
ATOM      3  C   UNL     1     -23.950 -22.811 -13.955  1.00  0.00     0.182 A 
ATOM      4  N   UNL     1     -23.178 -23.919 -13.852  1.00  0.00    -0.215 NA
ATOM      5  C   UNL     1     -23.643 -25.083 -14.398  1.00  0.00     0.226 A 
ATOM      6  N   UNL     1     -24.860 -25.117 -15.032  1.00  0.00    -0.217 NA
ATOM      7  C   UNL     1     -25.641 -24.000 -15.136  1.00  0.00     0.152 A 
ATOM      8  C   UNL     1     -25.153 -22.823 -14.575  1.00  0.00     0.127 A 
ATOM      9  N   UNL     1     -25.686 -21.597 -14.524  1.00  0.00    -0.340 N 
ATOM     10  H   UNL     1     -26.600 -21.266 -14.905  1.00  0.00     0.168 HD
ENDROOT
BRANCH   7  11
ATOM     11  N   UNL     1     -26.903 -24.059 -15.800  1.00  0.00    -0.382 N 
ATOM     12  H   UNL     1     -27.144 -24.845 -16.443  1.00  0.00     0.158 HD
ATOM     13  H   UNL     1     -27.610 -23.305 -15.646  1.00  0.00     0.158 HD
ENDBRANCH   7  11
TORSDOF 1
ENDMDL
MODEL 6
REMARK VINA RESULT:    -4.585      5.884      7.626
REMARK INTER + INTRA:          -4.719
REMARK INTER:                  -4.719
REMARK INTRA:                   0.000
REMARK UNBOUND:                 0.000
REMARK SMILES Nc1ncnc2nc[nH]c12
REMARK SMILES IDX 8 1 7 2 6 3 5 4 4 5 3 6 2 7 10 8 9 9 1 11
REMARK H PARENT 9 10 1 12 1 13
REMARK Flexibility Score: inf
ROOT
ATOM      1  C   UNL     1     -23.872 -17.995 -14.036  1.00  0.00     0.199 A 
ATOM      2  N   UNL     1     -25.102 -17.591 -14.453  1.00  0.00    -0.217 NA
ATOM      3  C   UNL     1     -24.840 -16.391 -14.997  1.00  0.00     0.182 A 
ATOM      4  N   UNL     1     -25.734 -15.549 -15.569  1.00  0.00    -0.215 NA
ATOM      5  C   UNL     1     -25.274 -14.363 -16.071  1.00  0.00     0.226 A 
ATOM      6  N   UNL     1     -23.942 -14.044 -15.993  1.00  0.00    -0.217 NA
ATOM      7  C   UNL     1     -23.038 -14.892 -15.416  1.00  0.00     0.152 A 
ATOM      8  C   UNL     1     -23.522 -16.095 -14.909  1.00  0.00     0.127 A 
ATOM      9  N   UNL     1     -22.885 -17.102 -14.301  1.00  0.00    -0.340 N 
ATOM     10  H   UNL     1     -21.869 -17.192 -14.078  1.00  0.00     0.168 HD
ENDROOT
BRANCH   7  11
ATOM     11  N   UNL     1     -21.657 -14.538 -15.346  1.00  0.00    -0.382 N 
ATOM     12  H   UNL     1     -21.142 -14.532 -14.439  1.00  0.00     0.158 HD
ATOM     13  H   UNL     1     -21.140 -14.278 -16.216  1.00  0.00     0.158 HD
ENDBRANCH   7  11
TORSDOF 1
ENDMDL
MODEL 7
REMARK VINA RESULT:    -4.578      2.631      4.279
REMARK INTER + INTRA:          -4.712
REMARK INTER:                  -4.712
REMARK INTRA:                   0.000
REMARK UNBOUND:                 0.000
REMARK SMILES Nc1ncnc2nc[nH]c12
REMARK SMILES IDX 8 1 7 2 6 3 5 4 4 5 3 6 2 7 10 8 9 9 1 11
REMARK H PARENT 9 10 1 12 1 13
REMARK Flexibility Score: inf
ROOT
ATOM      1  C   UNL     1     -23.130 -18.115 -14.098  1.00  0.00     0.199 A 
ATOM      2  N   UNL     1     -23.576 -18.274 -12.822  1.00  0.00    -0.217 NA
ATOM      3  C   UNL     1     -24.299 -19.403 -12.910  1.00  0.00     0.182 A 
ATOM      4  N   UNL     1     -24.971 -20.013 -11.904  1.00  0.00    -0.215 NA
ATOM      5  C   UNL     1     -25.653 -21.163 -12.188  1.00  0.00     0.226 A 
ATOM      6  N   UNL     1     -25.652 -21.678 -13.460  1.00  0.00    -0.217 NA
ATOM      7  C   UNL     1     -24.974 -21.063 -14.476  1.00  0.00     0.152 A 
ATOM      8  C   UNL     1     -24.284 -19.893 -14.171  1.00  0.00     0.127 A 
ATOM      9  N   UNL     1     -23.547 -19.090 -14.946  1.00  0.00    -0.340 N 
ATOM     10  H   UNL     1     -23.333 -19.181 -15.964  1.00  0.00     0.168 HD
ENDROOT
BRANCH   7  11
ATOM     11  N   UNL     1     -24.986 -21.617 -15.792  1.00  0.00    -0.382 N 
ATOM     12  H   UNL     1     -25.398 -22.556 -15.984  1.00  0.00     0.158 HD
ATOM     13  H   UNL     1     -24.576 -21.079 -16.588  1.00  0.00     0.158 HD
ENDBRANCH   7  11
TORSDOF 1
ENDMDL
MODEL 8
REMARK VINA RESULT:    -4.518      2.297      3.067
REMARK INTER + INTRA:          -4.650
REMARK INTER:                  -4.650
REMARK INTRA:                   0.000
REMARK UNBOUND:                 0.000
REMARK SMILES Nc1ncnc2nc[nH]c12
REMARK SMILES IDX 8 1 7 2 6 3 5 4 4 5 3 6 2 7 10 8 9 9 1 11
REMARK H PARENT 9 10 1 12 1 13
REMARK Flexibility Score: inf
ROOT
ATOM      1  C   UNL     1     -25.413 -22.227 -14.767  1.00  0.00     0.199 A 
ATOM      2  N   UNL     1     -25.755 -22.198 -13.451  1.00  0.00    -0.217 NA
ATOM      3  C   UNL     1     -25.167 -21.067 -13.027  1.00  0.00     0.182 A 
ATOM      4  N   UNL     1     -25.197 -20.563 -11.770  1.00  0.00    -0.215 NA
ATOM      5  C   UNL     1     -24.534 -19.391 -11.529  1.00  0.00     0.226 A 
ATOM      6  N   UNL     1     -23.860 -18.752 -12.539  1.00  0.00    -0.217 NA
ATOM      7  C   UNL     1     -23.829 -19.260 -13.807  1.00  0.00     0.152 A 
ATOM      8  C   UNL     1     -24.508 -20.453 -14.036  1.00  0.00     0.127 A 
ATOM      9  N   UNL     1     -24.650 -21.173 -15.155  1.00  0.00    -0.340 N 
ATOM     10  H   UNL     1     -24.270 -20.980 -16.108  1.00  0.00     0.168 HD
ENDROOT
BRANCH   7  11
ATOM     11  N   UNL     1     -23.121 -18.578 -14.842  1.00  0.00    -0.382 N 
ATOM     12  H   UNL     1     -23.597 -18.277 -15.721  1.00  0.00     0.158 HD
ATOM     13  H   UNL     1     -22.104 -18.370 -14.730  1.00  0.00     0.158 HD
ENDBRANCH   7  11
TORSDOF 1
ENDMDL
MODEL 9
REMARK VINA RESULT:    -4.373      1.780      3.518
REMARK INTER + INTRA:          -4.501
REMARK INTER:                  -4.501
REMARK INTRA:                   0.000
REMARK UNBOUND:                 0.000
REMARK SMILES Nc1ncnc2nc[nH]c12
REMARK SMILES IDX 8 1 7 2 6 3 5 4 4 5 3 6 2 7 10 8 9 9 1 11
REMARK H PARENT 9 10 1 12 1 13
REMARK Flexibility Score: inf
ROOT
ATOM      1  C   UNL     1     -23.975 -19.717 -13.084  1.00  0.00     0.199 A 
ATOM      2  N   UNL     1     -22.919 -20.464 -13.508  1.00  0.00    -0.217 NA
ATOM      3  C   UNL     1     -23.448 -21.697 -13.572  1.00  0.00     0.182 A 
ATOM      4  N   UNL     1     -22.810 -22.832 -13.945  1.00  0.00    -0.215 NA
ATOM      5  C   UNL     1     -23.520 -24.000 -13.948  1.00  0.00     0.226 A 
ATOM      6  N   UNL     1     -24.842 -24.013 -13.581  1.00  0.00    -0.217 NA
ATOM      7  C   UNL     1     -25.487 -22.869 -13.203  1.00  0.00     0.152 A 
ATOM      8  C   UNL     1     -24.751 -21.687 -13.206  1.00  0.00     0.127 A 
ATOM      9  N   UNL     1     -25.110 -20.437 -12.890  1.00  0.00    -0.340 N 
ATOM     10  H   UNL     1     -26.039 -20.086 -12.570  1.00  0.00     0.168 HD
ENDROOT
BRANCH   7  11
ATOM     11  N   UNL     1     -26.864 -22.906 -12.825  1.00  0.00    -0.382 N 
ATOM     12  H   UNL     1     -27.261 -23.710 -12.292  1.00  0.00     0.158 HD
ATOM     13  H   UNL     1     -27.497 -22.116 -13.082  1.00  0.00     0.158 HD
ENDBRANCH   7  11
TORSDOF 1
ENDMDL
