MODEL 1
REMARK VINA RESULT:    -5.754      0.000      0.000
REMARK INTER + INTRA:          -7.133
REMARK INTER:                  -6.931
REMARK INTRA:                  -0.202
REMARK UNBOUND:                -0.202
REMARK SMILES C=CCc1ccc(O)c(OC)c1
REMARK SMILES IDX 9 1 7 2 6 3 5 4 4 5 12 6 10 7 11 8 8 9 3 11 2 12 1 13
REMARK H PARENT 8 10
REMARK Flexibility Score: inf
ROOT
ATOM      1  C   UNL     1     -28.633  58.361   3.742  1.00  0.00     0.160 A 
ATOM      2  C   UNL     1     -29.563  57.982   4.720  1.00  0.00     0.157 A 
ATOM      3  C   UNL     1     -30.738  57.313   4.353  1.00  0.00     0.050 A 
ATOM      4  C   UNL     1     -30.993  57.022   3.011  1.00  0.00     0.008 A 
ATOM      5  C   UNL     1     -30.078  57.405   2.019  1.00  0.00    -0.040 A 
ATOM      6  C   UNL     1     -28.897  58.066   2.388  1.00  0.00     0.054 A 
ENDROOT
BRANCH   1   7
ATOM      7  O   UNL     1     -27.465  59.024   4.150  1.00  0.00    -0.493 OA
ATOM      8  C   UNL     1     -26.149  58.653   3.753  1.00  0.00     0.278 C 
ENDBRANCH   1   7
BRANCH   2   9
ATOM      9  O   UNL     1     -29.309  58.272   6.060  1.00  0.00    -0.504 OA
ATOM     10  H   UNL     1     -28.372  58.221   6.445  1.00  0.00     0.293 HD
ENDBRANCH   2   9
BRANCH   5  11
ATOM     11  C   UNL     1     -30.343  57.062   0.577  1.00  0.00     0.062 C 
BRANCH  11  12
ATOM     12  C   UNL     1     -29.797  58.128  -0.332  1.00  0.00    -0.030 C 
ATOM     13  C   UNL     1     -29.079  57.825  -1.418  1.00  0.00     0.004 C 
ENDBRANCH  11  12
ENDBRANCH   5  11
TORSDOF 4
ENDMDL
MODEL 2
REMARK VINA RESULT:    -5.666      2.768      4.764
REMARK INTER + INTRA:          -7.027
REMARK INTER:                  -6.818
REMARK INTRA:                  -0.209
REMARK UNBOUND:                -0.202
REMARK SMILES C=CCc1ccc(O)c(OC)c1
REMARK SMILES IDX 9 1 7 2 6 3 5 4 4 5 12 6 10 7 11 8 8 9 3 11 2 12 1 13
REMARK H PARENT 8 10
REMARK Flexibility Score: inf
ROOT
ATOM      1  C   UNL     1     -27.177  56.858   0.175  1.00  0.00     0.160 A 
ATOM      2  C   UNL     1     -27.379  57.183  -1.173  1.00  0.00     0.157 A 
ATOM      3  C   UNL     1     -28.658  57.524  -1.630  1.00  0.00     0.050 A 
ATOM      4  C   UNL     1     -29.741  57.540  -0.748  1.00  0.00     0.008 A 
ATOM      5  C   UNL     1     -29.557  57.206   0.602  1.00  0.00    -0.040 A 
ATOM      6  C   UNL     1     -28.273  56.873   1.061  1.00  0.00     0.054 A 
ENDROOT
BRANCH   1   7
ATOM      7  O   UNL     1     -25.879  56.528   0.597  1.00  0.00    -0.493 OA
ATOM      8  C   UNL     1     -25.101  57.311   1.497  1.00  0.00     0.278 C 
ENDBRANCH   1   7
BRANCH   2   9
ATOM      9  O   UNL     1     -26.299  57.169  -2.054  1.00  0.00    -0.504 OA
ATOM     10  H   UNL     1     -25.484  56.588  -1.885  1.00  0.00     0.293 HD
ENDBRANCH   2   9
BRANCH   5  11
ATOM     11  C   UNL     1     -30.722  57.252   1.556  1.00  0.00     0.062 C 
BRANCH  11  12
ATOM     12  C   UNL     1     -30.443  56.422   2.777  1.00  0.00    -0.030 C 
ATOM     13  C   UNL     1     -30.862  56.794   3.991  1.00  0.00     0.004 C 
ENDBRANCH  11  12
ENDBRANCH   5  11
TORSDOF 4
ENDMDL
MODEL 3
REMARK VINA RESULT:    -5.497     10.430     12.650
REMARK INTER + INTRA:          -6.824
REMARK INTER:                  -6.576
REMARK INTRA:                  -0.248
REMARK UNBOUND:                -0.202
REMARK SMILES C=CCc1ccc(O)c(OC)c1
REMARK SMILES IDX 9 1 7 2 6 3 5 4 4 5 12 6 10 7 11 8 8 9 3 11 2 12 1 13
REMARK H PARENT 8 10
REMARK Flexibility Score: inf
ROOT
ATOM      1  C   UNL     1     -21.405  57.025  -4.682  1.00  0.00     0.160 A 
ATOM      2  C   UNL     1     -20.758  55.948  -4.060  1.00  0.00     0.157 A 
ATOM      3  C   UNL     1     -19.363  55.835  -4.119  1.00  0.00     0.050 A 
ATOM      4  C   UNL     1     -18.607  56.792  -4.800  1.00  0.00     0.008 A 
ATOM      5  C   UNL     1     -19.240  57.869  -5.437  1.00  0.00    -0.040 A 
ATOM      6  C   UNL     1     -20.637  57.987  -5.370  1.00  0.00     0.054 A 
ENDROOT
BRANCH   1   7
ATOM      7  O   UNL     1     -22.803  57.106  -4.595  1.00  0.00    -0.493 OA
ATOM      8  C   UNL     1     -23.679  57.152  -5.717  1.00  0.00     0.278 C 
ENDBRANCH   1   7
BRANCH   2   9
ATOM      9  O   UNL     1     -21.512  54.993  -3.379  1.00  0.00    -0.504 OA
ATOM     10  H   UNL     1     -21.149  54.063  -3.196  1.00  0.00     0.293 HD
ENDBRANCH   2   9
BRANCH   5  11
ATOM     11  C   UNL     1     -18.419  58.915  -6.145  1.00  0.00     0.062 C 
BRANCH  11  12
ATOM     12  C   UNL     1     -16.999  58.901  -5.652  1.00  0.00    -0.030 C 
ATOM     13  C   UNL     1     -16.534  59.842  -4.824  1.00  0.00     0.004 C 
ENDBRANCH  11  12
ENDBRANCH   5  11
TORSDOF 4
ENDMDL
MODEL 4
REMARK VINA RESULT:    -5.482     11.632     13.758
REMARK INTER + INTRA:          -6.806
REMARK INTER:                  -6.584
REMARK INTRA:                  -0.222
REMARK UNBOUND:                -0.202
REMARK SMILES C=CCc1ccc(O)c(OC)c1
REMARK SMILES IDX 9 1 7 2 6 3 5 4 4 5 12 6 10 7 11 8 8 9 3 11 2 12 1 13
REMARK H PARENT 8 10
REMARK Flexibility Score: inf
ROOT
ATOM      1  C   UNL     1     -17.258  59.180  -5.068  1.00  0.00     0.160 A 
ATOM      2  C   UNL     1     -17.119  58.685  -6.372  1.00  0.00     0.157 A 
ATOM      3  C   UNL     1     -18.211  58.091  -7.019  1.00  0.00     0.050 A 
ATOM      4  C   UNL     1     -19.442  57.985  -6.369  1.00  0.00     0.008 A 
ATOM      5  C   UNL     1     -19.594  58.465  -5.060  1.00  0.00    -0.040 A 
ATOM      6  C   UNL     1     -18.503  59.068  -4.416  1.00  0.00     0.054 A 
ENDROOT
BRANCH   1   7
ATOM      7  O   UNL     1     -16.143  59.775  -4.456  1.00  0.00    -0.493 OA
ATOM      8  C   UNL     1     -16.196  60.538  -3.255  1.00  0.00     0.278 C 
ENDBRANCH   1   7
BRANCH   2   9
ATOM      9  O   UNL     1     -15.891  58.792  -7.022  1.00  0.00    -0.504 OA
ATOM     10  H   UNL     1     -15.391  57.972  -7.350  1.00  0.00     0.293 HD
ENDBRANCH   2   9
BRANCH   5  11
ATOM     11  C   UNL     1     -20.932  58.374  -4.374  1.00  0.00     0.062 C 
BRANCH  11  12
ATOM     12  C   UNL     1     -21.735  57.228  -4.922  1.00  0.00    -0.030 C 
ATOM     13  C   UNL     1     -23.009  57.379  -5.299  1.00  0.00     0.004 C 
ENDBRANCH  11  12
ENDBRANCH   5  11
TORSDOF 4
ENDMDL
MODEL 5
REMARK VINA RESULT:    -5.476      1.972      3.786
REMARK INTER + INTRA:          -6.798
REMARK INTER:                  -6.603
REMARK INTRA:                  -0.195
REMARK UNBOUND:                -0.202
REMARK SMILES C=CCc1ccc(O)c(OC)c1
REMARK SMILES IDX 9 1 7 2 6 3 5 4 4 5 12 6 10 7 11 8 8 9 3 11 2 12 1 13
REMARK H PARENT 8 10
REMARK Flexibility Score: inf
ROOT
ATOM      1  C   UNL     1     -30.495  57.602   4.920  1.00  0.00     0.160 A 
ATOM      2  C   UNL     1     -31.420  57.132   3.978  1.00  0.00     0.157 A 
ATOM      3  C   UNL     1     -31.090  57.113   2.617  1.00  0.00     0.050 A 
ATOM      4  C   UNL     1     -29.840  57.565   2.188  1.00  0.00     0.008 A 
ATOM      5  C   UNL     1     -28.907  58.050   3.117  1.00  0.00    -0.040 A 
ATOM      6  C   UNL     1     -29.235  58.059   4.482  1.00  0.00     0.054 A 
ENDROOT
BRANCH   1   7
ATOM      7  O   UNL     1     -30.860  57.599   6.276  1.00  0.00    -0.493 OA
ATOM      8  C   UNL     1     -30.587  58.659   7.186  1.00  0.00     0.278 C 
ENDBRANCH   1   7
BRANCH   2   9
ATOM      9  O   UNL     1     -32.667  56.679   4.404  1.00  0.00    -0.504 OA
ATOM     10  H   UNL     1     -33.514  56.893   3.888  1.00  0.00     0.293 HD
ENDBRANCH   2   9
BRANCH   5  11
ATOM     11  C   UNL     1     -27.550  58.509   2.655  1.00  0.00     0.062 C 
BRANCH  11  12
ATOM     12  C   UNL     1     -26.617  58.673   3.822  1.00  0.00    -0.030 C 
ATOM     13  C   UNL     1     -25.296  58.511   3.693  1.00  0.00     0.004 C 
ENDBRANCH  11  12
ENDBRANCH   5  11
TORSDOF 4
ENDMDL
MODEL 6
REMARK VINA RESULT:    -5.340      2.730      4.404
REMARK INTER + INTRA:          -6.635
REMARK INTER:                  -6.375
REMARK INTRA:                  -0.260
REMARK UNBOUND:                -0.202
REMARK SMILES C=CCc1ccc(O)c(OC)c1
REMARK SMILES IDX 9 1 7 2 6 3 5 4 4 5 12 6 10 7 11 8 8 9 3 11 2 12 1 13
REMARK H PARENT 8 10
REMARK Flexibility Score: inf
ROOT
ATOM      1  C   UNL     1     -28.870  57.048   0.512  1.00  0.00     0.160 A 
ATOM      2  C   UNL     1     -29.889  57.681  -0.213  1.00  0.00     0.157 A 
ATOM      3  C   UNL     1     -31.164  57.829   0.348  1.00  0.00     0.050 A 
ATOM      4  C   UNL     1     -31.429  57.346   1.631  1.00  0.00     0.008 A 
ATOM      5  C   UNL     1     -30.424  56.699   2.365  1.00  0.00    -0.040 A 
ATOM      6  C   UNL     1     -29.144  56.559   1.806  1.00  0.00     0.054 A 
ENDROOT
BRANCH   1   7
ATOM      7  O   UNL     1     -27.604  56.924  -0.082  1.00  0.00    -0.493 OA
ATOM      8  C   UNL     1     -26.382  56.817   0.641  1.00  0.00     0.278 C 
ENDBRANCH   1   7
BRANCH   2   9
ATOM      9  O   UNL     1     -29.625  58.165  -1.493  1.00  0.00    -0.504 OA
ATOM     10  H   UNL     1     -29.959  57.684  -2.322  1.00  0.00     0.293 HD
ENDBRANCH   2   9
BRANCH   5  11
ATOM     11  C   UNL     1     -30.706  56.205   3.759  1.00  0.00     0.062 C 
BRANCH  11  12
ATOM     12  C   UNL     1     -30.878  57.359   4.708  1.00  0.00    -0.030 C 
ATOM     13  C   UNL     1     -29.841  58.106   5.100  1.00  0.00     0.004 C 
ENDBRANCH  11  12
ENDBRANCH   5  11
TORSDOF 4
ENDMDL
MODEL 7
REMARK VINA RESULT:    -5.173     12.189     14.491
REMARK INTER + INTRA:          -6.433
REMARK INTER:                  -6.194
REMARK INTRA:                  -0.239
REMARK UNBOUND:                -0.202
REMARK SMILES C=CCc1ccc(O)c(OC)c1
REMARK SMILES IDX 9 1 7 2 6 3 5 4 4 5 12 6 10 7 11 8 8 9 3 11 2 12 1 13
REMARK H PARENT 8 10
REMARK Flexibility Score: inf
ROOT
ATOM      1  C   UNL     1     -19.174  57.961  -4.877  1.00  0.00     0.160 A 
ATOM      2  C   UNL     1     -18.908  57.990  -6.253  1.00  0.00     0.157 A 
ATOM      3  C   UNL     1     -17.840  58.750  -6.747  1.00  0.00     0.050 A 
ATOM      4  C   UNL     1     -17.035  59.486  -5.875  1.00  0.00     0.008 A 
ATOM      5  C   UNL     1     -17.295  59.476  -4.497  1.00  0.00    -0.040 A 
ATOM      6  C   UNL     1     -18.359  58.707  -4.001  1.00  0.00     0.054 A 
ENDROOT
BRANCH   1   7
ATOM      7  O   UNL     1     -20.248  57.182  -4.420  1.00  0.00    -0.493 OA
ATOM      8  C   UNL     1     -20.110  55.928  -3.758  1.00  0.00     0.278 C 
ENDBRANCH   1   7
BRANCH   2   9
ATOM      9  O   UNL     1     -19.710  57.256  -7.125  1.00  0.00    -0.504 OA
ATOM     10  H   UNL     1     -19.403  57.029  -8.065  1.00  0.00     0.293 HD
ENDBRANCH   2   9
BRANCH   5  11
ATOM     11  C   UNL     1     -16.407  60.247  -3.556  1.00  0.00     0.062 C 
BRANCH  11  12
ATOM     12  C   UNL     1     -15.113  60.616  -4.227  1.00  0.00    -0.030 C 
ATOM     13  C   UNL     1     -14.591  61.842  -4.123  1.00  0.00     0.004 C 
ENDBRANCH  11  12
ENDBRANCH   5  11
TORSDOF 4
ENDMDL
MODEL 8
REMARK VINA RESULT:    -5.171      2.326      5.062
REMARK INTER + INTRA:          -6.431
REMARK INTER:                  -6.201
REMARK INTRA:                  -0.230
REMARK UNBOUND:                -0.202
REMARK SMILES C=CCc1ccc(O)c(OC)c1
REMARK SMILES IDX 9 1 7 2 6 3 5 4 4 5 12 6 10 7 11 8 8 9 3 11 2 12 1 13
REMARK H PARENT 8 10
REMARK Flexibility Score: inf
ROOT
ATOM      1  C   UNL     1     -29.962  56.882   2.122  1.00  0.00     0.160 A 
ATOM      2  C   UNL     1     -28.754  57.587   2.020  1.00  0.00     0.157 A 
ATOM      3  C   UNL     1     -28.277  58.326   3.110  1.00  0.00     0.050 A 
ATOM      4  C   UNL     1     -29.001  58.369   4.304  1.00  0.00     0.008 A 
ATOM      5  C   UNL     1     -30.217  57.679   4.418  1.00  0.00    -0.040 A 
ATOM      6  C   UNL     1     -30.690  56.930   3.328  1.00  0.00     0.054 A 
ENDROOT
BRANCH   1   7
ATOM      7  O   UNL     1     -30.404  56.147   1.010  1.00  0.00    -0.493 OA
ATOM      8  C   UNL     1     -31.307  56.641   0.026  1.00  0.00     0.278 C 
ENDBRANCH   1   7
BRANCH   2   9
ATOM      9  O   UNL     1     -28.031  57.544   0.830  1.00  0.00    -0.504 OA
ATOM     10  H   UNL     1     -28.464  57.755  -0.063  1.00  0.00     0.293 HD
ENDBRANCH   2   9
BRANCH   5  11
ATOM     11  C   UNL     1     -30.979  57.704   5.716  1.00  0.00     0.062 C 
BRANCH  11  12
ATOM     12  C   UNL     1     -30.423  58.750   6.640  1.00  0.00    -0.030 C 
ATOM     13  C   UNL     1     -30.063  58.461   7.895  1.00  0.00     0.004 C 
ENDBRANCH  11  12
ENDBRANCH   5  11
TORSDOF 4
ENDMDL
MODEL 9
REMARK VINA RESULT:    -5.075      6.521      8.145
REMARK INTER + INTRA:          -6.315
REMARK INTER:                  -6.087
REMARK INTRA:                  -0.228
REMARK UNBOUND:                -0.202
REMARK SMILES C=CCc1ccc(O)c(OC)c1
REMARK SMILES IDX 9 1 7 2 6 3 5 4 4 5 12 6 10 7 11 8 8 9 3 11 2 12 1 13
REMARK H PARENT 8 10
REMARK Flexibility Score: inf
ROOT
ATOM      1  C   UNL     1     -21.419  57.620   7.767  1.00  0.00     0.160 A 
ATOM      2  C   UNL     1     -22.323  56.871   8.534  1.00  0.00     0.157 A 
ATOM      3  C   UNL     1     -23.345  56.146   7.907  1.00  0.00     0.050 A 
ATOM      4  C   UNL     1     -23.472  56.166   6.517  1.00  0.00     0.008 A 
ATOM      5  C   UNL     1     -22.583  56.920   5.737  1.00  0.00    -0.040 A 
ATOM      6  C   UNL     1     -21.554  57.638   6.364  1.00  0.00     0.054 A 
ENDROOT
BRANCH   1   7
ATOM      7  O   UNL     1     -20.405  58.328   8.431  1.00  0.00    -0.493 OA
ATOM      8  C   UNL     1     -19.019  58.004   8.363  1.00  0.00     0.278 C 
ENDBRANCH   1   7
BRANCH   2   9
ATOM      9  O   UNL     1     -22.195  56.850   9.922  1.00  0.00    -0.504 OA
ATOM     10  H   UNL     1     -21.579  56.193  10.388  1.00  0.00     0.293 HD
ENDBRANCH   2   9
BRANCH   5  11
ATOM     11  C   UNL     1     -22.707  56.915   4.236  1.00  0.00     0.062 C 
BRANCH  11  12
ATOM     12  C   UNL     1     -23.896  57.723   3.797  1.00  0.00    -0.030 C 
ATOM     13  C   UNL     1     -23.771  58.763   2.966  1.00  0.00     0.004 C 
ENDBRANCH  11  12
ENDBRANCH   5  11
TORSDOF 4
ENDMDL
