MODEL 1
REMARK VINA RESULT:    -3.936      0.000      0.000
REMARK INTER + INTRA:          -4.051
REMARK INTER:                  -4.051
REMARK INTRA:                   0.000
REMARK UNBOUND:                 0.000
REMARK SMILES Cc1cccc(O)c1C
REMARK SMILES IDX 1 1 2 2 8 3 6 4 5 5 4 6 3 7 9 8 7 9
REMARK H PARENT 7 10
REMARK Flexibility Score: inf
ROOT
ATOM      1  C   UNL     1      30.855  -5.038 -22.562  1.00  0.00     0.045 C 
ATOM      2  C   UNL     1      31.270  -6.244 -23.366  1.00  0.00    -0.045 A 
ATOM      3  C   UNL     1      30.513  -6.709 -24.477  1.00  0.00    -0.006 A 
ATOM      4  C   UNL     1      30.963  -7.850 -25.187  1.00  0.00     0.118 A 
ATOM      5  C   UNL     1      32.135  -8.503 -24.794  1.00  0.00     0.046 A 
ATOM      6  C   UNL     1      32.871  -8.043 -23.706  1.00  0.00     0.004 A 
ATOM      7  C   UNL     1      32.443  -6.924 -22.996  1.00  0.00     0.004 A 
ATOM      8  C   UNL     1      29.242  -6.018 -24.919  1.00  0.00     0.048 C 
ENDROOT
BRANCH   4   9
ATOM      9  O   UNL     1      30.271  -8.362 -26.288  1.00  0.00    -0.508 OA
ATOM     10  H   UNL     1      30.725  -8.783 -27.086  1.00  0.00     0.293 HD
ENDBRANCH   4   9
TORSDOF 1
ENDMDL
MODEL 2
REMARK VINA RESULT:    -3.887      1.821      2.813
REMARK INTER + INTRA:          -4.001
REMARK INTER:                  -4.001
REMARK INTRA:                   0.000
REMARK UNBOUND:                 0.000
REMARK SMILES Cc1cccc(O)c1C
REMARK SMILES IDX 1 1 2 2 8 3 6 4 5 5 4 6 3 7 9 8 7 9
REMARK H PARENT 7 10
REMARK Flexibility Score: inf
ROOT
ATOM      1  C   UNL     1      30.155  -4.855 -23.198  1.00  0.00     0.045 C 
ATOM      2  C   UNL     1      30.929  -6.061 -23.667  1.00  0.00    -0.045 A 
ATOM      3  C   UNL     1      32.202  -6.398 -23.128  1.00  0.00    -0.006 A 
ATOM      4  C   UNL     1      32.873  -7.547 -23.618  1.00  0.00     0.118 A 
ATOM      5  C   UNL     1      32.286  -8.330 -24.616  1.00  0.00     0.046 A 
ATOM      6  C   UNL     1      31.041  -7.994 -25.138  1.00  0.00     0.004 A 
ATOM      7  C   UNL     1      30.366  -6.868 -24.670  1.00  0.00     0.004 A 
ATOM      8  C   UNL     1      32.856  -5.565 -22.049  1.00  0.00     0.048 C 
ENDROOT
BRANCH   4   9
ATOM      9  O   UNL     1      34.125  -7.939 -23.135  1.00  0.00    -0.508 OA
ATOM     10  H   UNL     1      34.489  -8.877 -23.227  1.00  0.00     0.293 HD
ENDBRANCH   4   9
TORSDOF 1
ENDMDL
MODEL 3
REMARK VINA RESULT:    -3.824      2.116      3.786
REMARK INTER + INTRA:          -3.936
REMARK INTER:                  -3.936
REMARK INTRA:                   0.000
REMARK UNBOUND:                 0.000
REMARK SMILES Cc1cccc(O)c1C
REMARK SMILES IDX 1 1 2 2 8 3 6 4 5 5 4 6 3 7 9 8 7 9
REMARK H PARENT 7 10
REMARK Flexibility Score: inf
ROOT
ATOM      1  C   UNL     1      30.210  -7.975 -25.399  1.00  0.00     0.045 C 
ATOM      2  C   UNL     1      30.653  -7.023 -24.316  1.00  0.00    -0.045 A 
ATOM      3  C   UNL     1      31.735  -7.323 -23.443  1.00  0.00    -0.006 A 
ATOM      4  C   UNL     1      32.096  -6.380 -22.447  1.00  0.00     0.118 A 
ATOM      5  C   UNL     1      31.393  -5.178 -22.333  1.00  0.00     0.046 A 
ATOM      6  C   UNL     1      30.335  -4.891 -23.191  1.00  0.00     0.004 A 
ATOM      7  C   UNL     1      29.966  -5.806 -24.175  1.00  0.00     0.004 A 
ATOM      8  C   UNL     1      32.509  -8.617 -23.549  1.00  0.00     0.048 C 
ENDROOT
BRANCH   4   9
ATOM      9  O   UNL     1      33.148  -6.607 -21.555  1.00  0.00    -0.508 OA
ATOM     10  H   UNL     1      34.014  -6.087 -21.571  1.00  0.00     0.293 HD
ENDBRANCH   4   9
TORSDOF 1
ENDMDL
MODEL 4
REMARK VINA RESULT:    -3.799      0.785      2.622
REMARK INTER + INTRA:          -3.910
REMARK INTER:                  -3.910
REMARK INTRA:                   0.000
REMARK UNBOUND:                 0.000
REMARK SMILES Cc1cccc(O)c1C
REMARK SMILES IDX 1 1 2 2 8 3 6 4 5 5 4 6 3 7 9 8 7 9
REMARK H PARENT 7 10
REMARK Flexibility Score: inf
ROOT
ATOM      1  C   UNL     1      32.301  -6.162 -22.152  1.00  0.00     0.045 C 
ATOM      2  C   UNL     1      31.286  -6.255 -23.263  1.00  0.00    -0.045 A 
ATOM      3  C   UNL     1      31.325  -7.292 -24.237  1.00  0.00    -0.006 A 
ATOM      4  C   UNL     1      30.338  -7.317 -25.254  1.00  0.00     0.118 A 
ATOM      5  C   UNL     1      29.345  -6.334 -25.292  1.00  0.00     0.046 A 
ATOM      6  C   UNL     1      29.313  -5.323 -24.336  1.00  0.00     0.004 A 
ATOM      7  C   UNL     1      30.275  -5.282 -23.330  1.00  0.00     0.004 A 
ATOM      8  C   UNL     1      32.390  -8.365 -24.216  1.00  0.00     0.048 C 
ENDROOT
BRANCH   4   9
ATOM      9  O   UNL     1      30.314  -8.304 -26.243  1.00  0.00    -0.508 OA
ATOM     10  H   UNL     1      31.110  -8.884 -26.472  1.00  0.00     0.293 HD
ENDBRANCH   4   9
TORSDOF 1
ENDMDL
MODEL 5
REMARK VINA RESULT:    -3.747      2.297      2.671
REMARK INTER + INTRA:          -3.856
REMARK INTER:                  -3.856
REMARK INTRA:                   0.000
REMARK UNBOUND:                 0.000
REMARK SMILES Cc1cccc(O)c1C
REMARK SMILES IDX 1 1 2 2 8 3 6 4 5 5 4 6 3 7 9 8 7 9
REMARK H PARENT 7 10
REMARK Flexibility Score: inf
ROOT
ATOM      1  C   UNL     1      32.935  -5.140 -21.667  1.00  0.00     0.045 C 
ATOM      2  C   UNL     1      32.812  -6.162 -22.770  1.00  0.00    -0.045 A 
ATOM      3  C   UNL     1      33.358  -5.944 -24.065  1.00  0.00    -0.006 A 
ATOM      4  C   UNL     1      33.204  -6.949 -25.054  1.00  0.00     0.118 A 
ATOM      5  C   UNL     1      32.525  -8.133 -24.750  1.00  0.00     0.046 A 
ATOM      6  C   UNL     1      31.994  -8.339 -23.480  1.00  0.00     0.004 A 
ATOM      7  C   UNL     1      32.135  -7.362 -22.497  1.00  0.00     0.004 A 
ATOM      8  C   UNL     1      34.095  -4.671 -24.416  1.00  0.00     0.048 C 
ENDROOT
BRANCH   4   9
ATOM      9  O   UNL     1      33.713  -6.804 -26.347  1.00  0.00    -0.508 OA
ATOM     10  H   UNL     1      34.430  -7.402 -26.735  1.00  0.00     0.293 HD
ENDBRANCH   4   9
TORSDOF 1
ENDMDL
MODEL 6
REMARK VINA RESULT:    -3.687     16.511     18.517
REMARK INTER + INTRA:          -3.795
REMARK INTER:                  -3.795
REMARK INTRA:                   0.000
REMARK UNBOUND:                 0.000
REMARK SMILES Cc1cccc(O)c1C
REMARK SMILES IDX 1 1 2 2 8 3 6 4 5 5 4 6 3 7 9 8 7 9
REMARK H PARENT 7 10
REMARK Flexibility Score: inf
ROOT
ATOM      1  C   UNL     1      23.435   7.402 -33.019  1.00  0.00     0.045 C 
ATOM      2  C   UNL     1      22.151   6.617 -33.115  1.00  0.00    -0.045 A 
ATOM      3  C   UNL     1      21.862   5.533 -32.241  1.00  0.00    -0.006 A 
ATOM      4  C   UNL     1      20.634   4.839 -32.390  1.00  0.00     0.118 A 
ATOM      5  C   UNL     1      19.728   5.223 -33.382  1.00  0.00     0.046 A 
ATOM      6  C   UNL     1      20.018   6.285 -34.233  1.00  0.00     0.004 A 
ATOM      7  C   UNL     1      21.219   6.977 -34.103  1.00  0.00     0.004 A 
ATOM      8  C   UNL     1      22.827   5.100 -31.161  1.00  0.00     0.048 C 
ENDROOT
BRANCH   4   9
ATOM      9  O   UNL     1      20.283   3.764 -31.568  1.00  0.00    -0.508 OA
ATOM     10  H   UNL     1      20.958   3.194 -31.076  1.00  0.00     0.293 HD
ENDBRANCH   4   9
TORSDOF 1
ENDMDL
MODEL 7
REMARK VINA RESULT:    -3.635      2.301      3.057
REMARK INTER + INTRA:          -3.741
REMARK INTER:                  -3.741
REMARK INTRA:                   0.000
REMARK UNBOUND:                 0.000
REMARK SMILES Cc1cccc(O)c1C
REMARK SMILES IDX 1 1 2 2 8 3 6 4 5 5 4 6 3 7 9 8 7 9
REMARK H PARENT 7 10
REMARK Flexibility Score: inf
ROOT
ATOM      1  C   UNL     1      29.712  -7.629 -24.332  1.00  0.00     0.045 C 
ATOM      2  C   UNL     1      31.111  -7.262 -23.907  1.00  0.00    -0.045 A 
ATOM      3  C   UNL     1      31.415  -6.005 -23.314  1.00  0.00    -0.006 A 
ATOM      4  C   UNL     1      32.754  -5.728 -22.939  1.00  0.00     0.118 A 
ATOM      5  C   UNL     1      33.754  -6.681 -23.153  1.00  0.00     0.046 A 
ATOM      6  C   UNL     1      33.449  -7.908 -23.734  1.00  0.00     0.004 A 
ATOM      7  C   UNL     1      32.139  -8.198 -24.109  1.00  0.00     0.004 A 
ATOM      8  C   UNL     1      30.350  -4.959 -23.073  1.00  0.00     0.048 C 
ENDROOT
BRANCH   4   9
ATOM      9  O   UNL     1      33.126  -4.515 -22.351  1.00  0.00    -0.508 OA
ATOM     10  H   UNL     1      34.064  -4.141 -22.390  1.00  0.00     0.293 HD
ENDBRANCH   4   9
TORSDOF 1
ENDMDL
MODEL 8
REMARK VINA RESULT:    -3.631      5.228      6.579
REMARK INTER + INTRA:          -3.737
REMARK INTER:                  -3.737
REMARK INTRA:                   0.000
REMARK UNBOUND:                 0.000
REMARK SMILES Cc1cccc(O)c1C
REMARK SMILES IDX 1 1 2 2 8 3 6 4 5 5 4 6 3 7 9 8 7 9
REMARK H PARENT 7 10
REMARK Flexibility Score: inf
ROOT
ATOM      1  C   UNL     1      33.956  -2.514 -17.349  1.00  0.00     0.045 C 
ATOM      2  C   UNL     1      33.777  -3.466 -18.504  1.00  0.00    -0.045 A 
ATOM      3  C   UNL     1      33.272  -4.784 -18.326  1.00  0.00    -0.006 A 
ATOM      4  C   UNL     1      33.131  -5.625 -19.459  1.00  0.00     0.118 A 
ATOM      5  C   UNL     1      33.486  -5.158 -20.727  1.00  0.00     0.046 A 
ATOM      6  C   UNL     1      33.979  -3.868 -20.894  1.00  0.00     0.004 A 
ATOM      7  C   UNL     1      34.125  -3.027 -19.793  1.00  0.00     0.004 A 
ATOM      8  C   UNL     1      32.883  -5.310 -16.963  1.00  0.00     0.048 C 
ENDROOT
BRANCH   4   9
ATOM      9  O   UNL     1      32.642  -6.931 -19.359  1.00  0.00    -0.508 OA
ATOM     10  H   UNL     1      33.145  -7.682 -18.909  1.00  0.00     0.293 HD
ENDBRANCH   4   9
TORSDOF 1
ENDMDL
MODEL 9
REMARK VINA RESULT:    -3.616      2.205      2.727
REMARK INTER + INTRA:          -3.722
REMARK INTER:                  -3.722
REMARK INTRA:                   0.000
REMARK UNBOUND:                 0.000
REMARK SMILES Cc1cccc(O)c1C
REMARK SMILES IDX 1 1 2 2 8 3 6 4 5 5 4 6 3 7 9 8 7 9
REMARK H PARENT 7 10
REMARK Flexibility Score: inf
ROOT
ATOM      1  C   UNL     1      32.741  -5.741 -21.269  1.00  0.00     0.045 C 
ATOM      2  C   UNL     1      33.065  -5.992 -22.720  1.00  0.00    -0.045 A 
ATOM      3  C   UNL     1      32.652  -7.175 -23.393  1.00  0.00    -0.006 A 
ATOM      4  C   UNL     1      32.993  -7.344 -24.759  1.00  0.00     0.118 A 
ATOM      5  C   UNL     1      33.724  -6.357 -25.426  1.00  0.00     0.046 A 
ATOM      6  C   UNL     1      34.125  -5.202 -24.761  1.00  0.00     0.004 A 
ATOM      7  C   UNL     1      33.800  -5.019 -23.419  1.00  0.00     0.004 A 
ATOM      8  C   UNL     1      31.861  -8.256 -22.691  1.00  0.00     0.048 C 
ENDROOT
BRANCH   4   9
ATOM      9  O   UNL     1      32.621  -8.480 -25.483  1.00  0.00    -0.508 OA
ATOM     10  H   UNL     1      32.710  -9.422 -25.128  1.00  0.00     0.293 HD
ENDBRANCH   4   9
TORSDOF 1
ENDMDL
