MODEL 1
REMARK VINA RESULT:    -3.121      0.000      0.000
REMARK INTER + INTRA:          -3.121
REMARK INTER:                  -3.121
REMARK INTRA:                   0.000
REMARK UNBOUND:                 0.000
REMARK SMILES CC1(C)[C@@H]2CC[C@@]1(C)C(=O)C2
REMARK SMILES IDX 1 1 2 2 4 3 5 4 6 5 7 6 9 7 10 8 11 9 8 10 3 11
REMARK H PARENT
REMARK Flexibility Score: inf
ROOT
ATOM      1  C   UNL     1     -30.979  40.934 -27.124  1.00  0.00     0.012 C 
ATOM      2  C   UNL     1     -31.328  40.549 -25.653  1.00  0.00    -0.020 C 
ATOM      3  C   UNL     1     -32.058  39.190 -25.523  1.00  0.00     0.003 C 
ATOM      4  C   UNL     1     -32.125  38.984 -23.985  1.00  0.00     0.005 C 
ATOM      5  C   UNL     1     -30.785  39.585 -23.494  1.00  0.00     0.015 C 
ATOM      6  C   UNL     1     -30.128  40.068 -24.810  1.00  0.00     0.032 C 
ATOM      7  C   UNL     1     -29.763  38.801 -25.544  1.00  0.00     0.139 C 
ATOM      8  O   UNL     1     -28.643  38.322 -25.636  1.00  0.00    -0.299 OA
ATOM      9  C   UNL     1     -31.018  38.167 -26.058  1.00  0.00     0.080 C 
ATOM     10  C   UNL     1     -28.978  41.064 -24.626  1.00  0.00     0.020 C 
ATOM     11  C   UNL     1     -32.125  41.751 -25.060  1.00  0.00     0.012 C 
ENDROOT
TORSDOF 0
ENDMDL
MODEL 2
REMARK VINA RESULT:    -1.420      1.394      2.653
REMARK INTER + INTRA:          -1.420
REMARK INTER:                  -1.420
REMARK INTRA:                   0.000
REMARK UNBOUND:                 0.000
REMARK SMILES CC1(C)[C@@H]2CC[C@@]1(C)C(=O)C2
REMARK SMILES IDX 1 1 2 2 4 3 5 4 6 5 7 6 9 7 10 8 11 9 8 10 3 11
REMARK H PARENT
REMARK Flexibility Score: inf
ROOT
ATOM      1  C   UNL     1     -28.652  39.311 -25.254  1.00  0.00     0.012 C 
ATOM      2  C   UNL     1     -29.801  40.350 -25.065  1.00  0.00    -0.020 C 
ATOM      3  C   UNL     1     -30.380  40.884 -26.398  1.00  0.00     0.003 C 
ATOM      4  C   UNL     1     -31.587  41.741 -25.925  1.00  0.00     0.005 C 
ATOM      5  C   UNL     1     -32.125  40.946 -24.710  1.00  0.00     0.015 C 
ATOM      6  C   UNL     1     -31.154  39.743 -24.635  1.00  0.00     0.032 C 
ATOM      7  C   UNL     1     -31.483  38.908 -25.847  1.00  0.00     0.139 C 
ATOM      8  O   UNL     1     -32.125  37.869 -25.850  1.00  0.00    -0.299 OA
ATOM      9  C   UNL     1     -30.979  39.615 -27.067  1.00  0.00     0.080 C 
ATOM     10  C   UNL     1     -31.172  38.987 -23.302  1.00  0.00     0.020 C 
ATOM     11  C   UNL     1     -29.238  41.464 -24.131  1.00  0.00     0.012 C 
ENDROOT
TORSDOF 0
ENDMDL
MODEL 3
REMARK VINA RESULT:    -0.877      1.411      3.041
REMARK INTER + INTRA:          -0.877
REMARK INTER:                  -0.877
REMARK INTRA:                   0.000
REMARK UNBOUND:                 0.000
REMARK SMILES CC1(C)[C@@H]2CC[C@@]1(C)C(=O)C2
REMARK SMILES IDX 1 1 2 2 4 3 5 4 6 5 7 6 9 7 10 8 11 9 8 10 3 11
REMARK H PARENT
REMARK Flexibility Score: inf
ROOT
ATOM      1  C   UNL     1     -31.562  39.249 -23.390  1.00  0.00     0.012 C 
ATOM      2  C   UNL     1     -31.489  39.617 -24.905  1.00  0.00    -0.020 C 
ATOM      3  C   UNL     1     -32.124  40.989 -25.242  1.00  0.00     0.003 C 
ATOM      4  C   UNL     1     -31.765  41.171 -26.742  1.00  0.00     0.005 C 
ATOM      5  C   UNL     1     -30.357  40.534 -26.844  1.00  0.00     0.015 C 
ATOM      6  C   UNL     1     -30.094  40.060 -25.394  1.00  0.00     0.032 C 
ATOM      7  C   UNL     1     -29.911  41.331 -24.602  1.00  0.00     0.139 C 
ATOM      8  O   UNL     1     -28.847  41.788 -24.214  1.00  0.00    -0.299 OA
ATOM      9  C   UNL     1     -31.243  41.999 -24.454  1.00  0.00     0.080 C 
ATOM     10  C   UNL     1     -28.962  39.038 -25.249  1.00  0.00     0.020 C 
ATOM     11  C   UNL     1     -32.124  38.423 -25.680  1.00  0.00     0.012 C 
ENDROOT
TORSDOF 0
ENDMDL
MODEL 4
REMARK VINA RESULT:    -0.874      1.029      2.840
REMARK INTER + INTRA:          -0.874
REMARK INTER:                  -0.874
REMARK INTRA:                   0.000
REMARK UNBOUND:                 0.000
REMARK SMILES CC1(C)[C@@H]2CC[C@@]1(C)C(=O)C2
REMARK SMILES IDX 1 1 2 2 4 3 5 4 6 5 7 6 9 7 10 8 11 9 8 10 3 11
REMARK H PARENT
REMARK Flexibility Score: inf
ROOT
ATOM      1  C   UNL     1     -31.263  39.006 -23.281  1.00  0.00     0.012 C 
ATOM      2  C   UNL     1     -31.025  40.022 -24.441  1.00  0.00    -0.020 C 
ATOM      3  C   UNL     1     -29.583  40.584 -24.488  1.00  0.00     0.003 C 
ATOM      4  C   UNL     1     -29.582  41.410 -25.804  1.00  0.00     0.005 C 
ATOM      5  C   UNL     1     -30.487  40.574 -26.741  1.00  0.00     0.015 C 
ATOM      6  C   UNL     1     -30.900  39.384 -25.841  1.00  0.00     0.032 C 
ATOM      7  C   UNL     1     -29.637  38.577 -25.668  1.00  0.00     0.139 C 
ATOM      8  O   UNL     1     -29.370  37.529 -26.237  1.00  0.00    -0.299 OA
ATOM      9  C   UNL     1     -28.712  39.326 -24.759  1.00  0.00     0.080 C 
ATOM     10  C   UNL     1     -32.111  38.590 -26.342  1.00  0.00     0.020 C 
ATOM     11  C   UNL     1     -32.124  41.118 -24.299  1.00  0.00     0.012 C 
ENDROOT
TORSDOF 0
ENDMDL
MODEL 5
REMARK VINA RESULT:    -0.146      1.562      2.974
REMARK INTER + INTRA:          -0.146
REMARK INTER:                  -0.146
REMARK INTRA:                   0.000
REMARK UNBOUND:                 0.000
REMARK SMILES CC1(C)[C@@H]2CC[C@@]1(C)C(=O)C2
REMARK SMILES IDX 1 1 2 2 4 3 5 4 6 5 7 6 9 7 10 8 11 9 8 10 3 11
REMARK H PARENT
REMARK Flexibility Score: inf
ROOT
ATOM      1  C   UNL     1     -32.070  42.234 -25.148  1.00  0.00     0.012 C 
ATOM      2  C   UNL     1     -30.814  41.418 -25.586  1.00  0.00    -0.020 C 
ATOM      3  C   UNL     1     -29.784  41.206 -24.449  1.00  0.00     0.003 C 
ATOM      4  C   UNL     1     -28.752  40.244 -25.100  1.00  0.00     0.005 C 
ATOM      5  C   UNL     1     -29.635  39.337 -25.992  1.00  0.00     0.015 C 
ATOM      6  C   UNL     1     -31.056  39.902 -25.748  1.00  0.00     0.032 C 
ATOM      7  C   UNL     1     -31.383  39.518 -24.326  1.00  0.00     0.139 C 
ATOM      8  O   UNL     1     -32.124  38.611 -23.979  1.00  0.00    -0.299 OA
ATOM      9  C   UNL     1     -30.567  40.367 -23.401  1.00  0.00     0.080 C 
ATOM     10  C   UNL     1     -32.100  39.483 -26.788  1.00  0.00     0.020 C 
ATOM     11  C   UNL     1     -30.232  42.142 -26.837  1.00  0.00     0.012 C 
ENDROOT
TORSDOF 0
ENDMDL
