MODEL 1
REMARK VINA RESULT:    -1.589      0.000      0.000
REMARK INTER + INTRA:          -1.758
REMARK INTER:                  -1.821
REMARK INTRA:                   0.063
REMARK UNBOUND:                 0.063
REMARK SMILES CC(C)[C@@H]([NH3+])C(=O)[O-]
REMARK SMILES IDX 4 1 5 2 6 6 7 7 8 8 2 9 1 10 3 11
REMARK H PARENT 5 3 5 4 5 5
REMARK Flexibility Score: inf
ROOT
ATOM      1  C   UNL     1      -1.620  -3.115 -14.214  1.00  0.00     0.230 C 
ENDROOT
BRANCH   1   2
ATOM      2  N   UNL     1      -2.121  -1.812 -13.751  1.00  0.00    -0.350 N 
ATOM      3  H   UNL     1      -1.332  -1.225 -13.398  1.00  0.00     0.345 HD
ATOM      4  H   UNL     1      -2.787  -1.945 -12.955  1.00  0.00     0.345 HD
ATOM      5  H   UNL     1      -2.615  -1.309 -14.525  1.00  0.00     0.345 HD
ENDBRANCH   1   2
BRANCH   1   6
ATOM      6  C   UNL     1      -0.961  -2.945 -15.560  1.00  0.00     0.099 C 
ATOM      7  O   UNL     1       0.191  -3.411 -15.766  1.00  0.00    -0.544 OA
ATOM      8  O   UNL     1      -1.618  -2.268 -16.581  1.00  0.00    -0.544 OA
ENDBRANCH   1   6
BRANCH   1   9
ATOM      9  C   UNL     1      -0.629  -3.752 -13.191  1.00  0.00     0.047 C 
ATOM     10  C   UNL     1      -0.924  -3.299 -11.751  1.00  0.00     0.014 C 
ATOM     11  C   UNL     1      -0.674  -5.288 -13.256  1.00  0.00     0.014 C 
ENDBRANCH   1   9
TORSDOF 3
ENDMDL
MODEL 2
REMARK VINA RESULT:    -0.848      2.177      3.268
REMARK INTER + INTRA:          -0.909
REMARK INTER:                  -0.923
REMARK INTRA:                   0.014
REMARK UNBOUND:                 0.063
REMARK SMILES CC(C)[C@@H]([NH3+])C(=O)[O-]
REMARK SMILES IDX 4 1 5 2 6 6 7 7 8 8 2 9 1 10 3 11
REMARK H PARENT 5 3 5 4 5 5
REMARK Flexibility Score: inf
ROOT
ATOM      1  C   UNL     1      -0.967  -2.748 -13.828  1.00  0.00     0.230 C 
ENDROOT
BRANCH   1   2
ATOM      2  N   UNL     1      -2.183  -1.928 -13.720  1.00  0.00    -0.350 N 
ATOM      3  H   UNL     1      -2.697  -2.156 -12.839  1.00  0.00     0.345 HD
ATOM      4  H   UNL     1      -2.829  -2.136 -14.517  1.00  0.00     0.345 HD
ATOM      5  H   UNL     1      -1.945  -0.909 -13.734  1.00  0.00     0.345 HD
ENDBRANCH   1   2
BRANCH   1   6
ATOM      6  C   UNL     1      -0.946  -3.756 -12.705  1.00  0.00     0.099 C 
ATOM      7  O   UNL     1      -0.935  -4.989 -12.961  1.00  0.00    -0.544 OA
ATOM      8  O   UNL     1      -0.941  -3.329 -11.383  1.00  0.00    -0.544 OA
ENDBRANCH   1   6
BRANCH   1   9
ATOM      9  C   UNL     1      -0.869  -3.461 -15.211  1.00  0.00     0.047 C 
ATOM     10  C   UNL     1      -1.585  -2.667 -16.317  1.00  0.00     0.014 C 
ATOM     11  C   UNL     1       0.598  -3.685 -15.620  1.00  0.00     0.014 C 
ENDBRANCH   1   9
TORSDOF 3
ENDMDL
MODEL 3
REMARK VINA RESULT:    -0.626      1.663      2.182
REMARK INTER + INTRA:          -0.654
REMARK INTER:                  -0.597
REMARK INTRA:                  -0.057
REMARK UNBOUND:                 0.063
REMARK SMILES CC(C)[C@@H]([NH3+])C(=O)[O-]
REMARK SMILES IDX 4 1 5 2 6 6 7 7 8 8 2 9 1 10 3 11
REMARK H PARENT 5 3 5 4 5 5
REMARK Flexibility Score: inf
ROOT
ATOM      1  C   UNL     1      -0.353  -3.400 -14.109  1.00  0.00     0.230 C 
ENDROOT
BRANCH   1   2
ATOM      2  N   UNL     1       0.535  -4.377 -14.757  1.00  0.00    -0.350 N 
ATOM      3  H   UNL     1       1.247  -4.727 -14.076  1.00  0.00     0.345 HD
ATOM      4  H   UNL     1       1.056  -3.924 -15.544  1.00  0.00     0.345 HD
ATOM      5  H   UNL     1      -0.015  -5.183 -15.135  1.00  0.00     0.345 HD
ENDBRANCH   1   2
BRANCH   1   6
ATOM      6  C   UNL     1      -1.287  -2.816 -15.141  1.00  0.00     0.099 C 
ATOM      7  O   UNL     1      -2.425  -3.324 -15.324  1.00  0.00    -0.544 OA
ATOM      8  O   UNL     1      -0.896  -1.719 -15.898  1.00  0.00    -0.544 OA
ENDBRANCH   1   6
BRANCH   1   9
ATOM      9  C   UNL     1      -1.157  -4.035 -12.934  1.00  0.00     0.047 C 
ATOM     10  C   UNL     1      -0.851  -5.535 -12.776  1.00  0.00     0.014 C 
ATOM     11  C   UNL     1      -0.861  -3.318 -11.605  1.00  0.00     0.014 C 
ENDBRANCH   1   9
TORSDOF 3
ENDMDL
MODEL 4
REMARK VINA RESULT:    -0.343      2.491      3.585
REMARK INTER + INTRA:          -0.331
REMARK INTER:                  -0.277
REMARK INTRA:                  -0.054
REMARK UNBOUND:                 0.063
REMARK SMILES CC(C)[C@@H]([NH3+])C(=O)[O-]
REMARK SMILES IDX 4 1 5 2 6 6 7 7 8 8 2 9 1 10 3 11
REMARK H PARENT 5 3 5 4 5 5
REMARK Flexibility Score: inf
ROOT
ATOM      1  C   UNL     1      -0.884  -3.853 -14.615  1.00  0.00     0.230 C 
ENDROOT
BRANCH   1   2
ATOM      2  N   UNL     1       0.529  -3.809 -15.024  1.00  0.00    -0.350 N 
ATOM      3  H   UNL     1       0.637  -4.187 -15.992  1.00  0.00     0.345 HD
ATOM      4  H   UNL     1       1.105  -4.411 -14.391  1.00  0.00     0.345 HD
ATOM      5  H   UNL     1       0.894  -2.830 -14.986  1.00  0.00     0.345 HD
ENDBRANCH   1   2
BRANCH   1   6
ATOM      6  C   UNL     1      -0.964  -3.912 -13.110  1.00  0.00     0.099 C 
ATOM      7  O   UNL     1      -0.996  -2.849 -12.435  1.00  0.00    -0.544 OA
ATOM      8  O   UNL     1      -0.998  -5.139 -12.458  1.00  0.00    -0.544 OA
ENDBRANCH   1   6
BRANCH   1   9
ATOM      9  C   UNL     1      -1.684  -2.632 -15.163  1.00  0.00     0.047 C 
ATOM     10  C   UNL     1      -0.765  -1.600 -15.836  1.00  0.00     0.014 C 
ATOM     11  C   UNL     1      -2.762  -3.079 -16.167  1.00  0.00     0.014 C 
ENDBRANCH   1   9
TORSDOF 3
ENDMDL
MODEL 5
REMARK VINA RESULT:    -0.024      3.111      3.965
REMARK INTER + INTRA:           0.035
REMARK INTER:                   0.099
REMARK INTRA:                  -0.064
REMARK UNBOUND:                 0.063
REMARK SMILES CC(C)[C@@H]([NH3+])C(=O)[O-]
REMARK SMILES IDX 4 1 5 2 6 6 7 7 8 8 2 9 1 10 3 11
REMARK H PARENT 5 3 5 4 5 5
REMARK Flexibility Score: inf
ROOT
ATOM      1  C   UNL     1      -1.173  -4.526 -13.107  1.00  0.00     0.230 C 
ENDROOT
BRANCH   1   2
ATOM      2  N   UNL     1      -0.459  -5.800 -13.285  1.00  0.00    -0.350 N 
ATOM      3  H   UNL     1      -0.805  -6.508 -12.598  1.00  0.00     0.345 HD
ATOM      4  H   UNL     1       0.563  -5.667 -13.103  1.00  0.00     0.345 HD
ATOM      5  H   UNL     1      -0.586  -6.163 -14.258  1.00  0.00     0.345 HD
ENDBRANCH   1   2
BRANCH   1   6
ATOM      6  C   UNL     1      -1.117  -4.123 -11.655  1.00  0.00     0.099 C 
ATOM      7  O   UNL     1      -0.675  -2.990 -11.328  1.00  0.00    -0.544 OA
ATOM      8  O   UNL     1      -1.549  -5.001 -10.668  1.00  0.00    -0.544 OA
ENDBRANCH   1   6
BRANCH   1   9
ATOM      9  C   UNL     1      -0.588  -3.402 -14.015  1.00  0.00     0.047 C 
ATOM     10  C   UNL     1       0.488  -3.940 -14.974  1.00  0.00     0.014 C 
ATOM     11  C   UNL     1      -1.694  -2.714 -14.834  1.00  0.00     0.014 C 
ENDBRANCH   1   9
TORSDOF 3
ENDMDL
MODEL 6
REMARK VINA RESULT:     0.399      1.747      2.281
REMARK INTER + INTRA:           0.521
REMARK INTER:                  -0.067
REMARK INTRA:                   0.588
REMARK UNBOUND:                 0.063
REMARK SMILES CC(C)[C@@H]([NH3+])C(=O)[O-]
REMARK SMILES IDX 4 1 5 2 6 6 7 7 8 8 2 9 1 10 3 11
REMARK H PARENT 5 3 5 4 5 5
REMARK Flexibility Score: inf
ROOT
ATOM      1  C   UNL     1      -1.924  -3.242 -15.813  1.00  0.00     0.230 C 
ENDROOT
BRANCH   1   2
ATOM      2  N   UNL     1      -3.295  -3.423 -16.313  1.00  0.00    -0.350 N 
ATOM      3  H   UNL     1      -3.709  -2.500 -16.578  1.00  0.00     0.345 HD
ATOM      4  H   UNL     1      -3.901  -3.828 -15.561  1.00  0.00     0.345 HD
ATOM      5  H   UNL     1      -3.307  -4.064 -17.139  1.00  0.00     0.345 HD
ENDBRANCH   1   2
BRANCH   1   6
ATOM      6  C   UNL     1      -1.375  -1.935 -16.329  1.00  0.00     0.099 C 
ATOM      7  O   UNL     1      -0.300  -1.471 -15.865  1.00  0.00    -0.544 OA
ATOM      8  O   UNL     1      -2.054  -1.232 -17.317  1.00  0.00    -0.544 OA
ENDBRANCH   1   6
BRANCH   1   9
ATOM      9  C   UNL     1      -1.862  -3.290 -14.256  1.00  0.00     0.047 C 
ATOM     10  C   UNL     1      -0.601  -4.013 -13.754  1.00  0.00     0.014 C 
ATOM     11  C   UNL     1      -1.906  -1.874 -13.653  1.00  0.00     0.014 C 
ENDBRANCH   1   9
TORSDOF 3
ENDMDL
MODEL 7
REMARK VINA RESULT:     0.429      2.865      3.655
REMARK INTER + INTRA:           0.555
REMARK INTER:                   0.602
REMARK INTRA:                  -0.047
REMARK UNBOUND:                 0.063
REMARK SMILES CC(C)[C@@H]([NH3+])C(=O)[O-]
REMARK SMILES IDX 4 1 5 2 6 6 7 7 8 8 2 9 1 10 3 11
REMARK H PARENT 5 3 5 4 5 5
REMARK Flexibility Score: inf
ROOT
ATOM      1  C   UNL     1      -0.560  -3.930 -12.586  1.00  0.00     0.230 C 
ENDROOT
BRANCH   1   2
ATOM      2  N   UNL     1      -1.032  -2.805 -11.764  1.00  0.00    -0.350 N 
ATOM      3  H   UNL     1      -2.068  -2.862 -11.633  1.00  0.00     0.345 HD
ATOM      4  H   UNL     1      -0.832  -1.898 -12.247  1.00  0.00     0.345 HD
ATOM      5  H   UNL     1      -0.559  -2.805 -10.831  1.00  0.00     0.345 HD
ENDBRANCH   1   2
BRANCH   1   6
ATOM      6  C   UNL     1      -1.104  -5.220 -12.023  1.00  0.00     0.099 C 
ATOM      7  O   UNL     1      -1.822  -5.206 -10.988  1.00  0.00    -0.544 OA
ATOM      8  O   UNL     1      -0.811  -6.431 -12.639  1.00  0.00    -0.544 OA
ENDBRANCH   1   6
BRANCH   1   9
ATOM      9  C   UNL     1      -0.968  -3.767 -14.082  1.00  0.00     0.047 C 
ATOM     10  C   UNL     1      -1.717  -2.446 -14.331  1.00  0.00     0.014 C 
ATOM     11  C   UNL     1       0.262  -3.830 -15.005  1.00  0.00     0.014 C 
ENDBRANCH   1   9
TORSDOF 3
ENDMDL
