MODEL 1
REMARK VINA RESULT:    -4.779      0.000      0.000
REMARK INTER + INTRA:          -5.647
REMARK INTER:                  -5.478
REMARK INTRA:                  -0.169
REMARK UNBOUND:                -0.169
REMARK SMILES CC=Cc1ccc(O)c(OC)c1
REMARK SMILES IDX 4 1 12 2 9 3 7 4 6 5 5 6 3 7 1 8 2 9 10 10 11 11 8 12
REMARK H PARENT 8 13
REMARK Flexibility Score: inf
ROOT
ATOM      1  C   UNL     1      -8.397 -19.542 -16.684  1.00  0.00    -0.022 A 
ATOM      2  C   UNL     1      -8.499 -18.403 -17.500  1.00  0.00     0.058 A 
ATOM      3  C   UNL     1      -8.999 -17.189 -16.988  1.00  0.00     0.161 A 
ATOM      4  C   UNL     1      -9.407 -17.124 -15.650  1.00  0.00     0.157 A 
ATOM      5  C   UNL     1      -9.322 -18.259 -14.834  1.00  0.00     0.051 A 
ATOM      6  C   UNL     1      -8.825 -19.460 -15.345  1.00  0.00     0.012 A 
ENDROOT
BRANCH   1   7
ATOM      7  C   UNL     1      -7.872 -20.797 -17.278  1.00  0.00     0.003 C 
ATOM      8  C   UNL     1      -6.261 -22.639 -17.560  1.00  0.00     0.035 C 
ATOM      9  C   UNL     1      -6.729 -21.381 -16.901  1.00  0.00    -0.030 C 
ENDBRANCH   1   7
BRANCH   3  10
ATOM     10  O   UNL     1      -9.104 -16.031 -17.776  1.00  0.00    -0.493 OA
ATOM     11  C   UNL     1     -10.010 -15.875 -18.864  1.00  0.00     0.278 C 
ENDBRANCH   3  10
BRANCH   4  12
ATOM     12  O   UNL     1      -9.900 -15.926 -15.137  1.00  0.00    -0.504 OA
ATOM     13  H   UNL     1     -10.380 -15.255 -15.726  1.00  0.00     0.293 HD
ENDBRANCH   4  12
TORSDOF 3
ENDMDL
MODEL 2
REMARK VINA RESULT:    -4.324      2.371      3.723
REMARK INTER + INTRA:          -5.125
REMARK INTER:                  -4.958
REMARK INTRA:                  -0.167
REMARK UNBOUND:                -0.169
REMARK SMILES CC=Cc1ccc(O)c(OC)c1
REMARK SMILES IDX 4 1 12 2 9 3 7 4 6 5 5 6 3 7 1 8 2 9 10 10 11 11 8 12
REMARK H PARENT 8 13
REMARK Flexibility Score: inf
ROOT
ATOM      1  C   UNL     1      -8.558 -18.750 -18.406  1.00  0.00    -0.022 A 
ATOM      2  C   UNL     1      -9.000 -17.962 -17.330  1.00  0.00     0.058 A 
ATOM      3  C   UNL     1      -9.034 -18.481 -16.020  1.00  0.00     0.161 A 
ATOM      4  C   UNL     1      -8.629 -19.803 -15.794  1.00  0.00     0.157 A 
ATOM      5  C   UNL     1      -8.202 -20.599 -16.863  1.00  0.00     0.051 A 
ATOM      6  C   UNL     1      -8.169 -20.081 -18.160  1.00  0.00     0.012 A 
ENDROOT
BRANCH   1   7
ATOM      7  C   UNL     1      -8.553 -18.157 -19.766  1.00  0.00     0.003 C 
ATOM      8  C   UNL     1      -8.339 -18.182 -22.220  1.00  0.00     0.035 C 
ATOM      9  C   UNL     1      -8.343 -18.858 -20.886  1.00  0.00    -0.030 C 
ENDBRANCH   1   7
BRANCH   3  10
ATOM     10  O   UNL     1      -9.461 -17.716 -14.922  1.00  0.00    -0.493 OA
ATOM     11  C   UNL     1     -10.334 -16.594 -15.011  1.00  0.00     0.278 C 
ENDBRANCH   3  10
BRANCH   4  12
ATOM     12  O   UNL     1      -8.658 -20.321 -14.501  1.00  0.00    -0.504 OA
ATOM     13  H   UNL     1      -8.903 -21.288 -14.322  1.00  0.00     0.293 HD
ENDBRANCH   4  12
TORSDOF 3
ENDMDL
MODEL 3
REMARK VINA RESULT:    -4.178      1.600      1.784
REMARK INTER + INTRA:          -4.957
REMARK INTER:                  -4.798
REMARK INTRA:                  -0.159
REMARK UNBOUND:                -0.169
REMARK SMILES CC=Cc1ccc(O)c(OC)c1
REMARK SMILES IDX 4 1 12 2 9 3 7 4 6 5 5 6 3 7 1 8 2 9 10 10 11 11 8 12
REMARK H PARENT 8 13
REMARK Flexibility Score: inf
ROOT
ATOM      1  C   UNL     1      -8.265 -19.928 -17.788  1.00  0.00    -0.022 A 
ATOM      2  C   UNL     1      -8.616 -18.633 -18.206  1.00  0.00     0.058 A 
ATOM      3  C   UNL     1      -8.986 -17.647 -17.269  1.00  0.00     0.161 A 
ATOM      4  C   UNL     1      -9.013 -17.969 -15.907  1.00  0.00     0.157 A 
ATOM      5  C   UNL     1      -8.679 -19.262 -15.485  1.00  0.00     0.051 A 
ATOM      6  C   UNL     1      -8.312 -20.236 -16.416  1.00  0.00     0.012 A 
ENDROOT
BRANCH   1   7
ATOM      7  C   UNL     1      -7.893 -20.930 -18.818  1.00  0.00     0.003 C 
ATOM      8  C   UNL     1      -7.498 -21.748 -21.108  1.00  0.00     0.035 C 
ATOM      9  C   UNL     1      -7.871 -20.678 -20.132  1.00  0.00    -0.030 C 
ENDBRANCH   1   7
BRANCH   3  10
ATOM     10  O   UNL     1      -9.332 -16.341 -17.654  1.00  0.00    -0.493 OA
ATOM     11  C   UNL     1     -10.087 -16.016 -18.818  1.00  0.00     0.278 C 
ENDBRANCH   3  10
BRANCH   4  12
ATOM     12  O   UNL     1      -9.377 -16.998 -14.976  1.00  0.00    -0.504 OA
ATOM     13  H   UNL     1      -9.233 -16.011 -15.154  1.00  0.00     0.293 HD
ENDBRANCH   4  12
TORSDOF 3
ENDMDL
MODEL 4
REMARK VINA RESULT:    -4.137      2.234      4.430
REMARK INTER + INTRA:          -4.911
REMARK INTER:                  -4.736
REMARK INTRA:                  -0.175
REMARK UNBOUND:                -0.169
REMARK SMILES CC=Cc1ccc(O)c(OC)c1
REMARK SMILES IDX 4 1 12 2 9 3 7 4 6 5 5 6 3 7 1 8 2 9 10 10 11 11 8 12
REMARK H PARENT 8 13
REMARK Flexibility Score: inf
ROOT
ATOM      1  C   UNL     1      -9.004 -17.400 -17.717  1.00  0.00    -0.022 A 
ATOM      2  C   UNL     1      -8.618 -18.738 -17.899  1.00  0.00     0.058 A 
ATOM      3  C   UNL     1      -8.605 -19.641 -16.816  1.00  0.00     0.161 A 
ATOM      4  C   UNL     1      -8.974 -19.191 -15.542  1.00  0.00     0.157 A 
ATOM      5  C   UNL     1      -9.346 -17.855 -15.351  1.00  0.00     0.051 A 
ATOM      6  C   UNL     1      -9.358 -16.963 -16.426  1.00  0.00     0.012 A 
ENDROOT
BRANCH   1   7
ATOM      7  C   UNL     1      -8.990 -16.491 -18.890  1.00  0.00     0.003 C 
ATOM      8  C   UNL     1      -8.677 -15.898 -21.260  1.00  0.00     0.035 C 
ATOM      9  C   UNL     1      -8.684 -16.880 -20.133  1.00  0.00    -0.030 C 
ENDBRANCH   1   7
BRANCH   3  10
ATOM     10  O   UNL     1      -8.233 -20.986 -16.967  1.00  0.00    -0.493 OA
ATOM     11  C   UNL     1      -6.888 -21.444 -17.079  1.00  0.00     0.278 C 
ENDBRANCH   3  10
BRANCH   4  12
ATOM     12  O   UNL     1      -8.965 -20.078 -14.468  1.00  0.00    -0.504 OA
ATOM     13  H   UNL     1      -8.228 -20.764 -14.353  1.00  0.00     0.293 HD
ENDBRANCH   4  12
TORSDOF 3
ENDMDL
MODEL 5
REMARK VINA RESULT:    -3.841      3.524      5.553
REMARK INTER + INTRA:          -4.572
REMARK INTER:                  -4.393
REMARK INTRA:                  -0.179
REMARK UNBOUND:                -0.169
REMARK SMILES CC=Cc1ccc(O)c(OC)c1
REMARK SMILES IDX 4 1 12 2 9 3 7 4 6 5 5 6 3 7 1 8 2 9 10 10 11 11 8 12
REMARK H PARENT 8 13
REMARK Flexibility Score: inf
ROOT
ATOM      1  C   UNL     1      -8.303 -19.746 -18.314  1.00  0.00    -0.022 A 
ATOM      2  C   UNL     1      -7.862 -20.799 -19.133  1.00  0.00     0.058 A 
ATOM      3  C   UNL     1      -7.106 -21.862 -18.598  1.00  0.00     0.161 A 
ATOM      4  C   UNL     1      -6.785 -21.859 -17.235  1.00  0.00     0.157 A 
ATOM      5  C   UNL     1      -7.208 -20.805 -16.416  1.00  0.00     0.051 A 
ATOM      6  C   UNL     1      -7.958 -19.753 -16.949  1.00  0.00     0.012 A 
ENDROOT
BRANCH   1   7
ATOM      7  C   UNL     1      -9.087 -18.647 -18.931  1.00  0.00     0.003 C 
ATOM      8  C   UNL     1     -10.161 -16.431 -19.008  1.00  0.00     0.035 C 
ATOM      9  C   UNL     1      -9.350 -17.484 -18.323  1.00  0.00    -0.030 C 
ENDBRANCH   1   7
BRANCH   3  10
ATOM     10  O   UNL     1      -6.659 -22.934 -19.387  1.00  0.00    -0.493 OA
ATOM     11  C   UNL     1      -7.513 -23.808 -20.120  1.00  0.00     0.278 C 
ENDBRANCH   3  10
BRANCH   4  12
ATOM     12  O   UNL     1      -6.039 -22.907 -16.700  1.00  0.00    -0.504 OA
ATOM     13  H   UNL     1      -6.483 -23.741 -16.333  1.00  0.00     0.293 HD
ENDBRANCH   4  12
TORSDOF 3
ENDMDL
MODEL 6
REMARK VINA RESULT:    -3.825      2.912      3.622
REMARK INTER + INTRA:          -4.553
REMARK INTER:                  -4.379
REMARK INTRA:                  -0.174
REMARK UNBOUND:                -0.169
REMARK SMILES CC=Cc1ccc(O)c(OC)c1
REMARK SMILES IDX 4 1 12 2 9 3 7 4 6 5 5 6 3 7 1 8 2 9 10 10 11 11 8 12
REMARK H PARENT 8 13
REMARK Flexibility Score: inf
ROOT
ATOM      1  C   UNL     1      -5.603 -19.245 -17.152  1.00  0.00    -0.022 A 
ATOM      2  C   UNL     1      -6.659 -18.324 -17.245  1.00  0.00     0.058 A 
ATOM      3  C   UNL     1      -7.967 -18.682 -16.858  1.00  0.00     0.161 A 
ATOM      4  C   UNL     1      -8.212 -19.977 -16.383  1.00  0.00     0.157 A 
ATOM      5  C   UNL     1      -7.167 -20.905 -16.302  1.00  0.00     0.051 A 
ATOM      6  C   UNL     1      -5.872 -20.546 -16.686  1.00  0.00     0.012 A 
ENDROOT
BRANCH   1   7
ATOM      7  C   UNL     1      -4.248 -18.818 -17.583  1.00  0.00     0.003 C 
ATOM      8  C   UNL     1      -1.823 -18.467 -17.327  1.00  0.00     0.035 C 
ATOM      9  C   UNL     1      -3.152 -18.936 -16.825  1.00  0.00    -0.030 C 
ENDBRANCH   1   7
BRANCH   3  10
ATOM     10  O   UNL     1      -9.042 -17.782 -16.930  1.00  0.00    -0.493 OA
ATOM     11  C   UNL     1      -9.314 -16.771 -15.965  1.00  0.00     0.278 C 
ENDBRANCH   3  10
BRANCH   4  12
ATOM     12  O   UNL     1      -9.502 -20.337 -15.998  1.00  0.00    -0.504 OA
ATOM     13  H   UNL     1     -10.063 -20.974 -16.551  1.00  0.00     0.293 HD
ENDBRANCH   4  12
TORSDOF 3
ENDMDL
MODEL 7
REMARK VINA RESULT:    -3.795      9.585     10.995
REMARK INTER + INTRA:          -4.520
REMARK INTER:                  -4.351
REMARK INTRA:                  -0.169
REMARK UNBOUND:                -0.169
REMARK SMILES CC=Cc1ccc(O)c(OC)c1
REMARK SMILES IDX 4 1 12 2 9 3 7 4 6 5 5 6 3 7 1 8 2 9 10 10 11 11 8 12
REMARK H PARENT 8 13
REMARK Flexibility Score: inf
ROOT
ATOM      1  C   UNL     1      -1.599 -23.754  -9.784  1.00  0.00    -0.022 A 
ATOM      2  C   UNL     1      -1.646 -22.971 -10.949  1.00  0.00     0.058 A 
ATOM      3  C   UNL     1      -0.641 -22.021 -11.223  1.00  0.00     0.161 A 
ATOM      4  C   UNL     1       0.412 -21.853 -10.314  1.00  0.00     0.157 A 
ATOM      5  C   UNL     1       0.457 -22.619  -9.143  1.00  0.00     0.051 A 
ATOM      6  C   UNL     1      -0.541 -23.560  -8.875  1.00  0.00     0.012 A 
ENDROOT
BRANCH   1   7
ATOM      7  C   UNL     1      -2.689 -24.732  -9.540  1.00  0.00     0.003 C 
ATOM      8  C   UNL     1      -5.030 -25.481  -9.376  1.00  0.00     0.035 C 
ATOM      9  C   UNL     1      -3.990 -24.442  -9.653  1.00  0.00    -0.030 C 
ENDBRANCH   1   7
BRANCH   3  10
ATOM     10  O   UNL     1      -0.654 -21.231 -12.383  1.00  0.00    -0.493 OA
ATOM     11  C   UNL     1      -1.425 -20.043 -12.542  1.00  0.00     0.278 C 
ENDBRANCH   3  10
BRANCH   4  12
ATOM     12  O   UNL     1       1.409 -20.917 -10.579  1.00  0.00    -0.504 OA
ATOM     13  H   UNL     1       1.301 -19.941 -10.330  1.00  0.00     0.293 HD
ENDBRANCH   4  12
TORSDOF 3
ENDMDL
MODEL 8
REMARK VINA RESULT:    -3.649     11.288     12.810
REMARK INTER + INTRA:          -4.352
REMARK INTER:                  -4.182
REMARK INTRA:                  -0.170
REMARK UNBOUND:                -0.169
REMARK SMILES CC=Cc1ccc(O)c(OC)c1
REMARK SMILES IDX 4 1 12 2 9 3 7 4 6 5 5 6 3 7 1 8 2 9 10 10 11 11 8 12
REMARK H PARENT 8 13
REMARK Flexibility Score: inf
ROOT
ATOM      1  C   UNL     1      -2.449 -24.961  -9.624  1.00  0.00    -0.022 A 
ATOM      2  C   UNL     1      -2.089 -26.294  -9.366  1.00  0.00     0.058 A 
ATOM      3  C   UNL     1      -3.073 -27.278  -9.138  1.00  0.00     0.161 A 
ATOM      4  C   UNL     1      -4.425 -26.914  -9.160  1.00  0.00     0.157 A 
ATOM      5  C   UNL     1      -4.791 -25.584  -9.401  1.00  0.00     0.051 A 
ATOM      6  C   UNL     1      -3.813 -24.612  -9.628  1.00  0.00     0.012 A 
ENDROOT
BRANCH   1   7
ATOM      7  C   UNL     1      -1.371 -23.965  -9.847  1.00  0.00     0.003 C 
ATOM      8  C   UNL     1       0.484 -22.486  -9.185  1.00  0.00     0.035 C 
ATOM      9  C   UNL     1      -0.570 -23.502  -8.881  1.00  0.00    -0.030 C 
ENDBRANCH   1   7
BRANCH   3  10
ATOM     10  O   UNL     1      -2.746 -28.620  -8.887  1.00  0.00    -0.493 OA
ATOM     11  C   UNL     1      -2.371 -29.560  -9.890  1.00  0.00     0.278 C 
ENDBRANCH   3  10
BRANCH   4  12
ATOM     12  O   UNL     1      -5.403 -27.881  -8.937  1.00  0.00    -0.504 OA
ATOM     13  H   UNL     1      -6.329 -27.634  -8.607  1.00  0.00     0.293 HD
ENDBRANCH   4  12
TORSDOF 3
ENDMDL
MODEL 9
REMARK VINA RESULT:    -3.627      1.913      3.189
REMARK INTER + INTRA:          -4.327
REMARK INTER:                  -4.172
REMARK INTRA:                  -0.155
REMARK UNBOUND:                -0.169
REMARK SMILES CC=Cc1ccc(O)c(OC)c1
REMARK SMILES IDX 4 1 12 2 9 3 7 4 6 5 5 6 3 7 1 8 2 9 10 10 11 11 8 12
REMARK H PARENT 8 13
REMARK Flexibility Score: inf
ROOT
ATOM      1  C   UNL     1      -8.206 -19.597 -19.204  1.00  0.00    -0.022 A 
ATOM      2  C   UNL     1      -8.238 -19.525 -17.801  1.00  0.00     0.058 A 
ATOM      3  C   UNL     1      -8.738 -18.381 -17.147  1.00  0.00     0.161 A 
ATOM      4  C   UNL     1      -9.200 -17.301 -17.910  1.00  0.00     0.157 A 
ATOM      5  C   UNL     1      -9.158 -17.360 -19.308  1.00  0.00     0.051 A 
ATOM      6  C   UNL     1      -8.662 -18.495 -19.953  1.00  0.00     0.012 A 
ENDROOT
BRANCH   1   7
ATOM      7  C   UNL     1      -7.660 -20.822 -19.840  1.00  0.00     0.003 C 
ATOM      8  C   UNL     1      -7.218 -23.237 -20.037  1.00  0.00     0.035 C 
ATOM      9  C   UNL     1      -7.813 -22.054 -19.343  1.00  0.00    -0.030 C 
ENDBRANCH   1   7
BRANCH   3  10
ATOM     10  O   UNL     1      -8.792 -18.282 -15.748  1.00  0.00    -0.493 OA
ATOM     11  C   UNL     1      -9.090 -19.367 -14.873  1.00  0.00     0.278 C 
ENDBRANCH   3  10
BRANCH   4  12
ATOM     12  O   UNL     1      -9.697 -16.168 -17.269  1.00  0.00    -0.504 OA
ATOM     13  H   UNL     1      -9.090 -15.536 -16.761  1.00  0.00     0.293 HD
ENDBRANCH   4  12
TORSDOF 3
ENDMDL
