MODEL 1
REMARK VINA RESULT:    -6.837      0.000      0.000
REMARK INTER + INTRA:         -12.215
REMARK INTER:                 -10.434
REMARK INTRA:                  -1.781
REMARK UNBOUND:                -1.781
REMARK SMILES CC(=O)CCC=C(C)CCC=C(C)CCC=C(C)C
REMARK SMILES IDX 10 1 11 2 12 3 13 4 14 5 15 6 16 7 18 8 17 9 19 10 9 11 7 12
REMARK SMILES IDX 6 13 8 14 5 15 4 16 2 17 3 18 1 19
REMARK H PARENT
REMARK Flexibility Score: inf
ROOT
ATOM      1  C   UNL     1      -7.721  34.893  22.611  1.00  0.00     0.032 C 
ENDROOT
BRANCH   1   2
ATOM      2  C   UNL     1      -8.597  33.761  22.134  1.00  0.00    -0.028 C 
ATOM      3  C   UNL     1      -8.375  33.044  21.008  1.00  0.00    -0.077 C 
ATOM      4  C   UNL     1      -7.167  33.286  20.134  1.00  0.00     0.039 C 
BRANCH   3   5
ATOM      5  C   UNL     1      -9.357  31.957  20.623  1.00  0.00     0.034 C 
BRANCH   5   6
ATOM      6  C   UNL     1      -9.349  30.794  21.625  1.00  0.00     0.032 C 
BRANCH   6   7
ATOM      7  C   UNL     1      -8.040  30.705  22.373  1.00  0.00    -0.028 C 
ATOM      8  C   UNL     1      -8.243  28.242  22.787  1.00  0.00     0.039 C 
ATOM      9  C   UNL     1      -7.518  29.565  22.876  1.00  0.00    -0.080 C 
ATOM     10  C   UNL     1      -6.179  29.631  23.562  1.00  0.00     0.039 C 
ENDBRANCH   6   7
ENDBRANCH   5   6
ENDBRANCH   3   5
ENDBRANCH   1   2
BRANCH   1  11
ATOM     11  C   UNL     1      -7.146  34.585  23.998  1.00  0.00     0.034 C 
BRANCH  11  12
ATOM     12  C   UNL     1      -8.224  34.688  25.058  1.00  0.00    -0.077 C 
ATOM     13  C   UNL     1      -8.610  33.635  25.815  1.00  0.00    -0.028 C 
ATOM     14  C   UNL     1      -8.851  36.032  25.324  1.00  0.00     0.039 C 
BRANCH  13  15
ATOM     15  C   UNL     1      -8.049  32.240  25.659  1.00  0.00     0.035 C 
BRANCH  15  16
ATOM     16  C   UNL     1      -9.131  31.165  25.814  1.00  0.00     0.079 C 
BRANCH  16  17
ATOM     17  C   UNL     1      -8.579  29.897  26.417  1.00  0.00     0.130 C 
ATOM     18  O   UNL     1      -7.440  29.887  26.857  1.00  0.00    -0.300 OA
ATOM     19  C   UNL     1      -9.405  28.647  26.499  1.00  0.00     0.087 C 
ENDBRANCH  16  17
ENDBRANCH  15  16
ENDBRANCH  13  15
ENDBRANCH  11  12
ENDBRANCH   1  11
TORSDOF 9
ENDMDL
MODEL 2
REMARK VINA RESULT:    -6.639      1.398      4.385
REMARK INTER + INTRA:         -11.914
REMARK INTER:                  -9.967
REMARK INTRA:                  -1.947
REMARK UNBOUND:                -1.781
REMARK SMILES CC(=O)CCC=C(C)CCC=C(C)CCC=C(C)C
REMARK SMILES IDX 10 1 11 2 12 3 13 4 14 5 15 6 16 7 18 8 17 9 19 10 9 11 7 12
REMARK SMILES IDX 6 13 8 14 5 15 4 16 2 17 3 18 1 19
REMARK H PARENT
REMARK Flexibility Score: inf
ROOT
ATOM      1  C   UNL     1      -9.204  31.425  20.779  1.00  0.00     0.032 C 
ENDROOT
BRANCH   1   2
ATOM      2  C   UNL     1      -9.367  30.198  21.641  1.00  0.00    -0.028 C 
ATOM      3  C   UNL     1      -8.369  29.627  22.355  1.00  0.00    -0.077 C 
ATOM      4  C   UNL     1      -6.978  30.215  22.394  1.00  0.00     0.039 C 
BRANCH   3   5
ATOM      5  C   UNL     1      -8.660  28.371  23.150  1.00  0.00     0.034 C 
BRANCH   5   6
ATOM      6  C   UNL     1      -9.474  28.670  24.418  1.00  0.00     0.032 C 
BRANCH   6   7
ATOM      7  C   UNL     1      -8.616  29.260  25.511  1.00  0.00    -0.028 C 
ATOM      8  C   UNL     1      -9.593  31.555  25.279  1.00  0.00     0.039 C 
ATOM      9  C   UNL     1      -8.676  30.544  25.927  1.00  0.00    -0.080 C 
ATOM     10  C   UNL     1      -7.782  30.973  27.061  1.00  0.00     0.039 C 
ENDBRANCH   6   7
ENDBRANCH   5   6
ENDBRANCH   3   5
ENDBRANCH   1   2
BRANCH   1  11
ATOM     11  C   UNL     1      -9.158  32.691  21.641  1.00  0.00     0.034 C 
BRANCH  11  12
ATOM     12  C   UNL     1      -7.987  33.567  21.242  1.00  0.00    -0.077 C 
ATOM     13  C   UNL     1      -7.543  34.589  22.007  1.00  0.00    -0.028 C 
ATOM     14  C   UNL     1      -7.247  33.248  19.968  1.00  0.00     0.039 C 
BRANCH  13  15
ATOM     15  C   UNL     1      -8.186  35.001  23.312  1.00  0.00     0.035 C 
BRANCH  15  16
ATOM     16  C   UNL     1      -7.426  34.453  24.526  1.00  0.00     0.079 C 
BRANCH  16  17
ATOM     17  C   UNL     1      -8.041  34.910  25.825  1.00  0.00     0.130 C 
ATOM     18  O   UNL     1      -7.769  34.320  26.860  1.00  0.00    -0.300 OA
ATOM     19  C   UNL     1      -8.972  36.084  25.878  1.00  0.00     0.087 C 
ENDBRANCH  16  17
ENDBRANCH  15  16
ENDBRANCH  13  15
ENDBRANCH  11  12
ENDBRANCH   1  11
TORSDOF 9
ENDMDL
MODEL 3
REMARK VINA RESULT:    -6.544      1.387      4.532
REMARK INTER + INTRA:         -11.768
REMARK INTER:                 -10.156
REMARK INTRA:                  -1.612
REMARK UNBOUND:                -1.781
REMARK SMILES CC(=O)CCC=C(C)CCC=C(C)CCC=C(C)C
REMARK SMILES IDX 10 1 11 2 12 3 13 4 14 5 15 6 16 7 18 8 17 9 19 10 9 11 7 12
REMARK SMILES IDX 6 13 8 14 5 15 4 16 2 17 3 18 1 19
REMARK H PARENT
REMARK Flexibility Score: inf
ROOT
ATOM      1  C   UNL     1      -7.272  34.793  22.940  1.00  0.00     0.032 C 
ENDROOT
BRANCH   1   2
ATOM      2  C   UNL     1      -7.503  34.226  24.319  1.00  0.00    -0.028 C 
ATOM      3  C   UNL     1      -8.250  34.821  25.276  1.00  0.00    -0.077 C 
ATOM      4  C   UNL     1      -8.985  36.117  25.024  1.00  0.00     0.039 C 
BRANCH   3   5
ATOM      5  C   UNL     1      -8.368  34.161  26.635  1.00  0.00     0.034 C 
BRANCH   5   6
ATOM      6  C   UNL     1      -7.859  32.713  26.616  1.00  0.00     0.032 C 
BRANCH   6   7
ATOM      7  C   UNL     1      -8.669  31.819  27.524  1.00  0.00    -0.028 C 
ATOM      8  C   UNL     1      -7.524  29.722  26.770  1.00  0.00     0.039 C 
ATOM      9  C   UNL     1      -8.513  30.481  27.625  1.00  0.00    -0.080 C 
ATOM     10  C   UNL     1      -9.371  29.731  28.610  1.00  0.00     0.039 C 
ENDBRANCH   6   7
ENDBRANCH   5   6
ENDBRANCH   3   5
ENDBRANCH   1   2
BRANCH   1  11
ATOM     11  C   UNL     1      -8.400  34.380  21.989  1.00  0.00     0.034 C 
BRANCH  11  12
ATOM     12  C   UNL     1      -7.964  33.220  21.116  1.00  0.00    -0.077 C 
ATOM     13  C   UNL     1      -8.374  31.949  21.329  1.00  0.00    -0.028 C 
ATOM     14  C   UNL     1      -7.087  33.503  19.924  1.00  0.00     0.039 C 
BRANCH  13  15
ATOM     15  C   UNL     1      -9.265  31.536  22.477  1.00  0.00     0.035 C 
BRANCH  15  16
ATOM     16  C   UNL     1      -8.494  30.768  23.557  1.00  0.00     0.079 C 
BRANCH  16  17
ATOM     17  C   UNL     1      -7.880  29.502  23.014  1.00  0.00     0.130 C 
ATOM     18  O   UNL     1      -6.673  29.334  23.100  1.00  0.00    -0.300 OA
ATOM     19  C   UNL     1      -8.721  28.435  22.379  1.00  0.00     0.087 C 
ENDBRANCH  16  17
ENDBRANCH  15  16
ENDBRANCH  13  15
ENDBRANCH  11  12
ENDBRANCH   1  11
TORSDOF 9
ENDMDL
MODEL 4
REMARK VINA RESULT:    -6.518      1.447      4.224
REMARK INTER + INTRA:         -11.728
REMARK INTER:                 -10.283
REMARK INTRA:                  -1.445
REMARK UNBOUND:                -1.781
REMARK SMILES CC(=O)CCC=C(C)CCC=C(C)CCC=C(C)C
REMARK SMILES IDX 10 1 11 2 12 3 13 4 14 5 15 6 16 7 18 8 17 9 19 10 9 11 7 12
REMARK SMILES IDX 6 13 8 14 5 15 4 16 2 17 3 18 1 19
REMARK H PARENT
REMARK Flexibility Score: inf
ROOT
ATOM      1  C   UNL     1      -8.348  33.557  26.879  1.00  0.00     0.032 C 
ENDROOT
BRANCH   1   2
ATOM      2  C   UNL     1      -7.579  33.795  25.603  1.00  0.00    -0.028 C 
ATOM      3  C   UNL     1      -7.839  34.794  24.728  1.00  0.00    -0.077 C 
ATOM      4  C   UNL     1      -8.919  35.819  24.986  1.00  0.00     0.039 C 
BRANCH   3   5
ATOM      5  C   UNL     1      -7.013  34.897  23.463  1.00  0.00     0.034 C 
BRANCH   5   6
ATOM      6  C   UNL     1      -7.894  34.961  22.206  1.00  0.00     0.032 C 
BRANCH   6   7
ATOM      7  C   UNL     1      -8.711  33.705  22.027  1.00  0.00    -0.028 C 
ATOM      8  C   UNL     1      -7.349  32.886  20.090  1.00  0.00     0.039 C 
ATOM      9  C   UNL     1      -8.463  32.752  21.101  1.00  0.00    -0.080 C 
ATOM     10  C   UNL     1      -9.346  31.531  21.075  1.00  0.00     0.039 C 
ENDBRANCH   6   7
ENDBRANCH   5   6
ENDBRANCH   3   5
ENDBRANCH   1   2
BRANCH   1  11
ATOM     11  C   UNL     1      -9.281  32.350  26.731  1.00  0.00     0.034 C 
BRANCH  11  12
ATOM     12  C   UNL     1      -8.756  31.169  27.522  1.00  0.00    -0.077 C 
ATOM     13  C   UNL     1      -7.958  30.222  26.980  1.00  0.00    -0.028 C 
ATOM     14  C   UNL     1      -9.087  31.076  28.989  1.00  0.00     0.039 C 
BRANCH  13  15
ATOM     15  C   UNL     1      -7.540  30.207  25.527  1.00  0.00     0.035 C 
BRANCH  15  16
ATOM     16  C   UNL     1      -8.518  29.411  24.655  1.00  0.00     0.079 C 
BRANCH  16  17
ATOM     17  C   UNL     1      -7.889  28.987  23.351  1.00  0.00     0.130 C 
ATOM     18  O   UNL     1      -6.789  29.420  23.045  1.00  0.00    -0.300 OA
ATOM     19  C   UNL     1      -8.581  28.031  22.425  1.00  0.00     0.087 C 
ENDBRANCH  16  17
ENDBRANCH  15  16
ENDBRANCH  13  15
ENDBRANCH  11  12
ENDBRANCH   1  11
TORSDOF 9
ENDMDL
MODEL 5
REMARK VINA RESULT:    -6.433      1.910      4.458
REMARK INTER + INTRA:         -11.599
REMARK INTER:                  -9.472
REMARK INTRA:                  -2.128
REMARK UNBOUND:                -1.781
REMARK SMILES CC(=O)CCC=C(C)CCC=C(C)CCC=C(C)C
REMARK SMILES IDX 10 1 11 2 12 3 13 4 14 5 15 6 16 7 18 8 17 9 19 10 9 11 7 12
REMARK SMILES IDX 6 13 8 14 5 15 4 16 2 17 3 18 1 19
REMARK H PARENT
REMARK Flexibility Score: inf
ROOT
ATOM      1  C   UNL     1      -8.303  33.803  27.141  1.00  0.00     0.032 C 
ENDROOT
BRANCH   1   2
ATOM      2  C   UNL     1      -9.203  32.708  26.623  1.00  0.00    -0.028 C 
ATOM      3  C   UNL     1      -8.862  31.400  26.566  1.00  0.00    -0.077 C 
ATOM      4  C   UNL     1      -7.532  30.899  27.080  1.00  0.00     0.039 C 
BRANCH   3   5
ATOM      5  C   UNL     1      -9.848  30.407  25.987  1.00  0.00     0.034 C 
BRANCH   5   6
ATOM      6  C   UNL     1      -9.198  29.041  25.721  1.00  0.00     0.032 C 
BRANCH   6   7
ATOM      7  C   UNL     1      -9.354  28.614  24.281  1.00  0.00    -0.028 C 
ATOM      8  C   UNL     1      -7.161  29.594  23.571  1.00  0.00     0.039 C 
ATOM      9  C   UNL     1      -8.439  28.830  23.312  1.00  0.00    -0.080 C 
ATOM     10  C   UNL     1      -8.721  28.305  21.928  1.00  0.00     0.039 C 
ENDBRANCH   6   7
ENDBRANCH   5   6
ENDBRANCH   3   5
ENDBRANCH   1   2
BRANCH   1  11
ATOM     11  C   UNL     1      -7.420  34.354  26.016  1.00  0.00     0.034 C 
BRANCH  11  12
ATOM     12  C   UNL     1      -8.242  35.184  25.050  1.00  0.00    -0.077 C 
ATOM     13  C   UNL     1      -8.408  34.844  23.752  1.00  0.00    -0.028 C 
ATOM     14  C   UNL     1      -8.953  36.406  25.571  1.00  0.00     0.039 C 
BRANCH  13  15
ATOM     15  C   UNL     1      -7.762  33.637  23.111  1.00  0.00     0.035 C 
BRANCH  15  16
ATOM     16  C   UNL     1      -8.800  32.601  22.661  1.00  0.00     0.079 C 
BRANCH  16  17
ATOM     17  C   UNL     1      -8.692  32.303  21.187  1.00  0.00     0.130 C 
ATOM     18  O   UNL     1      -9.546  31.616  20.648  1.00  0.00    -0.300 OA
ATOM     19  C   UNL     1      -7.562  32.844  20.361  1.00  0.00     0.087 C 
ENDBRANCH  16  17
ENDBRANCH  15  16
ENDBRANCH  13  15
ENDBRANCH  11  12
ENDBRANCH   1  11
TORSDOF 9
ENDMDL
MODEL 6
REMARK VINA RESULT:    -6.357      1.730      4.834
REMARK INTER + INTRA:         -11.483
REMARK INTER:                  -9.328
REMARK INTRA:                  -2.155
REMARK UNBOUND:                -1.781
REMARK SMILES CC(=O)CCC=C(C)CCC=C(C)CCC=C(C)C
REMARK SMILES IDX 10 1 11 2 12 3 13 4 14 5 15 6 16 7 18 8 17 9 19 10 9 11 7 12
REMARK SMILES IDX 6 13 8 14 5 15 4 16 2 17 3 18 1 19
REMARK H PARENT
REMARK Flexibility Score: inf
ROOT
ATOM      1  C   UNL     1      -9.225  28.951  25.496  1.00  0.00     0.032 C 
ENDROOT
BRANCH   1   2
ATOM      2  C   UNL     1      -9.117  29.325  24.039  1.00  0.00    -0.028 C 
ATOM      3  C   UNL     1      -8.037  29.917  23.479  1.00  0.00    -0.077 C 
ATOM      4  C   UNL     1      -6.788  30.216  24.276  1.00  0.00     0.039 C 
BRANCH   3   5
ATOM      5  C   UNL     1      -8.074  30.276  22.007  1.00  0.00     0.034 C 
BRANCH   5   6
ATOM      6  C   UNL     1      -9.121  31.358  21.707  1.00  0.00     0.032 C 
BRANCH   6   7
ATOM      7  C   UNL     1      -8.669  32.723  22.168  1.00  0.00    -0.028 C 
ATOM      8  C   UNL     1      -7.369  33.191  20.078  1.00  0.00     0.039 C 
ATOM      9  C   UNL     1      -7.906  33.567  21.440  1.00  0.00    -0.080 C 
ATOM     10  C   UNL     1      -7.572  34.915  22.023  1.00  0.00     0.039 C 
ENDBRANCH   6   7
ENDBRANCH   5   6
ENDBRANCH   3   5
ENDBRANCH   1   2
BRANCH   1  11
ATOM     11  C   UNL     1     -10.105  29.955  26.248  1.00  0.00     0.034 C 
BRANCH  11  12
ATOM     12  C   UNL     1      -9.301  30.680  27.309  1.00  0.00    -0.077 C 
ATOM     13  C   UNL     1      -8.811  31.928  27.130  1.00  0.00    -0.028 C 
ATOM     14  C   UNL     1      -9.090  30.008  28.641  1.00  0.00     0.039 C 
BRANCH  13  15
ATOM     15  C   UNL     1      -8.967  32.715  25.849  1.00  0.00     0.035 C 
BRANCH  15  16
ATOM     16  C   UNL     1      -7.923  33.833  25.730  1.00  0.00     0.079 C 
BRANCH  16  17
ATOM     17  C   UNL     1      -8.478  35.166  26.167  1.00  0.00     0.130 C 
ATOM     18  O   UNL     1      -8.441  35.475  27.348  1.00  0.00    -0.300 OA
ATOM     19  C   UNL     1      -9.064  36.129  25.178  1.00  0.00     0.087 C 
ENDBRANCH  16  17
ENDBRANCH  15  16
ENDBRANCH  13  15
ENDBRANCH  11  12
ENDBRANCH   1  11
TORSDOF 9
ENDMDL
MODEL 7
REMARK VINA RESULT:    -6.215      1.236      4.228
REMARK INTER + INTRA:         -11.266
REMARK INTER:                  -9.394
REMARK INTRA:                  -1.872
REMARK UNBOUND:                -1.781
REMARK SMILES CC(=O)CCC=C(C)CCC=C(C)CCC=C(C)C
REMARK SMILES IDX 10 1 11 2 12 3 13 4 14 5 15 6 16 7 18 8 17 9 19 10 9 11 7 12
REMARK SMILES IDX 6 13 8 14 5 15 4 16 2 17 3 18 1 19
REMARK H PARENT
REMARK Flexibility Score: inf
ROOT
ATOM      1  C   UNL     1      -8.973  30.713  21.619  1.00  0.00     0.032 C 
ENDROOT
BRANCH   1   2
ATOM      2  C   UNL     1      -9.037  32.172  21.996  1.00  0.00    -0.028 C 
ATOM      3  C   UNL     1      -8.280  33.142  21.432  1.00  0.00    -0.077 C 
ATOM      4  C   UNL     1      -7.315  32.848  20.308  1.00  0.00     0.039 C 
BRANCH   3   5
ATOM      5  C   UNL     1      -8.416  34.565  21.932  1.00  0.00     0.034 C 
BRANCH   5   6
ATOM      6  C   UNL     1      -7.179  35.018  22.722  1.00  0.00     0.032 C 
BRANCH   6   7
ATOM      7  C   UNL     1      -7.173  34.461  24.125  1.00  0.00    -0.028 C 
ATOM      8  C   UNL     1      -8.905  36.069  24.958  1.00  0.00     0.039 C 
ATOM      9  C   UNL     1      -7.959  34.903  25.131  1.00  0.00    -0.080 C 
ATOM     10  C   UNL     1      -7.867  34.215  26.468  1.00  0.00     0.039 C 
ENDBRANCH   6   7
ENDBRANCH   5   6
ENDBRANCH   3   5
ENDBRANCH   1   2
BRANCH   1  11
ATOM     11  C   UNL     1      -8.937  29.832  22.872  1.00  0.00     0.034 C 
BRANCH  11  12
ATOM     12  C   UNL     1      -7.767  30.211  23.759  1.00  0.00    -0.077 C 
ATOM     13  C   UNL     1      -7.925  30.760  24.984  1.00  0.00    -0.028 C 
ATOM     14  C   UNL     1      -6.370  29.910  23.280  1.00  0.00     0.039 C 
BRANCH  13  15
ATOM     15  C   UNL     1      -9.270  31.097  25.586  1.00  0.00     0.035 C 
BRANCH  15  16
ATOM     16  C   UNL     1      -9.821  29.950  26.442  1.00  0.00     0.079 C 
BRANCH  16  17
ATOM     17  C   UNL     1      -9.375  30.059  27.879  1.00  0.00     0.130 C 
ATOM     18  O   UNL     1      -9.327  29.054  28.572  1.00  0.00    -0.300 OA
ATOM     19  C   UNL     1      -8.976  31.376  28.475  1.00  0.00     0.087 C 
ENDBRANCH  16  17
ENDBRANCH  15  16
ENDBRANCH  13  15
ENDBRANCH  11  12
ENDBRANCH   1  11
TORSDOF 9
ENDMDL
MODEL 8
REMARK VINA RESULT:    -6.172      1.511      3.460
REMARK INTER + INTRA:         -11.200
REMARK INTER:                  -9.229
REMARK INTRA:                  -1.971
REMARK UNBOUND:                -1.781
REMARK SMILES CC(=O)CCC=C(C)CCC=C(C)CCC=C(C)C
REMARK SMILES IDX 10 1 11 2 12 3 13 4 14 5 15 6 16 7 18 8 17 9 19 10 9 11 7 12
REMARK SMILES IDX 6 13 8 14 5 15 4 16 2 17 3 18 1 19
REMARK H PARENT
REMARK Flexibility Score: inf
ROOT
ATOM      1  C   UNL     1      -7.574  32.076  21.901  1.00  0.00     0.032 C 
ENDROOT
BRANCH   1   2
ATOM      2  C   UNL     1      -7.980  30.625  21.964  1.00  0.00    -0.028 C 
ATOM      3  C   UNL     1      -7.424  29.710  22.792  1.00  0.00    -0.077 C 
ATOM      4  C   UNL     1      -6.356  30.084  23.792  1.00  0.00     0.039 C 
BRANCH   3   5
ATOM      5  C   UNL     1      -7.899  28.273  22.725  1.00  0.00     0.034 C 
BRANCH   5   6
ATOM      6  C   UNL     1      -9.386  28.142  23.088  1.00  0.00     0.032 C 
BRANCH   6   7
ATOM      7  C   UNL     1      -9.584  27.875  24.561  1.00  0.00    -0.028 C 
ATOM      8  C   UNL     1     -10.078  30.270  25.107  1.00  0.00     0.039 C 
ATOM      9  C   UNL     1      -9.921  28.812  25.474  1.00  0.00    -0.080 C 
ATOM     10  C   UNL     1     -10.124  28.381  26.903  1.00  0.00     0.039 C 
ENDBRANCH   6   7
ENDBRANCH   5   6
ENDBRANCH   3   5
ENDBRANCH   1   2
BRANCH   1  11
ATOM     11  C   UNL     1      -8.614  32.960  22.598  1.00  0.00     0.034 C 
BRANCH  11  12
ATOM     12  C   UNL     1      -7.956  34.181  23.208  1.00  0.00    -0.077 C 
ATOM     13  C   UNL     1      -7.855  34.367  24.544  1.00  0.00    -0.028 C 
ATOM     14  C   UNL     1      -7.334  35.201  22.291  1.00  0.00     0.039 C 
BRANCH  13  15
ATOM     15  C   UNL     1      -8.422  33.412  25.569  1.00  0.00     0.035 C 
BRANCH  15  16
ATOM     16  C   UNL     1      -7.969  33.760  26.992  1.00  0.00     0.079 C 
BRANCH  16  17
ATOM     17  C   UNL     1      -7.986  32.554  27.897  1.00  0.00     0.130 C 
ATOM     18  O   UNL     1      -8.424  32.659  29.032  1.00  0.00    -0.300 OA
ATOM     19  C   UNL     1      -7.488  31.219  27.429  1.00  0.00     0.087 C 
ENDBRANCH  16  17
ENDBRANCH  15  16
ENDBRANCH  13  15
ENDBRANCH  11  12
ENDBRANCH   1  11
TORSDOF 9
ENDMDL
MODEL 9
REMARK VINA RESULT:    -6.114      1.977      6.227
REMARK INTER + INTRA:         -11.112
REMARK INTER:                  -9.081
REMARK INTRA:                  -2.031
REMARK UNBOUND:                -1.781
REMARK SMILES CC(=O)CCC=C(C)CCC=C(C)CCC=C(C)C
REMARK SMILES IDX 10 1 11 2 12 3 13 4 14 5 15 6 16 7 18 8 17 9 19 10 9 11 7 12
REMARK SMILES IDX 6 13 8 14 5 15 4 16 2 17 3 18 1 19
REMARK H PARENT
REMARK Flexibility Score: inf
ROOT
ATOM      1  C   UNL     1      -9.276  28.840  25.020  1.00  0.00     0.032 C 
ENDROOT
BRANCH   1   2
ATOM      2  C   UNL     1      -9.574  30.058  25.858  1.00  0.00    -0.028 C 
ATOM      3  C   UNL     1      -8.653  30.730  26.586  1.00  0.00    -0.077 C 
ATOM      4  C   UNL     1      -7.193  30.341  26.580  1.00  0.00     0.039 C 
BRANCH   3   5
ATOM      5  C   UNL     1      -9.095  31.918  27.416  1.00  0.00     0.034 C 
BRANCH   5   6
ATOM      6  C   UNL     1      -8.072  33.062  27.372  1.00  0.00     0.032 C 
BRANCH   6   7
ATOM      7  C   UNL     1      -8.660  34.320  26.779  1.00  0.00    -0.028 C 
ATOM      8  C   UNL     1      -7.145  34.296  24.783  1.00  0.00     0.039 C 
ATOM      9  C   UNL     1      -8.274  34.871  25.607  1.00  0.00    -0.080 C 
ATOM     10  C   UNL     1      -8.988  36.107  25.127  1.00  0.00     0.039 C 
ENDBRANCH   6   7
ENDBRANCH   5   6
ENDBRANCH   3   5
ENDBRANCH   1   2
BRANCH   1  11
ATOM     11  C   UNL     1      -9.315  29.186  23.528  1.00  0.00     0.034 C 
BRANCH  11  12
ATOM     12  C   UNL     1      -8.042  29.896  23.111  1.00  0.00    -0.077 C 
ATOM     13  C   UNL     1      -8.009  31.206  22.781  1.00  0.00    -0.028 C 
ATOM     14  C   UNL     1      -6.747  29.124  23.124  1.00  0.00     0.039 C 
BRANCH  13  15
ATOM     15  C   UNL     1      -9.233  32.093  22.744  1.00  0.00     0.035 C 
BRANCH  15  16
ATOM     16  C   UNL     1      -9.389  32.802  21.393  1.00  0.00     0.079 C 
BRANCH  16  17
ATOM     17  C   UNL     1      -8.213  33.696  21.090  1.00  0.00     0.130 C 
ATOM     18  O   UNL     1      -8.059  34.726  21.729  1.00  0.00    -0.300 OA
ATOM     19  C   UNL     1      -7.216  33.341  20.028  1.00  0.00     0.087 C 
ENDBRANCH  16  17
ENDBRANCH  15  16
ENDBRANCH  13  15
ENDBRANCH  11  12
ENDBRANCH   1  11
TORSDOF 9
ENDMDL
