MODEL 1
REMARK VINA RESULT:    -0.109      0.000      0.000
REMARK INTER + INTRA:          -2.596
REMARK INTER:                  -0.169
REMARK INTRA:                  -2.426
REMARK UNBOUND:                -2.426
REMARK SMILES COc1cc(CNC(=O)CCCCC=CC(C)C)ccc1O
REMARK SMILES IDX 11 1 12 2 13 3 14 4 15 5 16 6 17 7 18 8 10 9 8 10 9 11 7 12
REMARK SMILES IDX 6 14 5 15 4 16 19 17 3 18 20 19 21 20 2 21 1 22 22 23
REMARK H PARENT 7 13 22 24
REMARK Flexibility Score: inf
ROOT
ATOM      1  C   UNL     1      26.590  25.476  52.143  1.00  0.00     0.010 C 
ENDROOT
BRANCH   1   2
ATOM      2  C   UNL     1      25.083  25.232  52.319  1.00  0.00     0.005 C 
BRANCH   2   3
ATOM      3  C   UNL     1      24.234  26.300  51.616  1.00  0.00     0.027 C 
BRANCH   3   4
ATOM      4  C   UNL     1      25.054  27.528  51.325  1.00  0.00    -0.031 C 
ATOM      5  C   UNL     1      24.473  28.702  51.020  1.00  0.00    -0.028 C 
BRANCH   5   6
ATOM      6  C   UNL     1      25.268  29.953  50.721  1.00  0.00     0.005 C 
ATOM      7  C   UNL     1      24.472  30.917  49.832  1.00  0.00     0.012 C 
ATOM      8  C   UNL     1      26.630  29.619  50.099  1.00  0.00     0.012 C 
ENDBRANCH   5   6
ENDBRANCH   3   4
ENDBRANCH   2   3
ENDBRANCH   1   2
BRANCH   1   9
ATOM      9  C   UNL     1      27.278  24.342  51.375  1.00  0.00     0.100 C 
BRANCH   9  10
ATOM     10  C   UNL     1      26.844  24.348  49.941  1.00  0.00     0.220 C 
ATOM     11  O   UNL     1      26.226  23.353  49.475  1.00  0.00    -0.275 OA
ATOM     12  N   UNL     1      27.088  25.499  49.120  1.00  0.00    -0.352 N 
ATOM     13  H   UNL     1      27.553  26.335  49.542  1.00  0.00     0.163 HD
BRANCH  12  14
ATOM     14  C   UNL     1      26.675  25.567  47.720  1.00  0.00     0.151 C 
BRANCH  14  15
ATOM     15  C   UNL     1      25.562  26.566  47.548  1.00  0.00    -0.025 A 
ATOM     16  C   UNL     1      24.253  26.231  47.929  1.00  0.00     0.056 A 
ATOM     17  C   UNL     1      25.823  27.839  47.023  1.00  0.00     0.009 A 
ATOM     18  C   UNL     1      23.203  27.160  47.782  1.00  0.00     0.160 A 
ATOM     19  C   UNL     1      24.788  28.765  46.875  1.00  0.00     0.050 A 
ATOM     20  C   UNL     1      23.482  28.433  47.252  1.00  0.00     0.157 A 
BRANCH  18  21
ATOM     21  O   UNL     1      21.883  26.852  48.149  1.00  0.00    -0.493 OA
ATOM     22  C   UNL     1      21.347  27.029  49.456  1.00  0.00     0.278 C 
ENDBRANCH  18  21
BRANCH  20  23
ATOM     23  O   UNL     1      22.473  29.383  47.091  1.00  0.00    -0.504 OA
ATOM     24  H   UNL     1      21.509  29.122  46.916  1.00  0.00     0.293 HD
ENDBRANCH  20  23
ENDBRANCH  14  15
ENDBRANCH  12  14
ENDBRANCH   9  10
ENDBRANCH   1   9
TORSDOF 10
ENDMDL
MODEL 2
REMARK VINA RESULT:    -0.105      2.448      4.822
REMARK INTER + INTRA:          -2.589
REMARK INTER:                  -0.110
REMARK INTRA:                  -2.479
REMARK UNBOUND:                -2.426
REMARK SMILES COc1cc(CNC(=O)CCCCC=CC(C)C)ccc1O
REMARK SMILES IDX 11 1 12 2 13 3 14 4 15 5 16 6 17 7 18 8 10 9 8 10 9 11 7 12
REMARK SMILES IDX 6 14 5 15 4 16 19 17 3 18 20 19 21 20 2 21 1 22 22 23
REMARK H PARENT 7 13 22 24
REMARK Flexibility Score: inf
ROOT
ATOM      1  C   UNL     1      24.421  28.089  53.117  1.00  0.00     0.010 C 
ENDROOT
BRANCH   1   2
ATOM      2  C   UNL     1      24.568  28.688  51.710  1.00  0.00     0.005 C 
BRANCH   2   3
ATOM      3  C   UNL     1      25.623  27.952  50.871  1.00  0.00     0.027 C 
BRANCH   3   4
ATOM      4  C   UNL     1      25.109  27.680  49.484  1.00  0.00    -0.031 C 
ATOM      5  C   UNL     1      23.998  26.951  49.280  1.00  0.00    -0.028 C 
BRANCH   5   6
ATOM      6  C   UNL     1      23.455  26.658  47.899  1.00  0.00     0.005 C 
ATOM      7  C   UNL     1      24.589  26.518  46.875  1.00  0.00     0.012 C 
ATOM      8  C   UNL     1      22.437  27.716  47.458  1.00  0.00     0.012 C 
ENDBRANCH   5   6
ENDBRANCH   3   4
ENDBRANCH   2   3
ENDBRANCH   1   2
BRANCH   1   9
ATOM      9  C   UNL     1      23.022  27.511  53.360  1.00  0.00     0.100 C 
BRANCH   9  10
ATOM     10  C   UNL     1      22.904  26.156  52.729  1.00  0.00     0.220 C 
ATOM     11  O   UNL     1      21.931  25.910  51.968  1.00  0.00    -0.275 OA
ATOM     12  N   UNL     1      23.919  25.167  52.953  1.00  0.00    -0.352 N 
ATOM     13  H   UNL     1      24.746  25.412  53.544  1.00  0.00     0.163 HD
BRANCH  12  14
ATOM     14  C   UNL     1      23.863  23.836  52.353  1.00  0.00     0.151 C 
BRANCH  14  15
ATOM     15  C   UNL     1      24.670  23.799  51.082  1.00  0.00    -0.025 A 
ATOM     16  C   UNL     1      24.110  23.264  49.912  1.00  0.00     0.056 A 
ATOM     17  C   UNL     1      25.976  24.307  51.053  1.00  0.00     0.009 A 
ATOM     18  C   UNL     1      24.851  23.230  48.712  1.00  0.00     0.160 A 
ATOM     19  C   UNL     1      26.715  24.278  49.869  1.00  0.00     0.050 A 
ATOM     20  C   UNL     1      26.161  23.744  48.701  1.00  0.00     0.157 A 
BRANCH  18  21
ATOM     21  O   UNL     1      24.320  22.697  47.527  1.00  0.00    -0.493 OA
ATOM     22  C   UNL     1      23.053  23.052  46.981  1.00  0.00     0.278 C 
ENDBRANCH  18  21
BRANCH  20  23
ATOM     23  O   UNL     1      26.928  23.732  47.536  1.00  0.00    -0.504 OA
ATOM     24  H   UNL     1      26.518  23.870  46.619  1.00  0.00     0.293 HD
ENDBRANCH  20  23
ENDBRANCH  14  15
ENDBRANCH  12  14
ENDBRANCH   9  10
ENDBRANCH   1   9
TORSDOF 10
ENDMDL
MODEL 3
REMARK VINA RESULT:    -0.096      2.809      4.997
REMARK INTER + INTRA:          -2.576
REMARK INTER:                  -0.047
REMARK INTRA:                  -2.529
REMARK UNBOUND:                -2.426
REMARK SMILES COc1cc(CNC(=O)CCCCC=CC(C)C)ccc1O
REMARK SMILES IDX 11 1 12 2 13 3 14 4 15 5 16 6 17 7 18 8 10 9 8 10 9 11 7 12
REMARK SMILES IDX 6 14 5 15 4 16 19 17 3 18 20 19 21 20 2 21 1 22 22 23
REMARK H PARENT 7 13 22 24
REMARK Flexibility Score: inf
ROOT
ATOM      1  C   UNL     1      22.455  26.298  51.962  1.00  0.00     0.010 C 
ENDROOT
BRANCH   1   2
ATOM      2  C   UNL     1      21.978  26.957  50.659  1.00  0.00     0.005 C 
BRANCH   2   3
ATOM      3  C   UNL     1      21.761  28.469  50.817  1.00  0.00     0.027 C 
BRANCH   3   4
ATOM      4  C   UNL     1      22.463  29.227  49.723  1.00  0.00    -0.031 C 
ATOM      5  C   UNL     1      23.630  28.798  49.211  1.00  0.00    -0.028 C 
BRANCH   5   6
ATOM      6  C   UNL     1      24.361  29.536  48.113  1.00  0.00     0.005 C 
ATOM      7  C   UNL     1      23.639  30.839  47.744  1.00  0.00     0.012 C 
ATOM      8  C   UNL     1      24.570  28.649  46.880  1.00  0.00     0.012 C 
ENDBRANCH   5   6
ENDBRANCH   3   4
ENDBRANCH   2   3
ENDBRANCH   1   2
BRANCH   1   9
ATOM      9  C   UNL     1      23.829  25.635  51.809  1.00  0.00     0.100 C 
BRANCH   9  10
ATOM     10  C   UNL     1      24.914  26.664  51.892  1.00  0.00     0.220 C 
ATOM     11  O   UNL     1      25.847  26.652  51.044  1.00  0.00    -0.275 OA
ATOM     12  N   UNL     1      24.864  27.684  52.900  1.00  0.00    -0.352 N 
ATOM     13  H   UNL     1      24.053  27.707  53.559  1.00  0.00     0.163 HD
BRANCH  12  14
ATOM     14  C   UNL     1      25.886  28.720  53.020  1.00  0.00     0.151 C 
BRANCH  14  15
ATOM     15  C   UNL     1      25.437  29.983  52.334  1.00  0.00    -0.025 A 
ATOM     16  C   UNL     1      26.223  30.546  51.316  1.00  0.00     0.056 A 
ATOM     17  C   UNL     1      24.229  30.597  52.693  1.00  0.00     0.009 A 
ATOM     18  C   UNL     1      25.809  31.724  50.659  1.00  0.00     0.160 A 
ATOM     19  C   UNL     1      23.813  31.763  52.047  1.00  0.00     0.050 A 
ATOM     20  C   UNL     1      24.595  32.328  51.033  1.00  0.00     0.157 A 
BRANCH  18  21
ATOM     21  O   UNL     1      26.576  32.313  49.641  1.00  0.00    -0.493 OA
ATOM     22  C   UNL     1      27.443  31.597  48.768  1.00  0.00     0.278 C 
ENDBRANCH  18  21
BRANCH  20  23
ATOM     23  O   UNL     1      24.148  33.492  50.408  1.00  0.00    -0.504 OA
ATOM     24  H   UNL     1      24.475  33.771  49.490  1.00  0.00     0.293 HD
ENDBRANCH  20  23
ENDBRANCH  14  15
ENDBRANCH  12  14
ENDBRANCH   9  10
ENDBRANCH   1   9
TORSDOF 10
ENDMDL
MODEL 4
REMARK VINA RESULT:    -0.095      2.121      5.788
REMARK INTER + INTRA:          -2.574
REMARK INTER:                  -0.094
REMARK INTRA:                  -2.481
REMARK UNBOUND:                -2.426
REMARK SMILES COc1cc(CNC(=O)CCCCC=CC(C)C)ccc1O
REMARK SMILES IDX 11 1 12 2 13 3 14 4 15 5 16 6 17 7 18 8 10 9 8 10 9 11 7 12
REMARK SMILES IDX 6 14 5 15 4 16 19 17 3 18 20 19 21 20 2 21 1 22 22 23
REMARK H PARENT 7 13 22 24
REMARK Flexibility Score: inf
ROOT
ATOM      1  C   UNL     1      25.633  31.487  48.544  1.00  0.00     0.010 C 
ENDROOT
BRANCH   1   2
ATOM      2  C   UNL     1      25.739  30.348  47.518  1.00  0.00     0.005 C 
BRANCH   2   3
ATOM      3  C   UNL     1      26.845  29.344  47.874  1.00  0.00     0.027 C 
BRANCH   3   4
ATOM      4  C   UNL     1      26.334  27.932  47.781  1.00  0.00    -0.031 C 
ATOM      5  C   UNL     1      25.048  27.634  48.034  1.00  0.00    -0.028 C 
BRANCH   5   6
ATOM      6  C   UNL     1      24.504  26.226  47.951  1.00  0.00     0.005 C 
ATOM      7  C   UNL     1      25.629  25.208  47.720  1.00  0.00     0.012 C 
ATOM      8  C   UNL     1      23.417  26.104  46.876  1.00  0.00     0.012 C 
ENDBRANCH   5   6
ENDBRANCH   3   4
ENDBRANCH   2   3
ENDBRANCH   1   2
BRANCH   1   9
ATOM      9  C   UNL     1      24.191  31.722  49.006  1.00  0.00     0.100 C 
BRANCH   9  10
ATOM     10  C   UNL     1      23.740  30.601  49.892  1.00  0.00     0.220 C 
ATOM     11  O   UNL     1      22.722  29.929  49.573  1.00  0.00    -0.275 OA
ATOM     12  N   UNL     1      24.492  30.264  51.067  1.00  0.00    -0.352 N 
ATOM     13  H   UNL     1      25.364  30.799  51.283  1.00  0.00     0.163 HD
BRANCH  12  14
ATOM     14  C   UNL     1      24.108  29.172  51.958  1.00  0.00     0.151 C 
BRANCH  14  15
ATOM     15  C   UNL     1      24.987  27.971  51.727  1.00  0.00    -0.025 A 
ATOM     16  C   UNL     1      24.434  26.682  51.756  1.00  0.00     0.056 A 
ATOM     17  C   UNL     1      26.356  28.130  51.469  1.00  0.00     0.009 A 
ATOM     18  C   UNL     1      25.243  25.549  51.533  1.00  0.00     0.160 A 
ATOM     19  C   UNL     1      27.163  27.013  51.247  1.00  0.00     0.050 A 
ATOM     20  C   UNL     1      26.615  25.726  51.276  1.00  0.00     0.157 A 
BRANCH  18  21
ATOM     21  O   UNL     1      24.720  24.246  51.560  1.00  0.00    -0.493 OA
ATOM     22  C   UNL     1      23.762  23.743  50.634  1.00  0.00     0.278 C 
ENDBRANCH  18  21
BRANCH  20  23
ATOM     23  O   UNL     1      27.452  24.633  51.048  1.00  0.00    -0.504 OA
ATOM     24  H   UNL     1      28.454  24.682  51.191  1.00  0.00     0.293 HD
ENDBRANCH  20  23
ENDBRANCH  14  15
ENDBRANCH  12  14
ENDBRANCH   9  10
ENDBRANCH   1   9
TORSDOF 10
ENDMDL
MODEL 5
REMARK VINA RESULT:    -0.094      2.294      4.318
REMARK INTER + INTRA:          -2.573
REMARK INTER:                  -0.101
REMARK INTRA:                  -2.472
REMARK UNBOUND:                -2.426
REMARK SMILES COc1cc(CNC(=O)CCCCC=CC(C)C)ccc1O
REMARK SMILES IDX 11 1 12 2 13 3 14 4 15 5 16 6 17 7 18 8 10 9 8 10 9 11 7 12
REMARK SMILES IDX 6 14 5 15 4 16 19 17 3 18 20 19 21 20 2 21 1 22 22 23
REMARK H PARENT 7 13 22 24
REMARK Flexibility Score: inf
ROOT
ATOM      1  C   UNL     1      28.738  26.216  49.901  1.00  0.00     0.010 C 
ENDROOT
BRANCH   1   2
ATOM      2  C   UNL     1      28.439  27.088  48.672  1.00  0.00     0.005 C 
BRANCH   2   3
ATOM      3  C   UNL     1      27.458  26.412  47.703  1.00  0.00     0.027 C 
BRANCH   3   4
ATOM      4  C   UNL     1      26.986  25.094  48.254  1.00  0.00    -0.031 C 
ATOM      5  C   UNL     1      25.794  24.578  47.910  1.00  0.00    -0.028 C 
BRANCH   5   6
ATOM      6  C   UNL     1      25.289  23.258  48.447  1.00  0.00     0.005 C 
ATOM      7  C   UNL     1      23.860  22.972  47.967  1.00  0.00     0.012 C 
ATOM      8  C   UNL     1      25.382  23.200  49.977  1.00  0.00     0.012 C 
ENDBRANCH   5   6
ENDBRANCH   3   4
ENDBRANCH   2   3
ENDBRANCH   1   2
BRANCH   1   9
ATOM      9  C   UNL     1      28.684  27.016  51.208  1.00  0.00     0.100 C 
BRANCH   9  10
ATOM     10  C   UNL     1      27.274  27.422  51.511  1.00  0.00     0.220 C 
ATOM     11  O   UNL     1      27.020  28.626  51.784  1.00  0.00    -0.275 OA
ATOM     12  N   UNL     1      26.215  26.456  51.441  1.00  0.00    -0.352 N 
ATOM     13  H   UNL     1      26.441  25.475  51.159  1.00  0.00     0.163 HD
BRANCH  12  14
ATOM     14  C   UNL     1      24.821  26.799  51.711  1.00  0.00     0.151 C 
BRANCH  14  15
ATOM     15  C   UNL     1      24.022  26.792  50.435  1.00  0.00    -0.025 A 
ATOM     16  C   UNL     1      22.905  25.951  50.312  1.00  0.00     0.056 A 
ATOM     17  C   UNL     1      24.375  27.631  49.369  1.00  0.00     0.009 A 
ATOM     18  C   UNL     1      22.141  25.941  49.126  1.00  0.00     0.160 A 
ATOM     19  C   UNL     1      23.624  27.627  48.192  1.00  0.00     0.050 A 
ATOM     20  C   UNL     1      22.511  26.789  48.066  1.00  0.00     0.157 A 
BRANCH  18  21
ATOM     21  O   UNL     1      21.022  25.108  48.971  1.00  0.00    -0.493 OA
ATOM     22  C   UNL     1      19.726  25.396  49.485  1.00  0.00     0.278 C 
ENDBRANCH  18  21
BRANCH  20  23
ATOM     23  O   UNL     1      21.783  26.812  46.876  1.00  0.00    -0.504 OA
ATOM     24  H   UNL     1      20.963  27.397  46.756  1.00  0.00     0.293 HD
ENDBRANCH  20  23
ENDBRANCH  14  15
ENDBRANCH  12  14
ENDBRANCH   9  10
ENDBRANCH   1   9
TORSDOF 10
ENDMDL
MODEL 6
REMARK VINA RESULT:    -0.094      2.242      5.075
REMARK INTER + INTRA:          -2.573
REMARK INTER:                  -0.108
REMARK INTRA:                  -2.464
REMARK UNBOUND:                -2.426
REMARK SMILES COc1cc(CNC(=O)CCCCC=CC(C)C)ccc1O
REMARK SMILES IDX 11 1 12 2 13 3 14 4 15 5 16 6 17 7 18 8 10 9 8 10 9 11 7 12
REMARK SMILES IDX 6 14 5 15 4 16 19 17 3 18 20 19 21 20 2 21 1 22 22 23
REMARK H PARENT 7 13 22 24
REMARK Flexibility Score: inf
ROOT
ATOM      1  C   UNL     1      21.475  27.224  49.945  1.00  0.00     0.010 C 
ENDROOT
BRANCH   1   2
ATOM      2  C   UNL     1      21.562  25.918  50.750  1.00  0.00     0.005 C 
BRANCH   2   3
ATOM      3  C   UNL     1      22.923  25.750  51.442  1.00  0.00     0.027 C 
BRANCH   3   4
ATOM      4  C   UNL     1      23.853  26.874  51.072  1.00  0.00    -0.031 C 
ATOM      5  C   UNL     1      25.187  26.718  51.104  1.00  0.00    -0.028 C 
BRANCH   5   6
ATOM      6  C   UNL     1      26.148  27.827  50.739  1.00  0.00     0.005 C 
ATOM      7  C   UNL     1      25.870  28.362  49.329  1.00  0.00     0.012 C 
ATOM      8  C   UNL     1      27.607  27.378  50.885  1.00  0.00     0.012 C 
ENDBRANCH   5   6
ENDBRANCH   3   4
ENDBRANCH   2   3
ENDBRANCH   1   2
BRANCH   1   9
ATOM      9  C   UNL     1      20.945  26.997  48.524  1.00  0.00     0.100 C 
BRANCH   9  10
ATOM     10  C   UNL     1      21.840  26.054  47.780  1.00  0.00     0.220 C 
ATOM     11  O   UNL     1      21.354  25.007  47.273  1.00  0.00    -0.275 OA
ATOM     12  N   UNL     1      23.229  26.368  47.604  1.00  0.00    -0.352 N 
ATOM     13  H   UNL     1      23.599  27.268  47.986  1.00  0.00     0.163 HD
BRANCH  12  14
ATOM     14  C   UNL     1      24.145  25.493  46.875  1.00  0.00     0.151 C 
BRANCH  14  15
ATOM     15  C   UNL     1      25.093  24.814  47.828  1.00  0.00    -0.025 A 
ATOM     16  C   UNL     1      26.466  25.099  47.774  1.00  0.00     0.056 A 
ATOM     17  C   UNL     1      24.614  23.905  48.781  1.00  0.00     0.009 A 
ATOM     18  C   UNL     1      27.364  24.477  48.665  1.00  0.00     0.160 A 
ATOM     19  C   UNL     1      25.497  23.285  49.668  1.00  0.00     0.050 A 
ATOM     20  C   UNL     1      26.866  23.566  49.615  1.00  0.00     0.157 A 
BRANCH  18  21
ATOM     21  O   UNL     1      28.743  24.738  48.632  1.00  0.00    -0.493 OA
ATOM     22  C   UNL     1      29.563  24.592  47.477  1.00  0.00     0.278 C 
ENDBRANCH  18  21
BRANCH  20  23
ATOM     23  O   UNL     1      27.719  22.929  50.517  1.00  0.00    -0.504 OA
ATOM     24  H   UNL     1      28.728  22.976  50.430  1.00  0.00     0.293 HD
ENDBRANCH  20  23
ENDBRANCH  14  15
ENDBRANCH  12  14
ENDBRANCH   9  10
ENDBRANCH   1   9
TORSDOF 10
ENDMDL
MODEL 7
REMARK VINA RESULT:    -0.092      2.465      4.591
REMARK INTER + INTRA:          -2.570
REMARK INTER:                  -0.138
REMARK INTRA:                  -2.431
REMARK UNBOUND:                -2.426
REMARK SMILES COc1cc(CNC(=O)CCCCC=CC(C)C)ccc1O
REMARK SMILES IDX 11 1 12 2 13 3 14 4 15 5 16 6 17 7 18 8 10 9 8 10 9 11 7 12
REMARK SMILES IDX 6 14 5 15 4 16 19 17 3 18 20 19 21 20 2 21 1 22 22 23
REMARK H PARENT 7 13 22 24
REMARK Flexibility Score: inf
ROOT
ATOM      1  C   UNL     1      27.263  27.352  48.847  1.00  0.00     0.010 C 
ENDROOT
BRANCH   1   2
ATOM      2  C   UNL     1      26.443  27.443  47.551  1.00  0.00     0.005 C 
BRANCH   2   3
ATOM      3  C   UNL     1      25.403  26.318  47.440  1.00  0.00     0.027 C 
BRANCH   3   4
ATOM      4  C   UNL     1      24.050  26.874  47.090  1.00  0.00    -0.031 C 
ATOM      5  C   UNL     1      23.318  27.555  47.988  1.00  0.00    -0.028 C 
BRANCH   5   6
ATOM      6  C   UNL     1      21.955  28.125  47.668  1.00  0.00     0.005 C 
ATOM      7  C   UNL     1      21.084  27.100  46.930  1.00  0.00     0.012 C 
ATOM      8  C   UNL     1      22.063  29.434  46.877  1.00  0.00     0.012 C 
ENDBRANCH   5   6
ENDBRANCH   3   4
ENDBRANCH   2   3
ENDBRANCH   1   2
BRANCH   1   9
ATOM      9  C   UNL     1      26.902  28.458  49.844  1.00  0.00     0.100 C 
BRANCH   9  10
ATOM     10  C   UNL     1      25.774  28.015  50.725  1.00  0.00     0.220 C 
ATOM     11  O   UNL     1      24.905  28.853  51.090  1.00  0.00    -0.275 OA
ATOM     12  N   UNL     1      25.658  26.637  51.109  1.00  0.00    -0.352 N 
ATOM     13  H   UNL     1      26.359  25.950  50.751  1.00  0.00     0.163 HD
BRANCH  12  14
ATOM     14  C   UNL     1      24.572  26.146  51.954  1.00  0.00     0.151 C 
BRANCH  14  15
ATOM     15  C   UNL     1      23.459  25.587  51.107  1.00  0.00    -0.025 A 
ATOM     16  C   UNL     1      22.173  26.144  51.182  1.00  0.00     0.056 A 
ATOM     17  C   UNL     1      23.700  24.521  50.229  1.00  0.00     0.009 A 
ATOM     18  C   UNL     1      21.124  25.636  50.389  1.00  0.00     0.160 A 
ATOM     19  C   UNL     1      22.666  24.013  49.440  1.00  0.00     0.050 A 
ATOM     20  C   UNL     1      21.382  24.565  49.514  1.00  0.00     0.157 A 
BRANCH  18  21
ATOM     21  O   UNL     1      19.826  26.168  50.446  1.00  0.00    -0.493 OA
ATOM     22  C   UNL     1      19.528  27.557  50.549  1.00  0.00     0.278 C 
ENDBRANCH  18  21
BRANCH  20  23
ATOM     23  O   UNL     1      20.374  24.033  48.710  1.00  0.00    -0.504 OA
ATOM     24  H   UNL     1      19.717  23.341  49.054  1.00  0.00     0.293 HD
ENDBRANCH  20  23
ENDBRANCH  14  15
ENDBRANCH  12  14
ENDBRANCH   9  10
ENDBRANCH   1   9
TORSDOF 10
ENDMDL
MODEL 8
REMARK VINA RESULT:    -0.087      2.380      5.140
REMARK INTER + INTRA:          -2.562
REMARK INTER:                  -0.127
REMARK INTRA:                  -2.434
REMARK UNBOUND:                -2.426
REMARK SMILES COc1cc(CNC(=O)CCCCC=CC(C)C)ccc1O
REMARK SMILES IDX 11 1 12 2 13 3 14 4 15 5 16 6 17 7 18 8 10 9 8 10 9 11 7 12
REMARK SMILES IDX 6 14 5 15 4 16 19 17 3 18 20 19 21 20 2 21 1 22 22 23
REMARK H PARENT 7 13 22 24
REMARK Flexibility Score: inf
ROOT
ATOM      1  C   UNL     1      25.928  29.049  48.659  1.00  0.00     0.010 C 
ENDROOT
BRANCH   1   2
ATOM      2  C   UNL     1      25.778  28.417  47.266  1.00  0.00     0.005 C 
BRANCH   2   3
ATOM      3  C   UNL     1      25.418  26.926  47.338  1.00  0.00     0.027 C 
BRANCH   3   4
ATOM      4  C   UNL     1      25.219  26.493  48.765  1.00  0.00    -0.031 C 
ATOM      5  C   UNL     1      24.601  25.338  49.067  1.00  0.00    -0.028 C 
BRANCH   5   6
ATOM      6  C   UNL     1      24.383  24.876  50.490  1.00  0.00     0.005 C 
ATOM      7  C   UNL     1      24.097  26.061  51.421  1.00  0.00     0.012 C 
ATOM      8  C   UNL     1      25.565  24.043  50.998  1.00  0.00     0.012 C 
ENDBRANCH   5   6
ENDBRANCH   3   4
ENDBRANCH   2   3
ENDBRANCH   1   2
BRANCH   1   9
ATOM      9  C   UNL     1      25.098  30.329  48.810  1.00  0.00     0.100 C 
BRANCH   9  10
ATOM     10  C   UNL     1      23.640  30.024  48.647  1.00  0.00     0.220 C 
ATOM     11  O   UNL     1      22.997  30.555  47.701  1.00  0.00    -0.275 OA
ATOM     12  N   UNL     1      22.994  29.098  49.532  1.00  0.00    -0.352 N 
ATOM     13  H   UNL     1      23.559  28.628  50.276  1.00  0.00     0.163 HD
BRANCH  12  14
ATOM     14  C   UNL     1      21.580  28.753  49.411  1.00  0.00     0.151 C 
BRANCH  14  15
ATOM     15  C   UNL     1      21.423  27.389  48.794  1.00  0.00    -0.025 A 
ATOM     16  C   UNL     1      20.945  26.319  49.567  1.00  0.00     0.056 A 
ATOM     17  C   UNL     1      21.737  27.178  47.444  1.00  0.00     0.009 A 
ATOM     18  C   UNL     1      20.784  25.039  49.000  1.00  0.00     0.160 A 
ATOM     19  C   UNL     1      21.580  25.912  46.875  1.00  0.00     0.050 A 
ATOM     20  C   UNL     1      21.106  24.844  47.644  1.00  0.00     0.157 A 
BRANCH  18  21
ATOM     21  O   UNL     1      20.313  23.949  49.749  1.00  0.00    -0.493 OA
ATOM     22  C   UNL     1      21.143  23.069  50.501  1.00  0.00     0.278 C 
ENDBRANCH  18  21
BRANCH  20  23
ATOM     23  O   UNL     1      20.960  23.594  47.042  1.00  0.00    -0.504 OA
ATOM     24  H   UNL     1      20.140  23.349  46.498  1.00  0.00     0.293 HD
ENDBRANCH  20  23
ENDBRANCH  14  15
ENDBRANCH  12  14
ENDBRANCH   9  10
ENDBRANCH   1   9
TORSDOF 10
ENDMDL
MODEL 9
REMARK VINA RESULT:     0.013      3.385      5.391
REMARK INTER + INTRA:          -2.407
REMARK INTER:                   0.092
REMARK INTRA:                  -2.499
REMARK UNBOUND:                -2.426
REMARK SMILES COc1cc(CNC(=O)CCCCC=CC(C)C)ccc1O
REMARK SMILES IDX 11 1 12 2 13 3 14 4 15 5 16 6 17 7 18 8 10 9 8 10 9 11 7 12
REMARK SMILES IDX 6 14 5 15 4 16 19 17 3 18 20 19 21 20 2 21 1 22 22 23
REMARK H PARENT 7 13 22 24
REMARK Flexibility Score: inf
ROOT
ATOM      1  C   UNL     1      20.654  26.203  52.278  1.00  0.00     0.010 C 
ENDROOT
BRANCH   1   2
ATOM      2  C   UNL     1      20.821  25.771  50.813  1.00  0.00     0.005 C 
BRANCH   2   3
ATOM      3  C   UNL     1      20.275  26.818  49.831  1.00  0.00     0.027 C 
BRANCH   3   4
ATOM      4  C   UNL     1      21.330  27.221  48.838  1.00  0.00    -0.031 C 
ATOM      5  C   UNL     1      22.597  27.459  49.219  1.00  0.00    -0.028 C 
BRANCH   5   6
ATOM      6  C   UNL     1      23.680  27.867  48.247  1.00  0.00     0.005 C 
ATOM      7  C   UNL     1      23.088  28.247  46.883  1.00  0.00     0.012 C 
ATOM      8  C   UNL     1      24.748  26.777  48.104  1.00  0.00     0.012 C 
ENDBRANCH   5   6
ENDBRANCH   3   4
ENDBRANCH   2   3
ENDBRANCH   1   2
BRANCH   1   9
ATOM      9  C   UNL     1      21.999  26.456  52.967  1.00  0.00     0.100 C 
BRANCH   9  10
ATOM     10  C   UNL     1      22.428  27.878  52.764  1.00  0.00     0.220 C 
ATOM     11  O   UNL     1      23.655  28.147  52.659  1.00  0.00    -0.275 OA
ATOM     12  N   UNL     1      21.444  28.916  52.640  1.00  0.00    -0.352 N 
ATOM     13  H   UNL     1      20.431  28.662  52.675  1.00  0.00     0.163 HD
BRANCH  12  14
ATOM     14  C   UNL     1      21.804  30.315  52.427  1.00  0.00     0.151 C 
BRANCH  14  15
ATOM     15  C   UNL     1      21.713  30.664  50.965  1.00  0.00    -0.025 A 
ATOM     16  C   UNL     1      22.865  31.052  50.263  1.00  0.00     0.056 A 
ATOM     17  C   UNL     1      20.486  30.592  50.290  1.00  0.00     0.009 A 
ATOM     18  C   UNL     1      22.796  31.373  48.892  1.00  0.00     0.160 A 
ATOM     19  C   UNL     1      20.410  30.907  48.933  1.00  0.00     0.050 A 
ATOM     20  C   UNL     1      21.556  31.296  48.231  1.00  0.00     0.157 A 
BRANCH  18  21
ATOM     21  O   UNL     1      23.930  31.769  48.165  1.00  0.00    -0.493 OA
ATOM     22  C   UNL     1      25.259  31.345  48.451  1.00  0.00     0.278 C 
ENDBRANCH  18  21
BRANCH  20  23
ATOM     23  O   UNL     1      21.443  31.603  46.875  1.00  0.00    -0.504 OA
ATOM     24  H   UNL     1      22.249  31.841  46.307  1.00  0.00     0.293 HD
ENDBRANCH  20  23
ENDBRANCH  14  15
ENDBRANCH  12  14
ENDBRANCH   9  10
ENDBRANCH   1   9
TORSDOF 10
ENDMDL
