MODEL 1
REMARK VINA RESULT:    -3.044      0.000      0.000
REMARK INTER + INTRA:          -3.132
REMARK INTER:                  -3.132
REMARK INTRA:                   0.000
REMARK UNBOUND:                 0.000
REMARK SMILES CC1(C)[C@@H]2CC[C@@]1(C)[C@@H](O)C2
REMARK SMILES IDX 1 1 2 2 4 3 5 4 6 5 7 6 9 7 11 8 8 9 3 10 10 11
REMARK H PARENT 10 12
REMARK Flexibility Score: inf
ROOT
ATOM      1  C   UNL     1     116.855 117.081 112.783  1.00  0.00     0.012 C 
ATOM      2  C   UNL     1     117.995 116.027 112.623  1.00  0.00    -0.025 C 
ATOM      3  C   UNL     1     117.559 114.748 111.886  1.00  0.00    -0.002 C 
ATOM      4  C   UNL     1     116.493 114.139 112.829  1.00  0.00     0.005 C 
ATOM      5  C   UNL     1     117.036 114.486 114.229  1.00  0.00     0.010 C 
ATOM      6  C   UNL     1     118.358 115.239 113.904  1.00  0.00    -0.001 C 
ATOM      7  C   UNL     1     119.382 114.187 113.382  1.00  0.00     0.121 C 
ATOM      8  C   UNL     1     118.803 113.829 111.992  1.00  0.00     0.036 C 
ATOM      9  C   UNL     1     118.886 116.075 115.076  1.00  0.00     0.015 C 
ATOM     10  C   UNL     1     119.175 116.778 111.932  1.00  0.00     0.012 C 
ENDROOT
BRANCH   7  11
ATOM     11  O   UNL     1     119.459 113.060 114.218  1.00  0.00    -0.393 OA
ATOM     12  H   UNL     1     120.299 112.589 113.978  1.00  0.00     0.210 HD
ENDBRANCH   7  11
TORSDOF 1
ENDMDL
MODEL 2
REMARK VINA RESULT:    -3.017      3.524      4.839
REMARK INTER + INTRA:          -3.105
REMARK INTER:                  -3.105
REMARK INTRA:                   0.000
REMARK UNBOUND:                 0.000
REMARK SMILES CC1(C)[C@@H]2CC[C@@]1(C)[C@@H](O)C2
REMARK SMILES IDX 1 1 2 2 4 3 5 4 6 5 7 6 9 7 11 8 8 9 3 10 10 11
REMARK H PARENT 10 12
REMARK Flexibility Score: inf
ROOT
ATOM      1  C   UNL     1     115.984 119.312 111.945  1.00  0.00     0.012 C 
ATOM      2  C   UNL     1     115.596 118.053 112.782  1.00  0.00    -0.025 C 
ATOM      3  C   UNL     1     114.388 117.283 112.222  1.00  0.00    -0.002 C 
ATOM      4  C   UNL     1     113.227 118.300 112.349  1.00  0.00     0.005 C 
ATOM      5  C   UNL     1     113.565 119.043 113.657  1.00  0.00     0.010 C 
ATOM      6  C   UNL     1     114.872 118.339 114.119  1.00  0.00    -0.001 C 
ATOM      7  C   UNL     1     114.490 116.912 114.615  1.00  0.00     0.121 C 
ATOM      8  C   UNL     1     114.125 116.194 113.293  1.00  0.00     0.036 C 
ATOM      9  C   UNL     1     115.668 119.150 115.149  1.00  0.00     0.015 C 
ATOM     10  C   UNL     1     116.895 117.195 112.884  1.00  0.00     0.012 C 
ENDROOT
BRANCH   7  11
ATOM     11  O   UNL     1     113.407 116.934 115.510  1.00  0.00    -0.393 OA
ATOM     12  H   UNL     1     113.743 117.346 116.348  1.00  0.00     0.210 HD
ENDBRANCH   7  11
TORSDOF 1
ENDMDL
MODEL 3
REMARK VINA RESULT:    -3.006      2.175      3.035
REMARK INTER + INTRA:          -3.094
REMARK INTER:                  -3.094
REMARK INTRA:                   0.000
REMARK UNBOUND:                 0.000
REMARK SMILES CC1(C)[C@@H]2CC[C@@]1(C)[C@@H](O)C2
REMARK SMILES IDX 1 1 2 2 4 3 5 4 6 5 7 6 9 7 11 8 8 9 3 10 10 11
REMARK H PARENT 10 12
REMARK Flexibility Score: inf
ROOT
ATOM      1  C   UNL     1     113.969 116.336 111.878  1.00  0.00     0.012 C 
ATOM      2  C   UNL     1     115.236 115.840 112.641  1.00  0.00    -0.025 C 
ATOM      3  C   UNL     1     115.897 114.602 112.009  1.00  0.00    -0.002 C 
ATOM      4  C   UNL     1     114.811 113.507 112.152  1.00  0.00     0.005 C 
ATOM      5  C   UNL     1     114.155 113.850 113.503  1.00  0.00     0.010 C 
ATOM      6  C   UNL     1     114.965 115.094 113.969  1.00  0.00    -0.001 C 
ATOM      7  C   UNL     1     116.385 114.603 114.383  1.00  0.00     0.121 C 
ATOM      8  C   UNL     1     117.015 114.234 113.018  1.00  0.00     0.036 C 
ATOM      9  C   UNL     1     114.258 115.907 115.059  1.00  0.00     0.015 C 
ATOM     10  C   UNL     1     116.184 117.076 112.739  1.00  0.00     0.012 C 
ENDROOT
BRANCH   7  11
ATOM     11  O   UNL     1     116.333 113.495 115.246  1.00  0.00    -0.393 OA
ATOM     12  H   UNL     1     115.753 113.759 116.007  1.00  0.00     0.210 HD
ENDBRANCH   7  11
TORSDOF 1
ENDMDL
MODEL 4
REMARK VINA RESULT:    -2.983      2.894      4.460
REMARK INTER + INTRA:          -3.070
REMARK INTER:                  -3.070
REMARK INTRA:                   0.000
REMARK UNBOUND:                 0.000
REMARK SMILES CC1(C)[C@@H]2CC[C@@]1(C)[C@@H](O)C2
REMARK SMILES IDX 1 1 2 2 4 3 5 4 6 5 7 6 9 7 11 8 8 9 3 10 10 11
REMARK H PARENT 10 12
REMARK Flexibility Score: inf
ROOT
ATOM      1  C   UNL     1     119.092 116.785 111.880  1.00  0.00     0.012 C 
ATOM      2  C   UNL     1     117.898 117.409 112.669  1.00  0.00    -0.025 C 
ATOM      3  C   UNL     1     117.393 118.738 112.082  1.00  0.00    -0.002 C 
ATOM      4  C   UNL     1     118.605 119.686 112.250  1.00  0.00     0.005 C 
ATOM      5  C   UNL     1     119.221 119.221 113.585  1.00  0.00     0.010 C 
ATOM      6  C   UNL     1     118.266 118.073 114.018  1.00  0.00    -0.001 C 
ATOM      7  C   UNL     1     116.920 118.721 114.459  1.00  0.00     0.121 C 
ATOM      8  C   UNL     1     116.333 119.208 113.112  1.00  0.00     0.036 C 
ATOM      9  C   UNL     1     118.872 117.143 115.076  1.00  0.00     0.015 C 
ATOM     10  C   UNL     1     116.806 116.296 112.736  1.00  0.00     0.012 C 
ENDROOT
BRANCH   7  11
ATOM     11  O   UNL     1     117.112 119.785 115.357  1.00  0.00    -0.393 OA
ATOM     12  H   UNL     1     116.892 119.435 116.259  1.00  0.00     0.210 HD
ENDBRANCH   7  11
TORSDOF 1
ENDMDL
MODEL 5
REMARK VINA RESULT:    -2.959      1.257      2.451
REMARK INTER + INTRA:          -3.045
REMARK INTER:                  -3.045
REMARK INTRA:                   0.000
REMARK UNBOUND:                 0.000
REMARK SMILES CC1(C)[C@@H]2CC[C@@]1(C)[C@@H](O)C2
REMARK SMILES IDX 1 1 2 2 4 3 5 4 6 5 7 6 9 7 11 8 8 9 3 10 10 11
REMARK H PARENT 10 12
REMARK Flexibility Score: inf
ROOT
ATOM      1  C   UNL     1     119.055 116.915 111.920  1.00  0.00     0.012 C 
ATOM      2  C   UNL     1     118.699 116.174 113.247  1.00  0.00    -0.025 C 
ATOM      3  C   UNL     1     119.456 114.847 113.439  1.00  0.00    -0.002 C 
ATOM      4  C   UNL     1     118.946 113.973 112.268  1.00  0.00     0.005 C 
ATOM      5  C   UNL     1     117.472 114.404 112.135  1.00  0.00     0.010 C 
ATOM      6  C   UNL     1     117.325 115.463 113.265  1.00  0.00    -0.001 C 
ATOM      7  C   UNL     1     117.348 114.706 114.626  1.00  0.00     0.121 C 
ATOM      8  C   UNL     1     118.825 114.255 114.725  1.00  0.00     0.036 C 
ATOM      9  C   UNL     1     116.102 116.372 113.092  1.00  0.00     0.015 C 
ATOM     10  C   UNL     1     118.944 117.207 114.390  1.00  0.00     0.012 C 
ENDROOT
BRANCH   7  11
ATOM     11  O   UNL     1     116.469 113.610 114.639  1.00  0.00    -0.393 OA
ATOM     12  H   UNL     1     116.965 112.856 115.053  1.00  0.00     0.210 HD
ENDBRANCH   7  11
TORSDOF 1
ENDMDL
MODEL 6
REMARK VINA RESULT:    -2.933      9.589     11.192
REMARK INTER + INTRA:          -3.019
REMARK INTER:                  -3.019
REMARK INTRA:                   0.000
REMARK UNBOUND:                 0.000
REMARK SMILES CC1(C)[C@@H]2CC[C@@]1(C)[C@@H](O)C2
REMARK SMILES IDX 1 1 2 2 4 3 5 4 6 5 7 6 9 7 11 8 8 9 3 10 10 11
REMARK H PARENT 10 12
REMARK Flexibility Score: inf
ROOT
ATOM      1  C   UNL     1     109.031 110.750 119.558  1.00  0.00     0.012 C 
ATOM      2  C   UNL     1     108.377 111.130 118.192  1.00  0.00    -0.025 C 
ATOM      3  C   UNL     1     108.586 110.077 117.089  1.00  0.00    -0.002 C 
ATOM      4  C   UNL     1     110.121 110.076 116.885  1.00  0.00     0.005 C 
ATOM      5  C   UNL     1     110.495 111.556 117.096  1.00  0.00     0.010 C 
ATOM      6  C   UNL     1     109.117 112.218 117.379  1.00  0.00    -0.001 C 
ATOM      7  C   UNL     1     108.323 112.245 116.039  1.00  0.00     0.121 C 
ATOM      8  C   UNL     1     107.984 110.750 115.829  1.00  0.00     0.036 C 
ATOM      9  C   UNL     1     109.228 113.593 118.051  1.00  0.00     0.015 C 
ATOM     10  C   UNL     1     106.876 111.420 118.506  1.00  0.00     0.012 C 
ENDROOT
BRANCH   7  11
ATOM     11  O   UNL     1     109.089 112.758 114.978  1.00  0.00    -0.393 OA
ATOM     12  H   UNL     1     108.496 113.377 114.478  1.00  0.00     0.210 HD
ENDBRANCH   7  11
TORSDOF 1
ENDMDL
MODEL 7
REMARK VINA RESULT:    -2.891      8.560      9.970
REMARK INTER + INTRA:          -2.976
REMARK INTER:                  -2.976
REMARK INTRA:                   0.000
REMARK UNBOUND:                 0.000
REMARK SMILES CC1(C)[C@@H]2CC[C@@]1(C)[C@@H](O)C2
REMARK SMILES IDX 1 1 2 2 4 3 5 4 6 5 7 6 9 7 11 8 8 9 3 10 10 11
REMARK H PARENT 10 12
REMARK Flexibility Score: inf
ROOT
ATOM      1  C   UNL     1     126.112 121.880 118.332  1.00  0.00     0.012 C 
ATOM      2  C   UNL     1     124.620 122.046 117.903  1.00  0.00    -0.025 C 
ATOM      3  C   UNL     1     123.614 121.777 119.035  1.00  0.00    -0.002 C 
ATOM      4  C   UNL     1     123.839 120.281 119.364  1.00  0.00     0.005 C 
ATOM      5  C   UNL     1     124.149 119.670 117.983  1.00  0.00     0.010 C 
ATOM      6  C   UNL     1     124.045 120.900 117.037  1.00  0.00    -0.001 C 
ATOM      7  C   UNL     1     122.538 121.280 116.921  1.00  0.00     0.121 C 
ATOM      8  C   UNL     1     122.239 121.860 118.324  1.00  0.00     0.036 C 
ATOM      9  C   UNL     1     124.726 120.683 115.680  1.00  0.00     0.015 C 
ATOM     10  C   UNL     1     124.511 123.478 117.292  1.00  0.00     0.012 C 
ENDROOT
BRANCH   7  11
ATOM     11  O   UNL     1     121.730 120.165 116.638  1.00  0.00    -0.393 OA
ATOM     12  H   UNL     1     121.617 120.144 115.652  1.00  0.00     0.210 HD
ENDBRANCH   7  11
TORSDOF 1
ENDMDL
MODEL 8
REMARK VINA RESULT:    -2.887      3.881      5.635
REMARK INTER + INTRA:          -2.972
REMARK INTER:                  -2.972
REMARK INTRA:                   0.000
REMARK UNBOUND:                 0.000
REMARK SMILES CC1(C)[C@@H]2CC[C@@]1(C)[C@@H](O)C2
REMARK SMILES IDX 1 1 2 2 4 3 5 4 6 5 7 6 9 7 11 8 8 9 3 10 10 11
REMARK H PARENT 10 12
REMARK Flexibility Score: inf
ROOT
ATOM      1  C   UNL     1     116.212 116.303 112.944  1.00  0.00     0.012 C 
ATOM      2  C   UNL     1     115.108 117.384 112.722  1.00  0.00    -0.025 C 
ATOM      3  C   UNL     1     115.621 118.663 112.038  1.00  0.00    -0.002 C 
ATOM      4  C   UNL     1     116.630 119.235 113.064  1.00  0.00     0.005 C 
ATOM      5  C   UNL     1     115.982 118.879 114.416  1.00  0.00     0.010 C 
ATOM      6  C   UNL     1     114.672 118.160 113.987  1.00  0.00    -0.001 C 
ATOM      7  C   UNL     1     113.709 119.241 113.410  1.00  0.00     0.121 C 
ATOM      8  C   UNL     1     114.392 119.608 112.071  1.00  0.00     0.036 C 
ATOM      9  C   UNL     1     114.045 117.318 115.104  1.00  0.00     0.015 C 
ATOM     10  C   UNL     1     113.965 116.668 111.937  1.00  0.00     0.012 C 
ENDROOT
BRANCH   7  11
ATOM     11  O   UNL     1     113.596 120.357 114.257  1.00  0.00    -0.393 OA
ATOM     12  H   UNL     1     113.203 121.086 113.710  1.00  0.00     0.210 HD
ENDBRANCH   7  11
TORSDOF 1
ENDMDL
MODEL 9
REMARK VINA RESULT:    -2.808      2.882      3.969
REMARK INTER + INTRA:          -2.890
REMARK INTER:                  -2.890
REMARK INTRA:                   0.000
REMARK UNBOUND:                 0.000
REMARK SMILES CC1(C)[C@@H]2CC[C@@]1(C)[C@@H](O)C2
REMARK SMILES IDX 1 1 2 2 4 3 5 4 6 5 7 6 9 7 11 8 8 9 3 10 10 11
REMARK H PARENT 10 12
REMARK Flexibility Score: inf
ROOT
ATOM      1  C   UNL     1     115.974 117.037 113.278  1.00  0.00     0.012 C 
ATOM      2  C   UNL     1     117.064 118.129 113.039  1.00  0.00    -0.025 C 
ATOM      3  C   UNL     1     118.321 117.605 112.323  1.00  0.00    -0.002 C 
ATOM      4  C   UNL     1     118.903 116.582 113.328  1.00  0.00     0.005 C 
ATOM      5  C   UNL     1     118.586 117.224 114.693  1.00  0.00     0.010 C 
ATOM      6  C   UNL     1     117.874 118.546 114.289  1.00  0.00    -0.001 C 
ATOM      7  C   UNL     1     118.954 119.500 113.695  1.00  0.00     0.121 C 
ATOM      8  C   UNL     1     119.281 118.823 112.343  1.00  0.00     0.036 C 
ATOM      9  C   UNL     1     117.065 119.175 115.430  1.00  0.00     0.015 C 
ATOM     10  C   UNL     1     116.345 119.287 112.279  1.00  0.00     0.012 C 
ENDROOT
BRANCH   7  11
ATOM     11  O   UNL     1     120.090 119.593 114.517  1.00  0.00    -0.393 OA
ATOM     12  H   UNL     1     119.783 119.406 115.442  1.00  0.00     0.210 HD
ENDBRANCH   7  11
TORSDOF 1
ENDMDL
