MODEL 1
REMARK VINA RESULT:    -3.491      0.000      0.000
REMARK INTER + INTRA:          -4.222
REMARK INTER:                  -4.103
REMARK INTRA:                  -0.119
REMARK UNBOUND:                -0.119
REMARK SMILES O=C([O-])CCC(=O)[O-]
REMARK SMILES IDX 4 1 2 2 1 3 3 4 5 5 6 6 7 7 8 8
REMARK H PARENT
REMARK Flexibility Score: inf
ROOT
ATOM      1  C   UNL     1     -11.403 -42.475 -14.479  1.00  0.00     0.059 C 
ENDROOT
BRANCH   1   2
ATOM      2  C   UNL     1     -10.239 -41.603 -14.841  1.00  0.00     0.042 C 
ATOM      3  O   UNL     1      -9.181 -41.645 -14.160  1.00  0.00    -0.550 OA
ATOM      4  O   UNL     1     -10.309 -40.777 -15.956  1.00  0.00    -0.550 OA
ENDBRANCH   1   2
BRANCH   1   5
ATOM      5  C   UNL     1     -12.335 -42.700 -15.675  1.00  0.00     0.059 C 
BRANCH   5   6
ATOM      6  C   UNL     1     -13.628 -41.963 -15.512  1.00  0.00     0.042 C 
ATOM      7  O   UNL     1     -14.724 -42.571 -15.635  1.00  0.00    -0.550 OA
ATOM      8  O   UNL     1     -13.624 -40.597 -15.261  1.00  0.00    -0.550 OA
ENDBRANCH   5   6
ENDBRANCH   1   5
TORSDOF 3
ENDMDL
MODEL 2
REMARK VINA RESULT:    -3.477      1.815      2.169
REMARK INTER + INTRA:          -4.206
REMARK INTER:                  -4.132
REMARK INTRA:                  -0.074
REMARK UNBOUND:                -0.119
REMARK SMILES O=C([O-])CCC(=O)[O-]
REMARK SMILES IDX 4 1 2 2 1 3 3 4 5 5 6 6 7 7 8 8
REMARK H PARENT
REMARK Flexibility Score: inf
ROOT
ATOM      1  C   UNL     1     -11.706 -41.733 -14.833  1.00  0.00     0.059 C 
ENDROOT
BRANCH   1   2
ATOM      2  C   UNL     1     -10.464 -42.426 -14.363  1.00  0.00     0.042 C 
ATOM      3  O   UNL     1      -9.403 -41.772 -14.183  1.00  0.00    -0.550 OA
ATOM      4  O   UNL     1     -10.490 -43.787 -14.082  1.00  0.00    -0.550 OA
ENDBRANCH   1   2
BRANCH   1   5
ATOM      5  C   UNL     1     -12.580 -42.656 -15.690  1.00  0.00     0.059 C 
BRANCH   5   6
ATOM      6  C   UNL     1     -12.482 -42.312 -17.144  1.00  0.00     0.042 C 
ATOM      7  O   UNL     1     -13.423 -42.604 -17.929  1.00  0.00    -0.550 OA
ATOM      8  O   UNL     1     -11.336 -41.703 -17.639  1.00  0.00    -0.550 OA
ENDBRANCH   5   6
ENDBRANCH   1   5
TORSDOF 3
ENDMDL
MODEL 3
REMARK VINA RESULT:    -3.476      0.082      3.876
REMARK INTER + INTRA:          -4.205
REMARK INTER:                  -4.087
REMARK INTRA:                  -0.117
REMARK UNBOUND:                -0.119
REMARK SMILES O=C([O-])CCC(=O)[O-]
REMARK SMILES IDX 4 1 2 2 1 3 3 4 5 5 6 6 7 7 8 8
REMARK H PARENT
REMARK Flexibility Score: inf
ROOT
ATOM      1  C   UNL     1     -12.330 -42.687 -15.684  1.00  0.00     0.059 C 
ENDROOT
BRANCH   1   2
ATOM      2  C   UNL     1     -13.638 -41.962 -15.581  1.00  0.00     0.042 C 
ATOM      3  O   UNL     1     -14.721 -42.583 -15.746  1.00  0.00    -0.550 OA
ATOM      4  O   UNL     1     -13.660 -40.610 -15.262  1.00  0.00    -0.550 OA
ENDBRANCH   1   2
BRANCH   1   5
ATOM      5  C   UNL     1     -11.423 -42.390 -14.486  1.00  0.00     0.059 C 
BRANCH   5   6
ATOM      6  C   UNL     1     -10.252 -41.542 -14.878  1.00  0.00     0.042 C 
ATOM      7  O   UNL     1     -10.301 -40.835 -15.920  1.00  0.00    -0.550 OA
ATOM      8  O   UNL     1      -9.092 -41.562 -14.115  1.00  0.00    -0.550 OA
ENDBRANCH   5   6
ENDBRANCH   1   5
TORSDOF 3
ENDMDL
MODEL 4
REMARK VINA RESULT:    -3.469      1.439      3.241
REMARK INTER + INTRA:          -4.196
REMARK INTER:                  -4.039
REMARK INTRA:                  -0.157
REMARK UNBOUND:                -0.119
REMARK SMILES O=C([O-])CCC(=O)[O-]
REMARK SMILES IDX 4 1 2 2 1 3 3 4 5 5 6 6 7 7 8 8
REMARK H PARENT
REMARK Flexibility Score: inf
ROOT
ATOM      1  C   UNL     1     -13.326 -42.154 -15.489  1.00  0.00     0.059 C 
ENDROOT
BRANCH   1   2
ATOM      2  C   UNL     1     -13.175 -40.683 -15.731  1.00  0.00     0.042 C 
ATOM      3  O   UNL     1     -13.277 -39.871 -14.774  1.00  0.00    -0.550 OA
ATOM      4  O   UNL     1     -12.880 -40.214 -17.005  1.00  0.00    -0.550 OA
ENDBRANCH   1   2
BRANCH   1   5
ATOM      5  C   UNL     1     -12.003 -42.900 -15.692  1.00  0.00     0.059 C 
BRANCH   5   6
ATOM      6  C   UNL     1     -11.029 -42.602 -14.593  1.00  0.00     0.042 C 
ATOM      7  O   UNL     1     -11.200 -43.089 -13.444  1.00  0.00    -0.550 OA
ATOM      8  O   UNL     1      -9.954 -41.754 -14.828  1.00  0.00    -0.550 OA
ENDBRANCH   5   6
ENDBRANCH   1   5
TORSDOF 3
ENDMDL
MODEL 5
REMARK VINA RESULT:    -3.465      0.111      1.621
REMARK INTER + INTRA:          -4.191
REMARK INTER:                  -4.082
REMARK INTRA:                  -0.109
REMARK UNBOUND:                -0.119
REMARK SMILES O=C([O-])CCC(=O)[O-]
REMARK SMILES IDX 4 1 2 2 1 3 3 4 5 5 6 6 7 7 8 8
REMARK H PARENT
REMARK Flexibility Score: inf
ROOT
ATOM      1  C   UNL     1     -11.400 -42.348 -14.433  1.00  0.00     0.059 C 
ENDROOT
BRANCH   1   2
ATOM      2  C   UNL     1     -10.210 -41.560 -14.889  1.00  0.00     0.042 C 
ATOM      3  O   UNL     1     -10.268 -40.880 -15.947  1.00  0.00    -0.550 OA
ATOM      4  O   UNL     1      -9.051 -41.543 -14.122  1.00  0.00    -0.550 OA
ENDBRANCH   1   2
BRANCH   1   5
ATOM      5  C   UNL     1     -12.341 -42.676 -15.597  1.00  0.00     0.059 C 
BRANCH   5   6
ATOM      6  C   UNL     1     -13.612 -41.888 -15.516  1.00  0.00     0.042 C 
ATOM      7  O   UNL     1     -13.577 -40.651 -15.278  1.00  0.00    -0.550 OA
ATOM      8  O   UNL     1     -14.836 -42.526 -15.667  1.00  0.00    -0.550 OA
ENDBRANCH   5   6
ENDBRANCH   1   5
TORSDOF 3
ENDMDL
MODEL 6
REMARK VINA RESULT:    -3.458      1.778      3.708
REMARK INTER + INTRA:          -4.184
REMARK INTER:                  -4.069
REMARK INTRA:                  -0.114
REMARK UNBOUND:                -0.119
REMARK SMILES O=C([O-])CCC(=O)[O-]
REMARK SMILES IDX 4 1 2 2 1 3 3 4 5 5 6 6 7 7 8 8
REMARK H PARENT
REMARK Flexibility Score: inf
ROOT
ATOM      1  C   UNL     1     -12.542 -42.601 -15.711  1.00  0.00     0.059 C 
ENDROOT
BRANCH   1   2
ATOM      2  C   UNL     1     -12.216 -42.035 -17.060  1.00  0.00     0.042 C 
ATOM      3  O   UNL     1     -12.562 -42.647 -18.104  1.00  0.00    -0.550 OA
ATOM      4  O   UNL     1     -11.566 -40.811 -17.162  1.00  0.00    -0.550 OA
ENDBRANCH   1   2
BRANCH   1   5
ATOM      5  C   UNL     1     -11.777 -41.882 -14.595  1.00  0.00     0.059 C 
BRANCH   5   6
ATOM      6  C   UNL     1     -10.467 -42.550 -14.307  1.00  0.00     0.042 C 
ATOM      7  O   UNL     1      -9.393 -41.897 -14.381  1.00  0.00    -0.550 OA
ATOM      8  O   UNL     1     -10.431 -43.902 -13.995  1.00  0.00    -0.550 OA
ENDBRANCH   5   6
ENDBRANCH   1   5
TORSDOF 3
ENDMDL
MODEL 7
REMARK VINA RESULT:    -3.433      1.726      3.787
REMARK INTER + INTRA:          -4.155
REMARK INTER:                  -4.060
REMARK INTRA:                  -0.094
REMARK UNBOUND:                -0.119
REMARK SMILES O=C([O-])CCC(=O)[O-]
REMARK SMILES IDX 4 1 2 2 1 3 3 4 5 5 6 6 7 7 8 8
REMARK H PARENT
REMARK Flexibility Score: inf
ROOT
ATOM      1  C   UNL     1     -13.927 -42.332 -15.803  1.00  0.00     0.059 C 
ENDROOT
BRANCH   1   2
ATOM      2  C   UNL     1     -13.985 -42.480 -17.293  1.00  0.00     0.042 C 
ATOM      3  O   UNL     1     -12.922 -42.508 -17.968  1.00  0.00    -0.550 OA
ATOM      4  O   UNL     1     -15.210 -42.630 -17.930  1.00  0.00    -0.550 OA
ENDBRANCH   1   2
BRANCH   1   5
ATOM      5  C   UNL     1     -12.518 -42.595 -15.262  1.00  0.00     0.059 C 
BRANCH   5   6
ATOM      6  C   UNL     1     -11.874 -41.336 -14.769  1.00  0.00     0.042 C 
ATOM      7  O   UNL     1     -10.697 -41.359 -14.321  1.00  0.00    -0.550 OA
ATOM      8  O   UNL     1     -12.587 -40.144 -14.768  1.00  0.00    -0.550 OA
ENDBRANCH   5   6
ENDBRANCH   1   5
TORSDOF 3
ENDMDL
MODEL 8
REMARK VINA RESULT:    -3.424      1.763      2.353
REMARK INTER + INTRA:          -4.144
REMARK INTER:                  -4.037
REMARK INTRA:                  -0.108
REMARK UNBOUND:                -0.119
REMARK SMILES O=C([O-])CCC(=O)[O-]
REMARK SMILES IDX 4 1 2 2 1 3 3 4 5 5 6 6 7 7 8 8
REMARK H PARENT
REMARK Flexibility Score: inf
ROOT
ATOM      1  C   UNL     1     -12.513 -42.587 -15.398  1.00  0.00     0.059 C 
ENDROOT
BRANCH   1   2
ATOM      2  C   UNL     1     -11.890 -41.354 -14.818  1.00  0.00     0.042 C 
ATOM      3  O   UNL     1     -12.519 -40.262 -14.826  1.00  0.00    -0.550 OA
ATOM      4  O   UNL     1     -10.633 -41.420 -14.230  1.00  0.00    -0.550 OA
ENDBRANCH   1   2
BRANCH   1   5
ATOM      5  C   UNL     1     -13.944 -42.325 -15.880  1.00  0.00     0.059 C 
BRANCH   5   6
ATOM      6  C   UNL     1     -14.035 -42.352 -17.375  1.00  0.00     0.042 C 
ATOM      7  O   UNL     1     -15.050 -42.838 -17.940  1.00  0.00    -0.550 OA
ATOM      8  O   UNL     1     -12.981 -41.876 -18.144  1.00  0.00    -0.550 OA
ENDBRANCH   5   6
ENDBRANCH   1   5
TORSDOF 3
ENDMDL
MODEL 9
REMARK VINA RESULT:    -3.250      2.028      2.612
REMARK INTER + INTRA:          -3.939
REMARK INTER:                  -3.748
REMARK INTRA:                  -0.190
REMARK UNBOUND:                -0.119
REMARK SMILES O=C([O-])CCC(=O)[O-]
REMARK SMILES IDX 4 1 2 2 1 3 3 4 5 5 6 6 7 7 8 8
REMARK H PARENT
REMARK Flexibility Score: inf
ROOT
ATOM      1  C   UNL     1     -12.378 -42.641 -15.817  1.00  0.00     0.059 C 
ENDROOT
BRANCH   1   2
ATOM      2  C   UNL     1     -12.014 -42.227 -17.210  1.00  0.00     0.042 C 
ATOM      3  O   UNL     1     -12.638 -42.703 -18.196  1.00  0.00    -0.550 OA
ATOM      4  O   UNL     1     -11.015 -41.285 -17.417  1.00  0.00    -0.550 OA
ENDBRANCH   1   2
BRANCH   1   5
ATOM      5  C   UNL     1     -13.824 -42.265 -15.474  1.00  0.00     0.059 C 
BRANCH   5   6
ATOM      6  C   UNL     1     -14.041 -40.785 -15.555  1.00  0.00     0.042 C 
ATOM      7  O   UNL     1     -14.935 -40.315 -16.307  1.00  0.00    -0.550 OA
ATOM      8  O   UNL     1     -13.230 -39.923 -14.828  1.00  0.00    -0.550 OA
ENDBRANCH   5   6
ENDBRANCH   1   5
TORSDOF 3
ENDMDL
