MODEL 1
REMARK VINA RESULT:    -4.432      0.000      0.000
REMARK INTER + INTRA:         -10.750
REMARK INTER:                  -8.060
REMARK INTRA:                  -2.690
REMARK UNBOUND:                -2.690
REMARK SMILES CCCCCC=CCC=CCCCCCCCC(=O)[O-]
REMARK SMILES IDX 11 1 12 2 13 3 14 4 15 5 16 6 17 7 18 8 19 9 20 10 10 11
REMARK SMILES IDX 9 12 8 13 7 14 6 15 5 16 4 17 3 18 2 19 1 20
REMARK H PARENT
REMARK Flexibility Score: inf
ROOT
ATOM      1  C   UNL     1      99.754  88.852  79.573  1.00  0.00     0.027 C 
ENDROOT
BRANCH   1   2
ATOM      2  C   UNL     1     100.936  89.732  79.992  1.00  0.00     0.004 C 
BRANCH   2   3
ATOM      3  C   UNL     1     101.463  89.320  81.374  1.00  0.00     0.000 C 
BRANCH   3   4
ATOM      4  C   UNL     1     102.996  89.412  81.482  1.00  0.00     0.000 C 
BRANCH   4   5
ATOM      5  C   UNL     1     103.545  90.815  81.812  1.00  0.00     0.000 C 
BRANCH   5   6
ATOM      6  C   UNL     1     102.849  91.531  82.987  1.00  0.00     0.006 C 
BRANCH   6   7
ATOM      7  C   UNL     1     103.750  91.760  84.211  1.00  0.00     0.053 C 
BRANCH   7   8
ATOM      8  C   UNL     1     103.432  90.814  85.327  1.00  0.00     0.041 C 
ATOM      9  O   UNL     1     103.057  91.256  86.445  1.00  0.00    -0.550 OA
ATOM     10  O   UNL     1     103.582  89.445  85.143  1.00  0.00    -0.550 OA
ENDBRANCH   7   8
ENDBRANCH   6   7
ENDBRANCH   5   6
ENDBRANCH   4   5
ENDBRANCH   3   4
ENDBRANCH   2   3
ENDBRANCH   1   2
BRANCH   1  11
ATOM     11  C   UNL     1      98.605  89.690  79.072  1.00  0.00    -0.031 C 
ATOM     12  C   UNL     1      97.430  89.834  79.713  1.00  0.00    -0.027 C 
BRANCH  12  13
ATOM     13  C   UNL     1      97.121  89.199  81.047  1.00  0.00     0.054 C 
BRANCH  13  14
ATOM     14  C   UNL     1      96.532  90.203  82.004  1.00  0.00    -0.027 C 
ATOM     15  C   UNL     1      97.256  91.009  82.805  1.00  0.00    -0.031 C 
BRANCH  15  16
ATOM     16  C   UNL     1      98.762  91.005  82.888  1.00  0.00     0.027 C 
BRANCH  16  17
ATOM     17  C   UNL     1      99.334  92.404  82.612  1.00  0.00     0.004 C 
BRANCH  17  18
ATOM     18  C   UNL     1      99.092  92.860  81.160  1.00  0.00     0.000 C 
BRANCH  18  19
ATOM     19  C   UNL     1     100.384  93.080  80.355  1.00  0.00    -0.003 C 
ATOM     20  C   UNL     1     101.198  94.278  80.840  1.00  0.00     0.004 C 
ENDBRANCH  18  19
ENDBRANCH  17  18
ENDBRANCH  16  17
ENDBRANCH  15  16
ENDBRANCH  13  14
ENDBRANCH  12  13
ENDBRANCH   1  11
TORSDOF 14
ENDMDL
MODEL 2
REMARK VINA RESULT:    -4.340      3.396      5.837
REMARK INTER + INTRA:         -10.582
REMARK INTER:                  -7.785
REMARK INTRA:                  -2.796
REMARK UNBOUND:                -2.690
REMARK SMILES CCCCCC=CCC=CCCCCCCCC(=O)[O-]
REMARK SMILES IDX 11 1 12 2 13 3 14 4 15 5 16 6 17 7 18 8 19 9 20 10 10 11
REMARK SMILES IDX 9 12 8 13 7 14 6 15 5 16 4 17 3 18 2 19 1 20
REMARK H PARENT
REMARK Flexibility Score: inf
ROOT
ATOM      1  C   UNL     1     100.715  90.065  79.359  1.00  0.00     0.027 C 
ENDROOT
BRANCH   1   2
ATOM      2  C   UNL     1      99.653  89.019  79.715  1.00  0.00     0.004 C 
BRANCH   2   3
ATOM      3  C   UNL     1      98.373  89.235  78.895  1.00  0.00     0.000 C 
BRANCH   3   4
ATOM      4  C   UNL     1      97.140  89.516  79.773  1.00  0.00     0.000 C 
BRANCH   4   5
ATOM      5  C   UNL     1      97.396  89.469  81.292  1.00  0.00     0.000 C 
BRANCH   5   6
ATOM      6  C   UNL     1      96.425  90.308  82.147  1.00  0.00     0.006 C 
BRANCH   6   7
ATOM      7  C   UNL     1      96.532  91.825  81.922  1.00  0.00     0.053 C 
BRANCH   7   8
ATOM      8  C   UNL     1      95.219  92.428  81.531  1.00  0.00     0.041 C 
ATOM      9  O   UNL     1      94.261  91.688  81.182  1.00  0.00    -0.550 OA
ATOM     10  O   UNL     1      95.062  93.808  81.519  1.00  0.00    -0.550 OA
ENDBRANCH   7   8
ENDBRANCH   6   7
ENDBRANCH   5   6
ENDBRANCH   4   5
ENDBRANCH   3   4
ENDBRANCH   2   3
ENDBRANCH   1   2
BRANCH   1  11
ATOM     11  C   UNL     1     100.081  91.398  79.054  1.00  0.00    -0.031 C 
ATOM     12  C   UNL     1     100.189  92.490  79.834  1.00  0.00    -0.027 C 
BRANCH  12  13
ATOM     13  C   UNL     1     100.996  92.531  81.109  1.00  0.00     0.054 C 
BRANCH  13  14
ATOM     14  C   UNL     1     100.113  92.359  82.318  1.00  0.00    -0.027 C 
ATOM     15  C   UNL     1     100.169  91.310  83.160  1.00  0.00    -0.031 C 
BRANCH  15  16
ATOM     16  C   UNL     1     101.101  90.134  83.002  1.00  0.00     0.027 C 
BRANCH  16  17
ATOM     17  C   UNL     1     102.467  90.420  83.642  1.00  0.00     0.004 C 
BRANCH  17  18
ATOM     18  C   UNL     1     103.607  89.628  82.971  1.00  0.00     0.000 C 
BRANCH  18  19
ATOM     19  C   UNL     1     103.917  90.084  81.535  1.00  0.00    -0.003 C 
ATOM     20  C   UNL     1     104.332  88.937  80.616  1.00  0.00     0.004 C 
ENDBRANCH  18  19
ENDBRANCH  17  18
ENDBRANCH  16  17
ENDBRANCH  15  16
ENDBRANCH  13  14
ENDBRANCH  12  13
ENDBRANCH   1  11
TORSDOF 14
ENDMDL
MODEL 3
REMARK VINA RESULT:    -4.294      2.746      4.395
REMARK INTER + INTRA:         -10.499
REMARK INTER:                  -8.105
REMARK INTRA:                  -2.394
REMARK UNBOUND:                -2.690
REMARK SMILES CCCCCC=CCC=CCCCCCCCC(=O)[O-]
REMARK SMILES IDX 11 1 12 2 13 3 14 4 15 5 16 6 17 7 18 8 19 9 20 10 10 11
REMARK SMILES IDX 9 12 8 13 7 14 6 15 5 16 4 17 3 18 2 19 1 20
REMARK H PARENT
REMARK Flexibility Score: inf
ROOT
ATOM      1  C   UNL     1     102.534  88.945  80.729  1.00  0.00     0.027 C 
ENDROOT
BRANCH   1   2
ATOM      2  C   UNL     1     103.625  89.764  81.428  1.00  0.00     0.004 C 
BRANCH   2   3
ATOM      3  C   UNL     1     103.257  90.030  82.894  1.00  0.00     0.000 C 
BRANCH   3   4
ATOM      4  C   UNL     1     101.767  89.781  83.192  1.00  0.00     0.000 C 
BRANCH   4   5
ATOM      5  C   UNL     1     100.905  91.053  83.319  1.00  0.00     0.000 C 
BRANCH   5   6
ATOM      6  C   UNL     1     100.372  91.618  81.987  1.00  0.00     0.006 C 
BRANCH   6   7
ATOM      7  C   UNL     1     101.268  92.692  81.351  1.00  0.00     0.053 C 
BRANCH   7   8
ATOM      8  C   UNL     1     100.559  93.446  80.269  1.00  0.00     0.041 C 
ATOM      9  O   UNL     1     100.946  94.599  79.942  1.00  0.00    -0.550 OA
ATOM     10  O   UNL     1      99.450  92.890  79.644  1.00  0.00    -0.550 OA
ENDBRANCH   7   8
ENDBRANCH   6   7
ENDBRANCH   5   6
ENDBRANCH   4   5
ENDBRANCH   3   4
ENDBRANCH   2   3
ENDBRANCH   1   2
BRANCH   1  11
ATOM     11  C   UNL     1     102.172  89.552  79.397  1.00  0.00    -0.031 C 
ATOM     12  C   UNL     1     100.931  89.557  78.875  1.00  0.00    -0.027 C 
BRANCH  12  13
ATOM     13  C   UNL     1      99.724  88.984  79.577  1.00  0.00     0.054 C 
BRANCH  13  14
ATOM     14  C   UNL     1      98.446  89.553  79.017  1.00  0.00    -0.027 C 
ATOM     15  C   UNL     1      97.270  89.577  79.673  1.00  0.00    -0.031 C 
BRANCH  15  16
ATOM     16  C   UNL     1      97.047  89.009  81.052  1.00  0.00     0.027 C 
BRANCH  16  17
ATOM     17  C   UNL     1      96.798  90.127  82.076  1.00  0.00     0.004 C 
BRANCH  17  18
ATOM     18  C   UNL     1      96.871  91.530  81.441  1.00  0.00     0.000 C 
BRANCH  18  19
ATOM     19  C   UNL     1      95.675  92.433  81.792  1.00  0.00    -0.003 C 
ATOM     20  C   UNL     1      94.331  91.714  81.698  1.00  0.00     0.004 C 
ENDBRANCH  18  19
ENDBRANCH  17  18
ENDBRANCH  16  17
ENDBRANCH  15  16
ENDBRANCH  13  14
ENDBRANCH  12  13
ENDBRANCH   1  11
TORSDOF 14
ENDMDL
MODEL 4
REMARK VINA RESULT:    -4.269      2.706      5.420
REMARK INTER + INTRA:         -10.453
REMARK INTER:                  -7.901
REMARK INTRA:                  -2.552
REMARK UNBOUND:                -2.690
REMARK SMILES CCCCCC=CCC=CCCCCCCCC(=O)[O-]
REMARK SMILES IDX 11 1 12 2 13 3 14 4 15 5 16 6 17 7 18 8 19 9 20 10 10 11
REMARK SMILES IDX 9 12 8 13 7 14 6 15 5 16 4 17 3 18 2 19 1 20
REMARK H PARENT
REMARK Flexibility Score: inf
ROOT
ATOM      1  C   UNL     1      99.552  89.239  79.758  1.00  0.00     0.027 C 
ENDROOT
BRANCH   1   2
ATOM      2  C   UNL     1      98.305  89.375  78.877  1.00  0.00     0.004 C 
BRANCH   2   3
ATOM      3  C   UNL     1      97.053  88.888  79.618  1.00  0.00     0.000 C 
BRANCH   3   4
ATOM      4  C   UNL     1      96.939  89.462  81.042  1.00  0.00     0.000 C 
BRANCH   4   5
ATOM      5  C   UNL     1      96.269  90.847  81.136  1.00  0.00     0.000 C 
BRANCH   5   6
ATOM      6  C   UNL     1      95.625  91.173  82.499  1.00  0.00     0.006 C 
BRANCH   6   7
ATOM      7  C   UNL     1      96.314  90.507  83.700  1.00  0.00     0.053 C 
BRANCH   7   8
ATOM      8  C   UNL     1      95.700  90.923  85.001  1.00  0.00     0.041 C 
ATOM      9  O   UNL     1      94.741  91.740  85.015  1.00  0.00    -0.550 OA
ATOM     10  O   UNL     1      96.206  90.434  86.198  1.00  0.00    -0.550 OA
ENDBRANCH   7   8
ENDBRANCH   6   7
ENDBRANCH   5   6
ENDBRANCH   4   5
ENDBRANCH   3   4
ENDBRANCH   2   3
ENDBRANCH   1   2
BRANCH   1  11
ATOM     11  C   UNL     1     100.810  89.433  78.951  1.00  0.00    -0.031 C 
ATOM     12  C   UNL     1     102.056  89.385  79.458  1.00  0.00    -0.027 C 
BRANCH  12  13
ATOM     13  C   UNL     1     102.359  89.090  80.907  1.00  0.00     0.054 C 
BRANCH  13  14
ATOM     14  C   UNL     1     103.365  90.066  81.462  1.00  0.00    -0.027 C 
ATOM     15  C   UNL     1     103.299  90.612  82.692  1.00  0.00    -0.031 C 
BRANCH  15  16
ATOM     16  C   UNL     1     102.192  90.356  83.685  1.00  0.00     0.027 C 
BRANCH  16  17
ATOM     17  C   UNL     1     101.177  91.508  83.691  1.00  0.00     0.004 C 
BRANCH  17  18
ATOM     18  C   UNL     1      99.931  91.197  82.837  1.00  0.00     0.000 C 
BRANCH  18  19
ATOM     19  C   UNL     1      99.571  92.309  81.838  1.00  0.00    -0.003 C 
ATOM     20  C   UNL     1     100.711  92.650  80.880  1.00  0.00     0.004 C 
ENDBRANCH  18  19
ENDBRANCH  17  18
ENDBRANCH  16  17
ENDBRANCH  15  16
ENDBRANCH  13  14
ENDBRANCH  12  13
ENDBRANCH   1  11
TORSDOF 14
ENDMDL
MODEL 5
REMARK VINA RESULT:    -4.224     10.435     13.545
REMARK INTER + INTRA:         -10.371
REMARK INTER:                  -7.385
REMARK INTRA:                  -2.986
REMARK UNBOUND:                -2.690
REMARK SMILES CCCCCC=CCC=CCCCCCCCC(=O)[O-]
REMARK SMILES IDX 11 1 12 2 13 3 14 4 15 5 16 6 17 7 18 8 19 9 20 10 10 11
REMARK SMILES IDX 9 12 8 13 7 14 6 15 5 16 4 17 3 18 2 19 1 20
REMARK H PARENT
REMARK Flexibility Score: inf
ROOT
ATOM      1  C   UNL     1      99.083  90.895  96.406  1.00  0.00     0.027 C 
ENDROOT
BRANCH   1   2
ATOM      2  C   UNL     1      99.409  91.959  95.353  1.00  0.00     0.004 C 
BRANCH   2   3
ATOM      3  C   UNL     1     100.430  91.431  94.337  1.00  0.00     0.000 C 
BRANCH   3   4
ATOM      4  C   UNL     1      99.792  91.055  92.987  1.00  0.00     0.000 C 
BRANCH   4   5
ATOM      5  C   UNL     1      99.495  89.553  92.801  1.00  0.00     0.000 C 
BRANCH   5   6
ATOM      6  C   UNL     1      98.087  89.225  92.266  1.00  0.00     0.006 C 
BRANCH   6   7
ATOM      7  C   UNL     1      97.066  90.362  92.429  1.00  0.00     0.053 C 
BRANCH   7   8
ATOM      8  C   UNL     1      96.427  90.734  91.127  1.00  0.00     0.041 C 
ATOM      9  O   UNL     1      96.756  90.138  90.067  1.00  0.00    -0.550 OA
ATOM     10  O   UNL     1      95.493  91.761  91.078  1.00  0.00    -0.550 OA
ENDBRANCH   7   8
ENDBRANCH   6   7
ENDBRANCH   5   6
ENDBRANCH   4   5
ENDBRANCH   3   4
ENDBRANCH   2   3
ENDBRANCH   1   2
BRANCH   1  11
ATOM     11  C   UNL     1      97.833  90.136  96.041  1.00  0.00    -0.031 C 
ATOM     12  C   UNL     1      97.702  88.799  96.119  1.00  0.00    -0.027 C 
BRANCH  12  13
ATOM     13  C   UNL     1      98.789  87.879  96.622  1.00  0.00     0.054 C 
BRANCH  13  14
ATOM     14  C   UNL     1      99.420  87.111  95.490  1.00  0.00    -0.027 C 
ATOM     15  C   UNL     1     100.703  87.244  95.100  1.00  0.00    -0.031 C 
BRANCH  15  16
ATOM     16  C   UNL     1     101.690  88.205  95.715  1.00  0.00     0.027 C 
BRANCH  16  17
ATOM     17  C   UNL     1     102.866  88.473  94.766  1.00  0.00     0.004 C 
BRANCH  17  18
ATOM     18  C   UNL     1     102.749  87.678  93.449  1.00  0.00     0.000 C 
BRANCH  18  19
ATOM     19  C   UNL     1     103.968  86.788  93.151  1.00  0.00    -0.003 C 
ATOM     20  C   UNL     1     104.383  85.919  94.337  1.00  0.00     0.004 C 
ENDBRANCH  18  19
ENDBRANCH  17  18
ENDBRANCH  16  17
ENDBRANCH  15  16
ENDBRANCH  13  14
ENDBRANCH  12  13
ENDBRANCH   1  11
TORSDOF 14
ENDMDL
MODEL 6
REMARK VINA RESULT:    -4.156      2.985      5.304
REMARK INTER + INTRA:         -10.247
REMARK INTER:                  -7.215
REMARK INTRA:                  -3.032
REMARK UNBOUND:                -2.690
REMARK SMILES CCCCCC=CCC=CCCCCCCCC(=O)[O-]
REMARK SMILES IDX 11 1 12 2 13 3 14 4 15 5 16 6 17 7 18 8 19 9 20 10 10 11
REMARK SMILES IDX 9 12 8 13 7 14 6 15 5 16 4 17 3 18 2 19 1 20
REMARK H PARENT
REMARK Flexibility Score: inf
ROOT
ATOM      1  C   UNL     1      99.888  92.339  78.950  1.00  0.00     0.027 C 
ENDROOT
BRANCH   1   2
ATOM      2  C   UNL     1      99.988  93.274  80.161  1.00  0.00     0.004 C 
BRANCH   2   3
ATOM      3  C   UNL     1     101.040  92.769  81.158  1.00  0.00     0.000 C 
BRANCH   3   4
ATOM      4  C   UNL     1     100.568  92.853  82.621  1.00  0.00     0.000 C 
BRANCH   4   5
ATOM      5  C   UNL     1      99.706  91.667  83.098  1.00  0.00     0.000 C 
BRANCH   5   6
ATOM      6  C   UNL     1      98.182  91.886  83.010  1.00  0.00     0.006 C 
BRANCH   6   7
ATOM      7  C   UNL     1      97.372  90.608  82.745  1.00  0.00     0.053 C 
BRANCH   7   8
ATOM      8  C   UNL     1      95.986  90.911  82.268  1.00  0.00     0.041 C 
ATOM      9  O   UNL     1      95.745  90.996  81.035  1.00  0.00    -0.550 OA
ATOM     10  O   UNL     1      94.966  91.132  83.185  1.00  0.00    -0.550 OA
ENDBRANCH   7   8
ENDBRANCH   6   7
ENDBRANCH   5   6
ENDBRANCH   4   5
ENDBRANCH   3   4
ENDBRANCH   2   3
ENDBRANCH   1   2
BRANCH   1  11
ATOM     11  C   UNL     1      98.612  91.538  78.988  1.00  0.00    -0.031 C 
ATOM     12  C   UNL     1      98.557  90.199  79.120  1.00  0.00    -0.027 C 
BRANCH  12  13
ATOM     13  C   UNL     1      99.775  89.323  79.284  1.00  0.00     0.054 C 
BRANCH  13  14
ATOM     14  C   UNL     1     100.026  89.006  80.736  1.00  0.00    -0.027 C 
ATOM     15  C   UNL     1     101.235  89.051  81.329  1.00  0.00    -0.031 C 
BRANCH  15  16
ATOM     16  C   UNL     1     102.523  89.394  80.622  1.00  0.00     0.027 C 
BRANCH  16  17
ATOM     17  C   UNL     1     103.703  89.419  81.604  1.00  0.00     0.004 C 
BRANCH  17  18
ATOM     18  C   UNL     1     103.590  90.567  82.627  1.00  0.00     0.000 C 
BRANCH  18  19
ATOM     19  C   UNL     1     103.381  90.090  84.075  1.00  0.00    -0.003 C 
ATOM     20  C   UNL     1     103.198  91.236  85.066  1.00  0.00     0.004 C 
ENDBRANCH  18  19
ENDBRANCH  17  18
ENDBRANCH  16  17
ENDBRANCH  15  16
ENDBRANCH  13  14
ENDBRANCH  12  13
ENDBRANCH   1  11
TORSDOF 14
ENDMDL
MODEL 7
REMARK VINA RESULT:    -4.156      2.552      4.206
REMARK INTER + INTRA:         -10.247
REMARK INTER:                  -7.694
REMARK INTRA:                  -2.553
REMARK UNBOUND:                -2.690
REMARK SMILES CCCCCC=CCC=CCCCCCCCC(=O)[O-]
REMARK SMILES IDX 11 1 12 2 13 3 14 4 15 5 16 6 17 7 18 8 19 9 20 10 10 11
REMARK SMILES IDX 9 12 8 13 7 14 6 15 5 16 4 17 3 18 2 19 1 20
REMARK H PARENT
REMARK Flexibility Score: inf
ROOT
ATOM      1  C   UNL     1     100.361  90.744  82.472  1.00  0.00     0.027 C 
ENDROOT
BRANCH   1   2
ATOM      2  C   UNL     1     101.034  91.560  83.581  1.00  0.00     0.004 C 
BRANCH   2   3
ATOM      3  C   UNL     1     102.562  91.527  83.436  1.00  0.00     0.000 C 
BRANCH   3   4
ATOM      4  C   UNL     1     103.193  90.256  84.035  1.00  0.00     0.000 C 
BRANCH   4   5
ATOM      5  C   UNL     1     103.871  89.320  83.015  1.00  0.00     0.000 C 
BRANCH   5   6
ATOM      6  C   UNL     1     103.910  89.848  81.567  1.00  0.00     0.006 C 
BRANCH   6   7
ATOM      7  C   UNL     1     103.841  88.752  80.491  1.00  0.00     0.053 C 
BRANCH   7   8
ATOM      8  C   UNL     1     105.199  88.234  80.131  1.00  0.00     0.041 C 
ATOM      9  O   UNL     1     105.419  86.994  80.110  1.00  0.00    -0.550 OA
ATOM     10  O   UNL     1     106.230  89.121  79.848  1.00  0.00    -0.550 OA
ENDBRANCH   7   8
ENDBRANCH   6   7
ENDBRANCH   5   6
ENDBRANCH   4   5
ENDBRANCH   3   4
ENDBRANCH   2   3
ENDBRANCH   1   2
BRANCH   1  11
ATOM     11  C   UNL     1     100.587  91.375  81.122  1.00  0.00    -0.031 C 
ATOM     12  C   UNL     1     100.482  90.723  79.949  1.00  0.00    -0.027 C 
BRANCH  12  13
ATOM     13  C   UNL     1     100.084  89.271  79.830  1.00  0.00     0.054 C 
BRANCH  13  14
ATOM     14  C   UNL     1      98.888  89.106  78.929  1.00  0.00    -0.027 C 
ATOM     15  C   UNL     1      97.617  88.994  79.362  1.00  0.00    -0.031 C 
BRANCH  15  16
ATOM     16  C   UNL     1      97.204  88.984  80.813  1.00  0.00     0.027 C 
BRANCH  16  17
ATOM     17  C   UNL     1      96.706  90.368  81.255  1.00  0.00     0.004 C 
BRANCH  17  18
ATOM     18  C   UNL     1      96.944  90.624  82.757  1.00  0.00     0.000 C 
BRANCH  18  19
ATOM     19  C   UNL     1      96.769  92.096  83.171  1.00  0.00    -0.003 C 
ATOM     20  C   UNL     1      97.410  93.076  82.191  1.00  0.00     0.004 C 
ENDBRANCH  18  19
ENDBRANCH  17  18
ENDBRANCH  16  17
ENDBRANCH  15  16
ENDBRANCH  13  14
ENDBRANCH  12  13
ENDBRANCH   1  11
TORSDOF 14
ENDMDL
MODEL 8
REMARK VINA RESULT:    -4.153      3.291      5.963
REMARK INTER + INTRA:         -10.241
REMARK INTER:                  -7.725
REMARK INTRA:                  -2.516
REMARK UNBOUND:                -2.690
REMARK SMILES CCCCCC=CCC=CCCCCCCCC(=O)[O-]
REMARK SMILES IDX 11 1 12 2 13 3 14 4 15 5 16 6 17 7 18 8 19 9 20 10 10 11
REMARK SMILES IDX 9 12 8 13 7 14 6 15 5 16 4 17 3 18 2 19 1 20
REMARK H PARENT
REMARK Flexibility Score: inf
ROOT
ATOM      1  C   UNL     1     100.232  90.414  78.895  1.00  0.00     0.027 C 
ENDROOT
BRANCH   1   2
ATOM      2  C   UNL     1      99.134  89.345  78.888  1.00  0.00     0.004 C 
BRANCH   2   3
ATOM      3  C   UNL     1      98.752  88.942  80.320  1.00  0.00     0.000 C 
BRANCH   3   4
ATOM      4  C   UNL     1      97.245  89.085  80.599  1.00  0.00     0.000 C 
BRANCH   4   5
ATOM      5  C   UNL     1      96.888  89.920  81.845  1.00  0.00     0.000 C 
BRANCH   5   6
ATOM      6  C   UNL     1      96.571  91.404  81.571  1.00  0.00     0.006 C 
BRANCH   6   7
ATOM      7  C   UNL     1      95.071  91.721  81.462  1.00  0.00     0.053 C 
BRANCH   7   8
ATOM      8  C   UNL     1      94.491  92.144  82.776  1.00  0.00     0.041 C 
ATOM      9  O   UNL     1      93.293  91.873  83.055  1.00  0.00    -0.550 OA
ATOM     10  O   UNL     1      95.262  92.864  83.679  1.00  0.00    -0.550 OA
ENDBRANCH   7   8
ENDBRANCH   6   7
ENDBRANCH   5   6
ENDBRANCH   4   5
ENDBRANCH   3   4
ENDBRANCH   2   3
ENDBRANCH   1   2
BRANCH   1  11
ATOM     11  C   UNL     1      99.648  91.790  79.090  1.00  0.00    -0.031 C 
ATOM     12  C   UNL     1      99.970  92.618  80.101  1.00  0.00    -0.027 C 
BRANCH  12  13
ATOM     13  C   UNL     1     100.994  92.289  81.160  1.00  0.00     0.054 C 
BRANCH  13  14
ATOM     14  C   UNL     1     100.339  91.734  82.399  1.00  0.00    -0.027 C 
ATOM     15  C   UNL     1     100.650  90.550  82.961  1.00  0.00    -0.031 C 
BRANCH  15  16
ATOM     16  C   UNL     1     101.678  89.588  82.418  1.00  0.00     0.027 C 
BRANCH  16  17
ATOM     17  C   UNL     1     103.081  89.921  82.946  1.00  0.00     0.004 C 
BRANCH  17  18
ATOM     18  C   UNL     1     103.154  89.872  84.486  1.00  0.00     0.000 C 
BRANCH  18  19
ATOM     19  C   UNL     1     103.603  91.195  85.128  1.00  0.00    -0.003 C 
ATOM     20  C   UNL     1     102.560  91.791  86.071  1.00  0.00     0.004 C 
ENDBRANCH  18  19
ENDBRANCH  17  18
ENDBRANCH  16  17
ENDBRANCH  15  16
ENDBRANCH  13  14
ENDBRANCH  12  13
ENDBRANCH   1  11
TORSDOF 14
ENDMDL
MODEL 9
REMARK VINA RESULT:    -2.256      3.367      5.730
REMARK INTER + INTRA:          -6.793
REMARK INTER:                  -3.887
REMARK INTRA:                  -2.905
REMARK UNBOUND:                -2.690
REMARK SMILES CCCCCC=CCC=CCCCCCCCC(=O)[O-]
REMARK SMILES IDX 11 1 12 2 13 3 14 4 15 5 16 6 17 7 18 8 19 9 20 10 10 11
REMARK SMILES IDX 9 12 8 13 7 14 6 15 5 16 4 17 3 18 2 19 1 20
REMARK H PARENT
REMARK Flexibility Score: inf
ROOT
ATOM      1  C   UNL     1      99.360  89.069  79.595  1.00  0.00     0.027 C 
ENDROOT
BRANCH   1   2
ATOM      2  C   UNL     1      98.264  89.863  78.875  1.00  0.00     0.004 C 
BRANCH   2   3
ATOM      3  C   UNL     1      96.983  89.918  79.719  1.00  0.00     0.000 C 
BRANCH   3   4
ATOM      4  C   UNL     1      97.150  89.269  81.104  1.00  0.00     0.000 C 
BRANCH   4   5
ATOM      5  C   UNL     1      96.545  90.067  82.277  1.00  0.00     0.000 C 
BRANCH   5   6
ATOM      6  C   UNL     1      96.038  91.478  81.917  1.00  0.00     0.006 C 
BRANCH   6   7
ATOM      7  C   UNL     1      94.507  91.611  81.886  1.00  0.00     0.053 C 
BRANCH   7   8
ATOM      8  C   UNL     1      93.981  92.315  83.098  1.00  0.00     0.041 C 
ATOM      9  O   UNL     1      94.061  91.770  84.231  1.00  0.00    -0.550 OA
ATOM     10  O   UNL     1      93.373  93.558  82.974  1.00  0.00    -0.550 OA
ENDBRANCH   7   8
ENDBRANCH   6   7
ENDBRANCH   5   6
ENDBRANCH   4   5
ENDBRANCH   3   4
ENDBRANCH   2   3
ENDBRANCH   1   2
BRANCH   1  11
ATOM     11  C   UNL     1     100.716  89.686  79.365  1.00  0.00    -0.031 C 
ATOM     12  C   UNL     1     101.702  89.720  80.280  1.00  0.00    -0.027 C 
BRANCH  12  13
ATOM     13  C   UNL     1     101.592  89.106  81.654  1.00  0.00     0.054 C 
BRANCH  13  14
ATOM     14  C   UNL     1     102.104  90.046  82.715  1.00  0.00    -0.027 C 
ATOM     15  C   UNL     1     101.334  90.912  83.403  1.00  0.00    -0.031 C 
BRANCH  15  16
ATOM     16  C   UNL     1      99.851  91.093  83.193  1.00  0.00     0.027 C 
BRANCH  16  17
ATOM     17  C   UNL     1      99.536  92.499  82.661  1.00  0.00     0.004 C 
BRANCH  17  18
ATOM     18  C   UNL     1      99.315  92.512  81.135  1.00  0.00     0.000 C 
BRANCH  18  19
ATOM     19  C   UNL     1     100.364  93.332  80.364  1.00  0.00    -0.003 C 
ATOM     20  C   UNL     1     101.436  93.938  81.267  1.00  0.00     0.004 C 
ENDBRANCH  18  19
ENDBRANCH  17  18
ENDBRANCH  16  17
ENDBRANCH  15  16
ENDBRANCH  13  14
ENDBRANCH  12  13
ENDBRANCH   1  11
TORSDOF 14
ENDMDL
