MODEL 1
REMARK VINA RESULT:    -7.087      0.000      0.000
REMARK INTER + INTRA:          -7.782
REMARK INTER:                  -7.708
REMARK INTRA:                  -0.074
REMARK UNBOUND:                -0.074
REMARK SMILES CC(=O)[C@H]1CC[C@@H]2[C@H]3CC=C4C[C@@H](O)CC[C@]4(C)[C@@H]3CC[C@]12C
REMARK SMILES IDX 4 1 5 2 6 3 7 4 22 5 21 6 20 7 19 8 8 9 9 10 10 11 11 12
REMARK SMILES IDX 17 13 16 14 15 15 13 16 12 17 18 18 23 19 2 20 1 21 3 22
REMARK SMILES IDX 14 23
REMARK H PARENT 14 24
REMARK Flexibility Score: inf
ROOT
ATOM      1  C   UNL     1      49.407   8.368  23.694  1.00  0.00     0.062 C 
ATOM      2  C   UNL     1      50.415   7.875  24.730  1.00  0.00     0.012 C 
ATOM      3  C   UNL     1      50.150   6.392  24.934  1.00  0.00     0.005 C 
ATOM      4  C   UNL     1      49.362   5.884  23.709  1.00  0.00    -0.001 C 
ATOM      5  C   UNL     1      49.061   7.128  22.807  1.00  0.00    -0.020 C 
ATOM      6  C   UNL     1      49.994   7.129  21.561  1.00  0.00     0.008 C 
ATOM      7  C   UNL     1      49.940   5.836  20.715  1.00  0.00     0.005 C 
ATOM      8  C   UNL     1      49.637   4.546  21.535  1.00  0.00     0.003 C 
ATOM      9  C   UNL     1      50.138   4.733  22.990  1.00  0.00     0.000 C 
ATOM     10  C   UNL     1      50.001   3.416  23.767  1.00  0.00     0.031 C 
ATOM     11  C   UNL     1      50.870   2.385  23.124  1.00  0.00    -0.027 C 
ATOM     12  C   UNL     1      50.942   2.291  21.785  1.00  0.00    -0.065 C 
ATOM     13  C   UNL     1      50.045   3.141  20.865  1.00  0.00    -0.008 C 
ATOM     14  C   UNL     1      50.756   3.265  19.469  1.00  0.00     0.014 C 
ATOM     15  C   UNL     1      52.284   3.399  19.608  1.00  0.00     0.033 C 
ATOM     16  C   UNL     1      52.922   2.132  20.234  1.00  0.00     0.118 C 
ATOM     17  C   UNL     1      51.951   1.358  21.151  1.00  0.00     0.063 C 
ATOM     18  C   UNL     1      48.751   2.319  20.637  1.00  0.00     0.016 C 
ATOM     19  C   UNL     1      47.585   7.166  22.317  1.00  0.00     0.012 C 
ENDROOT
BRANCH   1  20
ATOM     20  C   UNL     1      48.228   9.071  24.366  1.00  0.00     0.133 C 
ATOM     21  C   UNL     1      47.680  10.390  23.898  1.00  0.00     0.088 C 
ATOM     22  O   UNL     1      47.696   8.536  25.327  1.00  0.00    -0.300 OA
ENDBRANCH   1  20
BRANCH  16  23
ATOM     23  O   UNL     1      53.375   1.270  19.223  1.00  0.00    -0.393 OA
ATOM     24  H   UNL     1      54.096   0.714  19.619  1.00  0.00     0.210 HD
ENDBRANCH  16  23
TORSDOF 2
ENDMDL
MODEL 2
REMARK VINA RESULT:    -6.730      2.844      6.574
REMARK INTER + INTRA:          -7.394
REMARK INTER:                  -7.318
REMARK INTRA:                  -0.076
REMARK UNBOUND:                -0.074
REMARK SMILES CC(=O)[C@H]1CC[C@@H]2[C@H]3CC=C4C[C@@H](O)CC[C@]4(C)[C@@H]3CC[C@]12C
REMARK SMILES IDX 4 1 5 2 6 3 7 4 22 5 21 6 20 7 19 8 8 9 9 10 10 11 11 12
REMARK SMILES IDX 17 13 16 14 15 15 13 16 12 17 18 18 23 19 2 20 1 21 3 22
REMARK SMILES IDX 14 23
REMARK H PARENT 14 24
REMARK Flexibility Score: inf
ROOT
ATOM      1  C   UNL     1      48.229   1.189  20.758  1.00  0.00     0.062 C 
ATOM      2  C   UNL     1      46.981   1.584  19.971  1.00  0.00     0.012 C 
ATOM      3  C   UNL     1      46.417   2.831  20.634  1.00  0.00     0.005 C 
ATOM      4  C   UNL     1      47.548   3.471  21.467  1.00  0.00    -0.001 C 
ATOM      5  C   UNL     1      48.783   2.513  21.379  1.00  0.00    -0.020 C 
ATOM      6  C   UNL     1      49.856   3.104  20.419  1.00  0.00     0.008 C 
ATOM      7  C   UNL     1      50.320   4.535  20.775  1.00  0.00     0.005 C 
ATOM      8  C   UNL     1      49.225   5.414  21.451  1.00  0.00     0.003 C 
ATOM      9  C   UNL     1      47.825   4.934  20.993  1.00  0.00     0.000 C 
ATOM     10  C   UNL     1      46.743   5.890  21.515  1.00  0.00     0.031 C 
ATOM     11  C   UNL     1      46.970   7.243  20.923  1.00  0.00    -0.027 C 
ATOM     12  C   UNL     1      48.213   7.741  20.812  1.00  0.00    -0.065 C 
ATOM     13  C   UNL     1      49.433   7.008  21.401  1.00  0.00    -0.008 C 
ATOM     14  C   UNL     1      50.710   7.476  20.615  1.00  0.00     0.014 C 
ATOM     15  C   UNL     1      50.424   7.681  19.115  1.00  0.00     0.033 C 
ATOM     16  C   UNL     1      49.403   8.823  18.872  1.00  0.00     0.118 C 
ATOM     17  C   UNL     1      48.439   9.034  20.059  1.00  0.00     0.063 C 
ATOM     18  C   UNL     1      49.590   7.522  22.856  1.00  0.00     0.016 C 
ATOM     19  C   UNL     1      49.445   2.265  22.764  1.00  0.00     0.012 C 
ENDROOT
BRANCH   1  20
ATOM     20  C   UNL     1      47.926   0.056  21.739  1.00  0.00     0.133 C 
ATOM     21  C   UNL     1      48.834  -1.125  21.940  1.00  0.00     0.088 C 
ATOM     22  O   UNL     1      46.899   0.110  22.398  1.00  0.00    -0.300 OA
ENDBRANCH   1  20
BRANCH  16  23
ATOM     23  O   UNL     1      50.078  10.027  18.617  1.00  0.00    -0.393 OA
ATOM     24  H   UNL     1      49.957  10.227  17.652  1.00  0.00     0.210 HD
ENDBRANCH  16  23
TORSDOF 2
ENDMDL
MODEL 3
REMARK VINA RESULT:    -6.231     11.099     13.870
REMARK INTER + INTRA:          -6.852
REMARK INTER:                  -6.773
REMARK INTRA:                  -0.079
REMARK UNBOUND:                -0.074
REMARK SMILES CC(=O)[C@H]1CC[C@@H]2[C@H]3CC=C4C[C@@H](O)CC[C@]4(C)[C@@H]3CC[C@]12C
REMARK SMILES IDX 4 1 5 2 6 3 7 4 22 5 21 6 20 7 19 8 8 9 9 10 10 11 11 12
REMARK SMILES IDX 17 13 16 14 15 15 13 16 12 17 18 18 23 19 2 20 1 21 3 22
REMARK SMILES IDX 14 23
REMARK H PARENT 14 24
REMARK Flexibility Score: inf
ROOT
ATOM      1  C   UNL     1      56.934   6.544  13.089  1.00  0.00     0.062 C 
ATOM      2  C   UNL     1      56.054   7.163  14.173  1.00  0.00     0.012 C 
ATOM      3  C   UNL     1      55.691   8.562  13.702  1.00  0.00     0.005 C 
ATOM      4  C   UNL     1      55.905   8.613  12.174  1.00  0.00    -0.001 C 
ATOM      5  C   UNL     1      56.516   7.235  11.750  1.00  0.00    -0.020 C 
ATOM      6  C   UNL     1      55.436   6.358  11.051  1.00  0.00     0.008 C 
ATOM      7  C   UNL     1      54.748   7.029   9.839  1.00  0.00     0.005 C 
ATOM      8  C   UNL     1      54.630   8.579   9.947  1.00  0.00     0.003 C 
ATOM      9  C   UNL     1      54.577   8.987  11.440  1.00  0.00     0.000 C 
ATOM     10  C   UNL     1      54.292  10.491  11.565  1.00  0.00     0.031 C 
ATOM     11  C   UNL     1      52.950  10.778  10.974  1.00  0.00    -0.027 C 
ATOM     12  C   UNL     1      52.565  10.183   9.832  1.00  0.00    -0.065 C 
ATOM     13  C   UNL     1      53.525   9.293   9.020  1.00  0.00    -0.008 C 
ATOM     14  C   UNL     1      52.662   8.307   8.154  1.00  0.00     0.014 C 
ATOM     15  C   UNL     1      51.408   7.822   8.906  1.00  0.00     0.033 C 
ATOM     16  C   UNL     1      50.433   8.988   9.217  1.00  0.00     0.118 C 
ATOM     17  C   UNL     1      51.144  10.353   9.340  1.00  0.00     0.063 C 
ATOM     18  C   UNL     1      54.259  10.234   8.030  1.00  0.00     0.016 C 
ATOM     19  C   UNL     1      57.724   7.391  10.783  1.00  0.00     0.012 C 
ENDROOT
BRANCH   1  20
ATOM     20  C   UNL     1      58.413   6.632  13.464  1.00  0.00     0.133 C 
ATOM     21  C   UNL     1      59.035   7.853  14.081  1.00  0.00     0.088 C 
ATOM     22  O   UNL     1      59.128   5.663  13.261  1.00  0.00    -0.300 OA
ENDBRANCH   1  20
BRANCH  16  23
ATOM     23  O   UNL     1      49.452   9.076   8.218  1.00  0.00    -0.393 OA
ATOM     24  H   UNL     1      48.650   8.600   8.558  1.00  0.00     0.210 HD
ENDBRANCH  16  23
TORSDOF 2
ENDMDL
MODEL 4
REMARK VINA RESULT:    -6.229      4.232      7.361
REMARK INTER + INTRA:          -6.849
REMARK INTER:                  -6.788
REMARK INTRA:                  -0.061
REMARK UNBOUND:                -0.074
REMARK SMILES CC(=O)[C@H]1CC[C@@H]2[C@H]3CC=C4C[C@@H](O)CC[C@]4(C)[C@@H]3CC[C@]12C
REMARK SMILES IDX 4 1 5 2 6 3 7 4 22 5 21 6 20 7 19 8 8 9 9 10 10 11 11 12
REMARK SMILES IDX 17 13 16 14 15 15 13 16 12 17 18 18 23 19 2 20 1 21 3 22
REMARK SMILES IDX 14 23
REMARK H PARENT 14 24
REMARK Flexibility Score: inf
ROOT
ATOM      1  C   UNL     1      48.500  -2.806  24.614  1.00  0.00     0.062 C 
ATOM      2  C   UNL     1      47.750  -3.019  23.300  1.00  0.00     0.012 C 
ATOM      3  C   UNL     1      47.291  -1.649  22.827  1.00  0.00     0.005 C 
ATOM      4  C   UNL     1      48.158  -0.591  23.540  1.00  0.00    -0.001 C 
ATOM      5  C   UNL     1      49.083  -1.357  24.545  1.00  0.00    -0.020 C 
ATOM      6  C   UNL     1      50.537  -1.429  23.993  1.00  0.00     0.008 C 
ATOM      7  C   UNL     1      51.159  -0.059  23.639  1.00  0.00     0.005 C 
ATOM      8  C   UNL     1      50.130   1.006  23.155  1.00  0.00     0.003 C 
ATOM      9  C   UNL     1      48.921   0.293  22.500  1.00  0.00     0.000 C 
ATOM     10  C   UNL     1      47.977   1.327  21.869  1.00  0.00     0.031 C 
ATOM     11  C   UNL     1      48.710   2.050  20.787  1.00  0.00    -0.027 C 
ATOM     12  C   UNL     1      49.989   2.426  20.961  1.00  0.00    -0.065 C 
ATOM     13  C   UNL     1      50.707   2.250  22.312  1.00  0.00    -0.008 C 
ATOM     14  C   UNL     1      52.253   2.193  22.039  1.00  0.00     0.014 C 
ATOM     15  C   UNL     1      52.585   1.434  20.741  1.00  0.00     0.033 C 
ATOM     16  C   UNL     1      52.017   2.153  19.489  1.00  0.00     0.118 C 
ATOM     17  C   UNL     1      50.766   3.004  19.798  1.00  0.00     0.063 C 
ATOM     18  C   UNL     1      50.441   3.547  23.119  1.00  0.00     0.016 C 
ATOM     19  C   UNL     1      49.122  -0.687  25.948  1.00  0.00     0.012 C 
ENDROOT
BRANCH   1  20
ATOM     20  C   UNL     1      47.608  -3.122  25.814  1.00  0.00     0.133 C 
ATOM     21  C   UNL     1      48.031  -4.023  26.941  1.00  0.00     0.088 C 
ATOM     22  O   UNL     1      46.498  -2.616  25.869  1.00  0.00    -0.300 OA
ENDBRANCH   1  20
BRANCH  16  23
ATOM     23  O   UNL     1      52.998   2.980  18.921  1.00  0.00    -0.393 OA
ATOM     24  H   UNL     1      52.644   3.288  18.046  1.00  0.00     0.210 HD
ENDBRANCH  16  23
TORSDOF 2
ENDMDL
MODEL 5
REMARK VINA RESULT:    -6.229      3.903      7.788
REMARK INTER + INTRA:          -6.849
REMARK INTER:                  -6.781
REMARK INTRA:                  -0.068
REMARK UNBOUND:                -0.074
REMARK SMILES CC(=O)[C@H]1CC[C@@H]2[C@H]3CC=C4C[C@@H](O)CC[C@]4(C)[C@@H]3CC[C@]12C
REMARK SMILES IDX 4 1 5 2 6 3 7 4 22 5 21 6 20 7 19 8 8 9 9 10 10 11 11 12
REMARK SMILES IDX 17 13 16 14 15 15 13 16 12 17 18 18 23 19 2 20 1 21 3 22
REMARK SMILES IDX 14 23
REMARK H PARENT 14 24
REMARK Flexibility Score: inf
ROOT
ATOM      1  C   UNL     1      49.007   7.870  19.679  1.00  0.00     0.062 C 
ATOM      2  C   UNL     1      49.610   6.871  20.664  1.00  0.00     0.012 C 
ATOM      3  C   UNL     1      49.757   7.593  21.993  1.00  0.00     0.005 C 
ATOM      4  C   UNL     1      48.814   8.814  21.970  1.00  0.00    -0.001 C 
ATOM      5  C   UNL     1      48.174   8.873  20.542  1.00  0.00    -0.020 C 
ATOM      6  C   UNL     1      46.697   8.382  20.592  1.00  0.00     0.008 C 
ATOM      7  C   UNL     1      45.803   9.134  21.606  1.00  0.00     0.005 C 
ATOM      8  C   UNL     1      46.559   9.651  22.867  1.00  0.00     0.003 C 
ATOM      9  C   UNL     1      47.782   8.741  23.142  1.00  0.00     0.000 C 
ATOM     10  C   UNL     1      48.441   9.132  24.473  1.00  0.00     0.031 C 
ATOM     11  C   UNL     1      47.461   8.912  25.578  1.00  0.00    -0.027 C 
ATOM     12  C   UNL     1      46.169   9.247  25.423  1.00  0.00    -0.065 C 
ATOM     13  C   UNL     1      45.670   9.984  24.166  1.00  0.00    -0.008 C 
ATOM     14  C   UNL     1      44.136   9.687  24.002  1.00  0.00     0.014 C 
ATOM     15  C   UNL     1      43.782   8.240  24.394  1.00  0.00     0.033 C 
ATOM     16  C   UNL     1      44.051   7.966  25.896  1.00  0.00     0.118 C 
ATOM     17  C   UNL     1      45.161   8.863  26.485  1.00  0.00     0.063 C 
ATOM     18  C   UNL     1      45.803  11.499  24.468  1.00  0.00     0.016 C 
ATOM     19  C   UNL     1      48.195  10.306  19.938  1.00  0.00     0.012 C 
ENDROOT
BRANCH   1  20
ATOM     20  C   UNL     1      50.085   8.479  18.784  1.00  0.00     0.133 C 
ATOM     21  C   UNL     1      49.947   8.596  17.292  1.00  0.00     0.088 C 
ATOM     22  O   UNL     1      51.109   8.899  19.301  1.00  0.00    -0.300 OA
ENDBRANCH   1  20
BRANCH  16  23
ATOM     23  O   UNL     1      42.875   8.154  26.640  1.00  0.00    -0.393 OA
ATOM     24  H   UNL     1      43.149   8.275  27.587  1.00  0.00     0.210 HD
ENDBRANCH  16  23
TORSDOF 2
ENDMDL
MODEL 6
REMARK VINA RESULT:    -6.120      4.107      7.376
REMARK INTER + INTRA:          -6.731
REMARK INTER:                  -6.662
REMARK INTRA:                  -0.069
REMARK UNBOUND:                -0.074
REMARK SMILES CC(=O)[C@H]1CC[C@@H]2[C@H]3CC=C4C[C@@H](O)CC[C@]4(C)[C@@H]3CC[C@]12C
REMARK SMILES IDX 4 1 5 2 6 3 7 4 22 5 21 6 20 7 19 8 8 9 9 10 10 11 11 12
REMARK SMILES IDX 17 13 16 14 15 15 13 16 12 17 18 18 23 19 2 20 1 21 3 22
REMARK SMILES IDX 14 23
REMARK H PARENT 14 24
REMARK Flexibility Score: inf
ROOT
ATOM      1  C   UNL     1      51.552   2.631  21.477  1.00  0.00     0.062 C 
ATOM      2  C   UNL     1      50.303   3.487  21.277  1.00  0.00     0.012 C 
ATOM      3  C   UNL     1      49.157   2.533  20.978  1.00  0.00     0.005 C 
ATOM      4  C   UNL     1      49.569   1.134  21.482  1.00  0.00    -0.001 C 
ATOM      5  C   UNL     1      51.044   1.245  21.993  1.00  0.00    -0.020 C 
ATOM      6  C   UNL     1      51.077   1.249  23.549  1.00  0.00     0.008 C 
ATOM      7  C   UNL     1      50.376   0.039  24.211  1.00  0.00     0.005 C 
ATOM      8  C   UNL     1      49.173  -0.527  23.398  1.00  0.00     0.003 C 
ATOM      9  C   UNL     1      48.551   0.606  22.544  1.00  0.00     0.000 C 
ATOM     10  C   UNL     1      47.265   0.109  21.867  1.00  0.00     0.031 C 
ATOM     11  C   UNL     1      46.273  -0.252  22.923  1.00  0.00    -0.027 C 
ATOM     12  C   UNL     1      46.662  -0.904  24.032  1.00  0.00    -0.065 C 
ATOM     13  C   UNL     1      48.103  -1.420  24.203  1.00  0.00    -0.008 C 
ATOM     14  C   UNL     1      48.393  -1.559  25.741  1.00  0.00     0.014 C 
ATOM     15  C   UNL     1      47.742  -0.427  26.557  1.00  0.00     0.033 C 
ATOM     16  C   UNL     1      46.194  -0.466  26.469  1.00  0.00     0.118 C 
ATOM     17  C   UNL     1      45.680  -1.112  25.164  1.00  0.00     0.063 C 
ATOM     18  C   UNL     1      48.127  -2.853  23.611  1.00  0.00     0.016 C 
ATOM     19  C   UNL     1      51.940   0.079  21.485  1.00  0.00     0.012 C 
ENDROOT
BRANCH   1  20
ATOM     20  C   UNL     1      52.414   2.610  20.215  1.00  0.00     0.133 C 
ATOM     21  C   UNL     1      53.916   2.661  20.242  1.00  0.00     0.088 C 
ATOM     22  O   UNL     1      51.861   2.543  19.128  1.00  0.00    -0.300 OA
ENDBRANCH   1  20
BRANCH  16  23
ATOM     23  O   UNL     1      45.667  -1.172  27.562  1.00  0.00    -0.393 OA
ATOM     24  H   UNL     1      46.395  -1.252  28.233  1.00  0.00     0.210 HD
ENDBRANCH  16  23
TORSDOF 2
ENDMDL
MODEL 7
REMARK VINA RESULT:    -6.063      4.875      8.013
REMARK INTER + INTRA:          -6.668
REMARK INTER:                  -6.596
REMARK INTRA:                  -0.072
REMARK UNBOUND:                -0.074
REMARK SMILES CC(=O)[C@H]1CC[C@@H]2[C@H]3CC=C4C[C@@H](O)CC[C@]4(C)[C@@H]3CC[C@]12C
REMARK SMILES IDX 4 1 5 2 6 3 7 4 22 5 21 6 20 7 19 8 8 9 9 10 10 11 11 12
REMARK SMILES IDX 17 13 16 14 15 15 13 16 12 17 18 18 23 19 2 20 1 21 3 22
REMARK SMILES IDX 14 23
REMARK H PARENT 14 24
REMARK Flexibility Score: inf
ROOT
ATOM      1  C   UNL     1      50.338  -0.572  24.005  1.00  0.00     0.062 C 
ATOM      2  C   UNL     1      51.054   0.360  23.028  1.00  0.00     0.012 C 
ATOM      3  C   UNL     1      50.228   0.381  21.752  1.00  0.00     0.005 C 
ATOM      4  C   UNL     1      48.806  -0.102  22.105  1.00  0.00    -0.001 C 
ATOM      5  C   UNL     1      48.825  -0.524  23.613  1.00  0.00    -0.020 C 
ATOM      6  C   UNL     1      48.118   0.555  24.484  1.00  0.00     0.008 C 
ATOM      7  C   UNL     1      46.674   0.891  24.046  1.00  0.00     0.005 C 
ATOM      8  C   UNL     1      46.419   0.750  22.515  1.00  0.00     0.003 C 
ATOM      9  C   UNL     1      47.745   0.989  21.750  1.00  0.00     0.000 C 
ATOM     10  C   UNL     1      47.482   1.020  20.237  1.00  0.00     0.031 C 
ATOM     11  C   UNL     1      46.574   2.166  19.929  1.00  0.00    -0.027 C 
ATOM     12  C   UNL     1      45.531   2.445  20.730  1.00  0.00    -0.065 C 
ATOM     13  C   UNL     1      45.150   1.531  21.910  1.00  0.00    -0.008 C 
ATOM     14  C   UNL     1      44.353   2.391  22.955  1.00  0.00     0.014 C 
ATOM     15  C   UNL     1      44.909   3.823  23.071  1.00  0.00     0.033 C 
ATOM     16  C   UNL     1      44.750   4.614  21.747  1.00  0.00     0.118 C 
ATOM     17  C   UNL     1      44.725   3.705  20.499  1.00  0.00     0.063 C 
ATOM     18  C   UNL     1      44.159   0.481  21.345  1.00  0.00     0.016 C 
ATOM     19  C   UNL     1      48.124  -1.891  23.859  1.00  0.00     0.012 C 
ENDROOT
BRANCH   1  20
ATOM     20  C   UNL     1      50.990  -1.954  24.023  1.00  0.00     0.133 C 
ATOM     21  C   UNL     1      51.531  -2.627  22.792  1.00  0.00     0.088 C 
ATOM     22  O   UNL     1      51.083  -2.545  25.088  1.00  0.00    -0.300 OA
ENDBRANCH   1  20
BRANCH  16  23
ATOM     23  O   UNL     1      43.571   5.375  21.778  1.00  0.00    -0.393 OA
ATOM     24  H   UNL     1      43.577   5.950  20.968  1.00  0.00     0.210 HD
ENDBRANCH  16  23
TORSDOF 2
ENDMDL
MODEL 8
REMARK VINA RESULT:    -6.035      3.875      6.992
REMARK INTER + INTRA:          -6.638
REMARK INTER:                  -6.566
REMARK INTRA:                  -0.072
REMARK UNBOUND:                -0.074
REMARK SMILES CC(=O)[C@H]1CC[C@@H]2[C@H]3CC=C4C[C@@H](O)CC[C@]4(C)[C@@H]3CC[C@]12C
REMARK SMILES IDX 4 1 5 2 6 3 7 4 22 5 21 6 20 7 19 8 8 9 9 10 10 11 11 12
REMARK SMILES IDX 17 13 16 14 15 15 13 16 12 17 18 18 23 19 2 20 1 21 3 22
REMARK SMILES IDX 14 23
REMARK H PARENT 14 24
REMARK Flexibility Score: inf
ROOT
ATOM      1  C   UNL     1      45.251   1.421  22.018  1.00  0.00     0.062 C 
ATOM      2  C   UNL     1      46.138   1.498  20.776  1.00  0.00     0.012 C 
ATOM      3  C   UNL     1      46.106   2.941  20.298  1.00  0.00     0.005 C 
ATOM      4  C   UNL     1      45.643   3.816  21.482  1.00  0.00    -0.001 C 
ATOM      5  C   UNL     1      45.287   2.847  22.659  1.00  0.00    -0.020 C 
ATOM      6  C   UNL     1      46.406   2.880  23.741  1.00  0.00     0.008 C 
ATOM      7  C   UNL     1      46.727   4.289  24.293  1.00  0.00     0.005 C 
ATOM      8  C   UNL     1      46.520   5.441  23.265  1.00  0.00     0.003 C 
ATOM      9  C   UNL     1      46.721   4.893  21.830  1.00  0.00     0.000 C 
ATOM     10  C   UNL     1      46.687   6.045  20.816  1.00  0.00     0.031 C 
ATOM     11  C   UNL     1      47.821   6.974  21.104  1.00  0.00    -0.027 C 
ATOM     12  C   UNL     1      48.138   7.293  22.370  1.00  0.00    -0.065 C 
ATOM     13  C   UNL     1      47.278   6.829  23.561  1.00  0.00    -0.008 C 
ATOM     14  C   UNL     1      48.185   6.818  24.844  1.00  0.00     0.014 C 
ATOM     15  C   UNL     1      49.619   6.347  24.534  1.00  0.00     0.033 C 
ATOM     16  C   UNL     1      50.352   7.319  23.574  1.00  0.00     0.118 C 
ATOM     17  C   UNL     1      49.389   8.097  22.651  1.00  0.00     0.063 C 
ATOM     18  C   UNL     1      46.207   7.929  23.779  1.00  0.00     0.016 C 
ATOM     19  C   UNL     1      43.935   3.206  23.338  1.00  0.00     0.012 C 
ENDROOT
BRANCH   1  20
ATOM     20  C   UNL     1      43.869   0.868  21.674  1.00  0.00     0.133 C 
ATOM     21  C   UNL     1      43.199  -0.223  22.462  1.00  0.00     0.088 C 
ATOM     22  O   UNL     1      43.272   1.334  20.716  1.00  0.00    -0.300 OA
ENDBRANCH   1  20
BRANCH  16  23
ATOM     23  O   UNL     1      51.117   8.239  24.309  1.00  0.00    -0.393 OA
ATOM     24  H   UNL     1      51.674   7.712  24.940  1.00  0.00     0.210 HD
ENDBRANCH  16  23
TORSDOF 2
ENDMDL
MODEL 9
REMARK VINA RESULT:    -5.998      2.197      6.677
REMARK INTER + INTRA:          -6.598
REMARK INTER:                  -6.522
REMARK INTRA:                  -0.076
REMARK UNBOUND:                -0.074
REMARK SMILES CC(=O)[C@H]1CC[C@@H]2[C@H]3CC=C4C[C@@H](O)CC[C@]4(C)[C@@H]3CC[C@]12C
REMARK SMILES IDX 4 1 5 2 6 3 7 4 22 5 21 6 20 7 19 8 8 9 9 10 10 11 11 12
REMARK SMILES IDX 17 13 16 14 15 15 13 16 12 17 18 18 23 19 2 20 1 21 3 22
REMARK SMILES IDX 14 23
REMARK H PARENT 14 24
REMARK Flexibility Score: inf
ROOT
ATOM      1  C   UNL     1      48.956   2.455  23.206  1.00  0.00     0.062 C 
ATOM      2  C   UNL     1      48.879   3.048  24.612  1.00  0.00     0.012 C 
ATOM      3  C   UNL     1      49.604   4.383  24.570  1.00  0.00     0.005 C 
ATOM      4  C   UNL     1      49.674   4.832  23.095  1.00  0.00    -0.001 C 
ATOM      5  C   UNL     1      49.067   3.674  22.233  1.00  0.00    -0.020 C 
ATOM      6  C   UNL     1      47.639   4.055  21.745  1.00  0.00     0.008 C 
ATOM      7  C   UNL     1      47.559   5.391  20.970  1.00  0.00     0.005 C 
ATOM      8  C   UNL     1      48.605   6.456  21.419  1.00  0.00     0.003 C 
ATOM      9  C   UNL     1      48.976   6.218  22.904  1.00  0.00     0.000 C 
ATOM     10  C   UNL     1      49.875   7.354  23.411  1.00  0.00     0.031 C 
ATOM     11  C   UNL     1      49.114   8.638  23.340  1.00  0.00    -0.027 C 
ATOM     12  C   UNL     1      48.334   8.912  22.280  1.00  0.00    -0.065 C 
ATOM     13  C   UNL     1      48.291   7.990  21.047  1.00  0.00    -0.008 C 
ATOM     14  C   UNL     1      46.920   8.217  20.315  1.00  0.00     0.014 C 
ATOM     15  C   UNL     1      45.764   8.445  21.307  1.00  0.00     0.033 C 
ATOM     16  C   UNL     1      45.959   9.741  22.135  1.00  0.00     0.118 C 
ATOM     17  C   UNL     1      47.443  10.135  22.301  1.00  0.00     0.063 C 
ATOM     18  C   UNL     1      49.401   8.492  20.088  1.00  0.00     0.016 C 
ATOM     19  C   UNL     1      49.939   3.338  20.989  1.00  0.00     0.012 C 
ENDROOT
BRANCH   1  20
ATOM     20  C   UNL     1      50.065   1.408  23.110  1.00  0.00     0.133 C 
ATOM     21  C   UNL     1      49.898   0.094  22.399  1.00  0.00     0.088 C 
ATOM     22  O   UNL     1      51.144   1.647  23.630  1.00  0.00    -0.300 OA
ENDBRANCH   1  20
BRANCH  16  23
ATOM     23  O   UNL     1      45.272  10.807  21.531  1.00  0.00    -0.393 OA
ATOM     24  H   UNL     1      45.732  10.996  20.672  1.00  0.00     0.210 HD
ENDBRANCH  16  23
TORSDOF 2
ENDMDL
