MODEL 1
REMARK VINA RESULT:    -5.197      0.000      0.000
REMARK INTER + INTRA:         -10.047
REMARK INTER:                  -9.451
REMARK INTRA:                  -0.596
REMARK UNBOUND:                -0.596
REMARK SMILES CCCCCCCCCCCCCCCC(=O)[O-]
REMARK SMILES IDX 9 1 10 2 11 3 12 4 13 5 14 6 15 7 16 8 17 9 18 10 8 11 7 12
REMARK SMILES IDX 6 13 5 14 4 15 3 16 2 17 1 18
REMARK H PARENT
REMARK Flexibility Score: inf
ROOT
ATOM      1  C   UNL     1      94.420 123.138 125.030  1.00  0.00     0.000 C 
ENDROOT
BRANCH   1   2
ATOM      2  C   UNL     1      95.393 123.917 124.128  1.00  0.00     0.000 C 
BRANCH   2   3
ATOM      3  C   UNL     1      96.537 124.572 124.918  1.00  0.00     0.000 C 
BRANCH   3   4
ATOM      4  C   UNL     1      97.061 123.677 126.052  1.00  0.00     0.000 C 
BRANCH   4   5
ATOM      5  C   UNL     1      98.441 124.152 126.531  1.00  0.00     0.000 C 
BRANCH   5   6
ATOM      6  C   UNL     1      99.501 123.035 126.496  1.00  0.00     0.006 C 
BRANCH   6   7
ATOM      7  C   UNL     1      98.925 121.611 126.552  1.00  0.00     0.053 C 
BRANCH   7   8
ATOM      8  C   UNL     1      99.986 120.567 126.387  1.00  0.00     0.041 C 
ATOM      9  O   UNL     1     100.252 120.110 125.243  1.00  0.00    -0.550 OA
ATOM     10  O   UNL     1     100.707 120.126 127.489  1.00  0.00    -0.550 OA
ENDBRANCH   7   8
ENDBRANCH   6   7
ENDBRANCH   5   6
ENDBRANCH   4   5
ENDBRANCH   3   4
ENDBRANCH   2   3
ENDBRANCH   1   2
BRANCH   1  11
ATOM     11  C   UNL     1      93.039 122.951 124.383  1.00  0.00     0.000 C 
BRANCH  11  12
ATOM     12  C   UNL     1      93.010 123.405 122.914  1.00  0.00    -0.000 C 
BRANCH  12  13
ATOM     13  C   UNL     1      92.383 122.354 121.984  1.00  0.00    -0.000 C 
BRANCH  13  14
ATOM     14  C   UNL     1      93.116 122.249 120.635  1.00  0.00    -0.000 C 
BRANCH  14  15
ATOM     15  C   UNL     1      92.183 122.496 119.438  1.00  0.00    -0.000 C 
BRANCH  15  16
ATOM     16  C   UNL     1      92.559 121.645 118.212  1.00  0.00    -0.000 C 
BRANCH  16  17
ATOM     17  C   UNL     1      91.772 122.044 116.955  1.00  0.00    -0.003 C 
ATOM     18  C   UNL     1      91.967 121.062 115.799  1.00  0.00     0.004 C 
ENDBRANCH  16  17
ENDBRANCH  15  16
ENDBRANCH  14  15
ENDBRANCH  13  14
ENDBRANCH  12  13
ENDBRANCH  11  12
ENDBRANCH   1  11
TORSDOF 14
ENDMDL
MODEL 2
REMARK VINA RESULT:    -5.179      3.388      8.730
REMARK INTER + INTRA:         -10.014
REMARK INTER:                  -9.243
REMARK INTRA:                  -0.771
REMARK UNBOUND:                -0.596
REMARK SMILES CCCCCCCCCCCCCCCC(=O)[O-]
REMARK SMILES IDX 9 1 10 2 11 3 12 4 13 5 14 6 15 7 16 8 17 9 18 10 8 11 7 12
REMARK SMILES IDX 6 13 5 14 4 15 3 16 2 17 1 18
REMARK H PARENT
REMARK Flexibility Score: inf
ROOT
ATOM      1  C   UNL     1      96.533 124.701 124.637  1.00  0.00     0.000 C 
ENDROOT
BRANCH   1   2
ATOM      2  C   UNL     1      95.358 123.991 123.944  1.00  0.00     0.000 C 
BRANCH   2   3
ATOM      3  C   UNL     1      94.516 123.151 124.919  1.00  0.00     0.000 C 
BRANCH   3   4
ATOM      4  C   UNL     1      93.077 122.937 124.424  1.00  0.00     0.000 C 
BRANCH   4   5
ATOM      5  C   UNL     1      92.916 123.425 122.977  1.00  0.00     0.000 C 
BRANCH   5   6
ATOM      6  C   UNL     1      92.924 122.274 121.954  1.00  0.00     0.006 C 
BRANCH   6   7
ATOM      7  C   UNL     1      92.302 122.629 120.594  1.00  0.00     0.053 C 
BRANCH   7   8
ATOM      8  C   UNL     1      92.985 121.925 119.462  1.00  0.00     0.041 C 
ATOM      9  O   UNL     1      94.047 121.280 119.666  1.00  0.00    -0.550 OA
ATOM     10  O   UNL     1      92.429 121.951 118.189  1.00  0.00    -0.550 OA
ENDBRANCH   7   8
ENDBRANCH   6   7
ENDBRANCH   5   6
ENDBRANCH   4   5
ENDBRANCH   3   4
ENDBRANCH   2   3
ENDBRANCH   1   2
BRANCH   1  11
ATOM     11  C   UNL     1      96.827 124.127 126.032  1.00  0.00     0.000 C 
BRANCH  11  12
ATOM     12  C   UNL     1      98.152 124.645 126.615  1.00  0.00    -0.000 C 
BRANCH  12  13
ATOM     13  C   UNL     1      99.249 123.567 126.635  1.00  0.00    -0.000 C 
BRANCH  13  14
ATOM     14  C   UNL     1      98.694 122.157 126.372  1.00  0.00    -0.000 C 
BRANCH  14  15
ATOM     15  C   UNL     1      99.708 121.053 126.712  1.00  0.00    -0.000 C 
BRANCH  15  16
ATOM     16  C   UNL     1     101.125 121.378 126.208  1.00  0.00    -0.000 C 
BRANCH  16  17
ATOM     17  C   UNL     1     102.041 120.145 126.189  1.00  0.00    -0.003 C 
ATOM     18  C   UNL     1     101.973 119.378 124.869  1.00  0.00     0.004 C 
ENDBRANCH  16  17
ENDBRANCH  15  16
ENDBRANCH  14  15
ENDBRANCH  13  14
ENDBRANCH  12  13
ENDBRANCH  11  12
ENDBRANCH   1  11
TORSDOF 14
ENDMDL
MODEL 3
REMARK VINA RESULT:    -4.610     12.693     14.506
REMARK INTER + INTRA:          -8.979
REMARK INTER:                  -7.265
REMARK INTRA:                  -1.714
REMARK UNBOUND:                -0.596
REMARK SMILES CCCCCCCCCCCCCCCC(=O)[O-]
REMARK SMILES IDX 9 1 10 2 11 3 12 4 13 5 14 6 15 7 16 8 17 9 18 10 8 11 7 12
REMARK SMILES IDX 6 13 5 14 4 15 3 16 2 17 1 18
REMARK H PARENT
REMARK Flexibility Score: inf
ROOT
ATOM      1  C   UNL     1      82.459 124.141 127.145  1.00  0.00     0.000 C 
ENDROOT
BRANCH   1   2
ATOM      2  C   UNL     1      82.404 124.120 128.682  1.00  0.00     0.000 C 
BRANCH   2   3
ATOM      3  C   UNL     1      83.254 125.231 129.319  1.00  0.00     0.000 C 
BRANCH   3   4
ATOM      4  C   UNL     1      83.225 125.191 130.855  1.00  0.00     0.000 C 
BRANCH   4   5
ATOM      5  C   UNL     1      83.238 126.611 131.440  1.00  0.00     0.000 C 
BRANCH   5   6
ATOM      6  C   UNL     1      82.977 127.697 130.379  1.00  0.00     0.006 C 
BRANCH   6   7
ATOM      7  C   UNL     1      84.128 128.700 130.202  1.00  0.00     0.053 C 
BRANCH   7   8
ATOM      8  C   UNL     1      84.260 129.620 131.376  1.00  0.00     0.041 C 
ATOM      9  O   UNL     1      85.200 129.465 132.200  1.00  0.00    -0.550 OA
ATOM     10  O   UNL     1      83.366 130.670 131.542  1.00  0.00    -0.550 OA
ENDBRANCH   7   8
ENDBRANCH   6   7
ENDBRANCH   5   6
ENDBRANCH   4   5
ENDBRANCH   3   4
ENDBRANCH   2   3
ENDBRANCH   1   2
BRANCH   1  11
ATOM     11  C   UNL     1      83.876 124.402 126.611  1.00  0.00     0.000 C 
BRANCH  11  12
ATOM     12  C   UNL     1      84.127 123.732 125.249  1.00  0.00    -0.000 C 
BRANCH  12  13
ATOM     13  C   UNL     1      82.995 122.773 124.847  1.00  0.00    -0.000 C 
BRANCH  13  14
ATOM     14  C   UNL     1      83.505 121.352 124.551  1.00  0.00    -0.000 C 
BRANCH  14  15
ATOM     15  C   UNL     1      83.282 120.390 125.728  1.00  0.00    -0.000 C 
BRANCH  15  16
ATOM     16  C   UNL     1      84.487 120.336 126.683  1.00  0.00    -0.000 C 
BRANCH  16  17
ATOM     17  C   UNL     1      84.142 120.832 128.096  1.00  0.00    -0.003 C 
ATOM     18  C   UNL     1      85.235 121.716 128.695  1.00  0.00     0.004 C 
ENDBRANCH  16  17
ENDBRANCH  15  16
ENDBRANCH  14  15
ENDBRANCH  13  14
ENDBRANCH  12  13
ENDBRANCH  11  12
ENDBRANCH   1  11
TORSDOF 14
ENDMDL
MODEL 4
REMARK VINA RESULT:    -4.598      4.488      9.280
REMARK INTER + INTRA:          -8.957
REMARK INTER:                  -8.320
REMARK INTRA:                  -0.637
REMARK UNBOUND:                -0.596
REMARK SMILES CCCCCCCCCCCCCCCC(=O)[O-]
REMARK SMILES IDX 9 1 10 2 11 3 12 4 13 5 14 6 15 7 16 8 17 9 18 10 8 11 7 12
REMARK SMILES IDX 6 13 5 14 4 15 3 16 2 17 1 18
REMARK H PARENT
REMARK Flexibility Score: inf
ROOT
ATOM      1  C   UNL     1      94.501 123.089 124.883  1.00  0.00     0.000 C 
ENDROOT
BRANCH   1   2
ATOM      2  C   UNL     1      93.058 123.012 124.356  1.00  0.00     0.000 C 
BRANCH   2   3
ATOM      3  C   UNL     1      92.943 123.435 122.883  1.00  0.00     0.000 C 
BRANCH   3   4
ATOM      4  C   UNL     1      92.441 122.298 121.979  1.00  0.00     0.000 C 
BRANCH   4   5
ATOM      5  C   UNL     1      93.266 122.222 120.685  1.00  0.00     0.000 C 
BRANCH   5   6
ATOM      6  C   UNL     1      92.399 122.339 119.417  1.00  0.00     0.006 C 
BRANCH   6   7
ATOM      7  C   UNL     1      92.838 121.424 118.262  1.00  0.00     0.053 C 
BRANCH   7   8
ATOM      8  C   UNL     1      92.046 121.672 117.016  1.00  0.00     0.041 C 
ATOM      9  O   UNL     1      91.439 122.764 116.858  1.00  0.00    -0.550 OA
ATOM     10  O   UNL     1      92.007 120.712 116.013  1.00  0.00    -0.550 OA
ENDBRANCH   7   8
ENDBRANCH   6   7
ENDBRANCH   5   6
ENDBRANCH   4   5
ENDBRANCH   3   4
ENDBRANCH   2   3
ENDBRANCH   1   2
BRANCH   1  11
ATOM     11  C   UNL     1      95.353 124.113 124.118  1.00  0.00     0.000 C 
BRANCH  11  12
ATOM     12  C   UNL     1      96.623 124.516 124.886  1.00  0.00    -0.000 C 
BRANCH  12  13
ATOM     13  C   UNL     1      96.914 123.585 126.075  1.00  0.00    -0.000 C 
BRANCH  13  14
ATOM     14  C   UNL     1      98.306 123.826 126.685  1.00  0.00    -0.000 C 
BRANCH  14  15
ATOM     15  C   UNL     1      99.365 122.860 126.131  1.00  0.00    -0.000 C 
BRANCH  15  16
ATOM     16  C   UNL     1      99.245 121.447 126.728  1.00  0.00    -0.000 C 
BRANCH  16  17
ATOM     17  C   UNL     1     100.275 120.470 126.140  1.00  0.00    -0.003 C 
ATOM     18  C   UNL     1     101.647 121.111 125.933  1.00  0.00     0.004 C 
ENDBRANCH  16  17
ENDBRANCH  15  16
ENDBRANCH  14  15
ENDBRANCH  13  14
ENDBRANCH  12  13
ENDBRANCH  11  12
ENDBRANCH   1  11
TORSDOF 14
ENDMDL
MODEL 5
REMARK VINA RESULT:    -4.476     12.651     14.562
REMARK INTER + INTRA:          -8.734
REMARK INTER:                  -6.865
REMARK INTRA:                  -1.870
REMARK UNBOUND:                -0.596
REMARK SMILES CCCCCCCCCCCCCCCC(=O)[O-]
REMARK SMILES IDX 9 1 10 2 11 3 12 4 13 5 14 6 15 7 16 8 17 9 18 10 8 11 7 12
REMARK SMILES IDX 6 13 5 14 4 15 3 16 2 17 1 18
REMARK H PARENT
REMARK Flexibility Score: inf
ROOT
ATOM      1  C   UNL     1      84.674 123.929 126.585  1.00  0.00     0.000 C 
ENDROOT
BRANCH   1   2
ATOM      2  C   UNL     1      84.138 124.716 127.793  1.00  0.00     0.000 C 
BRANCH   2   3
ATOM      3  C   UNL     1      82.629 124.512 128.010  1.00  0.00     0.000 C 
BRANCH   3   4
ATOM      4  C   UNL     1      82.172 124.926 129.417  1.00  0.00     0.000 C 
BRANCH   4   5
ATOM      5  C   UNL     1      83.244 125.778 130.113  1.00  0.00     0.000 C 
BRANCH   5   6
ATOM      6  C   UNL     1      82.760 127.206 130.427  1.00  0.00     0.006 C 
BRANCH   6   7
ATOM      7  C   UNL     1      83.729 128.315 129.988  1.00  0.00     0.053 C 
BRANCH   7   8
ATOM      8  C   UNL     1      84.065 129.247 131.111  1.00  0.00     0.041 C 
ATOM      9  O   UNL     1      84.987 128.959 131.919  1.00  0.00    -0.550 OA
ATOM     10  O   UNL     1      83.384 130.450 131.245  1.00  0.00    -0.550 OA
ENDBRANCH   7   8
ENDBRANCH   6   7
ENDBRANCH   5   6
ENDBRANCH   4   5
ENDBRANCH   3   4
ENDBRANCH   2   3
ENDBRANCH   1   2
BRANCH   1  11
ATOM     11  C   UNL     1      83.756 124.038 125.358  1.00  0.00     0.000 C 
BRANCH  11  12
ATOM     12  C   UNL     1      83.489 122.675 124.698  1.00  0.00    -0.000 C 
BRANCH  12  13
ATOM     13  C   UNL     1      84.419 121.571 125.227  1.00  0.00    -0.000 C 
BRANCH  13  14
ATOM     14  C   UNL     1      83.644 120.386 125.830  1.00  0.00    -0.000 C 
BRANCH  14  15
ATOM     15  C   UNL     1      82.913 120.762 127.128  1.00  0.00    -0.000 C 
BRANCH  15  16
ATOM     16  C   UNL     1      83.584 120.166 128.378  1.00  0.00    -0.000 C 
BRANCH  16  17
ATOM     17  C   UNL     1      84.764 121.016 128.875  1.00  0.00    -0.003 C 
ATOM     18  C   UNL     1      84.402 121.880 130.082  1.00  0.00     0.004 C 
ENDBRANCH  16  17
ENDBRANCH  15  16
ENDBRANCH  14  15
ENDBRANCH  13  14
ENDBRANCH  12  13
ENDBRANCH  11  12
ENDBRANCH   1  11
TORSDOF 14
ENDMDL
MODEL 6
REMARK VINA RESULT:    -4.453     12.220     14.606
REMARK INTER + INTRA:          -8.692
REMARK INTER:                  -7.213
REMARK INTRA:                  -1.480
REMARK UNBOUND:                -0.596
REMARK SMILES CCCCCCCCCCCCCCCC(=O)[O-]
REMARK SMILES IDX 9 1 10 2 11 3 12 4 13 5 14 6 15 7 16 8 17 9 18 10 8 11 7 12
REMARK SMILES IDX 6 13 5 14 4 15 3 16 2 17 1 18
REMARK H PARENT
REMARK Flexibility Score: inf
ROOT
ATOM      1  C   UNL     1      84.545 124.402 126.658  1.00  0.00     0.000 C 
ENDROOT
BRANCH   1   2
ATOM      2  C   UNL     1      83.415 124.127 125.651  1.00  0.00     0.000 C 
BRANCH   2   3
ATOM      3  C   UNL     1      83.610 122.806 124.890  1.00  0.00     0.000 C 
BRANCH   3   4
ATOM      4  C   UNL     1      83.345 121.573 125.767  1.00  0.00     0.000 C 
BRANCH   4   5
ATOM      5  C   UNL     1      84.644 120.794 126.024  1.00  0.00     0.000 C 
BRANCH   5   6
ATOM      6  C   UNL     1      84.684 120.144 127.420  1.00  0.00     0.006 C 
BRANCH   6   7
ATOM      7  C   UNL     1      83.913 120.918 128.502  1.00  0.00     0.053 C 
BRANCH   7   8
ATOM      8  C   UNL     1      84.826 121.494 129.541  1.00  0.00     0.041 C 
ATOM      9  O   UNL     1      86.075 121.431 129.391  1.00  0.00    -0.550 OA
ATOM     10  O   UNL     1      84.298 122.131 130.656  1.00  0.00    -0.550 OA
ENDBRANCH   7   8
ENDBRANCH   6   7
ENDBRANCH   5   6
ENDBRANCH   4   5
ENDBRANCH   3   4
ENDBRANCH   2   3
ENDBRANCH   1   2
BRANCH   1  11
ATOM     11  C   UNL     1      84.023 124.597 128.090  1.00  0.00     0.000 C 
BRANCH  11  12
ATOM     12  C   UNL     1      82.489 124.525 128.173  1.00  0.00    -0.000 C 
BRANCH  12  13
ATOM     13  C   UNL     1      81.922 125.352 129.339  1.00  0.00    -0.000 C 
BRANCH  13  14
ATOM     14  C   UNL     1      83.026 126.002 130.192  1.00  0.00    -0.000 C 
BRANCH  14  15
ATOM     15  C   UNL     1      82.698 127.454 130.572  1.00  0.00    -0.000 C 
BRANCH  15  16
ATOM     16  C   UNL     1      83.744 128.453 130.047  1.00  0.00    -0.000 C 
BRANCH  16  17
ATOM     17  C   UNL     1      84.674 128.969 131.155  1.00  0.00    -0.003 C 
ATOM     18  C   UNL     1      84.052 130.106 131.965  1.00  0.00     0.004 C 
ENDBRANCH  16  17
ENDBRANCH  15  16
ENDBRANCH  14  15
ENDBRANCH  13  14
ENDBRANCH  12  13
ENDBRANCH  11  12
ENDBRANCH   1  11
TORSDOF 14
ENDMDL
MODEL 7
REMARK VINA RESULT:    -4.416     11.666     13.935
REMARK INTER + INTRA:          -8.626
REMARK INTER:                  -6.725
REMARK INTRA:                  -1.901
REMARK UNBOUND:                -0.596
REMARK SMILES CCCCCCCCCCCCCCCC(=O)[O-]
REMARK SMILES IDX 9 1 10 2 11 3 12 4 13 5 14 6 15 7 16 8 17 9 18 10 8 11 7 12
REMARK SMILES IDX 6 13 5 14 4 15 3 16 2 17 1 18
REMARK H PARENT
REMARK Flexibility Score: inf
ROOT
ATOM      1  C   UNL     1      83.585 123.294 124.735  1.00  0.00     0.000 C 
ENDROOT
BRANCH   1   2
ATOM      2  C   UNL     1      84.583 122.148 124.972  1.00  0.00     0.000 C 
BRANCH   2   3
ATOM      3  C   UNL     1      83.943 120.943 125.679  1.00  0.00     0.000 C 
BRANCH   3   4
ATOM      4  C   UNL     1      84.531 120.697 127.077  1.00  0.00     0.000 C 
BRANCH   4   5
ATOM      5  C   UNL     1      83.434 120.756 128.151  1.00  0.00     0.000 C 
BRANCH   5   6
ATOM      6  C   UNL     1      84.002 120.792 129.582  1.00  0.00     0.006 C 
BRANCH   6   7
ATOM      7  C   UNL     1      85.487 121.182 129.666  1.00  0.00     0.053 C 
BRANCH   7   8
ATOM      8  C   UNL     1      86.216 120.399 130.714  1.00  0.00     0.041 C 
ATOM      9  O   UNL     1      87.310 120.822 131.174  1.00  0.00    -0.550 OA
ATOM     10  O   UNL     1      85.671 119.221 131.209  1.00  0.00    -0.550 OA
ENDBRANCH   7   8
ENDBRANCH   6   7
ENDBRANCH   5   6
ENDBRANCH   4   5
ENDBRANCH   3   4
ENDBRANCH   2   3
ENDBRANCH   1   2
BRANCH   1  11
ATOM     11  C   UNL     1      83.226 124.039 126.030  1.00  0.00     0.000 C 
BRANCH  11  12
ATOM     12  C   UNL     1      84.469 124.449 126.839  1.00  0.00    -0.000 C 
BRANCH  12  13
ATOM     13  C   UNL     1      84.214 124.446 128.355  1.00  0.00    -0.000 C 
BRANCH  13  14
ATOM     14  C   UNL     1      82.720 124.314 128.700  1.00  0.00    -0.000 C 
BRANCH  14  15
ATOM     15  C   UNL     1      82.372 124.949 130.056  1.00  0.00    -0.000 C 
BRANCH  15  16
ATOM     16  C   UNL     1      82.242 126.480 129.975  1.00  0.00    -0.000 C 
BRANCH  16  17
ATOM     17  C   UNL     1      83.339 127.208 130.768  1.00  0.00    -0.003 C 
ATOM     18  C   UNL     1      83.714 128.557 130.155  1.00  0.00     0.004 C 
ENDBRANCH  16  17
ENDBRANCH  15  16
ENDBRANCH  14  15
ENDBRANCH  13  14
ENDBRANCH  12  13
ENDBRANCH  11  12
ENDBRANCH   1  11
TORSDOF 14
ENDMDL
MODEL 8
REMARK VINA RESULT:    -4.389     12.544     14.525
REMARK INTER + INTRA:          -8.577
REMARK INTER:                  -6.611
REMARK INTRA:                  -1.966
REMARK UNBOUND:                -0.596
REMARK SMILES CCCCCCCCCCCCCCCC(=O)[O-]
REMARK SMILES IDX 9 1 10 2 11 3 12 4 13 5 14 6 15 7 16 8 17 9 18 10 8 11 7 12
REMARK SMILES IDX 6 13 5 14 4 15 3 16 2 17 1 18
REMARK H PARENT
REMARK Flexibility Score: inf
ROOT
ATOM      1  C   UNL     1      84.232 123.382 125.184  1.00  0.00     0.000 C 
ENDROOT
BRANCH   1   2
ATOM      2  C   UNL     1      83.905 124.187 126.453  1.00  0.00     0.000 C 
BRANCH   2   3
ATOM      3  C   UNL     1      82.480 123.927 126.968  1.00  0.00     0.000 C 
BRANCH   3   4
ATOM      4  C   UNL     1      82.306 124.309 128.446  1.00  0.00     0.000 C 
BRANCH   4   5
ATOM      5  C   UNL     1      83.494 125.148 128.938  1.00  0.00     0.000 C 
BRANCH   5   6
ATOM      6  C   UNL     1      83.221 125.833 130.291  1.00  0.00     0.006 C 
BRANCH   6   7
ATOM      7  C   UNL     1      82.194 126.975 130.228  1.00  0.00     0.053 C 
BRANCH   7   8
ATOM      8  C   UNL     1      82.846 128.322 130.288  1.00  0.00     0.041 C 
ATOM      9  O   UNL     1      82.192 129.325 130.678  1.00  0.00    -0.550 OA
ATOM     10  O   UNL     1      84.185 128.464 129.947  1.00  0.00    -0.550 OA
ENDBRANCH   7   8
ENDBRANCH   6   7
ENDBRANCH   5   6
ENDBRANCH   4   5
ENDBRANCH   3   4
ENDBRANCH   2   3
ENDBRANCH   1   2
BRANCH   1  11
ATOM     11  C   UNL     1      82.987 122.725 124.567  1.00  0.00     0.000 C 
BRANCH  11  12
ATOM     12  C   UNL     1      83.325 121.456 123.767  1.00  0.00    -0.000 C 
BRANCH  12  13
ATOM     13  C   UNL     1      82.586 120.213 124.291  1.00  0.00    -0.000 C 
BRANCH  13  14
ATOM     14  C   UNL     1      82.440 120.218 125.823  1.00  0.00    -0.000 C 
BRANCH  14  15
ATOM     15  C   UNL     1      83.541 119.404 126.521  1.00  0.00    -0.000 C 
BRANCH  15  16
ATOM     16  C   UNL     1      84.673 120.291 127.068  1.00  0.00    -0.000 C 
BRANCH  16  17
ATOM     17  C   UNL     1      84.363 120.845 128.467  1.00  0.00    -0.003 C 
ATOM     18  C   UNL     1      85.334 121.947 128.893  1.00  0.00     0.004 C 
ENDBRANCH  16  17
ENDBRANCH  15  16
ENDBRANCH  14  15
ENDBRANCH  13  14
ENDBRANCH  12  13
ENDBRANCH  11  12
ENDBRANCH   1  11
TORSDOF 14
ENDMDL
MODEL 9
REMARK VINA RESULT:    -4.362     12.963     16.088
REMARK INTER + INTRA:          -8.528
REMARK INTER:                  -7.875
REMARK INTRA:                  -0.653
REMARK UNBOUND:                -0.596
REMARK SMILES CCCCCCCCCCCCCCCC(=O)[O-]
REMARK SMILES IDX 9 1 10 2 11 3 12 4 13 5 14 6 15 7 16 8 17 9 18 10 8 11 7 12
REMARK SMILES IDX 6 13 5 14 4 15 3 16 2 17 1 18
REMARK H PARENT
REMARK Flexibility Score: inf
ROOT
ATOM      1  C   UNL     1      83.060 124.577 128.836  1.00  0.00     0.000 C 
ENDROOT
BRANCH   1   2
ATOM      2  C   UNL     1      84.275 124.649 127.896  1.00  0.00     0.000 C 
BRANCH   2   3
ATOM      3  C   UNL     1      84.017 123.969 126.541  1.00  0.00     0.000 C 
BRANCH   3   4
ATOM      4  C   UNL     1      82.560 124.113 126.075  1.00  0.00     0.000 C 
BRANCH   4   5
ATOM      5  C   UNL     1      81.928 122.737 125.818  1.00  0.00     0.000 C 
BRANCH   5   6
ATOM      6  C   UNL     1      82.956 121.684 125.362  1.00  0.00     0.006 C 
BRANCH   6   7
ATOM      7  C   UNL     1      83.359 121.791 123.883  1.00  0.00     0.053 C 
BRANCH   7   8
ATOM      8  C   UNL     1      82.653 120.779 123.033  1.00  0.00     0.041 C 
ATOM      9  O   UNL     1      82.339 121.058 121.845  1.00  0.00    -0.550 OA
ATOM     10  O   UNL     1      82.375 119.516 123.540  1.00  0.00    -0.550 OA
ENDBRANCH   7   8
ENDBRANCH   6   7
ENDBRANCH   5   6
ENDBRANCH   4   5
ENDBRANCH   3   4
ENDBRANCH   2   3
ENDBRANCH   1   2
BRANCH   1  11
ATOM     11  C   UNL     1      83.293 125.326 130.157  1.00  0.00     0.000 C 
BRANCH  11  12
ATOM     12  C   UNL     1      83.276 126.854 129.981  1.00  0.00    -0.000 C 
BRANCH  12  13
ATOM     13  C   UNL     1      83.548 127.603 131.296  1.00  0.00    -0.000 C 
BRANCH  13  14
ATOM     14  C   UNL     1      84.318 128.917 131.076  1.00  0.00    -0.000 C 
BRANCH  14  15
ATOM     15  C   UNL     1      84.966 129.441 132.367  1.00  0.00    -0.000 C 
BRANCH  15  16
ATOM     16  C   UNL     1      84.481 130.853 132.741  1.00  0.00    -0.000 C 
BRANCH  16  17
ATOM     17  C   UNL     1      82.955 130.996 132.644  1.00  0.00    -0.003 C 
ATOM     18  C   UNL     1      82.524 132.038 131.612  1.00  0.00     0.004 C 
ENDBRANCH  16  17
ENDBRANCH  15  16
ENDBRANCH  14  15
ENDBRANCH  13  14
ENDBRANCH  12  13
ENDBRANCH  11  12
ENDBRANCH   1  11
TORSDOF 14
ENDMDL
