MODEL 1
REMARK VINA RESULT:    -3.164      0.000      0.000
REMARK INTER + INTRA:          -3.561
REMARK INTER:                  -3.534
REMARK INTRA:                  -0.027
REMARK UNBOUND:                -0.027
REMARK SMILES CCCC(=O)[O-]
REMARK SMILES IDX 3 1 4 2 5 3 6 4 2 5 1 6
REMARK H PARENT
REMARK Flexibility Score: inf
ROOT
ATOM      1  C   UNL     1       4.201 -30.743  -2.109  1.00  0.00     0.052 C 
ENDROOT
BRANCH   1   2
ATOM      2  C   UNL     1       5.120 -30.313  -3.211  1.00  0.00     0.041 C 
ATOM      3  O   UNL     1       5.329 -31.069  -4.195  1.00  0.00    -0.550 OA
ATOM      4  O   UNL     1       5.721 -29.061  -3.166  1.00  0.00    -0.550 OA
ENDBRANCH   1   2
BRANCH   1   5
ATOM      5  C   UNL     1       4.437 -29.935  -0.826  1.00  0.00     0.003 C 
ATOM      6  C   UNL     1       3.359 -28.875  -0.601  1.00  0.00     0.004 C 
ENDBRANCH   1   5
TORSDOF 2
ENDMDL
MODEL 2
REMARK VINA RESULT:    -3.160      2.165      3.183
REMARK INTER + INTRA:          -3.557
REMARK INTER:                  -3.528
REMARK INTRA:                  -0.029
REMARK UNBOUND:                -0.027
REMARK SMILES CCCC(=O)[O-]
REMARK SMILES IDX 3 1 4 2 5 3 6 4 2 5 1 6
REMARK H PARENT
REMARK Flexibility Score: inf
ROOT
ATOM      1  C   UNL     1       5.494 -29.129  -2.312  1.00  0.00     0.052 C 
ENDROOT
BRANCH   1   2
ATOM      2  C   UNL     1       4.698 -30.051  -1.441  1.00  0.00     0.041 C 
ATOM      3  O   UNL     1       5.274 -30.774  -0.587  1.00  0.00    -0.550 OA
ATOM      4  O   UNL     1       3.313 -30.087  -1.550  1.00  0.00    -0.550 OA
ENDBRANCH   1   2
BRANCH   1   5
ATOM      5  C   UNL     1       5.298 -29.445  -3.801  1.00  0.00     0.003 C 
ATOM      6  C   UNL     1       5.411 -30.939  -4.098  1.00  0.00     0.004 C 
ENDBRANCH   1   5
TORSDOF 2
ENDMDL
MODEL 3
REMARK VINA RESULT:    -2.928     14.671     15.189
REMARK INTER + INTRA:          -3.297
REMARK INTER:                  -3.268
REMARK INTRA:                  -0.029
REMARK UNBOUND:                -0.027
REMARK SMILES CCCC(=O)[O-]
REMARK SMILES IDX 3 1 4 2 5 3 6 4 2 5 1 6
REMARK H PARENT
REMARK Flexibility Score: inf
ROOT
ATOM      1  C   UNL     1      11.308 -24.499 -14.137  1.00  0.00     0.052 C 
ENDROOT
BRANCH   1   2
ATOM      2  C   UNL     1      12.456 -25.456 -14.044  1.00  0.00     0.041 C 
ATOM      3  O   UNL     1      13.569 -25.071 -13.598  1.00  0.00    -0.550 OA
ATOM      4  O   UNL     1      12.288 -26.782 -14.420  1.00  0.00    -0.550 OA
ENDBRANCH   1   2
BRANCH   1   5
ATOM      5  C   UNL     1      11.739 -23.061 -13.819  1.00  0.00     0.003 C 
ATOM      6  C   UNL     1      11.482 -22.107 -14.985  1.00  0.00     0.004 C 
ENDBRANCH   1   5
TORSDOF 2
ENDMDL
MODEL 4
REMARK VINA RESULT:    -2.898     14.620     15.069
REMARK INTER + INTRA:          -3.264
REMARK INTER:                  -3.247
REMARK INTRA:                  -0.017
REMARK UNBOUND:                -0.027
REMARK SMILES CCCC(=O)[O-]
REMARK SMILES IDX 3 1 4 2 5 3 6 4 2 5 1 6
REMARK H PARENT
REMARK Flexibility Score: inf
ROOT
ATOM      1  C   UNL     1      12.830 -25.530 -14.042  1.00  0.00     0.052 C 
ENDROOT
BRANCH   1   2
ATOM      2  C   UNL     1      11.450 -24.986 -14.241  1.00  0.00     0.041 C 
ATOM      3  O   UNL     1      10.571 -25.677 -14.819  1.00  0.00    -0.550 OA
ATOM      4  O   UNL     1      11.124 -23.724 -13.758  1.00  0.00    -0.550 OA
ENDBRANCH   1   2
BRANCH   1   5
ATOM      5  C   UNL     1      12.901 -27.030 -14.362  1.00  0.00     0.003 C 
ATOM      6  C   UNL     1      14.266 -27.444 -14.908  1.00  0.00     0.004 C 
ENDBRANCH   1   5
TORSDOF 2
ENDMDL
MODEL 5
REMARK VINA RESULT:    -2.878     18.747     19.681
REMARK INTER + INTRA:          -3.242
REMARK INTER:                  -3.206
REMARK INTRA:                  -0.036
REMARK UNBOUND:                -0.027
REMARK SMILES CCCC(=O)[O-]
REMARK SMILES IDX 3 1 4 2 5 3 6 4 2 5 1 6
REMARK H PARENT
REMARK Flexibility Score: inf
ROOT
ATOM      1  C   UNL     1      13.341 -18.135 -15.541  1.00  0.00     0.052 C 
ENDROOT
BRANCH   1   2
ATOM      2  C   UNL     1      13.970 -16.892 -14.993  1.00  0.00     0.041 C 
ATOM      3  O   UNL     1      15.100 -16.518 -15.404  1.00  0.00    -0.550 OA
ATOM      4  O   UNL     1      13.293 -16.127 -14.052  1.00  0.00    -0.550 OA
ENDBRANCH   1   2
BRANCH   1   5
ATOM      5  C   UNL     1      12.654 -18.956 -14.442  1.00  0.00     0.003 C 
ATOM      6  C   UNL     1      11.158 -19.131 -14.696  1.00  0.00     0.004 C 
ENDBRANCH   1   5
TORSDOF 2
ENDMDL
MODEL 6
REMARK VINA RESULT:    -2.866     18.537     19.493
REMARK INTER + INTRA:          -3.229
REMARK INTER:                  -3.160
REMARK INTRA:                  -0.069
REMARK UNBOUND:                -0.027
REMARK SMILES CCCC(=O)[O-]
REMARK SMILES IDX 3 1 4 2 5 3 6 4 2 5 1 6
REMARK H PARENT
REMARK Flexibility Score: inf
ROOT
ATOM      1  C   UNL     1      13.191 -18.813 -16.588  1.00  0.00     0.052 C 
ENDROOT
BRANCH   1   2
ATOM      2  C   UNL     1      14.002 -18.181 -15.498  1.00  0.00     0.041 C 
ATOM      3  O   UNL     1      14.822 -18.869 -14.836  1.00  0.00    -0.550 OA
ATOM      4  O   UNL     1      13.874 -16.823 -15.236  1.00  0.00    -0.550 OA
ENDBRANCH   1   2
BRANCH   1   5
ATOM      5  C   UNL     1      12.183 -19.826 -16.030  1.00  0.00     0.003 C 
ATOM      6  C   UNL     1      11.264 -19.212 -14.975  1.00  0.00     0.004 C 
ENDBRANCH   1   5
TORSDOF 2
ENDMDL
MODEL 7
REMARK VINA RESULT:    -2.807     14.820     15.353
REMARK INTER + INTRA:          -3.163
REMARK INTER:                  -3.154
REMARK INTRA:                  -0.009
REMARK UNBOUND:                -0.027
REMARK SMILES CCCC(=O)[O-]
REMARK SMILES IDX 3 1 4 2 5 3 6 4 2 5 1 6
REMARK H PARENT
REMARK Flexibility Score: inf
ROOT
ATOM      1  C   UNL     1      12.759 -26.884 -14.371  1.00  0.00     0.052 C 
ENDROOT
BRANCH   1   2
ATOM      2  C   UNL     1      14.177 -27.319 -14.574  1.00  0.00     0.041 C 
ATOM      3  O   UNL     1      14.563 -28.443 -14.157  1.00  0.00    -0.550 OA
ATOM      4  O   UNL     1      15.066 -26.497 -15.254  1.00  0.00    -0.550 OA
ENDBRANCH   1   2
BRANCH   1   5
ATOM      5  C   UNL     1      12.668 -25.392 -14.024  1.00  0.00     0.003 C 
ATOM      6  C   UNL     1      11.243 -24.854 -14.143  1.00  0.00     0.004 C 
ENDBRANCH   1   5
TORSDOF 2
ENDMDL
MODEL 8
REMARK VINA RESULT:    -2.801     17.531     18.347
REMARK INTER + INTRA:          -3.156
REMARK INTER:                  -3.133
REMARK INTRA:                  -0.023
REMARK UNBOUND:                -0.027
REMARK SMILES CCCC(=O)[O-]
REMARK SMILES IDX 3 1 4 2 5 3 6 4 2 5 1 6
REMARK H PARENT
REMARK Flexibility Score: inf
ROOT
ATOM      1  C   UNL     1      11.430 -19.749 -15.149  1.00  0.00     0.052 C 
ENDROOT
BRANCH   1   2
ATOM      2  C   UNL     1      12.448 -19.448 -16.205  1.00  0.00     0.041 C 
ATOM      3  O   UNL     1      12.513 -20.156 -17.244  1.00  0.00    -0.550 OA
ATOM      4  O   UNL     1      13.304 -18.365 -16.057  1.00  0.00    -0.550 OA
ENDBRANCH   1   2
BRANCH   1   5
ATOM      5  C   UNL     1      11.325 -18.613 -14.122  1.00  0.00     0.003 C 
ATOM      6  C   UNL     1      11.320 -19.129 -12.684  1.00  0.00     0.004 C 
ENDBRANCH   1   5
TORSDOF 2
ENDMDL
MODEL 9
REMARK VINA RESULT:    -2.789     19.121     19.808
REMARK INTER + INTRA:          -3.142
REMARK INTER:                  -3.094
REMARK INTRA:                  -0.048
REMARK UNBOUND:                -0.027
REMARK SMILES CCCC(=O)[O-]
REMARK SMILES IDX 3 1 4 2 5 3 6 4 2 5 1 6
REMARK H PARENT
REMARK Flexibility Score: inf
ROOT
ATOM      1  C   UNL     1      13.937 -16.549 -14.867  1.00  0.00     0.052 C 
ENDROOT
BRANCH   1   2
ATOM      2  C   UNL     1      13.590 -17.868 -15.485  1.00  0.00     0.041 C 
ATOM      3  O   UNL     1      14.305 -18.347 -16.404  1.00  0.00    -0.550 OA
ATOM      4  O   UNL     1      12.494 -18.585 -15.022  1.00  0.00    -0.550 OA
ENDBRANCH   1   2
BRANCH   1   5
ATOM      5  C   UNL     1      13.574 -16.507 -13.377  1.00  0.00     0.003 C 
ATOM      6  C   UNL     1      14.683 -17.072 -12.492  1.00  0.00     0.004 C 
ENDBRANCH   1   5
TORSDOF 2
ENDMDL
