MODEL 1
REMARK VINA RESULT:    -7.365      0.000      0.000
REMARK INTER + INTRA:         -11.984
REMARK INTER:                 -10.595
REMARK INTRA:                  -1.389
REMARK UNBOUND:                -1.389
REMARK SMILES O=c1c(O[C@H]2O[C@@H](CO)[C@@H](O)[C@H](O)[C@@H]2O)c(-c2ccc(O)cc2)oc2cc(O)cc(O)c12
REMARK SMILES IDX 4 1 3 2 16 3 24 4 2 5 25 6 1 7 32 8 26 9 30 10 27 11 29 12
REMARK SMILES IDX 17 13 18 14 19 15 20 16 23 17 22 18 21 19 31 21 28 23 5 25
REMARK SMILES IDX 14 26 6 27 12 28 7 29 10 30 15 31 13 33 8 35 9 36 11 38
REMARK H PARENT 21 20 31 22 28 24 15 32 13 34 9 37 11 39
REMARK Flexibility Score: inf
ROOT
ATOM      1  O   UNL     1      14.351 -35.109  -2.173  1.00  0.00    -0.454 OA
ENDROOT
BRANCH   1   2
ATOM      2  C   UNL     1      13.641 -36.073  -2.900  1.00  0.00     0.214 A 
ATOM      3  C   UNL     1      14.314 -37.239  -3.294  1.00  0.00     0.180 A 
ATOM      4  O   UNL     1      13.720 -38.122  -4.081  1.00  0.00    -0.452 OA
ATOM      5  C   UNL     1      12.298 -35.904  -3.272  1.00  0.00     0.239 A 
ATOM      6  C   UNL     1      12.465 -37.989  -4.500  1.00  0.00     0.146 A 
ATOM      7  O   UNL     1      11.653 -34.904  -2.852  1.00  0.00    -0.285 OA
ATOM      8  C   UNL     1      11.687 -36.872  -4.095  1.00  0.00     0.111 A 
ATOM      9  C   UNL     1      11.915 -38.973  -5.319  1.00  0.00     0.094 A 
ATOM     10  C   UNL     1      10.339 -36.791  -4.516  1.00  0.00     0.134 A 
ATOM     11  C   UNL     1      10.600 -38.865  -5.767  1.00  0.00     0.123 A 
ATOM     12  C   UNL     1       9.807 -37.788  -5.352  1.00  0.00     0.093 A 
BRANCH   3  13
ATOM     13  C   UNL     1      15.694 -37.471  -2.852  1.00  0.00     0.021 A 
ATOM     14  C   UNL     1      16.756 -36.889  -3.557  1.00  0.00     0.016 A 
ATOM     15  C   UNL     1      18.074 -37.167  -3.195  1.00  0.00     0.047 A 
ATOM     16  C   UNL     1      18.342 -38.022  -2.118  1.00  0.00     0.115 A 
ATOM     17  C   UNL     1      15.963 -38.339  -1.785  1.00  0.00     0.016 A 
ATOM     18  C   UNL     1      17.286 -38.613  -1.418  1.00  0.00     0.047 A 
BRANCH  16  19
ATOM     19  O   UNL     1      19.656 -38.308  -1.757  1.00  0.00    -0.508 OA
ATOM     20  H   UNL     1      20.398 -38.265  -2.439  1.00  0.00     0.293 HD
ENDBRANCH  16  19
ENDBRANCH   3  13
BRANCH  10  21
ATOM     21  O   UNL     1       9.526 -35.726  -4.115  1.00  0.00    -0.507 OA
ATOM     22  H   UNL     1       9.535 -35.379  -3.162  1.00  0.00     0.293 HD
ENDBRANCH  10  21
BRANCH  11  23
ATOM     23  O   UNL     1      10.091 -39.832  -6.629  1.00  0.00    -0.508 OA
ATOM     24  H   UNL     1      10.360 -40.806  -6.560  1.00  0.00     0.293 HD
ENDBRANCH  11  23
ENDBRANCH   1   2
BRANCH   1  25
ATOM     25  C   UNL     1      14.225 -34.872  -0.761  1.00  0.00     0.339 C 
ATOM     26  C   UNL     1      13.827 -33.387  -0.456  1.00  0.00     0.214 C 
ATOM     27  O   UNL     1      15.492 -35.174  -0.204  1.00  0.00    -0.332 OA
ATOM     28  C   UNL     1      14.441 -32.869   0.869  1.00  0.00     0.180 C 
ATOM     29  C   UNL     1      15.554 -35.096   1.223  1.00  0.00     0.179 C 
ATOM     30  C   UNL     1      14.582 -34.053   1.840  1.00  0.00     0.177 C 
BRANCH  26  31
ATOM     31  O   UNL     1      12.421 -33.263  -0.432  1.00  0.00    -0.384 OA
ATOM     32  H   UNL     1      12.184 -32.497   0.153  1.00  0.00     0.211 HD
ENDBRANCH  26  31
BRANCH  28  33
ATOM     33  O   UNL     1      13.613 -31.875   1.422  1.00  0.00    -0.387 OA
ATOM     34  H   UNL     1      12.684 -32.067   1.130  1.00  0.00     0.211 HD
ENDBRANCH  28  33
BRANCH  29  35
ATOM     35  C   UNL     1      17.051 -34.928   1.608  1.00  0.00     0.191 C 
BRANCH  35  36
ATOM     36  O   UNL     1      17.922 -35.388   0.604  1.00  0.00    -0.394 OA
ATOM     37  H   UNL     1      17.602 -36.295   0.333  1.00  0.00     0.210 HD
ENDBRANCH  35  36
ENDBRANCH  29  35
BRANCH  30  38
ATOM     38  O   UNL     1      14.974 -33.633   3.124  1.00  0.00    -0.387 OA
ATOM     39  H   UNL     1      15.788 -33.086   2.997  1.00  0.00     0.211 HD
ENDBRANCH  30  38
ENDBRANCH   1  25
TORSDOF 11
ENDMDL
MODEL 2
REMARK VINA RESULT:    -6.638      1.773      4.613
REMARK INTER + INTRA:         -10.938
REMARK INTER:                  -9.679
REMARK INTRA:                  -1.259
REMARK UNBOUND:                -1.389
REMARK SMILES O=c1c(O[C@H]2O[C@@H](CO)[C@@H](O)[C@H](O)[C@@H]2O)c(-c2ccc(O)cc2)oc2cc(O)cc(O)c12
REMARK SMILES IDX 4 1 3 2 16 3 24 4 2 5 25 6 1 7 32 8 26 9 30 10 27 11 29 12
REMARK SMILES IDX 17 13 18 14 19 15 20 16 23 17 22 18 21 19 31 21 28 23 5 25
REMARK SMILES IDX 14 26 6 27 12 28 7 29 10 30 15 31 13 33 8 35 9 36 11 38
REMARK H PARENT 21 20 31 22 28 24 15 32 13 34 9 37 11 39
REMARK Flexibility Score: inf
ROOT
ATOM      1  O   UNL     1      15.210 -35.799  -1.777  1.00  0.00    -0.454 OA
ENDROOT
BRANCH   1   2
ATOM      2  C   UNL     1      14.015 -36.121  -2.433  1.00  0.00     0.214 A 
ATOM      3  C   UNL     1      12.815 -35.606  -1.920  1.00  0.00     0.180 A 
ATOM      4  O   UNL     1      11.654 -35.976  -2.434  1.00  0.00    -0.452 OA
ATOM      5  C   UNL     1      13.970 -36.957  -3.558  1.00  0.00     0.239 A 
ATOM      6  C   UNL     1      11.552 -36.801  -3.472  1.00  0.00     0.146 A 
ATOM      7  O   UNL     1      15.046 -37.357  -4.084  1.00  0.00    -0.285 OA
ATOM      8  C   UNL     1      12.717 -37.319  -4.096  1.00  0.00     0.111 A 
ATOM      9  C   UNL     1      10.287 -37.131  -3.956  1.00  0.00     0.094 A 
ATOM     10  C   UNL     1      12.573 -38.150  -5.231  1.00  0.00     0.134 A 
ATOM     11  C   UNL     1      10.150 -37.986  -5.047  1.00  0.00     0.123 A 
ATOM     12  C   UNL     1      11.288 -38.480  -5.696  1.00  0.00     0.093 A 
BRANCH   3  13
ATOM     13  C   UNL     1      12.845 -34.669  -0.791  1.00  0.00     0.021 A 
ATOM     14  C   UNL     1      13.382 -33.386  -0.967  1.00  0.00     0.016 A 
ATOM     15  C   UNL     1      13.489 -32.516   0.118  1.00  0.00     0.047 A 
ATOM     16  C   UNL     1      13.049 -32.917   1.387  1.00  0.00     0.115 A 
ATOM     17  C   UNL     1      12.420 -35.074   0.482  1.00  0.00     0.016 A 
ATOM     18  C   UNL     1      12.522 -34.198   1.569  1.00  0.00     0.047 A 
BRANCH  16  19
ATOM     19  O   UNL     1      13.160 -32.053   2.474  1.00  0.00    -0.508 OA
ATOM     20  H   UNL     1      12.423 -31.399   2.690  1.00  0.00     0.293 HD
ENDBRANCH  16  19
ENDBRANCH   3  13
BRANCH  10  21
ATOM     21  O   UNL     1      13.694 -38.656  -5.897  1.00  0.00    -0.507 OA
ATOM     22  H   UNL     1      14.361 -38.044  -6.355  1.00  0.00     0.293 HD
ENDBRANCH  10  21
BRANCH  11  23
ATOM     23  O   UNL     1       8.875 -38.345  -5.478  1.00  0.00    -0.508 OA
ATOM     24  H   UNL     1       8.119 -38.518  -4.826  1.00  0.00     0.293 HD
ENDBRANCH  11  23
ENDBRANCH   1   2
BRANCH   1  25
ATOM     25  C   UNL     1      15.725 -36.462  -0.611  1.00  0.00     0.339 C 
ATOM     26  C   UNL     1      16.744 -35.560   0.167  1.00  0.00     0.214 C 
ATOM     27  O   UNL     1      16.358 -37.638  -1.083  1.00  0.00    -0.332 OA
ATOM     28  C   UNL     1      17.868 -36.384   0.845  1.00  0.00     0.180 C 
ATOM     29  C   UNL     1      16.858 -38.503  -0.058  1.00  0.00     0.179 C 
ATOM     30  C   UNL     1      17.300 -37.759   1.233  1.00  0.00     0.177 C 
BRANCH  26  31
ATOM     31  O   UNL     1      16.060 -34.775   1.120  1.00  0.00    -0.384 OA
ATOM     32  H   UNL     1      15.672 -33.988   0.657  1.00  0.00     0.211 HD
ENDBRANCH  26  31
BRANCH  28  33
ATOM     33  O   UNL     1      18.334 -35.705   1.985  1.00  0.00    -0.387 OA
ATOM     34  H   UNL     1      19.122 -36.203   2.326  1.00  0.00     0.211 HD
ENDBRANCH  28  33
BRANCH  29  35
ATOM     35  C   UNL     1      17.937 -39.412  -0.712  1.00  0.00     0.191 C 
BRANCH  35  36
ATOM     36  O   UNL     1      18.263 -40.523   0.085  1.00  0.00    -0.394 OA
ATOM     37  H   UNL     1      17.634 -40.521   0.860  1.00  0.00     0.210 HD
ENDBRANCH  35  36
ENDBRANCH  29  35
BRANCH  30  38
ATOM     38  O   UNL     1      18.211 -38.502   2.006  1.00  0.00    -0.387 OA
ATOM     39  H   UNL     1      18.493 -39.263   1.442  1.00  0.00     0.211 HD
ENDBRANCH  30  38
ENDBRANCH   1  25
TORSDOF 11
ENDMDL
MODEL 3
REMARK VINA RESULT:    -6.604      2.171      6.757
REMARK INTER + INTRA:         -10.889
REMARK INTER:                  -9.562
REMARK INTRA:                  -1.327
REMARK UNBOUND:                -1.389
REMARK SMILES O=c1c(O[C@H]2O[C@@H](CO)[C@@H](O)[C@H](O)[C@@H]2O)c(-c2ccc(O)cc2)oc2cc(O)cc(O)c12
REMARK SMILES IDX 4 1 3 2 16 3 24 4 2 5 25 6 1 7 32 8 26 9 30 10 27 11 29 12
REMARK SMILES IDX 17 13 18 14 19 15 20 16 23 17 22 18 21 19 31 21 28 23 5 25
REMARK SMILES IDX 14 26 6 27 12 28 7 29 10 30 15 31 13 33 8 35 9 36 11 38
REMARK H PARENT 21 20 31 22 28 24 15 32 13 34 9 37 11 39
REMARK Flexibility Score: inf
ROOT
ATOM      1  O   UNL     1      14.624 -33.984  -1.853  1.00  0.00    -0.454 OA
ENDROOT
BRANCH   1   2
ATOM      2  C   UNL     1      15.154 -35.193  -1.385  1.00  0.00     0.214 A 
ATOM      3  C   UNL     1      14.801 -35.620  -0.096  1.00  0.00     0.180 A 
ATOM      4  O   UNL     1      15.367 -36.693   0.433  1.00  0.00    -0.452 OA
ATOM      5  C   UNL     1      16.044 -35.973  -2.140  1.00  0.00     0.239 A 
ATOM      6  C   UNL     1      16.249 -37.442  -0.221  1.00  0.00     0.146 A 
ATOM      7  O   UNL     1      16.303 -35.650  -3.332  1.00  0.00    -0.285 OA
ATOM      8  C   UNL     1      16.616 -37.122  -1.555  1.00  0.00     0.111 A 
ATOM      9  C   UNL     1      16.789 -38.562   0.409  1.00  0.00     0.094 A 
ATOM     10  C   UNL     1      17.515 -37.972  -2.239  1.00  0.00     0.134 A 
ATOM     11  C   UNL     1      17.709 -39.371  -0.255  1.00  0.00     0.123 A 
ATOM     12  C   UNL     1      18.057 -39.090  -1.581  1.00  0.00     0.093 A 
BRANCH   3  13
ATOM     13  C   UNL     1      13.815 -34.860   0.681  1.00  0.00     0.021 A 
ATOM     14  C   UNL     1      12.477 -35.276   0.701  1.00  0.00     0.016 A 
ATOM     15  C   UNL     1      11.517 -34.517   1.371  1.00  0.00     0.047 A 
ATOM     16  C   UNL     1      11.888 -33.341   2.035  1.00  0.00     0.115 A 
ATOM     17  C   UNL     1      14.183 -33.674   1.333  1.00  0.00     0.016 A 
ATOM     18  C   UNL     1      13.220 -32.917   2.009  1.00  0.00     0.047 A 
BRANCH  16  19
ATOM     19  O   UNL     1      10.932 -32.577   2.698  1.00  0.00    -0.508 OA
ATOM     20  H   UNL     1      10.739 -32.729   3.677  1.00  0.00     0.293 HD
ENDBRANCH  16  19
ENDBRANCH   3  13
BRANCH  10  21
ATOM     21  O   UNL     1      17.879 -37.714  -3.565  1.00  0.00    -0.507 OA
ATOM     22  H   UNL     1      18.321 -38.421  -4.142  1.00  0.00     0.293 HD
ENDBRANCH  10  21
BRANCH  11  23
ATOM     23  O   UNL     1      18.276 -40.452   0.416  1.00  0.00    -0.508 OA
ATOM     24  H   UNL     1      17.791 -40.932   1.164  1.00  0.00     0.293 HD
ENDBRANCH  11  23
ENDBRANCH   1   2
BRANCH   1  25
ATOM     25  C   UNL     1      13.504 -33.856  -2.743  1.00  0.00     0.339 C 
ATOM     26  C   UNL     1      12.386 -32.938  -2.139  1.00  0.00     0.214 C 
ATOM     27  O   UNL     1      13.016 -35.170  -2.944  1.00  0.00    -0.332 OA
ATOM     28  C   UNL     1      10.962 -33.380  -2.564  1.00  0.00     0.180 C 
ATOM     29  C   UNL     1      11.947 -35.276  -3.889  1.00  0.00     0.179 C 
ATOM     30  C   UNL     1      11.044 -34.015  -3.961  1.00  0.00     0.177 C 
BRANCH  26  31
ATOM     31  O   UNL     1      12.617 -31.595  -2.506  1.00  0.00    -0.384 OA
ATOM     32  H   UNL     1      11.924 -31.326  -3.163  1.00  0.00     0.211 HD
ENDBRANCH  26  31
BRANCH  28  33
ATOM     33  O   UNL     1      10.102 -32.267  -2.577  1.00  0.00    -0.387 OA
ATOM     34  H   UNL     1       9.179 -32.603  -2.431  1.00  0.00     0.211 HD
ENDBRANCH  28  33
BRANCH  29  35
ATOM     35  C   UNL     1      11.211 -36.615  -3.599  1.00  0.00     0.191 C 
BRANCH  35  36
ATOM     36  O   UNL     1      10.408 -37.034  -4.675  1.00  0.00    -0.394 OA
ATOM     37  H   UNL     1       9.540 -36.547  -4.597  1.00  0.00     0.210 HD
ENDBRANCH  35  36
ENDBRANCH  29  35
BRANCH  30  38
ATOM     38  O   UNL     1       9.767 -34.287  -4.487  1.00  0.00    -0.387 OA
ATOM     39  H   UNL     1       9.132 -33.740  -3.962  1.00  0.00     0.211 HD
ENDBRANCH  30  38
ENDBRANCH   1  25
TORSDOF 11
ENDMDL
MODEL 4
REMARK VINA RESULT:    -6.516      1.782      2.864
REMARK INTER + INTRA:         -10.762
REMARK INTER:                  -9.498
REMARK INTRA:                  -1.263
REMARK UNBOUND:                -1.389
REMARK SMILES O=c1c(O[C@H]2O[C@@H](CO)[C@@H](O)[C@H](O)[C@@H]2O)c(-c2ccc(O)cc2)oc2cc(O)cc(O)c12
REMARK SMILES IDX 4 1 3 2 16 3 24 4 2 5 25 6 1 7 32 8 26 9 30 10 27 11 29 12
REMARK SMILES IDX 17 13 18 14 19 15 20 16 23 17 22 18 21 19 31 21 28 23 5 25
REMARK SMILES IDX 14 26 6 27 12 28 7 29 10 30 15 31 13 33 8 35 9 36 11 38
REMARK H PARENT 21 20 31 22 28 24 15 32 13 34 9 37 11 39
REMARK Flexibility Score: inf
ROOT
ATOM      1  O   UNL     1      14.224 -36.689  -3.624  1.00  0.00    -0.454 OA
ENDROOT
BRANCH   1   2
ATOM      2  C   UNL     1      13.763 -37.983  -3.896  1.00  0.00     0.214 A 
ATOM      3  C   UNL     1      14.448 -39.067  -3.326  1.00  0.00     0.180 A 
ATOM      4  O   UNL     1      14.122 -40.308  -3.646  1.00  0.00    -0.452 OA
ATOM      5  C   UNL     1      12.668 -38.237  -4.735  1.00  0.00     0.239 A 
ATOM      6  C   UNL     1      13.122 -40.604  -4.471  1.00  0.00     0.146 A 
ATOM      7  O   UNL     1      11.988 -37.273  -5.185  1.00  0.00    -0.285 OA
ATOM      8  C   UNL     1      12.333 -39.571  -5.043  1.00  0.00     0.111 A 
ATOM      9  C   UNL     1      12.841 -41.942  -4.747  1.00  0.00     0.094 A 
ATOM     10  C   UNL     1      11.244 -39.924  -5.873  1.00  0.00     0.134 A 
ATOM     11  C   UNL     1      11.794 -42.281  -5.601  1.00  0.00     0.123 A 
ATOM     12  C   UNL     1      10.985 -41.278  -6.148  1.00  0.00     0.093 A 
BRANCH   3  13
ATOM     13  C   UNL     1      15.548 -38.823  -2.385  1.00  0.00     0.021 A 
ATOM     14  C   UNL     1      15.295 -38.820  -1.007  1.00  0.00     0.016 A 
ATOM     15  C   UNL     1      16.316 -38.512  -0.108  1.00  0.00     0.047 A 
ATOM     16  C   UNL     1      17.601 -38.213  -0.578  1.00  0.00     0.115 A 
ATOM     17  C   UNL     1      16.831 -38.510  -2.856  1.00  0.00     0.016 A 
ATOM     18  C   UNL     1      17.855 -38.205  -1.952  1.00  0.00     0.047 A 
BRANCH  16  19
ATOM     19  O   UNL     1      18.621 -37.898   0.316  1.00  0.00    -0.508 OA
ATOM     20  H   UNL     1      18.474 -37.969   1.311  1.00  0.00     0.293 HD
ENDBRANCH  16  19
ENDBRANCH   3  13
BRANCH  10  21
ATOM     21  O   UNL     1      10.419 -38.942  -6.432  1.00  0.00    -0.507 OA
ATOM     22  H   UNL     1      10.802 -38.093  -6.835  1.00  0.00     0.293 HD
ENDBRANCH  10  21
BRANCH  11  23
ATOM     23  O   UNL     1      11.569 -43.621  -5.905  1.00  0.00    -0.508 OA
ATOM     24  H   UNL     1      12.329 -44.258  -6.111  1.00  0.00     0.293 HD
ENDBRANCH  11  23
ENDBRANCH   1   2
BRANCH   1  25
ATOM     25  C   UNL     1      13.685 -35.805  -2.628  1.00  0.00     0.339 C 
ATOM     26  C   UNL     1      13.383 -34.383  -3.217  1.00  0.00     0.214 C 
ATOM     27  O   UNL     1      14.665 -35.725  -1.609  1.00  0.00    -0.332 OA
ATOM     28  C   UNL     1      13.599 -33.253  -2.179  1.00  0.00     0.180 C 
ATOM     29  C   UNL     1      14.279 -34.962  -0.463  1.00  0.00     0.179 C 
ATOM     30  C   UNL     1      13.287 -33.808  -0.779  1.00  0.00     0.177 C 
BRANCH  26  31
ATOM     31  O   UNL     1      12.066 -34.344  -3.725  1.00  0.00    -0.384 OA
ATOM     32  H   UNL     1      11.577 -33.610  -3.270  1.00  0.00     0.211 HD
ENDBRANCH  26  31
BRANCH  28  33
ATOM     33  O   UNL     1      12.759 -32.166  -2.476  1.00  0.00    -0.387 OA
ATOM     34  H   UNL     1      12.863 -31.965  -3.443  1.00  0.00     0.211 HD
ENDBRANCH  28  33
BRANCH  29  35
ATOM     35  C   UNL     1      15.585 -34.543   0.270  1.00  0.00     0.191 C 
BRANCH  35  36
ATOM     36  O   UNL     1      16.743 -34.972  -0.402  1.00  0.00    -0.394 OA
ATOM     37  H   UNL     1      16.950 -34.284  -1.096  1.00  0.00     0.210 HD
ENDBRANCH  35  36
ENDBRANCH  29  35
BRANCH  30  38
ATOM     38  O   UNL     1      13.296 -32.796   0.198  1.00  0.00    -0.387 OA
ATOM     39  H   UNL     1      12.657 -33.083   0.896  1.00  0.00     0.211 HD
ENDBRANCH  30  38
ENDBRANCH   1  25
TORSDOF 11
ENDMDL
MODEL 5
REMARK VINA RESULT:    -6.484      1.253      2.072
REMARK INTER + INTRA:         -10.716
REMARK INTER:                  -9.867
REMARK INTRA:                  -0.849
REMARK UNBOUND:                -1.389
REMARK SMILES O=c1c(O[C@H]2O[C@@H](CO)[C@@H](O)[C@H](O)[C@@H]2O)c(-c2ccc(O)cc2)oc2cc(O)cc(O)c12
REMARK SMILES IDX 4 1 3 2 16 3 24 4 2 5 25 6 1 7 32 8 26 9 30 10 27 11 29 12
REMARK SMILES IDX 17 13 18 14 19 15 20 16 23 17 22 18 21 19 31 21 28 23 5 25
REMARK SMILES IDX 14 26 6 27 12 28 7 29 10 30 15 31 13 33 8 35 9 36 11 38
REMARK H PARENT 21 20 31 22 28 24 15 32 13 34 9 37 11 39
REMARK Flexibility Score: inf
ROOT
ATOM      1  O   UNL     1      14.705 -35.495  -2.497  1.00  0.00    -0.454 OA
ENDROOT
BRANCH   1   2
ATOM      2  C   UNL     1      14.029 -36.511  -3.184  1.00  0.00     0.214 A 
ATOM      3  C   UNL     1      14.740 -37.669  -3.531  1.00  0.00     0.180 A 
ATOM      4  O   UNL     1      14.177 -38.602  -4.281  1.00  0.00    -0.452 OA
ATOM      5  C   UNL     1      12.681 -36.402  -3.562  1.00  0.00     0.239 A 
ATOM      6  C   UNL     1      12.919 -38.528  -4.703  1.00  0.00     0.146 A 
ATOM      7  O   UNL     1      12.003 -35.407  -3.182  1.00  0.00    -0.285 OA
ATOM      8  C   UNL     1      12.103 -37.423  -4.344  1.00  0.00     0.111 A 
ATOM      9  C   UNL     1      12.402 -39.563  -5.482  1.00  0.00     0.094 A 
ATOM     10  C   UNL     1      10.754 -37.404  -4.767  1.00  0.00     0.134 A 
ATOM     11  C   UNL     1      11.084 -39.517  -5.933  1.00  0.00     0.123 A 
ATOM     12  C   UNL     1      10.256 -38.451  -5.561  1.00  0.00     0.093 A 
BRANCH   3  13
ATOM     13  C   UNL     1      16.127 -37.836  -3.081  1.00  0.00     0.021 A 
ATOM     14  C   UNL     1      17.136 -37.027  -3.622  1.00  0.00     0.016 A 
ATOM     15  C   UNL     1      18.467 -37.232  -3.261  1.00  0.00     0.047 A 
ATOM     16  C   UNL     1      18.802 -38.240  -2.347  1.00  0.00     0.115 A 
ATOM     17  C   UNL     1      16.464 -38.855  -2.179  1.00  0.00     0.016 A 
ATOM     18  C   UNL     1      17.801 -39.056  -1.813  1.00  0.00     0.047 A 
BRANCH  16  19
ATOM     19  O   UNL     1      20.131 -38.452  -1.990  1.00  0.00    -0.508 OA
ATOM     20  H   UNL     1      20.756 -37.674  -1.845  1.00  0.00     0.293 HD
ENDBRANCH  16  19
ENDBRANCH   3  13
BRANCH  10  21
ATOM     21  O   UNL     1       9.905 -36.351  -4.409  1.00  0.00    -0.507 OA
ATOM     22  H   UNL     1       9.009 -36.213  -4.864  1.00  0.00     0.293 HD
ENDBRANCH  10  21
BRANCH  11  23
ATOM     23  O   UNL     1      10.608 -40.535  -6.755  1.00  0.00    -0.508 OA
ATOM     24  H   UNL     1      11.220 -41.052  -7.375  1.00  0.00     0.293 HD
ENDBRANCH  11  23
ENDBRANCH   1   2
BRANCH   1  25
ATOM     25  C   UNL     1      14.742 -35.337  -1.069  1.00  0.00     0.339 C 
ATOM     26  C   UNL     1      13.753 -36.319  -0.351  1.00  0.00     0.214 C 
ATOM     27  O   UNL     1      14.379 -33.991  -0.820  1.00  0.00    -0.332 OA
ATOM     28  C   UNL     1      13.147 -35.711   0.939  1.00  0.00     0.180 C 
ATOM     29  C   UNL     1      14.450 -33.595   0.554  1.00  0.00     0.179 C 
ATOM     30  C   UNL     1      14.175 -34.750   1.557  1.00  0.00     0.177 C 
BRANCH  26  31
ATOM     31  O   UNL     1      14.408 -37.536  -0.066  1.00  0.00    -0.384 OA
ATOM     32  H   UNL     1      13.893 -38.274  -0.484  1.00  0.00     0.211 HD
ENDBRANCH  26  31
BRANCH  28  33
ATOM     33  O   UNL     1      12.828 -36.739   1.845  1.00  0.00    -0.387 OA
ATOM     34  H   UNL     1      12.021 -37.202   1.497  1.00  0.00     0.211 HD
ENDBRANCH  28  33
BRANCH  29  35
ATOM     35  C   UNL     1      13.550 -32.337   0.714  1.00  0.00     0.191 C 
BRANCH  35  36
ATOM     36  O   UNL     1      14.022 -31.457   1.704  1.00  0.00    -0.394 OA
ATOM     37  H   UNL     1      13.304 -30.781   1.860  1.00  0.00     0.210 HD
ENDBRANCH  35  36
ENDBRANCH  29  35
BRANCH  30  38
ATOM     38  O   UNL     1      13.765 -34.288   2.821  1.00  0.00    -0.387 OA
ATOM     39  H   UNL     1      12.794 -34.118   2.750  1.00  0.00     0.211 HD
ENDBRANCH  30  38
ENDBRANCH   1  25
TORSDOF 11
ENDMDL
MODEL 6
REMARK VINA RESULT:    -6.343      2.112      5.614
REMARK INTER + INTRA:         -10.513
REMARK INTER:                  -9.319
REMARK INTRA:                  -1.193
REMARK UNBOUND:                -1.389
REMARK SMILES O=c1c(O[C@H]2O[C@@H](CO)[C@@H](O)[C@H](O)[C@@H]2O)c(-c2ccc(O)cc2)oc2cc(O)cc(O)c12
REMARK SMILES IDX 4 1 3 2 16 3 24 4 2 5 25 6 1 7 32 8 26 9 30 10 27 11 29 12
REMARK SMILES IDX 17 13 18 14 19 15 20 16 23 17 22 18 21 19 31 21 28 23 5 25
REMARK SMILES IDX 14 26 6 27 12 28 7 29 10 30 15 31 13 33 8 35 9 36 11 38
REMARK H PARENT 21 20 31 22 28 24 15 32 13 34 9 37 11 39
REMARK Flexibility Score: inf
ROOT
ATOM      1  O   UNL     1      12.523 -38.322  -2.702  1.00  0.00    -0.454 OA
ENDROOT
BRANCH   1   2
ATOM      2  C   UNL     1      11.889 -38.739  -3.878  1.00  0.00     0.214 A 
ATOM      3  C   UNL     1      11.032 -37.839  -4.529  1.00  0.00     0.180 A 
ATOM      4  O   UNL     1      10.322 -38.227  -5.576  1.00  0.00    -0.452 OA
ATOM      5  C   UNL     1      12.054 -40.027  -4.413  1.00  0.00     0.239 A 
ATOM      6  C   UNL     1      10.407 -39.448  -6.095  1.00  0.00     0.146 A 
ATOM      7  O   UNL     1      12.887 -40.818  -3.891  1.00  0.00    -0.285 OA
ATOM      8  C   UNL     1      11.298 -40.404  -5.541  1.00  0.00     0.111 A 
ATOM      9  C   UNL     1       9.628 -39.769  -7.207  1.00  0.00     0.094 A 
ATOM     10  C   UNL     1      11.402 -41.675  -6.152  1.00  0.00     0.134 A 
ATOM     11  C   UNL     1       9.703 -41.038  -7.777  1.00  0.00     0.123 A 
ATOM     12  C   UNL     1      10.600 -41.983  -7.265  1.00  0.00     0.093 A 
BRANCH   3  13
ATOM     13  C   UNL     1      10.902 -36.465  -4.032  1.00  0.00     0.021 A 
ATOM     14  C   UNL     1       9.722 -36.067  -3.389  1.00  0.00     0.016 A 
ATOM     15  C   UNL     1       9.556 -34.742  -2.984  1.00  0.00     0.047 A 
ATOM     16  C   UNL     1      10.573 -33.806  -3.208  1.00  0.00     0.115 A 
ATOM     17  C   UNL     1      11.913 -35.523  -4.270  1.00  0.00     0.016 A 
ATOM     18  C   UNL     1      11.748 -34.195  -3.858  1.00  0.00     0.047 A 
BRANCH  16  19
ATOM     19  O   UNL     1      10.409 -32.481  -2.812  1.00  0.00    -0.508 OA
ATOM     20  H   UNL     1      11.176 -31.965  -2.407  1.00  0.00     0.293 HD
ENDBRANCH  16  19
ENDBRANCH   3  13
BRANCH  10  21
ATOM     21  O   UNL     1      12.290 -42.637  -5.661  1.00  0.00    -0.507 OA
ATOM     22  H   UNL     1      12.741 -43.308  -6.274  1.00  0.00     0.293 HD
ENDBRANCH  10  21
BRANCH  11  23
ATOM     23  O   UNL     1       8.875 -41.352  -8.852  1.00  0.00    -0.508 OA
ATOM     24  H   UNL     1       8.485 -42.279  -8.974  1.00  0.00     0.293 HD
ENDBRANCH  11  23
ENDBRANCH   1   2
BRANCH   1  25
ATOM     25  C   UNL     1      13.898 -37.922  -2.594  1.00  0.00     0.339 C 
ATOM     26  C   UNL     1      14.752 -38.986  -1.822  1.00  0.00     0.214 C 
ATOM     27  O   UNL     1      13.889 -36.688  -1.898  1.00  0.00    -0.332 OA
ATOM     28  C   UNL     1      15.893 -38.342  -0.993  1.00  0.00     0.180 C 
ATOM     29  C   UNL     1      15.169 -36.062  -1.770  1.00  0.00     0.179 C 
ATOM     30  C   UNL     1      16.356 -37.063  -1.710  1.00  0.00     0.177 C 
BRANCH  26  31
ATOM     31  O   UNL     1      15.273 -39.933  -2.729  1.00  0.00    -0.384 OA
ATOM     32  H   UNL     1      14.559 -40.173  -3.375  1.00  0.00     0.211 HD
ENDBRANCH  26  31
BRANCH  28  33
ATOM     33  O   UNL     1      16.960 -39.249  -0.866  1.00  0.00    -0.387 OA
ATOM     34  H   UNL     1      17.601 -38.865  -0.212  1.00  0.00     0.211 HD
ENDBRANCH  28  33
BRANCH  29  35
ATOM     35  C   UNL     1      15.073 -35.062  -0.584  1.00  0.00     0.191 C 
BRANCH  35  36
ATOM     36  O   UNL     1      15.343 -35.666   0.657  1.00  0.00    -0.394 OA
ATOM     37  H   UNL     1      16.334 -35.767   0.723  1.00  0.00     0.210 HD
ENDBRANCH  35  36
ENDBRANCH  29  35
BRANCH  30  38
ATOM     38  O   UNL     1      17.504 -36.514  -1.109  1.00  0.00    -0.387 OA
ATOM     39  H   UNL     1      18.268 -36.790  -1.672  1.00  0.00     0.211 HD
ENDBRANCH  30  38
ENDBRANCH   1  25
TORSDOF 11
ENDMDL
MODEL 7
REMARK VINA RESULT:    -6.271      2.416      5.007
REMARK INTER + INTRA:         -10.410
REMARK INTER:                  -9.394
REMARK INTRA:                  -1.016
REMARK UNBOUND:                -1.389
REMARK SMILES O=c1c(O[C@H]2O[C@@H](CO)[C@@H](O)[C@H](O)[C@@H]2O)c(-c2ccc(O)cc2)oc2cc(O)cc(O)c12
REMARK SMILES IDX 4 1 3 2 16 3 24 4 2 5 25 6 1 7 32 8 26 9 30 10 27 11 29 12
REMARK SMILES IDX 17 13 18 14 19 15 20 16 23 17 22 18 21 19 31 21 28 23 5 25
REMARK SMILES IDX 14 26 6 27 12 28 7 29 10 30 15 31 13 33 8 35 9 36 11 38
REMARK H PARENT 21 20 31 22 28 24 15 32 13 34 9 37 11 39
REMARK Flexibility Score: inf
ROOT
ATOM      1  O   UNL     1      12.834 -37.675  -1.518  1.00  0.00    -0.454 OA
ENDROOT
BRANCH   1   2
ATOM      2  C   UNL     1      12.539 -38.434  -2.656  1.00  0.00     0.214 A 
ATOM      3  C   UNL     1      11.750 -37.852  -3.659  1.00  0.00     0.180 A 
ATOM      4  O   UNL     1      11.348 -38.568  -4.696  1.00  0.00    -0.452 OA
ATOM      5  C   UNL     1      12.975 -39.758  -2.818  1.00  0.00     0.239 A 
ATOM      6  C   UNL     1      11.694 -39.839  -4.876  1.00  0.00     0.146 A 
ATOM      7  O   UNL     1      13.757 -40.268  -1.968  1.00  0.00    -0.285 OA
ATOM      8  C   UNL     1      12.545 -40.490  -3.944  1.00  0.00     0.111 A 
ATOM      9  C   UNL     1      11.233 -40.516  -6.004  1.00  0.00     0.094 A 
ATOM     10  C   UNL     1      12.937 -41.826  -4.195  1.00  0.00     0.134 A 
ATOM     11  C   UNL     1      11.586 -41.846  -6.222  1.00  0.00     0.123 A 
ATOM     12  C   UNL     1      12.451 -42.494  -5.332  1.00  0.00     0.093 A 
BRANCH   3  13
ATOM     13  C   UNL     1      11.346 -36.445  -3.547  1.00  0.00     0.021 A 
ATOM     14  C   UNL     1      12.255 -35.433  -3.884  1.00  0.00     0.016 A 
ATOM     15  C   UNL     1      11.911 -34.093  -3.705  1.00  0.00     0.047 A 
ATOM     16  C   UNL     1      10.650 -33.753  -3.198  1.00  0.00     0.115 A 
ATOM     17  C   UNL     1      10.091 -36.104  -3.024  1.00  0.00     0.016 A 
ATOM     18  C   UNL     1       9.744 -34.759  -2.850  1.00  0.00     0.047 A 
BRANCH  16  19
ATOM     19  O   UNL     1      10.305 -32.417  -3.011  1.00  0.00    -0.508 OA
ATOM     20  H   UNL     1      10.709 -31.695  -3.588  1.00  0.00     0.293 HD
ENDBRANCH  16  19
ENDBRANCH   3  13
BRANCH  10  21
ATOM     21  O   UNL     1      13.800 -42.496  -3.322  1.00  0.00    -0.507 OA
ATOM     22  H   UNL     1      14.565 -42.017  -2.859  1.00  0.00     0.293 HD
ENDBRANCH  10  21
BRANCH  11  23
ATOM     23  O   UNL     1      11.068 -42.517  -7.326  1.00  0.00    -0.508 OA
ATOM     24  H   UNL     1      10.305 -42.138  -7.873  1.00  0.00     0.293 HD
ENDBRANCH  11  23
ENDBRANCH   1   2
BRANCH   1  25
ATOM     25  C   UNL     1      14.154 -37.367  -1.042  1.00  0.00     0.339 C 
ATOM     26  C   UNL     1      14.121 -36.726   0.388  1.00  0.00     0.214 C 
ATOM     27  O   UNL     1      14.704 -36.461  -1.982  1.00  0.00    -0.332 OA
ATOM     28  C   UNL     1      15.254 -35.690   0.601  1.00  0.00     0.180 C 
ATOM     29  C   UNL     1      16.068 -36.101  -1.743  1.00  0.00     0.179 C 
ATOM     30  C   UNL     1      16.468 -36.114  -0.242  1.00  0.00     0.177 C 
BRANCH  26  31
ATOM     31  O   UNL     1      14.184 -37.738   1.370  1.00  0.00    -0.384 OA
ATOM     32  H   UNL     1      14.369 -37.312   2.247  1.00  0.00     0.211 HD
ENDBRANCH  26  31
BRANCH  28  33
ATOM     33  O   UNL     1      15.597 -35.632   1.964  1.00  0.00    -0.387 OA
ATOM     34  H   UNL     1      15.275 -36.471   2.387  1.00  0.00     0.211 HD
ENDBRANCH  28  33
BRANCH  29  35
ATOM     35  C   UNL     1      16.327 -34.766  -2.497  1.00  0.00     0.191 C 
BRANCH  35  36
ATOM     36  O   UNL     1      17.645 -34.662  -2.975  1.00  0.00    -0.394 OA
ATOM     37  H   UNL     1      18.220 -35.206  -2.366  1.00  0.00     0.210 HD
ENDBRANCH  35  36
ENDBRANCH  29  35
BRANCH  30  38
ATOM     38  O   UNL     1      17.596 -35.317   0.029  1.00  0.00    -0.387 OA
ATOM     39  H   UNL     1      17.495 -34.502  -0.521  1.00  0.00     0.211 HD
ENDBRANCH  30  38
ENDBRANCH   1  25
TORSDOF 11
ENDMDL
MODEL 8
REMARK VINA RESULT:    -6.223      2.154      8.046
REMARK INTER + INTRA:         -10.341
REMARK INTER:                  -8.957
REMARK INTRA:                  -1.384
REMARK UNBOUND:                -1.389
REMARK SMILES O=c1c(O[C@H]2O[C@@H](CO)[C@@H](O)[C@H](O)[C@@H]2O)c(-c2ccc(O)cc2)oc2cc(O)cc(O)c12
REMARK SMILES IDX 4 1 3 2 16 3 24 4 2 5 25 6 1 7 32 8 26 9 30 10 27 11 29 12
REMARK SMILES IDX 17 13 18 14 19 15 20 16 23 17 22 18 21 19 31 21 28 23 5 25
REMARK SMILES IDX 14 26 6 27 12 28 7 29 10 30 15 31 13 33 8 35 9 36 11 38
REMARK H PARENT 21 20 31 22 28 24 15 32 13 34 9 37 11 39
REMARK Flexibility Score: inf
ROOT
ATOM      1  O   UNL     1      13.974 -37.291  -3.327  1.00  0.00    -0.454 OA
ENDROOT
BRANCH   1   2
ATOM      2  C   UNL     1      14.651 -37.072  -2.121  1.00  0.00     0.214 A 
ATOM      3  C   UNL     1      14.318 -35.938  -1.366  1.00  0.00     0.180 A 
ATOM      4  O   UNL     1      15.010 -35.628  -0.282  1.00  0.00    -0.452 OA
ATOM      5  C   UNL     1      15.666 -37.924  -1.657  1.00  0.00     0.239 A 
ATOM      6  C   UNL     1      16.009 -36.375   0.177  1.00  0.00     0.146 A 
ATOM      7  O   UNL     1      15.918 -38.993  -2.278  1.00  0.00    -0.285 OA
ATOM      8  C   UNL     1      16.372 -37.576  -0.487  1.00  0.00     0.111 A 
ATOM      9  C   UNL     1      16.679 -35.978   1.334  1.00  0.00     0.094 A 
ATOM     10  C   UNL     1      17.404 -38.374   0.059  1.00  0.00     0.134 A 
ATOM     11  C   UNL     1      17.724 -36.746   1.843  1.00  0.00     0.123 A 
ATOM     12  C   UNL     1      18.074 -37.950   1.220  1.00  0.00     0.093 A 
BRANCH   3  13
ATOM     13  C   UNL     1      13.210 -35.076  -1.793  1.00  0.00     0.021 A 
ATOM     14  C   UNL     1      13.476 -33.927  -2.550  1.00  0.00     0.016 A 
ATOM     15  C   UNL     1      12.440 -33.058  -2.893  1.00  0.00     0.047 A 
ATOM     16  C   UNL     1      11.127 -33.335  -2.491  1.00  0.00     0.115 A 
ATOM     17  C   UNL     1      11.898 -35.344  -1.378  1.00  0.00     0.016 A 
ATOM     18  C   UNL     1      10.858 -34.474  -1.727  1.00  0.00     0.047 A 
BRANCH  16  19
ATOM     19  O   UNL     1      10.091 -32.466  -2.825  1.00  0.00    -0.508 OA
ATOM     20  H   UNL     1       9.791 -31.751  -2.180  1.00  0.00     0.293 HD
ENDBRANCH  16  19
ENDBRANCH   3  13
BRANCH  10  21
ATOM     21  O   UNL     1      17.773 -39.581  -0.543  1.00  0.00    -0.507 OA
ATOM     22  H   UNL     1      18.744 -39.806  -0.731  1.00  0.00     0.293 HD
ENDBRANCH  10  21
BRANCH  11  23
ATOM     23  O   UNL     1      18.413 -36.300   2.967  1.00  0.00    -0.508 OA
ATOM     24  H   UNL     1      19.400 -36.074   2.935  1.00  0.00     0.293 HD
ENDBRANCH  11  23
ENDBRANCH   1   2
BRANCH   1  25
ATOM     25  C   UNL     1      12.897 -38.222  -3.521  1.00  0.00     0.339 C 
ATOM     26  C   UNL     1      13.263 -39.319  -4.580  1.00  0.00     0.214 C 
ATOM     27  O   UNL     1      11.793 -37.452  -3.960  1.00  0.00    -0.332 OA
ATOM     28  C   UNL     1      12.032 -39.783  -5.400  1.00  0.00     0.180 C 
ATOM     29  C   UNL     1      10.575 -38.185  -4.118  1.00  0.00     0.179 C 
ATOM     30  C   UNL     1      10.782 -39.673  -4.512  1.00  0.00     0.177 C 
BRANCH  26  31
ATOM     31  O   UNL     1      13.876 -40.417  -3.941  1.00  0.00    -0.384 OA
ATOM     32  H   UNL     1      13.793 -41.210  -4.533  1.00  0.00     0.211 HD
ENDBRANCH  26  31
BRANCH  28  33
ATOM     33  O   UNL     1      12.218 -41.111  -5.826  1.00  0.00    -0.387 OA
ATOM     34  H   UNL     1      11.956 -41.155  -6.783  1.00  0.00     0.211 HD
ENDBRANCH  28  33
BRANCH  29  35
ATOM     35  C   UNL     1       9.664 -37.359  -5.070  1.00  0.00     0.191 C 
BRANCH  35  36
ATOM     36  O   UNL     1       9.431 -36.054  -4.599  1.00  0.00    -0.394 OA
ATOM     37  H   UNL     1       8.529 -35.781  -4.929  1.00  0.00     0.210 HD
ENDBRANCH  35  36
ENDBRANCH  29  35
BRANCH  30  38
ATOM     38  O   UNL     1       9.651 -40.238  -5.130  1.00  0.00    -0.387 OA
ATOM     39  H   UNL     1       9.268 -39.529  -5.703  1.00  0.00     0.211 HD
ENDBRANCH  30  38
ENDBRANCH   1  25
TORSDOF 11
ENDMDL
MODEL 9
REMARK VINA RESULT:    -5.525      2.268      7.829
REMARK INTER + INTRA:          -9.336
REMARK INTER:                  -7.995
REMARK INTRA:                  -1.342
REMARK UNBOUND:                -1.389
REMARK SMILES O=c1c(O[C@H]2O[C@@H](CO)[C@@H](O)[C@H](O)[C@@H]2O)c(-c2ccc(O)cc2)oc2cc(O)cc(O)c12
REMARK SMILES IDX 4 1 3 2 16 3 24 4 2 5 25 6 1 7 32 8 26 9 30 10 27 11 29 12
REMARK SMILES IDX 17 13 18 14 19 15 20 16 23 17 22 18 21 19 31 21 28 23 5 25
REMARK SMILES IDX 14 26 6 27 12 28 7 29 10 30 15 31 13 33 8 35 9 36 11 38
REMARK H PARENT 21 20 31 22 28 24 15 32 13 34 9 37 11 39
REMARK Flexibility Score: inf
ROOT
ATOM      1  O   UNL     1      14.519 -37.765  -3.719  1.00  0.00    -0.454 OA
ENDROOT
BRANCH   1   2
ATOM      2  C   UNL     1      15.003 -37.510  -2.430  1.00  0.00     0.214 A 
ATOM      3  C   UNL     1      14.434 -36.456  -1.700  1.00  0.00     0.180 A 
ATOM      4  O   UNL     1      14.936 -36.104  -0.528  1.00  0.00    -0.452 OA
ATOM      5  C   UNL     1      16.051 -38.247  -1.855  1.00  0.00     0.239 A 
ATOM      6  C   UNL     1      15.956 -36.739   0.042  1.00  0.00     0.146 A 
ATOM      7  O   UNL     1      16.514 -39.253  -2.460  1.00  0.00    -0.285 OA
ATOM      8  C   UNL     1      16.552 -37.859  -0.595  1.00  0.00     0.111 A 
ATOM      9  C   UNL     1      16.416 -36.307   1.285  1.00  0.00     0.094 A 
ATOM     10  C   UNL     1      17.599 -38.544   0.065  1.00  0.00     0.134 A 
ATOM     11  C   UNL     1      17.478 -36.958   1.910  1.00  0.00     0.123 A 
ATOM     12  C   UNL     1      18.056 -38.084   1.313  1.00  0.00     0.093 A 
BRANCH   3  13
ATOM     13  C   UNL     1      13.289 -35.722  -2.250  1.00  0.00     0.021 A 
ATOM     14  C   UNL     1      11.986 -36.158  -1.972  1.00  0.00     0.016 A 
ATOM     15  C   UNL     1      10.893 -35.516  -2.554  1.00  0.00     0.047 A 
ATOM     16  C   UNL     1      11.091 -34.426  -3.411  1.00  0.00     0.115 A 
ATOM     17  C   UNL     1      13.487 -34.640  -3.120  1.00  0.00     0.016 A 
ATOM     18  C   UNL     1      12.389 -33.994  -3.698  1.00  0.00     0.047 A 
BRANCH  16  19
ATOM     19  O   UNL     1      10.003 -33.787  -3.999  1.00  0.00    -0.508 OA
ATOM     20  H   UNL     1      10.141 -33.030  -4.652  1.00  0.00     0.293 HD
ENDBRANCH  16  19
ENDBRANCH   3  13
BRANCH  10  21
ATOM     21  O   UNL     1      18.193 -39.672  -0.510  1.00  0.00    -0.507 OA
ATOM     22  H   UNL     1      18.763 -40.309   0.036  1.00  0.00     0.293 HD
ENDBRANCH  10  21
BRANCH  11  23
ATOM     23  O   UNL     1      17.955 -36.473   3.125  1.00  0.00    -0.508 OA
ATOM     24  H   UNL     1      18.655 -36.971   3.662  1.00  0.00     0.293 HD
ENDBRANCH  11  23
ENDBRANCH   1   2
BRANCH   1  25
ATOM     25  C   UNL     1      13.584 -38.798  -4.068  1.00  0.00     0.339 C 
ATOM     26  C   UNL     1      12.375 -38.232  -4.890  1.00  0.00     0.214 C 
ATOM     27  O   UNL     1      13.139 -39.348  -2.841  1.00  0.00    -0.332 OA
ATOM     28  C   UNL     1      11.054 -38.989  -4.600  1.00  0.00     0.180 C 
ATOM     29  C   UNL     1      12.264 -40.473  -2.970  1.00  0.00     0.179 C 
ATOM     30  C   UNL     1      11.392 -40.449  -4.255  1.00  0.00     0.177 C 
BRANCH  26  31
ATOM     31  O   UNL     1      12.674 -38.267  -6.269  1.00  0.00    -0.384 OA
ATOM     32  H   UNL     1      13.636 -38.054  -6.386  1.00  0.00     0.211 HD
ENDBRANCH  26  31
BRANCH  28  33
ATOM     33  O   UNL     1      10.214 -38.931  -5.726  1.00  0.00    -0.387 OA
ATOM     34  H   UNL     1      10.043 -37.972  -5.920  1.00  0.00     0.211 HD
ENDBRANCH  28  33
BRANCH  29  35
ATOM     35  C   UNL     1      11.484 -40.602  -1.631  1.00  0.00     0.191 C 
BRANCH  35  36
ATOM     36  O   UNL     1      10.821 -41.836  -1.507  1.00  0.00    -0.394 OA
ATOM     37  H   UNL     1      11.373 -42.513  -1.993  1.00  0.00     0.210 HD
ENDBRANCH  35  36
ENDBRANCH  29  35
BRANCH  30  38
ATOM     38  O   UNL     1      10.235 -41.242  -4.146  1.00  0.00    -0.387 OA
ATOM     39  H   UNL     1       9.500 -40.623  -3.913  1.00  0.00     0.211 HD
ENDBRANCH  30  38
ENDBRANCH   1  25
TORSDOF 11
ENDMDL
