MODEL 1
REMARK VINA RESULT:    -4.865      0.000      0.000
REMARK INTER + INTRA:          -5.247
REMARK INTER:                  -5.149
REMARK INTRA:                  -0.098
REMARK UNBOUND:                -0.098
REMARK SMILES C=C(C)[C@@H]1CC=C(C)C(=O)C1
REMARK SMILES IDX 8 1 7 2 6 3 5 4 4 5 11 6 9 7 10 8 2 9 1 10 3 11
REMARK H PARENT
REMARK Flexibility Score: inf
ROOT
ATOM      1  C   UNL     1     -57.518 -72.563 214.230  1.00  0.00     0.048 C 
ATOM      2  C   UNL     1     -57.626 -73.798 215.083  1.00  0.00    -0.012 C 
ATOM      3  C   UNL     1     -57.250 -74.989 214.586  1.00  0.00    -0.019 C 
ATOM      4  C   UNL     1     -57.321 -76.252 215.402  1.00  0.00     0.036 C 
ATOM      5  C   UNL     1     -58.502 -76.209 216.391  1.00  0.00     0.025 C 
ATOM      6  C   UNL     1     -58.414 -74.949 217.272  1.00  0.00     0.089 C 
ATOM      7  C   UNL     1     -58.262 -73.718 216.422  1.00  0.00     0.158 C 
ATOM      8  O   UNL     1     -58.648 -72.608 216.875  1.00  0.00    -0.295 OA
ENDROOT
BRANCH   5   9
ATOM      9  C   UNL     1     -58.580 -77.478 217.229  1.00  0.00    -0.077 C 
ATOM     10  C   UNL     1     -59.340 -77.538 218.338  1.00  0.00     0.008 C 
ATOM     11  C   UNL     1     -57.797 -78.700 216.826  1.00  0.00     0.039 C 
ENDBRANCH   5   9
TORSDOF 1
ENDMDL
MODEL 2
REMARK VINA RESULT:    -4.756     13.337     13.961
REMARK INTER + INTRA:          -5.131
REMARK INTER:                  -5.035
REMARK INTRA:                  -0.096
REMARK UNBOUND:                -0.098
REMARK SMILES C=C(C)[C@@H]1CC=C(C)C(=O)C1
REMARK SMILES IDX 8 1 7 2 6 3 5 4 4 5 11 6 9 7 10 8 2 9 1 10 3 11
REMARK H PARENT
REMARK Flexibility Score: inf
ROOT
ATOM      1  C   UNL     1     -74.941 -72.884 215.379  1.00  0.00     0.048 C 
ATOM      2  C   UNL     1     -73.585 -73.492 215.144  1.00  0.00    -0.012 C 
ATOM      3  C   UNL     1     -73.469 -74.819 214.966  1.00  0.00    -0.019 C 
ATOM      4  C   UNL     1     -72.140 -75.477 214.710  1.00  0.00     0.036 C 
ATOM      5  C   UNL     1     -71.002 -74.732 215.436  1.00  0.00     0.025 C 
ATOM      6  C   UNL     1     -71.003 -73.243 215.040  1.00  0.00     0.089 C 
ATOM      7  C   UNL     1     -72.369 -72.645 215.234  1.00  0.00     0.158 C 
ATOM      8  O   UNL     1     -72.474 -71.406 215.436  1.00  0.00    -0.295 OA
ENDROOT
BRANCH   5   9
ATOM      9  C   UNL     1     -69.650 -75.381 215.178  1.00  0.00    -0.077 C 
ATOM     10  C   UNL     1     -68.516 -74.860 215.681  1.00  0.00     0.008 C 
ATOM     11  C   UNL     1     -69.559 -76.633 214.344  1.00  0.00     0.039 C 
ENDBRANCH   5   9
TORSDOF 1
ENDMDL
MODEL 3
REMARK VINA RESULT:    -4.703      5.019      7.080
REMARK INTER + INTRA:          -5.076
REMARK INTER:                  -4.987
REMARK INTRA:                  -0.089
REMARK UNBOUND:                -0.098
REMARK SMILES C=C(C)[C@@H]1CC=C(C)C(=O)C1
REMARK SMILES IDX 8 1 7 2 6 3 5 4 4 5 11 6 9 7 10 8 2 9 1 10 3 11
REMARK H PARENT
REMARK Flexibility Score: inf
ROOT
ATOM      1  C   UNL     1     -59.131 -78.291 218.983  1.00  0.00     0.048 C 
ATOM      2  C   UNL     1     -60.336 -77.800 219.736  1.00  0.00    -0.012 C 
ATOM      3  C   UNL     1     -61.226 -76.998 219.126  1.00  0.00    -0.019 C 
ATOM      4  C   UNL     1     -62.458 -76.493 219.828  1.00  0.00     0.036 C 
ATOM      5  C   UNL     1     -62.194 -76.285 221.332  1.00  0.00     0.025 C 
ATOM      6  C   UNL     1     -61.654 -77.582 221.963  1.00  0.00     0.089 C 
ATOM      7  C   UNL     1     -60.475 -78.098 221.185  1.00  0.00     0.158 C 
ATOM      8  O   UNL     1     -59.622 -78.819 221.768  1.00  0.00    -0.295 OA
ENDROOT
BRANCH   5   9
ATOM      9  C   UNL     1     -63.435 -75.782 222.057  1.00  0.00    -0.077 C 
ATOM     10  C   UNL     1     -63.598 -74.477 222.343  1.00  0.00     0.008 C 
ATOM     11  C   UNL     1     -64.513 -76.749 222.471  1.00  0.00     0.039 C 
ENDBRANCH   5   9
TORSDOF 1
ENDMDL
MODEL 4
REMARK VINA RESULT:    -4.624      6.578      9.389
REMARK INTER + INTRA:          -4.992
REMARK INTER:                  -4.894
REMARK INTRA:                  -0.098
REMARK UNBOUND:                -0.098
REMARK SMILES C=C(C)[C@@H]1CC=C(C)C(=O)C1
REMARK SMILES IDX 8 1 7 2 6 3 5 4 4 5 11 6 9 7 10 8 2 9 1 10 3 11
REMARK H PARENT
REMARK Flexibility Score: inf
ROOT
ATOM      1  C   UNL     1     -62.294 -79.258 226.225  1.00  0.00     0.048 C 
ATOM      2  C   UNL     1     -62.330 -78.741 224.813  1.00  0.00    -0.012 C 
ATOM      3  C   UNL     1     -61.252 -78.877 224.023  1.00  0.00    -0.019 C 
ATOM      4  C   UNL     1     -61.241 -78.393 222.597  1.00  0.00     0.036 C 
ATOM      5  C   UNL     1     -62.120 -77.139 222.429  1.00  0.00     0.025 C 
ATOM      6  C   UNL     1     -63.547 -77.414 222.942  1.00  0.00     0.089 C 
ATOM      7  C   UNL     1     -63.509 -77.972 224.338  1.00  0.00     0.158 C 
ATOM      8  O   UNL     1     -64.507 -77.813 225.090  1.00  0.00    -0.295 OA
ENDROOT
BRANCH   5   9
ATOM      9  C   UNL     1     -62.126 -76.644 220.989  1.00  0.00    -0.077 C 
ATOM     10  C   UNL     1     -63.139 -75.900 220.509  1.00  0.00     0.008 C 
ATOM     11  C   UNL     1     -60.984 -76.985 220.068  1.00  0.00     0.039 C 
ENDBRANCH   5   9
TORSDOF 1
ENDMDL
MODEL 5
REMARK VINA RESULT:    -4.617      6.637      9.510
REMARK INTER + INTRA:          -4.984
REMARK INTER:                  -4.889
REMARK INTRA:                  -0.096
REMARK UNBOUND:                -0.098
REMARK SMILES C=C(C)[C@@H]1CC=C(C)C(=O)C1
REMARK SMILES IDX 8 1 7 2 6 3 5 4 4 5 11 6 9 7 10 8 2 9 1 10 3 11
REMARK H PARENT
REMARK Flexibility Score: inf
ROOT
ATOM      1  C   UNL     1     -62.572 -79.272 226.267  1.00  0.00     0.048 C 
ATOM      2  C   UNL     1     -62.509 -78.774 224.849  1.00  0.00    -0.012 C 
ATOM      3  C   UNL     1     -61.374 -78.906 224.142  1.00  0.00    -0.019 C 
ATOM      4  C   UNL     1     -61.263 -78.442 222.715  1.00  0.00     0.036 C 
ATOM      5  C   UNL     1     -62.141 -77.201 222.464  1.00  0.00     0.025 C 
ATOM      6  C   UNL     1     -63.598 -77.487 222.873  1.00  0.00     0.089 C 
ATOM      7  C   UNL     1     -63.658 -78.026 224.276  1.00  0.00     0.158 C 
ATOM      8  O   UNL     1     -64.711 -77.869 224.950  1.00  0.00    -0.295 OA
ENDROOT
BRANCH   5   9
ATOM      9  C   UNL     1     -62.045 -76.725 221.021  1.00  0.00    -0.077 C 
ATOM     10  C   UNL     1     -60.982 -77.027 220.254  1.00  0.00     0.008 C 
ATOM     11  C   UNL     1     -63.153 -75.898 220.423  1.00  0.00     0.039 C 
ENDBRANCH   5   9
TORSDOF 1
ENDMDL
MODEL 6
REMARK VINA RESULT:    -4.526      6.968      9.352
REMARK INTER + INTRA:          -4.888
REMARK INTER:                  -4.791
REMARK INTRA:                  -0.097
REMARK UNBOUND:                -0.098
REMARK SMILES C=C(C)[C@@H]1CC=C(C)C(=O)C1
REMARK SMILES IDX 8 1 7 2 6 3 5 4 4 5 11 6 9 7 10 8 2 9 1 10 3 11
REMARK H PARENT
REMARK Flexibility Score: inf
ROOT
ATOM      1  C   UNL     1     -63.120 -76.077 220.307  1.00  0.00     0.048 C 
ATOM      2  C   UNL     1     -63.218 -76.896 221.565  1.00  0.00    -0.012 C 
ATOM      3  C   UNL     1     -64.416 -77.095 222.142  1.00  0.00    -0.019 C 
ATOM      4  C   UNL     1     -64.573 -77.921 223.391  1.00  0.00     0.036 C 
ATOM      5  C   UNL     1     -63.334 -77.797 224.298  1.00  0.00     0.025 C 
ATOM      6  C   UNL     1     -62.059 -78.162 223.514  1.00  0.00     0.089 C 
ATOM      7  C   UNL     1     -61.982 -77.375 222.234  1.00  0.00     0.158 C 
ATOM      8  O   UNL     1     -60.855 -77.158 221.715  1.00  0.00    -0.295 OA
ENDROOT
BRANCH   5   9
ATOM      9  C   UNL     1     -63.475 -78.634 225.562  1.00  0.00    -0.077 C 
ATOM     10  C   UNL     1     -62.424 -79.289 226.089  1.00  0.00     0.008 C 
ATOM     11  C   UNL     1     -64.811 -78.746 226.249  1.00  0.00     0.039 C 
ENDBRANCH   5   9
TORSDOF 1
ENDMDL
MODEL 7
REMARK VINA RESULT:    -4.525      1.596      2.404
REMARK INTER + INTRA:          -4.887
REMARK INTER:                  -4.792
REMARK INTRA:                  -0.095
REMARK UNBOUND:                -0.098
REMARK SMILES C=C(C)[C@@H]1CC=C(C)C(=O)C1
REMARK SMILES IDX 8 1 7 2 6 3 5 4 4 5 11 6 9 7 10 8 2 9 1 10 3 11
REMARK H PARENT
REMARK Flexibility Score: inf
ROOT
ATOM      1  C   UNL     1     -57.389 -72.913 214.435  1.00  0.00     0.048 C 
ATOM      2  C   UNL     1     -57.911 -74.054 215.264  1.00  0.00    -0.012 C 
ATOM      3  C   UNL     1     -58.587 -73.803 216.399  1.00  0.00    -0.019 C 
ATOM      4  C   UNL     1     -59.146 -74.907 217.256  1.00  0.00     0.036 C 
ATOM      5  C   UNL     1     -58.254 -76.163 217.196  1.00  0.00     0.025 C 
ATOM      6  C   UNL     1     -58.052 -76.604 215.734  1.00  0.00     0.089 C 
ATOM      7  C   UNL     1     -57.572 -75.452 214.895  1.00  0.00     0.158 C 
ATOM      8  O   UNL     1     -56.908 -75.689 213.851  1.00  0.00    -0.295 OA
ENDROOT
BRANCH   5   9
ATOM      9  C   UNL     1     -58.813 -77.291 218.052  1.00  0.00    -0.077 C 
ATOM     10  C   UNL     1     -58.153 -78.455 218.193  1.00  0.00     0.008 C 
ATOM     11  C   UNL     1     -60.130 -77.120 218.763  1.00  0.00     0.039 C 
ENDBRANCH   5   9
TORSDOF 1
ENDMDL
MODEL 8
REMARK VINA RESULT:    -4.421      6.950      9.359
REMARK INTER + INTRA:          -4.778
REMARK INTER:                  -4.685
REMARK INTRA:                  -0.092
REMARK UNBOUND:                -0.098
REMARK SMILES C=C(C)[C@@H]1CC=C(C)C(=O)C1
REMARK SMILES IDX 8 1 7 2 6 3 5 4 4 5 11 6 9 7 10 8 2 9 1 10 3 11
REMARK H PARENT
REMARK Flexibility Score: inf
ROOT
ATOM      1  C   UNL     1     -61.859 -80.234 225.132  1.00  0.00     0.048 C 
ATOM      2  C   UNL     1     -62.135 -79.055 224.239  1.00  0.00    -0.012 C 
ATOM      3  C   UNL     1     -63.357 -78.496 224.227  1.00  0.00    -0.019 C 
ATOM      4  C   UNL     1     -63.681 -77.304 223.367  1.00  0.00     0.036 C 
ATOM      5  C   UNL     1     -62.873 -77.331 222.054  1.00  0.00     0.025 C 
ATOM      6  C   UNL     1     -61.367 -77.440 222.357  1.00  0.00     0.089 C 
ATOM      7  C   UNL     1     -61.095 -78.592 223.284  1.00  0.00     0.158 C 
ATOM      8  O   UNL     1     -59.961 -79.139 223.269  1.00  0.00    -0.295 OA
ENDROOT
BRANCH   5   9
ATOM      9  C   UNL     1     -63.184 -76.125 221.177  1.00  0.00    -0.077 C 
ATOM     10  C   UNL     1     -63.109 -76.197 219.836  1.00  0.00     0.008 C 
ATOM     11  C   UNL     1     -63.586 -74.817 221.806  1.00  0.00     0.039 C 
ENDBRANCH   5   9
TORSDOF 1
ENDMDL
MODEL 9
REMARK VINA RESULT:    -4.411      7.260      8.914
REMARK INTER + INTRA:          -4.767
REMARK INTER:                  -4.671
REMARK INTRA:                  -0.096
REMARK UNBOUND:                -0.098
REMARK SMILES C=C(C)[C@@H]1CC=C(C)C(=O)C1
REMARK SMILES IDX 8 1 7 2 6 3 5 4 4 5 11 6 9 7 10 8 2 9 1 10 3 11
REMARK H PARENT
REMARK Flexibility Score: inf
ROOT
ATOM      1  C   UNL     1     -63.144 -75.801 220.585  1.00  0.00     0.048 C 
ATOM      2  C   UNL     1     -62.817 -76.618 221.804  1.00  0.00    -0.012 C 
ATOM      3  C   UNL     1     -61.596 -77.165 221.936  1.00  0.00    -0.019 C 
ATOM      4  C   UNL     1     -61.211 -77.976 223.144  1.00  0.00     0.036 C 
ATOM      5  C   UNL     1     -62.423 -78.743 223.708  1.00  0.00     0.025 C 
ATOM      6  C   UNL     1     -63.580 -77.770 224.003  1.00  0.00     0.089 C 
ATOM      7  C   UNL     1     -63.879 -76.922 222.797  1.00  0.00     0.158 C 
ATOM      8  O   UNL     1     -65.034 -76.440 222.657  1.00  0.00    -0.295 OA
ENDROOT
BRANCH   5   9
ATOM      9  C   UNL     1     -62.049 -79.561 224.936  1.00  0.00    -0.077 C 
ATOM     10  C   UNL     1     -62.437 -79.189 226.170  1.00  0.00     0.008 C 
ATOM     11  C   UNL     1     -61.227 -80.815 224.788  1.00  0.00     0.039 C 
ENDBRANCH   5   9
TORSDOF 1
ENDMDL
