MODEL 1
REMARK VINA RESULT:    -2.844      0.000      0.000
REMARK INTER + INTRA:          -2.844
REMARK INTER:                  -2.844
REMARK INTRA:                   0.000
REMARK UNBOUND:                 0.000
REMARK SMILES CC(=O)[O-]
REMARK SMILES IDX 1 1 2 2 3 3 4 4
REMARK H PARENT
REMARK Flexibility Score: inf
ROOT
ATOM      1  C   UNL     1      10.022  -0.521  -9.914  1.00  0.00     0.063 C 
ATOM      2  C   UNL     1       9.348   0.798  -9.743  1.00  0.00     0.038 C 
ATOM      3  O   UNL     1       8.692   1.040  -8.698  1.00  0.00    -0.550 OA
ATOM      4  O   UNL     1       9.397   1.741 -10.761  1.00  0.00    -0.550 OA
ENDROOT
TORSDOF 0
ENDMDL
MODEL 2
REMARK VINA RESULT:    -2.790      1.330      1.909
REMARK INTER + INTRA:          -2.790
REMARK INTER:                  -2.790
REMARK INTRA:                   0.000
REMARK UNBOUND:                 0.000
REMARK SMILES CC(=O)[O-]
REMARK SMILES IDX 1 1 2 2 3 3 4 4
REMARK H PARENT
REMARK Flexibility Score: inf
ROOT
ATOM      1  C   UNL     1       9.112   0.861  -8.507  1.00  0.00     0.063 C 
ATOM      2  C   UNL     1       9.452   0.798  -9.957  1.00  0.00     0.038 C 
ATOM      3  O   UNL     1       9.324   1.820 -10.680  1.00  0.00    -0.550 OA
ATOM      4  O   UNL     1       9.858  -0.402 -10.526  1.00  0.00    -0.550 OA
ENDROOT
TORSDOF 0
ENDMDL
MODEL 3
REMARK VINA RESULT:    -2.672     22.065     22.647
REMARK INTER + INTRA:          -2.672
REMARK INTER:                  -2.672
REMARK INTRA:                   0.000
REMARK UNBOUND:                 0.000
REMARK SMILES CC(=O)[O-]
REMARK SMILES IDX 1 1 2 2 3 3 4 4
REMARK H PARENT
REMARK Flexibility Score: inf
ROOT
ATOM      1  C   UNL     1      -5.588  -0.385   6.181  1.00  0.00     0.063 C 
ATOM      2  C   UNL     1      -5.697   0.813   7.062  1.00  0.00     0.038 C 
ATOM      3  O   UNL     1      -4.660   1.426   7.424  1.00  0.00    -0.550 OA
ATOM      4  O   UNL     1      -6.939   1.223   7.528  1.00  0.00    -0.550 OA
ENDROOT
TORSDOF 0
ENDMDL
MODEL 4
REMARK VINA RESULT:    -2.658      1.442      1.959
REMARK INTER + INTRA:          -2.658
REMARK INTER:                  -2.658
REMARK INTRA:                   0.000
REMARK UNBOUND:                 0.000
REMARK SMILES CC(=O)[O-]
REMARK SMILES IDX 1 1 2 2 3 3 4 4
REMARK H PARENT
REMARK Flexibility Score: inf
ROOT
ATOM      1  C   UNL     1      10.039  -0.392 -10.237  1.00  0.00     0.063 C 
ATOM      2  C   UNL     1       9.174  -0.101  -9.058  1.00  0.00     0.038 C 
ATOM      3  O   UNL     1       9.363   0.941  -8.378  1.00  0.00    -0.550 OA
ATOM      4  O   UNL     1       8.194  -1.007  -8.673  1.00  0.00    -0.550 OA
ENDROOT
TORSDOF 0
ENDMDL
MODEL 5
REMARK VINA RESULT:    -2.642     22.038     22.599
REMARK INTER + INTRA:          -2.642
REMARK INTER:                  -2.642
REMARK INTRA:                   0.000
REMARK UNBOUND:                 0.000
REMARK SMILES CC(=O)[O-]
REMARK SMILES IDX 1 1 2 2 3 3 4 4
REMARK H PARENT
REMARK Flexibility Score: inf
ROOT
ATOM      1  C   UNL     1      -5.632  -0.340   6.231  1.00  0.00     0.063 C 
ATOM      2  C   UNL     1      -5.724   0.886   7.075  1.00  0.00     0.038 C 
ATOM      3  O   UNL     1      -6.838   1.262   7.522  1.00  0.00    -0.550 OA
ATOM      4  O   UNL     1      -4.589   1.646   7.324  1.00  0.00    -0.550 OA
ENDROOT
TORSDOF 0
ENDMDL
MODEL 6
REMARK VINA RESULT:    -2.399     20.245     20.834
REMARK INTER + INTRA:          -2.399
REMARK INTER:                  -2.399
REMARK INTRA:                   0.000
REMARK UNBOUND:                 0.000
REMARK SMILES CC(=O)[O-]
REMARK SMILES IDX 1 1 2 2 3 3 4 4
REMARK H PARENT
REMARK Flexibility Score: inf
ROOT
ATOM      1  C   UNL     1      -2.136  -9.554   2.506  1.00  0.00     0.063 C 
ATOM      2  C   UNL     1      -2.523  -9.347   3.931  1.00  0.00     0.038 C 
ATOM      3  O   UNL     1      -2.253  -8.261   4.507  1.00  0.00    -0.550 OA
ATOM      4  O   UNL     1      -3.132 -10.372   4.643  1.00  0.00    -0.550 OA
ENDROOT
TORSDOF 0
ENDMDL
MODEL 7
REMARK VINA RESULT:    -2.259     20.000     20.421
REMARK INTER + INTRA:          -2.259
REMARK INTER:                  -2.259
REMARK INTRA:                   0.000
REMARK UNBOUND:                 0.000
REMARK SMILES CC(=O)[O-]
REMARK SMILES IDX 1 1 2 2 3 3 4 4
REMARK H PARENT
REMARK Flexibility Score: inf
ROOT
ATOM      1  C   UNL     1      -4.643  -3.572   4.802  1.00  0.00     0.063 C 
ATOM      2  C   UNL     1      -3.611  -2.793   5.544  1.00  0.00     0.038 C 
ATOM      3  O   UNL     1      -3.954  -1.830   6.278  1.00  0.00    -0.550 OA
ATOM      4  O   UNL     1      -2.265  -3.093   5.385  1.00  0.00    -0.550 OA
ENDROOT
TORSDOF 0
ENDMDL
MODEL 8
REMARK VINA RESULT:    -2.197     20.072     20.319
REMARK INTER + INTRA:          -2.197
REMARK INTER:                  -2.197
REMARK INTRA:                   0.000
REMARK UNBOUND:                 0.000
REMARK SMILES CC(=O)[O-]
REMARK SMILES IDX 1 1 2 2 3 3 4 4
REMARK H PARENT
REMARK Flexibility Score: inf
ROOT
ATOM      1  C   UNL     1      -2.138  -3.129   6.218  1.00  0.00     0.063 C 
ATOM      2  C   UNL     1      -3.434  -2.827   5.545  1.00  0.00     0.038 C 
ATOM      3  O   UNL     1      -4.136  -1.858   5.934  1.00  0.00    -0.550 OA
ATOM      4  O   UNL     1      -3.895  -3.646   4.523  1.00  0.00    -0.550 OA
ENDROOT
TORSDOF 0
ENDMDL
