MODEL 1
REMARK VINA RESULT:    -4.617      0.000      0.000
REMARK INTER + INTRA:          -5.823
REMARK INTER:                  -5.562
REMARK INTRA:                  -0.261
REMARK UNBOUND:                -0.261
REMARK SMILES NC(=O)C[C@H]([NH3+])C(=O)[O-]
REMARK SMILES IDX 4 1 5 2 6 3 7 7 8 8 9 9 2 10 3 11 1 12
REMARK H PARENT 6 4 6 5 6 6 1 13 1 14
REMARK Flexibility Score: inf
ROOT
ATOM      1  C   UNL     1      14.777   5.285  54.710  1.00  0.00     0.171 C 
ENDROOT
BRANCH   1   2
ATOM      2  C   UNL     1      14.561   6.646  55.400  1.00  0.00     0.237 C 
BRANCH   2   3
ATOM      3  N   UNL     1      14.985   6.611  56.807  1.00  0.00    -0.350 N 
ATOM      4  H   UNL     1      15.873   7.150  56.928  1.00  0.00     0.345 HD
ATOM      5  H   UNL     1      15.136   5.626  57.124  1.00  0.00     0.345 HD
ATOM      6  H   UNL     1      14.256   7.057  57.410  1.00  0.00     0.345 HD
ENDBRANCH   2   3
BRANCH   2   7
ATOM      7  C   UNL     1      13.113   7.045  55.303  1.00  0.00     0.100 C 
ATOM      8  O   UNL     1      12.221   6.175  55.118  1.00  0.00    -0.544 OA
ATOM      9  O   UNL     1      12.753   8.384  55.400  1.00  0.00    -0.544 OA
ENDBRANCH   2   7
ENDBRANCH   1   2
BRANCH   1  10
ATOM     10  C   UNL     1      16.217   4.863  54.751  1.00  0.00     0.223 C 
ATOM     11  O   UNL     1      16.709   4.425  55.824  1.00  0.00    -0.275 OA
ATOM     12  N   UNL     1      17.024   4.924  53.575  1.00  0.00    -0.369 N 
ATOM     13  H   UNL     1      16.626   5.262  52.671  1.00  0.00     0.159 HD
ATOM     14  H   UNL     1      18.022   4.620  53.606  1.00  0.00     0.159 HD
ENDBRANCH   1  10
TORSDOF 4
ENDMDL
MODEL 2
REMARK VINA RESULT:    -4.597      2.246      3.211
REMARK INTER + INTRA:          -5.799
REMARK INTER:                  -5.398
REMARK INTRA:                  -0.401
REMARK UNBOUND:                -0.261
REMARK SMILES NC(=O)C[C@H]([NH3+])C(=O)[O-]
REMARK SMILES IDX 4 1 5 2 6 3 7 7 8 8 9 9 2 10 3 11 1 12
REMARK H PARENT 6 4 6 5 6 6 1 13 1 14
REMARK Flexibility Score: inf
ROOT
ATOM      1  C   UNL     1      12.909   6.990  55.533  1.00  0.00     0.171 C 
ENDROOT
BRANCH   1   2
ATOM      2  C   UNL     1      12.945   8.508  55.268  1.00  0.00     0.237 C 
BRANCH   2   3
ATOM      3  N   UNL     1      13.312   8.805  53.876  1.00  0.00    -0.350 N 
ATOM      4  H   UNL     1      13.853   9.698  53.830  1.00  0.00     0.345 HD
ATOM      5  H   UNL     1      12.458   8.889  53.278  1.00  0.00     0.345 HD
ATOM      6  H   UNL     1      13.921   8.042  53.498  1.00  0.00     0.345 HD
ENDBRANCH   2   3
BRANCH   2   7
ATOM      7  C   UNL     1      13.913   9.169  56.213  1.00  0.00     0.100 C 
ATOM      8  O   UNL     1      14.720  10.040  55.795  1.00  0.00    -0.544 OA
ATOM      9  O   UNL     1      13.932   8.804  57.554  1.00  0.00    -0.544 OA
ENDBRANCH   2   7
ENDBRANCH   1   2
BRANCH   1  10
ATOM     10  C   UNL     1      14.260   6.361  55.344  1.00  0.00     0.223 C 
ATOM     11  O   UNL     1      14.695   6.154  54.180  1.00  0.00    -0.275 OA
ATOM     12  N   UNL     1      15.069   6.028  56.473  1.00  0.00    -0.369 N 
ATOM     13  H   UNL     1      14.733   6.214  57.443  1.00  0.00     0.159 HD
ATOM     14  H   UNL     1      16.011   5.601  56.336  1.00  0.00     0.159 HD
ENDBRANCH   1  10
TORSDOF 4
ENDMDL
MODEL 3
REMARK VINA RESULT:    -4.527      1.908      2.265
REMARK INTER + INTRA:          -5.715
REMARK INTER:                  -5.606
REMARK INTRA:                  -0.109
REMARK UNBOUND:                -0.261
REMARK SMILES NC(=O)C[C@H]([NH3+])C(=O)[O-]
REMARK SMILES IDX 4 1 5 2 6 3 7 7 8 8 9 9 2 10 3 11 1 12
REMARK H PARENT 6 4 6 5 6 6 1 13 1 14
REMARK Flexibility Score: inf
ROOT
ATOM      1  C   UNL     1      14.541   6.262  54.629  1.00  0.00     0.171 C 
ENDROOT
BRANCH   1   2
ATOM      2  C   UNL     1      13.353   6.885  55.388  1.00  0.00     0.237 C 
BRANCH   2   3
ATOM      3  N   UNL     1      12.089   6.211  55.058  1.00  0.00    -0.350 N 
ATOM      4  H   UNL     1      12.160   5.754  54.120  1.00  0.00     0.345 HD
ATOM      5  H   UNL     1      11.296   6.895  55.048  1.00  0.00     0.345 HD
ATOM      6  H   UNL     1      11.888   5.466  55.764  1.00  0.00     0.345 HD
ENDBRANCH   2   3
BRANCH   2   7
ATOM      7  C   UNL     1      13.257   8.354  55.071  1.00  0.00     0.100 C 
ATOM      8  O   UNL     1      13.581   8.784  53.932  1.00  0.00    -0.544 OA
ATOM      9  O   UNL     1      12.828   9.248  56.044  1.00  0.00    -0.544 OA
ENDBRANCH   2   7
ENDBRANCH   1   2
BRANCH   1  10
ATOM     10  C   UNL     1      15.676   5.927  55.554  1.00  0.00     0.223 C 
ATOM     11  O   UNL     1      16.794   5.596  55.077  1.00  0.00    -0.275 OA
ATOM     12  N   UNL     1      15.509   6.015  56.969  1.00  0.00    -0.369 N 
ATOM     13  H   UNL     1      14.596   6.310  57.381  1.00  0.00     0.159 HD
ATOM     14  H   UNL     1      16.304   5.792  57.608  1.00  0.00     0.159 HD
ENDBRANCH   1  10
TORSDOF 4
ENDMDL
MODEL 4
REMARK VINA RESULT:    -4.424      1.925      3.989
REMARK INTER + INTRA:          -5.591
REMARK INTER:                  -5.277
REMARK INTRA:                  -0.313
REMARK UNBOUND:                -0.261
REMARK SMILES NC(=O)C[C@H]([NH3+])C(=O)[O-]
REMARK SMILES IDX 4 1 5 2 6 3 7 7 8 8 9 9 2 10 3 11 1 12
REMARK H PARENT 6 4 6 5 6 6 1 13 1 14
REMARK Flexibility Score: inf
ROOT
ATOM      1  C   UNL     1      15.092   5.452  54.726  1.00  0.00     0.171 C 
ENDROOT
BRANCH   1   2
ATOM      2  C   UNL     1      15.883   5.080  55.996  1.00  0.00     0.237 C 
BRANCH   2   3
ATOM      3  N   UNL     1      15.509   5.934  57.133  1.00  0.00    -0.350 N 
ATOM      4  H   UNL     1      16.322   6.526  57.419  1.00  0.00     0.345 HD
ATOM      5  H   UNL     1      15.204   5.352  57.948  1.00  0.00     0.345 HD
ATOM      6  H   UNL     1      14.728   6.572  56.857  1.00  0.00     0.345 HD
ENDBRANCH   2   3
BRANCH   2   7
ATOM      7  C   UNL     1      17.360   5.188  55.728  1.00  0.00     0.100 C 
ATOM      8  O   UNL     1      18.027   4.170  55.404  1.00  0.00    -0.544 OA
ATOM      9  O   UNL     1      18.001   6.415  55.857  1.00  0.00    -0.544 OA
ENDBRANCH   2   7
ENDBRANCH   1   2
BRANCH   1  10
ATOM     10  C   UNL     1      14.095   6.543  54.991  1.00  0.00     0.223 C 
ATOM     11  O   UNL     1      14.487   7.736  55.090  1.00  0.00    -0.275 OA
ATOM     12  N   UNL     1      12.704   6.244  55.100  1.00  0.00    -0.369 N 
ATOM     13  H   UNL     1      12.359   5.264  54.997  1.00  0.00     0.159 HD
ATOM     14  H   UNL     1      12.014   7.007  55.274  1.00  0.00     0.159 HD
ENDBRANCH   1  10
TORSDOF 4
ENDMDL
MODEL 5
REMARK VINA RESULT:    -4.389      2.339      3.795
REMARK INTER + INTRA:          -5.548
REMARK INTER:                  -5.191
REMARK INTRA:                  -0.356
REMARK UNBOUND:                -0.261
REMARK SMILES NC(=O)C[C@H]([NH3+])C(=O)[O-]
REMARK SMILES IDX 4 1 5 2 6 3 7 7 8 8 9 9 2 10 3 11 1 12
REMARK H PARENT 6 4 6 5 6 6 1 13 1 14
REMARK Flexibility Score: inf
ROOT
ATOM      1  C   UNL     1      13.037   8.678  55.849  1.00  0.00     0.171 C 
ENDROOT
BRANCH   1   2
ATOM      2  C   UNL     1      13.777   7.365  56.175  1.00  0.00     0.237 C 
BRANCH   2   3
ATOM      3  N   UNL     1      15.230   7.574  56.267  1.00  0.00    -0.350 N 
ATOM      4  H   UNL     1      15.735   6.792  55.793  1.00  0.00     0.345 HD
ATOM      5  H   UNL     1      15.533   7.623  57.267  1.00  0.00     0.345 HD
ATOM      6  H   UNL     1      15.492   8.464  55.786  1.00  0.00     0.345 HD
ENDBRANCH   2   3
BRANCH   2   7
ATOM      7  C   UNL     1      13.467   6.330  55.127  1.00  0.00     0.100 C 
ATOM      8  O   UNL     1      12.286   5.922  54.962  1.00  0.00    -0.544 OA
ATOM      9  O   UNL     1      14.489   5.803  54.347  1.00  0.00    -0.544 OA
ENDBRANCH   2   7
ENDBRANCH   1   2
BRANCH   1  10
ATOM     10  C   UNL     1      13.844   9.561  54.942  1.00  0.00     0.223 C 
ATOM     11  O   UNL     1      14.765  10.274  55.422  1.00  0.00    -0.275 OA
ATOM     12  N   UNL     1      13.599   9.573  53.536  1.00  0.00    -0.369 N 
ATOM     13  H   UNL     1      12.856   8.971  53.118  1.00  0.00     0.159 HD
ATOM     14  H   UNL     1      14.171  10.181  52.908  1.00  0.00     0.159 HD
ENDBRANCH   1  10
TORSDOF 4
ENDMDL
MODEL 6
REMARK VINA RESULT:    -4.342      2.953      4.207
REMARK INTER + INTRA:          -5.491
REMARK INTER:                  -5.286
REMARK INTRA:                  -0.205
REMARK UNBOUND:                -0.261
REMARK SMILES NC(=O)C[C@H]([NH3+])C(=O)[O-]
REMARK SMILES IDX 4 1 5 2 6 3 7 7 8 8 9 9 2 10 3 11 1 12
REMARK H PARENT 6 4 6 5 6 6 1 13 1 14
REMARK Flexibility Score: inf
ROOT
ATOM      1  C   UNL     1      14.622   9.309  55.746  1.00  0.00     0.171 C 
ENDROOT
BRANCH   1   2
ATOM      2  C   UNL     1      14.473   8.164  56.767  1.00  0.00     0.237 C 
BRANCH   2   3
ATOM      3  N   UNL     1      14.828   8.601  58.125  1.00  0.00    -0.350 N 
ATOM      4  H   UNL     1      14.231   8.110  58.828  1.00  0.00     0.345 HD
ATOM      5  H   UNL     1      14.700   9.635  58.226  1.00  0.00     0.345 HD
ATOM      6  H   UNL     1      15.826   8.359  58.327  1.00  0.00     0.345 HD
ENDBRANCH   2   3
BRANCH   2   7
ATOM      7  C   UNL     1      15.331   6.997  56.356  1.00  0.00     0.100 C 
ATOM      8  O   UNL     1      14.843   6.052  55.681  1.00  0.00    -0.544 OA
ATOM      9  O   UNL     1      16.666   6.948  56.738  1.00  0.00    -0.544 OA
ENDBRANCH   2   7
ENDBRANCH   1   2
BRANCH   1  10
ATOM     10  C   UNL     1      13.662   9.160  54.601  1.00  0.00     0.223 C 
ATOM     11  O   UNL     1      13.835   9.833  53.550  1.00  0.00    -0.275 OA
ATOM     12  N   UNL     1      12.575   8.238  54.681  1.00  0.00    -0.369 N 
ATOM     13  H   UNL     1      12.430   7.656  55.535  1.00  0.00     0.159 HD
ATOM     14  H   UNL     1      11.917   8.131  53.878  1.00  0.00     0.159 HD
ENDBRANCH   1  10
TORSDOF 4
ENDMDL
MODEL 7
REMARK VINA RESULT:    -4.337      2.513      3.996
REMARK INTER + INTRA:          -5.485
REMARK INTER:                  -5.355
REMARK INTRA:                  -0.130
REMARK UNBOUND:                -0.261
REMARK SMILES NC(=O)C[C@H]([NH3+])C(=O)[O-]
REMARK SMILES IDX 4 1 5 2 6 3 7 7 8 8 9 9 2 10 3 11 1 12
REMARK H PARENT 6 4 6 5 6 6 1 13 1 14
REMARK Flexibility Score: inf
ROOT
ATOM      1  C   UNL     1      13.166   7.944  55.331  1.00  0.00     0.171 C 
ENDROOT
BRANCH   1   2
ATOM      2  C   UNL     1      13.973   6.682  54.966  1.00  0.00     0.237 C 
BRANCH   2   3
ATOM      3  N   UNL     1      13.156   5.466  55.086  1.00  0.00    -0.350 N 
ATOM      4  H   UNL     1      13.221   5.085  56.057  1.00  0.00     0.345 HD
ATOM      5  H   UNL     1      13.476   4.736  54.408  1.00  0.00     0.345 HD
ATOM      6  H   UNL     1      12.152   5.692  54.897  1.00  0.00     0.345 HD
ENDBRANCH   2   3
BRANCH   2   7
ATOM      7  C   UNL     1      15.190   6.580  55.847  1.00  0.00     0.100 C 
ATOM      8  O   UNL     1      16.266   6.103  55.397  1.00  0.00    -0.544 OA
ATOM      9  O   UNL     1      15.125   6.996  57.171  1.00  0.00    -0.544 OA
ENDBRANCH   2   7
ENDBRANCH   1   2
BRANCH   1  10
ATOM     10  C   UNL     1      13.747   9.176  54.700  1.00  0.00     0.223 C 
ATOM     11  O   UNL     1      14.506   9.924  55.372  1.00  0.00    -0.275 OA
ATOM     12  N   UNL     1      13.474   9.489  53.333  1.00  0.00    -0.369 N 
ATOM     13  H   UNL     1      12.866   8.868  52.755  1.00  0.00     0.159 HD
ATOM     14  H   UNL     1      13.889  10.341  52.896  1.00  0.00     0.159 HD
ENDBRANCH   1  10
TORSDOF 4
ENDMDL
MODEL 8
REMARK VINA RESULT:    -4.332      2.556      3.594
REMARK INTER + INTRA:          -5.479
REMARK INTER:                  -5.279
REMARK INTRA:                  -0.200
REMARK UNBOUND:                -0.261
REMARK SMILES NC(=O)C[C@H]([NH3+])C(=O)[O-]
REMARK SMILES IDX 4 1 5 2 6 3 7 7 8 8 9 9 2 10 3 11 1 12
REMARK H PARENT 6 4 6 5 6 6 1 13 1 14
REMARK Flexibility Score: inf
ROOT
ATOM      1  C   UNL     1      14.069   8.789  56.407  1.00  0.00     0.171 C 
ENDROOT
BRANCH   1   2
ATOM      2  C   UNL     1      14.028   8.078  55.040  1.00  0.00     0.237 C 
BRANCH   2   3
ATOM      3  N   UNL     1      13.208   8.819  54.071  1.00  0.00    -0.350 N 
ATOM      4  H   UNL     1      13.029   9.788  54.419  1.00  0.00     0.345 HD
ATOM      5  H   UNL     1      12.294   8.336  53.913  1.00  0.00     0.345 HD
ATOM      6  H   UNL     1      13.716   8.896  53.159  1.00  0.00     0.345 HD
ENDBRANCH   2   3
BRANCH   2   7
ATOM      7  C   UNL     1      13.498   6.679  55.207  1.00  0.00     0.100 C 
ATOM      8  O   UNL     1      14.287   5.717  55.405  1.00  0.00    -0.544 OA
ATOM      9  O   UNL     1      12.132   6.440  55.122  1.00  0.00    -0.544 OA
ENDBRANCH   2   7
ENDBRANCH   1   2
BRANCH   1  10
ATOM     10  C   UNL     1      15.359   8.527  57.130  1.00  0.00     0.223 C 
ATOM     11  O   UNL     1      16.330   9.316  56.982  1.00  0.00    -0.275 OA
ATOM     12  N   UNL     1      15.482   7.411  58.012  1.00  0.00    -0.369 N 
ATOM     13  H   UNL     1      14.680   6.760  58.165  1.00  0.00     0.159 HD
ATOM     14  H   UNL     1      16.377   7.239  58.521  1.00  0.00     0.159 HD
ENDBRANCH   1  10
TORSDOF 4
ENDMDL
MODEL 9
REMARK VINA RESULT:    -4.316      2.458      3.748
REMARK INTER + INTRA:          -5.460
REMARK INTER:                  -5.196
REMARK INTRA:                  -0.264
REMARK UNBOUND:                -0.261
REMARK SMILES NC(=O)C[C@H]([NH3+])C(=O)[O-]
REMARK SMILES IDX 4 1 5 2 6 3 7 7 8 8 9 9 2 10 3 11 1 12
REMARK H PARENT 6 4 6 5 6 6 1 13 1 14
REMARK Flexibility Score: inf
ROOT
ATOM      1  C   UNL     1      16.126   7.931  56.583  1.00  0.00     0.171 C 
ENDROOT
BRANCH   1   2
ATOM      2  C   UNL     1      15.211   6.695  56.470  1.00  0.00     0.237 C 
BRANCH   2   3
ATOM      3  N   UNL     1      15.861   5.491  57.007  1.00  0.00    -0.350 N 
ATOM      4  H   UNL     1      15.163   4.719  57.105  1.00  0.00     0.345 HD
ATOM      5  H   UNL     1      16.290   5.687  57.941  1.00  0.00     0.345 HD
ATOM      6  H   UNL     1      16.607   5.167  56.350  1.00  0.00     0.345 HD
ENDBRANCH   2   3
BRANCH   2   7
ATOM      7  C   UNL     1      14.820   6.477  55.032  1.00  0.00     0.100 C 
ATOM      8  O   UNL     1      15.276   5.495  54.388  1.00  0.00    -0.544 OA
ATOM      9  O   UNL     1      13.967   7.375  54.401  1.00  0.00    -0.544 OA
ENDBRANCH   2   7
ENDBRANCH   1   2
BRANCH   1  10
ATOM     10  C   UNL     1      15.347   9.169  56.921  1.00  0.00     0.223 C 
ATOM     11  O   UNL     1      15.218   9.516  58.125  1.00  0.00    -0.275 OA
ATOM     12  N   UNL     1      14.781   9.975  55.887  1.00  0.00    -0.369 N 
ATOM     13  H   UNL     1      14.898   9.715  54.883  1.00  0.00     0.159 HD
ATOM     14  H   UNL     1      14.250  10.841  56.127  1.00  0.00     0.159 HD
ENDBRANCH   1  10
TORSDOF 4
ENDMDL
