MODEL 1
REMARK VINA RESULT:    -4.020      0.000      0.000
REMARK INTER + INTRA:          -5.633
REMARK INTER:                  -5.312
REMARK INTRA:                  -0.320
REMARK UNBOUND:                -0.320
REMARK SMILES C=C[C@@H](O)CCCCC
REMARK SMILES IDX 6 1 7 2 8 3 9 4 5 5 3 6 2 7 1 8 4 9
REMARK H PARENT 4 10
REMARK Flexibility Score: inf
ROOT
ATOM      1  C   UNL     1       1.039  46.312  47.953  1.00  0.00     0.003 C 
ENDROOT
BRANCH   1   2
ATOM      2  C   UNL     1       1.809  47.639  47.823  1.00  0.00    -0.000 C 
BRANCH   2   3
ATOM      3  C   UNL     1       3.315  47.547  48.126  1.00  0.00    -0.003 C 
ATOM      4  C   UNL     1       4.189  48.014  46.962  1.00  0.00     0.004 C 
ENDBRANCH   2   3
ENDBRANCH   1   2
BRANCH   1   5
ATOM      5  C   UNL     1       1.922  45.081  47.691  1.00  0.00     0.036 C 
BRANCH   5   6
ATOM      6  C   UNL     1       1.489  43.877  48.552  1.00  0.00     0.136 C 
BRANCH   6   7
ATOM      7  C   UNL     1       1.829  44.099  50.008  1.00  0.00    -0.004 C 
ATOM      8  C   UNL     1       0.874  44.173  50.938  1.00  0.00     0.007 C 
ENDBRANCH   6   7
BRANCH   6   9
ATOM      9  O   UNL     1       0.113  43.623  48.406  1.00  0.00    -0.389 OA
ATOM     10  H   UNL     1      -0.027  43.248  47.495  1.00  0.00     0.211 HD
ENDBRANCH   6   9
ENDBRANCH   5   6
ENDBRANCH   1   5
TORSDOF 6
ENDMDL
MODEL 2
REMARK VINA RESULT:    -3.902      1.859      2.358
REMARK INTER + INTRA:          -5.477
REMARK INTER:                  -5.130
REMARK INTRA:                  -0.347
REMARK UNBOUND:                -0.320
REMARK SMILES C=C[C@@H](O)CCCCC
REMARK SMILES IDX 6 1 7 2 8 3 9 4 5 5 3 6 2 7 1 8 4 9
REMARK H PARENT 4 10
REMARK Flexibility Score: inf
ROOT
ATOM      1  C   UNL     1       2.682  46.593  50.236  1.00  0.00     0.003 C 
ENDROOT
BRANCH   1   2
ATOM      2  C   UNL     1       2.260  47.416  49.005  1.00  0.00    -0.000 C 
BRANCH   2   3
ATOM      3  C   UNL     1       2.864  46.945  47.671  1.00  0.00    -0.003 C 
ATOM      4  C   UNL     1       4.016  47.827  47.190  1.00  0.00     0.004 C 
ENDBRANCH   2   3
ENDBRANCH   1   2
BRANCH   1   5
ATOM      5  C   UNL     1       2.102  45.169  50.230  1.00  0.00     0.036 C 
BRANCH   5   6
ATOM      6  C   UNL     1       0.640  45.148  50.717  1.00  0.00     0.136 C 
BRANCH   6   7
ATOM      7  C   UNL     1      -0.191  44.185  49.901  1.00  0.00    -0.004 C 
ATOM      8  C   UNL     1      -0.189  44.229  48.566  1.00  0.00     0.007 C 
ENDBRANCH   6   7
BRANCH   6   9
ATOM      9  O   UNL     1       0.568  44.819  52.082  1.00  0.00    -0.389 OA
ATOM     10  H   UNL     1       0.423  43.837  52.146  1.00  0.00     0.211 HD
ENDBRANCH   6   9
ENDBRANCH   5   6
ENDBRANCH   1   5
TORSDOF 6
ENDMDL
MODEL 3
REMARK VINA RESULT:    -3.863      1.211      1.760
REMARK INTER + INTRA:          -5.425
REMARK INTER:                  -4.989
REMARK INTRA:                  -0.437
REMARK UNBOUND:                -0.320
REMARK SMILES C=C[C@@H](O)CCCCC
REMARK SMILES IDX 6 1 7 2 8 3 9 4 5 5 3 6 2 7 1 8 4 9
REMARK H PARENT 4 10
REMARK Flexibility Score: inf
ROOT
ATOM      1  C   UNL     1       2.517  46.204  47.625  1.00  0.00     0.003 C 
ENDROOT
BRANCH   1   2
ATOM      2  C   UNL     1       2.743  47.561  48.316  1.00  0.00    -0.000 C 
BRANCH   2   3
ATOM      3  C   UNL     1       2.638  47.532  49.851  1.00  0.00    -0.003 C 
ATOM      4  C   UNL     1       1.328  48.121  50.372  1.00  0.00     0.004 C 
ENDBRANCH   2   3
ENDBRANCH   1   2
BRANCH   1   5
ATOM      5  C   UNL     1       1.151  45.583  47.958  1.00  0.00     0.036 C 
BRANCH   5   6
ATOM      6  C   UNL     1       1.286  44.111  48.396  1.00  0.00     0.136 C 
BRANCH   6   7
ATOM      7  C   UNL     1       1.835  44.010  49.801  1.00  0.00    -0.004 C 
ATOM      8  C   UNL     1       1.081  44.310  50.861  1.00  0.00     0.007 C 
ENDBRANCH   6   7
BRANCH   6   9
ATOM      9  O   UNL     1       0.052  43.443  48.306  1.00  0.00    -0.389 OA
ATOM     10  H   UNL     1      -0.558  43.847  48.980  1.00  0.00     0.211 HD
ENDBRANCH   6   9
ENDBRANCH   5   6
ENDBRANCH   1   5
TORSDOF 6
ENDMDL
MODEL 4
REMARK VINA RESULT:    -3.814      1.644      4.680
REMARK INTER + INTRA:          -5.361
REMARK INTER:                  -5.144
REMARK INTRA:                  -0.216
REMARK UNBOUND:                -0.320
REMARK SMILES C=C[C@@H](O)CCCCC
REMARK SMILES IDX 6 1 7 2 8 3 9 4 5 5 3 6 2 7 1 8 4 9
REMARK H PARENT 4 10
REMARK Flexibility Score: inf
ROOT
ATOM      1  C   UNL     1       2.158  46.285  50.156  1.00  0.00     0.003 C 
ENDROOT
BRANCH   1   2
ATOM      2  C   UNL     1       1.812  44.878  50.676  1.00  0.00    -0.000 C 
BRANCH   2   3
ATOM      3  C   UNL     1       0.509  44.789  51.490  1.00  0.00    -0.003 C 
ATOM      4  C   UNL     1      -0.081  43.380  51.524  1.00  0.00     0.004 C 
ENDBRANCH   2   3
ENDBRANCH   1   2
BRANCH   1   5
ATOM      5  C   UNL     1       1.316  46.697  48.937  1.00  0.00     0.036 C 
BRANCH   5   6
ATOM      6  C   UNL     1       2.183  46.844  47.671  1.00  0.00     0.136 C 
BRANCH   6   7
ATOM      7  C   UNL     1       3.368  47.748  47.926  1.00  0.00    -0.004 C 
ATOM      8  C   UNL     1       4.275  47.983  46.974  1.00  0.00     0.007 C 
ENDBRANCH   6   7
BRANCH   6   9
ATOM      9  O   UNL     1       2.617  45.589  47.209  1.00  0.00    -0.389 OA
ATOM     10  H   UNL     1       3.578  45.498  47.447  1.00  0.00     0.211 HD
ENDBRANCH   6   9
ENDBRANCH   5   6
ENDBRANCH   1   5
TORSDOF 6
ENDMDL
MODEL 5
REMARK VINA RESULT:    -3.792      1.720      2.274
REMARK INTER + INTRA:          -5.332
REMARK INTER:                  -5.068
REMARK INTRA:                  -0.264
REMARK UNBOUND:                -0.320
REMARK SMILES C=C[C@@H](O)CCCCC
REMARK SMILES IDX 6 1 7 2 8 3 9 4 5 5 3 6 2 7 1 8 4 9
REMARK H PARENT 4 10
REMARK Flexibility Score: inf
ROOT
ATOM      1  C   UNL     1       1.799  44.713  48.520  1.00  0.00     0.003 C 
ENDROOT
BRANCH   1   2
ATOM      2  C   UNL     1       2.069  45.931  47.618  1.00  0.00    -0.000 C 
BRANCH   2   3
ATOM      3  C   UNL     1       3.017  46.985  48.218  1.00  0.00    -0.003 C 
ATOM      4  C   UNL     1       3.773  47.784  47.157  1.00  0.00     0.004 C 
ENDBRANCH   2   3
ENDBRANCH   1   2
BRANCH   1   5
ATOM      5  C   UNL     1       1.878  45.049  50.018  1.00  0.00     0.036 C 
BRANCH   5   6
ATOM      6  C   UNL     1       0.536  45.588  50.552  1.00  0.00     0.136 C 
BRANCH   6   7
ATOM      7  C   UNL     1       0.024  44.740  51.693  1.00  0.00    -0.004 C 
ATOM      8  C   UNL     1      -0.062  43.412  51.583  1.00  0.00     0.007 C 
ENDBRANCH   6   7
BRANCH   6   9
ATOM      9  O   UNL     1       0.657  46.929  50.957  1.00  0.00    -0.389 OA
ATOM     10  H   UNL     1       1.577  47.230  50.725  1.00  0.00     0.211 HD
ENDBRANCH   6   9
ENDBRANCH   5   6
ENDBRANCH   1   5
TORSDOF 6
ENDMDL
MODEL 6
REMARK VINA RESULT:    -3.776     23.448     24.344
REMARK INTER + INTRA:          -5.311
REMARK INTER:                  -4.750
REMARK INTRA:                  -0.561
REMARK UNBOUND:                -0.320
REMARK SMILES C=C[C@@H](O)CCCCC
REMARK SMILES IDX 6 1 7 2 8 3 9 4 5 5 3 6 2 7 1 8 4 9
REMARK H PARENT 4 10
REMARK Flexibility Score: inf
ROOT
ATOM      1  C   UNL     1      14.885  27.945  36.068  1.00  0.00     0.003 C 
ENDROOT
BRANCH   1   2
ATOM      2  C   UNL     1      16.334  28.198  35.614  1.00  0.00    -0.000 C 
BRANCH   2   3
ATOM      3  C   UNL     1      17.189  29.015  36.600  1.00  0.00    -0.003 C 
ATOM      4  C   UNL     1      17.982  28.143  37.571  1.00  0.00     0.004 C 
ENDBRANCH   2   3
ENDBRANCH   1   2
BRANCH   1   5
ATOM      5  C   UNL     1      14.213  29.198  36.652  1.00  0.00     0.036 C 
BRANCH   5   6
ATOM      6  C   UNL     1      13.584  28.917  38.030  1.00  0.00     0.136 C 
BRANCH   6   7
ATOM      7  C   UNL     1      14.375  27.875  38.787  1.00  0.00    -0.004 C 
ATOM      8  C   UNL     1      15.001  28.176  39.928  1.00  0.00     0.007 C 
ENDBRANCH   6   7
BRANCH   6   9
ATOM      9  O   UNL     1      13.481  30.097  38.788  1.00  0.00    -0.389 OA
ATOM     10  H   UNL     1      13.720  30.857  38.192  1.00  0.00     0.211 HD
ENDBRANCH   6   9
ENDBRANCH   5   6
ENDBRANCH   1   5
TORSDOF 6
ENDMDL
MODEL 7
REMARK VINA RESULT:    -3.633      1.683      2.678
REMARK INTER + INTRA:          -5.122
REMARK INTER:                  -4.473
REMARK INTRA:                  -0.648
REMARK UNBOUND:                -0.320
REMARK SMILES C=C[C@@H](O)CCCCC
REMARK SMILES IDX 6 1 7 2 8 3 9 4 5 5 3 6 2 7 1 8 4 9
REMARK H PARENT 4 10
REMARK Flexibility Score: inf
ROOT
ATOM      1  C   UNL     1       2.244  45.027  50.247  1.00  0.00     0.003 C 
ENDROOT
BRANCH   1   2
ATOM      2  C   UNL     1       2.613  46.521  50.180  1.00  0.00    -0.000 C 
BRANCH   2   3
ATOM      3  C   UNL     1       2.289  47.208  48.841  1.00  0.00    -0.003 C 
ATOM      4  C   UNL     1       2.508  46.299  47.633  1.00  0.00     0.004 C 
ENDBRANCH   2   3
ENDBRANCH   1   2
BRANCH   1   5
ATOM      5  C   UNL     1       0.860  44.780  50.867  1.00  0.00     0.036 C 
BRANCH   5   6
ATOM      6  C   UNL     1      -0.138  44.227  49.830  1.00  0.00     0.136 C 
BRANCH   6   7
ATOM      7  C   UNL     1      -1.053  45.316  49.321  1.00  0.00    -0.004 C 
ATOM      8  C   UNL     1      -1.125  45.607  48.019  1.00  0.00     0.007 C 
ENDBRANCH   6   7
BRANCH   6   9
ATOM      9  O   UNL     1       0.537  43.616  48.758  1.00  0.00    -0.389 OA
ATOM     10  H   UNL     1       1.472  43.443  49.053  1.00  0.00     0.211 HD
ENDBRANCH   6   9
ENDBRANCH   5   6
ENDBRANCH   1   5
TORSDOF 6
ENDMDL
MODEL 8
REMARK VINA RESULT:    -3.621      1.733      2.823
REMARK INTER + INTRA:          -5.106
REMARK INTER:                  -4.488
REMARK INTRA:                  -0.618
REMARK UNBOUND:                -0.320
REMARK SMILES C=C[C@@H](O)CCCCC
REMARK SMILES IDX 6 1 7 2 8 3 9 4 5 5 3 6 2 7 1 8 4 9
REMARK H PARENT 4 10
REMARK Flexibility Score: inf
ROOT
ATOM      1  C   UNL     1       2.042  45.722  48.268  1.00  0.00     0.003 C 
ENDROOT
BRANCH   1   2
ATOM      2  C   UNL     1       0.985  46.755  47.836  1.00  0.00    -0.000 C 
BRANCH   2   3
ATOM      3  C   UNL     1      -0.410  46.553  48.455  1.00  0.00    -0.003 C 
ATOM      4  C   UNL     1      -1.050  45.222  48.065  1.00  0.00     0.004 C 
ENDBRANCH   2   3
ENDBRANCH   1   2
BRANCH   1   5
ATOM      5  C   UNL     1       2.304  45.731  49.783  1.00  0.00     0.036 C 
BRANCH   5   6
ATOM      6  C   UNL     1       1.970  44.371  50.427  1.00  0.00     0.136 C 
BRANCH   6   7
ATOM      7  C   UNL     1       0.789  44.489  51.363  1.00  0.00    -0.004 C 
ATOM      8  C   UNL     1      -0.213  43.607  51.326  1.00  0.00     0.007 C 
ENDBRANCH   6   7
BRANCH   6   9
ATOM      9  O   UNL     1       1.718  43.397  49.444  1.00  0.00    -0.389 OA
ATOM     10  H   UNL     1       2.588  43.170  49.018  1.00  0.00     0.211 HD
ENDBRANCH   6   9
ENDBRANCH   5   6
ENDBRANCH   1   5
TORSDOF 6
ENDMDL
