MODEL 1
REMARK VINA RESULT:     0.638      0.000      0.000
REMARK INTER + INTRA:           1.174
REMARK INTER:                   1.159
REMARK INTRA:                   0.014
REMARK UNBOUND:                 0.014
REMARK SMILES CCCCCC=CCC=CCCCCCCCC(=O)[O-]
REMARK SMILES IDX 11 1 12 2 13 3 14 4 15 5 16 6 17 7 18 8 19 9 20 10 10 11
REMARK SMILES IDX 9 12 8 13 7 14 6 15 5 16 4 17 3 18 2 19 1 20
REMARK H PARENT
REMARK Flexibility Score: inf
ROOT
ATOM      1  C   UNL     1      19.880  11.356  38.822  1.00  0.00     0.027 C 
ENDROOT
BRANCH   1   2
ATOM      2  C   UNL     1      18.580  11.248  39.632  1.00  0.00     0.004 C 
BRANCH   2   3
ATOM      3  C   UNL     1      18.241  12.557  40.359  1.00  0.00     0.000 C 
BRANCH   3   4
ATOM      4  C   UNL     1      18.649  12.484  41.838  1.00  0.00     0.000 C 
BRANCH   4   5
ATOM      5  C   UNL     1      20.052  13.061  42.104  1.00  0.00     0.000 C 
BRANCH   5   6
ATOM      6  C   UNL     1      20.131  14.598  42.120  1.00  0.00     0.006 C 
BRANCH   6   7
ATOM      7  C   UNL     1      20.849  15.174  40.894  1.00  0.00     0.053 C 
BRANCH   7   8
ATOM      8  C   UNL     1      19.857  15.693  39.902  1.00  0.00     0.041 C 
ATOM      9  O   UNL     1      19.557  16.917  39.885  1.00  0.00    -0.550 OA
ATOM     10  O   UNL     1      19.295  14.832  38.967  1.00  0.00    -0.550 OA
ENDBRANCH   7   8
ENDBRANCH   6   7
ENDBRANCH   5   6
ENDBRANCH   4   5
ENDBRANCH   3   4
ENDBRANCH   2   3
ENDBRANCH   1   2
BRANCH   1  11
ATOM     11  C   UNL     1      21.009  11.931  39.644  1.00  0.00    -0.031 C 
ATOM     12  C   UNL     1      22.287  12.014  39.231  1.00  0.00    -0.027 C 
BRANCH  12  13
ATOM     13  C   UNL     1      22.771  11.616  37.859  1.00  0.00     0.054 C 
BRANCH  13  14
ATOM     14  C   UNL     1      22.420  12.660  36.836  1.00  0.00    -0.027 C 
ATOM     15  C   UNL     1      21.802  13.799  37.180  1.00  0.00    -0.031 C 
BRANCH  15  16
ATOM     16  C   UNL     1      21.439  14.842  36.158  1.00  0.00     0.027 C 
BRANCH  16  17
ATOM     17  C   UNL     1      21.203  14.213  34.776  1.00  0.00     0.004 C 
BRANCH  17  18
ATOM     18  C   UNL     1      19.731  13.799  34.570  1.00  0.00     0.000 C 
BRANCH  18  19
ATOM     19  C   UNL     1      19.494  12.983  33.288  1.00  0.00    -0.003 C 
ATOM     20  C   UNL     1      18.276  12.065  33.380  1.00  0.00     0.004 C 
ENDBRANCH  18  19
ENDBRANCH  17  18
ENDBRANCH  16  17
ENDBRANCH  15  16
ENDBRANCH  13  14
ENDBRANCH  12  13
ENDBRANCH   1  11
TORSDOF 14
ENDMDL
MODEL 2
REMARK VINA RESULT:     0.698      2.338      5.456
REMARK INTER + INTRA:           1.284
REMARK INTER:                   0.965
REMARK INTRA:                   0.320
REMARK UNBOUND:                 0.014
REMARK SMILES CCCCCC=CCC=CCCCCCCCC(=O)[O-]
REMARK SMILES IDX 11 1 12 2 13 3 14 4 15 5 16 6 17 7 18 8 19 9 20 10 10 11
REMARK SMILES IDX 9 12 8 13 7 14 6 15 5 16 4 17 3 18 2 19 1 20
REMARK H PARENT
REMARK Flexibility Score: inf
ROOT
ATOM      1  C   UNL     1      20.013  13.779  41.212  1.00  0.00     0.027 C 
ENDROOT
BRANCH   1   2
ATOM      2  C   UNL     1      20.484  15.171  40.763  1.00  0.00     0.004 C 
BRANCH   2   3
ATOM      3  C   UNL     1      19.730  15.662  39.518  1.00  0.00     0.000 C 
BRANCH   3   4
ATOM      4  C   UNL     1      20.049  14.780  38.302  1.00  0.00     0.000 C 
BRANCH   4   5
ATOM      5  C   UNL     1      21.145  15.375  37.399  1.00  0.00     0.000 C 
BRANCH   5   6
ATOM      6  C   UNL     1      21.282  14.709  36.017  1.00  0.00     0.006 C 
BRANCH   6   7
ATOM      7  C   UNL     1      20.069  13.847  35.646  1.00  0.00     0.053 C 
BRANCH   7   8
ATOM      8  C   UNL     1      20.191  13.351  34.240  1.00  0.00     0.041 C 
ATOM      9  O   UNL     1      19.182  12.894  33.638  1.00  0.00    -0.550 OA
ATOM     10  O   UNL     1      21.410  13.435  33.578  1.00  0.00    -0.550 OA
ENDBRANCH   7   8
ENDBRANCH   6   7
ENDBRANCH   5   6
ENDBRANCH   4   5
ENDBRANCH   3   4
ENDBRANCH   2   3
ENDBRANCH   1   2
BRANCH   1  11
ATOM     11  C   UNL     1      18.600  13.491  40.763  1.00  0.00    -0.031 C 
ATOM     12  C   UNL     1      18.217  12.374  40.120  1.00  0.00    -0.027 C 
BRANCH  12  13
ATOM     13  C   UNL     1      19.125  11.208  39.816  1.00  0.00     0.054 C 
BRANCH  13  14
ATOM     14  C   UNL     1      20.386  11.666  39.136  1.00  0.00    -0.027 C 
ATOM     15  C   UNL     1      20.759  11.174  37.945  1.00  0.00    -0.031 C 
BRANCH  15  16
ATOM     16  C   UNL     1      22.025  11.621  37.268  1.00  0.00     0.027 C 
BRANCH  16  17
ATOM     17  C   UNL     1      22.944  12.377  38.240  1.00  0.00     0.004 C 
BRANCH  17  18
ATOM     18  C   UNL     1      22.635  12.040  39.713  1.00  0.00     0.000 C 
BRANCH  18  19
ATOM     19  C   UNL     1      23.743  12.471  40.689  1.00  0.00    -0.003 C 
ATOM     20  C   UNL     1      23.219  12.784  42.089  1.00  0.00     0.004 C 
ENDBRANCH  18  19
ENDBRANCH  17  18
ENDBRANCH  16  17
ENDBRANCH  15  16
ENDBRANCH  13  14
ENDBRANCH  12  13
ENDBRANCH   1  11
TORSDOF 14
ENDMDL
MODEL 3
REMARK VINA RESULT:     0.948      1.989      5.699
REMARK INTER + INTRA:           1.738
REMARK INTER:                   1.578
REMARK INTRA:                   0.160
REMARK UNBOUND:                 0.014
REMARK SMILES CCCCCC=CCC=CCCCCCCCC(=O)[O-]
REMARK SMILES IDX 11 1 12 2 13 3 14 4 15 5 16 6 17 7 18 8 19 9 20 10 10 11
REMARK SMILES IDX 9 12 8 13 7 14 6 15 5 16 4 17 3 18 2 19 1 20
REMARK H PARENT
REMARK Flexibility Score: inf
ROOT
ATOM      1  C   UNL     1      21.945  11.315  37.319  1.00  0.00     0.027 C 
ENDROOT
BRANCH   1   2
ATOM      2  C   UNL     1      22.680  12.662  37.266  1.00  0.00     0.004 C 
BRANCH   2   3
ATOM      3  C   UNL     1      21.758  13.838  37.623  1.00  0.00     0.000 C 
BRANCH   3   4
ATOM      4  C   UNL     1      21.958  15.006  36.647  1.00  0.00     0.000 C 
BRANCH   4   5
ATOM      5  C   UNL     1      21.077  14.895  35.388  1.00  0.00     0.000 C 
BRANCH   5   6
ATOM      6  C   UNL     1      21.581  13.899  34.328  1.00  0.00     0.006 C 
BRANCH   6   7
ATOM      7  C   UNL     1      20.512  13.540  33.287  1.00  0.00     0.053 C 
BRANCH   7   8
ATOM      8  C   UNL     1      19.354  12.857  33.942  1.00  0.00     0.041 C 
ATOM      9  O   UNL     1      19.315  12.733  35.196  1.00  0.00    -0.550 OA
ATOM     10  O   UNL     1      18.295  12.394  33.171  1.00  0.00    -0.550 OA
ENDBRANCH   7   8
ENDBRANCH   6   7
ENDBRANCH   5   6
ENDBRANCH   4   5
ENDBRANCH   3   4
ENDBRANCH   2   3
ENDBRANCH   1   2
BRANCH   1  11
ATOM     11  C   UNL     1      20.500  11.477  37.726  1.00  0.00    -0.031 C 
ATOM     12  C   UNL     1      20.052  11.413  38.993  1.00  0.00    -0.027 C 
BRANCH  12  13
ATOM     13  C   UNL     1      20.935  11.243  40.204  1.00  0.00     0.054 C 
BRANCH  13  14
ATOM     14  C   UNL     1      21.111  12.547  40.934  1.00  0.00    -0.027 C 
ATOM     15  C   UNL     1      20.059  13.234  41.403  1.00  0.00    -0.031 C 
BRANCH  15  16
ATOM     16  C   UNL     1      20.231  14.543  42.125  1.00  0.00     0.027 C 
BRANCH  16  17
ATOM     17  C   UNL     1      20.755  15.638  41.183  1.00  0.00     0.004 C 
BRANCH  17  18
ATOM     18  C   UNL     1      19.670  16.133  40.205  1.00  0.00     0.000 C 
BRANCH  18  19
ATOM     19  C   UNL     1      19.340  15.126  39.090  1.00  0.00    -0.003 C 
ATOM     20  C   UNL     1      18.146  14.234  39.424  1.00  0.00     0.004 C 
ENDBRANCH  18  19
ENDBRANCH  17  18
ENDBRANCH  16  17
ENDBRANCH  15  16
ENDBRANCH  13  14
ENDBRANCH  12  13
ENDBRANCH   1  11
TORSDOF 14
ENDMDL
MODEL 4
REMARK VINA RESULT:     1.048     15.068     18.205
REMARK INTER + INTRA:           1.919
REMARK INTER:                   2.528
REMARK INTRA:                  -0.608
REMARK UNBOUND:                 0.014
REMARK SMILES CCCCCC=CCC=CCCCCCCCC(=O)[O-]
REMARK SMILES IDX 11 1 12 2 13 3 14 4 15 5 16 6 17 7 18 8 19 9 20 10 10 11
REMARK SMILES IDX 9 12 8 13 7 14 6 15 5 16 4 17 3 18 2 19 1 20
REMARK H PARENT
REMARK Flexibility Score: inf
ROOT
ATOM      1  C   UNL     1      24.850  29.840  32.579  1.00  0.00     0.027 C 
ENDROOT
BRANCH   1   2
ATOM      2  C   UNL     1      24.665  28.564  31.744  1.00  0.00     0.004 C 
BRANCH   2   3
ATOM      3  C   UNL     1      25.440  28.623  30.420  1.00  0.00     0.000 C 
BRANCH   3   4
ATOM      4  C   UNL     1      26.632  27.655  30.440  1.00  0.00     0.000 C 
BRANCH   4   5
ATOM      5  C   UNL     1      27.161  27.322  29.032  1.00  0.00     0.000 C 
BRANCH   5   6
ATOM      6  C   UNL     1      28.416  26.432  29.002  1.00  0.00     0.006 C 
BRANCH   6   7
ATOM      7  C   UNL     1      29.591  27.079  28.257  1.00  0.00     0.053 C 
BRANCH   7   8
ATOM      8  C   UNL     1      30.529  26.030  27.749  1.00  0.00     0.041 C 
ATOM      9  O   UNL     1      31.754  26.288  27.608  1.00  0.00    -0.550 OA
ATOM     10  O   UNL     1      30.057  24.752  27.475  1.00  0.00    -0.550 OA
ENDBRANCH   7   8
ENDBRANCH   6   7
ENDBRANCH   5   6
ENDBRANCH   4   5
ENDBRANCH   3   4
ENDBRANCH   2   3
ENDBRANCH   1   2
BRANCH   1  11
ATOM     11  C   UNL     1      25.625  29.576  33.847  1.00  0.00    -0.031 C 
ATOM     12  C   UNL     1      25.077  29.160  35.004  1.00  0.00    -0.027 C 
BRANCH  12  13
ATOM     13  C   UNL     1      23.618  28.823  35.186  1.00  0.00     0.054 C 
BRANCH  13  14
ATOM     14  C   UNL     1      23.211  28.939  36.629  1.00  0.00    -0.027 C 
ATOM     15  C   UNL     1      21.992  28.566  37.045  1.00  0.00    -0.031 C 
BRANCH  15  16
ATOM     16  C   UNL     1      21.577  28.690  38.486  1.00  0.00     0.027 C 
BRANCH  16  17
ATOM     17  C   UNL     1      21.693  27.346  39.220  1.00  0.00     0.004 C 
BRANCH  17  18
ATOM     18  C   UNL     1      20.989  27.370  40.593  1.00  0.00     0.000 C 
BRANCH  18  19
ATOM     19  C   UNL     1      20.130  28.625  40.822  1.00  0.00    -0.003 C 
ATOM     20  C   UNL     1      18.634  28.362  40.663  1.00  0.00     0.004 C 
ENDBRANCH  18  19
ENDBRANCH  17  18
ENDBRANCH  16  17
ENDBRANCH  15  16
ENDBRANCH  13  14
ENDBRANCH  12  13
ENDBRANCH   1  11
TORSDOF 14
ENDMDL
MODEL 5
REMARK VINA RESULT:     1.396     14.837     16.517
REMARK INTER + INTRA:           2.553
REMARK INTER:                   3.051
REMARK INTRA:                  -0.498
REMARK UNBOUND:                 0.014
REMARK SMILES CCCCCC=CCC=CCCCCCCCC(=O)[O-]
REMARK SMILES IDX 11 1 12 2 13 3 14 4 15 5 16 6 17 7 18 8 19 9 20 10 10 11
REMARK SMILES IDX 9 12 8 13 7 14 6 15 5 16 4 17 3 18 2 19 1 20
REMARK H PARENT
REMARK Flexibility Score: inf
ROOT
ATOM      1  C   UNL     1      23.710  28.745  34.974  1.00  0.00     0.027 C 
ENDROOT
BRANCH   1   2
ATOM      2  C   UNL     1      23.496  28.786  36.494  1.00  0.00     0.004 C 
BRANCH   2   3
ATOM      3  C   UNL     1      22.007  28.832  36.866  1.00  0.00     0.000 C 
BRANCH   3   4
ATOM      4  C   UNL     1      21.740  28.042  38.156  1.00  0.00     0.000 C 
BRANCH   4   5
ATOM      5  C   UNL     1      20.804  28.782  39.131  1.00  0.00     0.000 C 
BRANCH   5   6
ATOM      6  C   UNL     1      21.111  28.558  40.622  1.00  0.00     0.006 C 
BRANCH   6   7
ATOM      7  C   UNL     1      20.005  27.787  41.352  1.00  0.00     0.053 C 
BRANCH   7   8
ATOM      8  C   UNL     1      18.676  28.434  41.122  1.00  0.00     0.041 C 
ATOM      9  O   UNL     1      17.880  27.964  40.266  1.00  0.00    -0.550 OA
ATOM     10  O   UNL     1      18.298  29.532  41.885  1.00  0.00    -0.550 OA
ENDBRANCH   7   8
ENDBRANCH   6   7
ENDBRANCH   5   6
ENDBRANCH   4   5
ENDBRANCH   3   4
ENDBRANCH   2   3
ENDBRANCH   1   2
BRANCH   1  11
ATOM     11  C   UNL     1      25.096  29.203  34.588  1.00  0.00    -0.031 C 
ATOM     12  C   UNL     1      25.428  29.696  33.381  1.00  0.00    -0.027 C 
BRANCH  12  13
ATOM     13  C   UNL     1      24.452  29.934  32.256  1.00  0.00     0.054 C 
BRANCH  13  14
ATOM     14  C   UNL     1      24.975  29.386  30.957  1.00  0.00    -0.027 C 
ATOM     15  C   UNL     1      25.790  28.322  30.924  1.00  0.00    -0.031 C 
BRANCH  15  16
ATOM     16  C   UNL     1      26.324  27.777  29.627  1.00  0.00     0.027 C 
BRANCH  16  17
ATOM     17  C   UNL     1      27.660  27.046  29.834  1.00  0.00     0.004 C 
BRANCH  17  18
ATOM     18  C   UNL     1      28.353  26.711  28.497  1.00  0.00     0.000 C 
BRANCH  18  19
ATOM     19  C   UNL     1      29.882  26.874  28.539  1.00  0.00    -0.003 C 
ATOM     20  C   UNL     1      30.614  25.873  27.647  1.00  0.00     0.004 C 
ENDBRANCH  18  19
ENDBRANCH  17  18
ENDBRANCH  16  17
ENDBRANCH  15  16
ENDBRANCH  13  14
ENDBRANCH  12  13
ENDBRANCH   1  11
TORSDOF 14
ENDMDL
MODEL 6
REMARK VINA RESULT:     2.389      1.787      5.038
REMARK INTER + INTRA:           4.359
REMARK INTER:                   4.166
REMARK INTRA:                   0.193
REMARK UNBOUND:                 0.014
REMARK SMILES CCCCCC=CCC=CCCCCCCCC(=O)[O-]
REMARK SMILES IDX 11 1 12 2 13 3 14 4 15 5 16 6 17 7 18 8 19 9 20 10 10 11
REMARK SMILES IDX 9 12 8 13 7 14 6 15 5 16 4 17 3 18 2 19 1 20
REMARK H PARENT
REMARK Flexibility Score: inf
ROOT
ATOM      1  C   UNL     1      21.730  14.386  35.880  1.00  0.00     0.027 C 
ENDROOT
BRANCH   1   2
ATOM      2  C   UNL     1      21.304  15.403  36.949  1.00  0.00     0.004 C 
BRANCH   2   3
ATOM      3  C   UNL     1      20.610  14.730  38.142  1.00  0.00     0.000 C 
BRANCH   3   4
ATOM      4  C   UNL     1      19.858  15.764  38.993  1.00  0.00     0.000 C 
BRANCH   4   5
ATOM      5  C   UNL     1      19.867  15.427  40.496  1.00  0.00     0.000 C 
BRANCH   5   6
ATOM      6  C   UNL     1      20.397  14.025  40.845  1.00  0.00     0.006 C 
BRANCH   6   7
ATOM      7  C   UNL     1      19.572  13.325  41.932  1.00  0.00     0.053 C 
BRANCH   7   8
ATOM      8  C   UNL     1      18.560  12.413  41.314  1.00  0.00     0.041 C 
ATOM      9  O   UNL     1      18.051  11.479  41.989  1.00  0.00    -0.550 OA
ATOM     10  O   UNL     1      18.146  12.622  40.004  1.00  0.00    -0.550 OA
ENDBRANCH   7   8
ENDBRANCH   6   7
ENDBRANCH   5   6
ENDBRANCH   4   5
ENDBRANCH   3   4
ENDBRANCH   2   3
ENDBRANCH   1   2
BRANCH   1  11
ATOM     11  C   UNL     1      20.798  14.394  34.692  1.00  0.00    -0.031 C 
ATOM     12  C   UNL     1      19.887  13.439  34.429  1.00  0.00    -0.027 C 
BRANCH  12  13
ATOM     13  C   UNL     1      19.608  12.256  35.322  1.00  0.00     0.054 C 
BRANCH  13  14
ATOM     14  C   UNL     1      20.406  12.335  36.594  1.00  0.00    -0.027 C 
ATOM     15  C   UNL     1      20.507  11.288  37.425  1.00  0.00    -0.031 C 
BRANCH  15  16
ATOM     16  C   UNL     1      21.295  11.367  38.704  1.00  0.00     0.027 C 
BRANCH  16  17
ATOM     17  C   UNL     1      22.780  11.648  38.430  1.00  0.00     0.004 C 
BRANCH  17  18
ATOM     18  C   UNL     1      23.402  12.579  39.491  1.00  0.00     0.000 C 
BRANCH  18  19
ATOM     19  C   UNL     1      23.424  11.973  40.905  1.00  0.00    -0.003 C 
ATOM     20  C   UNL     1      23.187  13.009  42.002  1.00  0.00     0.004 C 
ENDBRANCH  18  19
ENDBRANCH  17  18
ENDBRANCH  16  17
ENDBRANCH  15  16
ENDBRANCH  13  14
ENDBRANCH  12  13
ENDBRANCH   1  11
TORSDOF 14
ENDMDL
MODEL 7
REMARK VINA RESULT:     2.501      1.755      4.418
REMARK INTER + INTRA:           4.563
REMARK INTER:                   4.810
REMARK INTRA:                  -0.247
REMARK UNBOUND:                 0.014
REMARK SMILES CCCCCC=CCC=CCCCCCCCC(=O)[O-]
REMARK SMILES IDX 11 1 12 2 13 3 14 4 15 5 16 6 17 7 18 8 19 9 20 10 10 11
REMARK SMILES IDX 9 12 8 13 7 14 6 15 5 16 4 17 3 18 2 19 1 20
REMARK H PARENT
REMARK Flexibility Score: inf
ROOT
ATOM      1  C   UNL     1      21.623  14.793  36.984  1.00  0.00     0.027 C 
ENDROOT
BRANCH   1   2
ATOM      2  C   UNL     1      20.851  15.132  38.268  1.00  0.00     0.004 C 
BRANCH   2   3
ATOM      3  C   UNL     1      19.363  14.768  38.160  1.00  0.00     0.000 C 
BRANCH   3   4
ATOM      4  C   UNL     1      18.774  14.456  39.544  1.00  0.00     0.000 C 
BRANCH   4   5
ATOM      5  C   UNL     1      18.535  12.951  39.771  1.00  0.00     0.000 C 
BRANCH   5   6
ATOM      6  C   UNL     1      19.014  12.414  41.131  1.00  0.00     0.006 C 
BRANCH   6   7
ATOM      7  C   UNL     1      19.367  13.529  42.125  1.00  0.00     0.053 C 
BRANCH   7   8
ATOM      8  C   UNL     1      20.828  13.839  42.066  1.00  0.00     0.041 C 
ATOM      9  O   UNL     1      21.670  12.911  41.926  1.00  0.00    -0.550 OA
ATOM     10  O   UNL     1      21.261  15.159  42.120  1.00  0.00    -0.550 OA
ENDBRANCH   7   8
ENDBRANCH   6   7
ENDBRANCH   5   6
ENDBRANCH   4   5
ENDBRANCH   3   4
ENDBRANCH   2   3
ENDBRANCH   1   2
BRANCH   1  11
ATOM     11  C   UNL     1      20.958  15.369  35.758  1.00  0.00    -0.031 C 
ATOM     12  C   UNL     1      20.504  14.640  34.722  1.00  0.00    -0.027 C 
BRANCH  12  13
ATOM     13  C   UNL     1      20.525  13.133  34.663  1.00  0.00     0.054 C 
BRANCH  13  14
ATOM     14  C   UNL     1      19.938  12.533  35.912  1.00  0.00    -0.027 C 
ATOM     15  C   UNL     1      20.510  11.484  36.521  1.00  0.00    -0.031 C 
BRANCH  15  16
ATOM     16  C   UNL     1      19.920  10.875  37.764  1.00  0.00     0.027 C 
BRANCH  16  17
ATOM     17  C   UNL     1      20.904  10.943  38.942  1.00  0.00     0.004 C 
BRANCH  17  18
ATOM     18  C   UNL     1      21.894  12.119  38.806  1.00  0.00     0.000 C 
BRANCH  18  19
ATOM     19  C   UNL     1      23.260  11.709  38.231  1.00  0.00    -0.003 C 
ATOM     20  C   UNL     1      24.200  12.895  38.021  1.00  0.00     0.004 C 
ENDBRANCH  18  19
ENDBRANCH  17  18
ENDBRANCH  16  17
ENDBRANCH  15  16
ENDBRANCH  13  14
ENDBRANCH  12  13
ENDBRANCH   1  11
TORSDOF 14
ENDMDL
MODEL 8
REMARK VINA RESULT:     3.238      2.333      5.977
REMARK INTER + INTRA:           5.902
REMARK INTER:                   7.619
REMARK INTRA:                  -1.718
REMARK UNBOUND:                 0.014
REMARK SMILES CCCCCC=CCC=CCCCCCCCC(=O)[O-]
REMARK SMILES IDX 11 1 12 2 13 3 14 4 15 5 16 6 17 7 18 8 19 9 20 10 10 11
REMARK SMILES IDX 9 12 8 13 7 14 6 15 5 16 4 17 3 18 2 19 1 20
REMARK H PARENT
REMARK Flexibility Score: inf
ROOT
ATOM      1  C   UNL     1      22.791  13.024  36.768  1.00  0.00     0.027 C 
ENDROOT
BRANCH   1   2
ATOM      2  C   UNL     1      22.930  14.533  37.018  1.00  0.00     0.004 C 
BRANCH   2   3
ATOM      3  C   UNL     1      21.618  15.286  36.753  1.00  0.00     0.000 C 
BRANCH   3   4
ATOM      4  C   UNL     1      20.459  14.660  37.542  1.00  0.00     0.000 C 
BRANCH   4   5
ATOM      5  C   UNL     1      19.365  14.067  36.634  1.00  0.00     0.000 C 
BRANCH   5   6
ATOM      6  C   UNL     1      19.825  12.906  35.734  1.00  0.00     0.006 C 
BRANCH   6   7
ATOM      7  C   UNL     1      19.437  13.099  34.263  1.00  0.00     0.053 C 
BRANCH   7   8
ATOM      8  C   UNL     1      20.539  13.780  33.516  1.00  0.00     0.041 C 
ATOM      9  O   UNL     1      21.740  13.457  33.721  1.00  0.00    -0.550 OA
ATOM     10  O   UNL     1      20.238  14.742  32.559  1.00  0.00    -0.550 OA
ENDBRANCH   7   8
ENDBRANCH   6   7
ENDBRANCH   5   6
ENDBRANCH   4   5
ENDBRANCH   3   4
ENDBRANCH   2   3
ENDBRANCH   1   2
BRANCH   1  11
ATOM     11  C   UNL     1      23.054  12.220  38.018  1.00  0.00    -0.031 C 
ATOM     12  C   UNL     1      22.215  11.297  38.523  1.00  0.00    -0.027 C 
BRANCH  12  13
ATOM     13  C   UNL     1      20.919  10.875  37.876  1.00  0.00     0.054 C 
BRANCH  13  14
ATOM     14  C   UNL     1      19.741  11.224  38.742  1.00  0.00    -0.027 C 
ATOM     15  C   UNL     1      19.883  11.956  39.857  1.00  0.00    -0.031 C 
BRANCH  15  16
ATOM     16  C   UNL     1      18.707  12.299  40.732  1.00  0.00     0.027 C 
BRANCH  16  17
ATOM     17  C   UNL     1      19.140  13.122  41.955  1.00  0.00     0.004 C 
BRANCH  17  18
ATOM     18  C   UNL     1      20.633  13.505  41.899  1.00  0.00     0.000 C 
BRANCH  18  19
ATOM     19  C   UNL     1      20.880  15.023  41.890  1.00  0.00    -0.003 C 
ATOM     20  C   UNL     1      20.135  15.743  40.767  1.00  0.00     0.004 C 
ENDBRANCH  18  19
ENDBRANCH  17  18
ENDBRANCH  16  17
ENDBRANCH  15  16
ENDBRANCH  13  14
ENDBRANCH  12  13
ENDBRANCH   1  11
TORSDOF 14
ENDMDL
