MODEL 1
REMARK VINA RESULT:    -4.519      0.000      0.000
REMARK INTER + INTRA:          -9.753
REMARK INTER:                  -7.689
REMARK INTRA:                  -2.063
REMARK UNBOUND:                -2.063
REMARK SMILES CCCCCCCCCCCCCC(=O)[O-]
REMARK SMILES IDX 8 1 9 2 10 3 11 4 12 5 13 6 14 7 15 8 16 9 7 10 6 11 5 12
REMARK SMILES IDX 4 13 3 14 2 15 1 16
REMARK H PARENT
REMARK Flexibility Score: inf
ROOT
ATOM      1  C   UNL     1      13.750  11.067  33.538  1.00  0.00     0.000 C 
ENDROOT
BRANCH   1   2
ATOM      2  C   UNL     1      15.230  10.764  33.834  1.00  0.00     0.000 C 
BRANCH   2   3
ATOM      3  C   UNL     1      15.636  10.837  35.318  1.00  0.00     0.000 C 
BRANCH   3   4
ATOM      4  C   UNL     1      16.932  11.633  35.547  1.00  0.00     0.000 C 
BRANCH   4   5
ATOM      5  C   UNL     1      16.677  13.138  35.750  1.00  0.00     0.006 C 
BRANCH   5   6
ATOM      6  C   UNL     1      17.014  14.009  34.530  1.00  0.00     0.053 C 
BRANCH   6   7
ATOM      7  C   UNL     1      18.237  14.843  34.755  1.00  0.00     0.041 C 
ATOM      8  O   UNL     1      18.869  14.762  35.841  1.00  0.00    -0.550 OA
ATOM      9  O   UNL     1      18.698  15.687  33.752  1.00  0.00    -0.550 OA
ENDBRANCH   6   7
ENDBRANCH   5   6
ENDBRANCH   4   5
ENDBRANCH   3   4
ENDBRANCH   2   3
ENDBRANCH   1   2
BRANCH   1  10
ATOM     10  C   UNL     1      13.500  12.538  33.166  1.00  0.00     0.000 C 
BRANCH  10  11
ATOM     11  C   UNL     1      12.543  13.248  34.141  1.00  0.00    -0.000 C 
BRANCH  11  12
ATOM     12  C   UNL     1      13.222  14.047  35.272  1.00  0.00    -0.000 C 
BRANCH  12  13
ATOM     13  C   UNL     1      13.177  13.387  36.663  1.00  0.00    -0.000 C 
BRANCH  13  14
ATOM     14  C   UNL     1      11.997  12.416  36.823  1.00  0.00    -0.000 C 
BRANCH  14  15
ATOM     15  C   UNL     1      12.452  10.996  37.198  1.00  0.00    -0.003 C 
ATOM     16  C   UNL     1      11.718   9.910  36.409  1.00  0.00     0.004 C 
ENDBRANCH  14  15
ENDBRANCH  13  14
ENDBRANCH  12  13
ENDBRANCH  11  12
ENDBRANCH  10  11
ENDBRANCH   1  10
TORSDOF 12
ENDMDL
MODEL 2
REMARK VINA RESULT:    -4.392      3.078      5.733
REMARK INTER + INTRA:          -9.537
REMARK INTER:                  -7.850
REMARK INTRA:                  -1.687
REMARK UNBOUND:                -2.063
REMARK SMILES CCCCCCCCCCCCCC(=O)[O-]
REMARK SMILES IDX 8 1 9 2 10 3 11 4 12 5 13 6 14 7 15 8 16 9 7 10 6 11 5 12
REMARK SMILES IDX 4 13 3 14 2 15 1 16
REMARK H PARENT
REMARK Flexibility Score: inf
ROOT
ATOM      1  C   UNL     1      13.471  11.358  32.956  1.00  0.00     0.000 C 
ENDROOT
BRANCH   1   2
ATOM      2  C   UNL     1      13.530  12.871  33.234  1.00  0.00     0.000 C 
BRANCH   2   3
ATOM      3  C   UNL     1      12.555  13.384  34.310  1.00  0.00     0.000 C 
BRANCH   3   4
ATOM      4  C   UNL     1      13.272  13.966  35.541  1.00  0.00     0.000 C 
BRANCH   4   5
ATOM      5  C   UNL     1      13.267  13.001  36.742  1.00  0.00     0.006 C 
BRANCH   5   6
ATOM      6  C   UNL     1      11.872  12.497  37.145  1.00  0.00     0.053 C 
BRANCH   6   7
ATOM      7  C   UNL     1      11.797  11.001  37.158  1.00  0.00     0.041 C 
ATOM      8  O   UNL     1      11.296  10.400  38.144  1.00  0.00    -0.550 OA
ATOM      9  O   UNL     1      12.251  10.273  36.066  1.00  0.00    -0.550 OA
ENDBRANCH   6   7
ENDBRANCH   5   6
ENDBRANCH   4   5
ENDBRANCH   3   4
ENDBRANCH   2   3
ENDBRANCH   1   2
BRANCH   1  10
ATOM     10  C   UNL     1      14.776  10.629  33.318  1.00  0.00     0.000 C 
BRANCH  10  11
ATOM     11  C   UNL     1      15.928  11.595  33.649  1.00  0.00    -0.000 C 
BRANCH  11  12
ATOM     12  C   UNL     1      16.370  11.616  35.127  1.00  0.00    -0.000 C 
BRANCH  12  13
ATOM     13  C   UNL     1      16.845  12.983  35.652  1.00  0.00    -0.000 C 
BRANCH  13  14
ATOM     14  C   UNL     1      17.001  14.029  34.536  1.00  0.00    -0.000 C 
BRANCH  14  15
ATOM     15  C   UNL     1      18.271  14.880  34.701  1.00  0.00    -0.003 C 
ATOM     16  C   UNL     1      19.085  14.496  35.937  1.00  0.00     0.004 C 
ENDBRANCH  14  15
ENDBRANCH  13  14
ENDBRANCH  12  13
ENDBRANCH  11  12
ENDBRANCH  10  11
ENDBRANCH   1  10
TORSDOF 12
ENDMDL
MODEL 3
REMARK VINA RESULT:    -4.361      1.085      1.800
REMARK INTER + INTRA:          -9.483
REMARK INTER:                  -7.378
REMARK INTRA:                  -2.106
REMARK UNBOUND:                -2.063
REMARK SMILES CCCCCCCCCCCCCC(=O)[O-]
REMARK SMILES IDX 8 1 9 2 10 3 11 4 12 5 13 6 14 7 15 8 16 9 7 10 6 11 5 12
REMARK SMILES IDX 4 13 3 14 2 15 1 16
REMARK H PARENT
REMARK Flexibility Score: inf
ROOT
ATOM      1  C   UNL     1      13.690  12.911  33.390  1.00  0.00     0.000 C 
ENDROOT
BRANCH   1   2
ATOM      2  C   UNL     1      13.745  11.427  32.982  1.00  0.00     0.000 C 
BRANCH   2   3
ATOM      3  C   UNL     1      15.097  10.727  33.215  1.00  0.00     0.000 C 
BRANCH   3   4
ATOM      4  C   UNL     1      16.267  11.716  33.365  1.00  0.00     0.000 C 
BRANCH   4   5
ATOM      5  C   UNL     1      16.926  11.649  34.756  1.00  0.00     0.006 C 
BRANCH   5   6
ATOM      6  C   UNL     1      17.047  13.006  35.467  1.00  0.00     0.053 C 
BRANCH   6   7
ATOM      7  C   UNL     1      18.418  13.593  35.326  1.00  0.00     0.041 C 
ATOM      8  O   UNL     1      18.611  14.815  35.561  1.00  0.00    -0.550 OA
ATOM      9  O   UNL     1      19.488  12.784  34.968  1.00  0.00    -0.550 OA
ENDBRANCH   6   7
ENDBRANCH   5   6
ENDBRANCH   4   5
ENDBRANCH   3   4
ENDBRANCH   2   3
ENDBRANCH   1   2
BRANCH   1  10
ATOM     10  C   UNL     1      12.372  13.296  34.080  1.00  0.00     0.000 C 
BRANCH  10  11
ATOM     11  C   UNL     1      12.585  14.106  35.371  1.00  0.00    -0.000 C 
BRANCH  11  12
ATOM     12  C   UNL     1      13.580  13.495  36.379  1.00  0.00    -0.000 C 
BRANCH  12  13
ATOM     13  C   UNL     1      13.088  12.230  37.106  1.00  0.00    -0.000 C 
BRANCH  13  14
ATOM     14  C   UNL     1      14.065  11.050  36.975  1.00  0.00    -0.000 C 
BRANCH  14  15
ATOM     15  C   UNL     1      13.406   9.808  36.353  1.00  0.00    -0.003 C 
ATOM     16  C   UNL     1      11.887   9.941  36.231  1.00  0.00     0.004 C 
ENDBRANCH  14  15
ENDBRANCH  13  14
ENDBRANCH  12  13
ENDBRANCH  11  12
ENDBRANCH  10  11
ENDBRANCH   1  10
TORSDOF 12
ENDMDL
MODEL 4
REMARK VINA RESULT:    -4.319      3.929      6.127
REMARK INTER + INTRA:          -9.412
REMARK INTER:                  -7.407
REMARK INTRA:                  -2.005
REMARK UNBOUND:                -2.063
REMARK SMILES CCCCCCCCCCCCCC(=O)[O-]
REMARK SMILES IDX 8 1 9 2 10 3 11 4 12 5 13 6 14 7 15 8 16 9 7 10 6 11 5 12
REMARK SMILES IDX 4 13 3 14 2 15 1 16
REMARK H PARENT
REMARK Flexibility Score: inf
ROOT
ATOM      1  C   UNL     1      12.496  13.314  34.112  1.00  0.00     0.000 C 
ENDROOT
BRANCH   1   2
ATOM      2  C   UNL     1      13.020  14.112  35.322  1.00  0.00     0.000 C 
BRANCH   2   3
ATOM      3  C   UNL     1      13.253  13.291  36.604  1.00  0.00     0.000 C 
BRANCH   3   4
ATOM      4  C   UNL     1      11.978  12.593  37.109  1.00  0.00     0.000 C 
BRANCH   4   5
ATOM      5  C   UNL     1      12.256  11.190  37.683  1.00  0.00     0.006 C 
BRANCH   5   6
ATOM      6  C   UNL     1      12.007  10.039  36.695  1.00  0.00     0.053 C 
BRANCH   6   7
ATOM      7  C   UNL     1      10.694   9.363  36.941  1.00  0.00     0.041 C 
ATOM      8  O   UNL     1      10.380   8.331  36.291  1.00  0.00    -0.550 OA
ATOM      9  O   UNL     1       9.831   9.852  37.913  1.00  0.00    -0.550 OA
ENDBRANCH   6   7
ENDBRANCH   5   6
ENDBRANCH   4   5
ENDBRANCH   3   4
ENDBRANCH   2   3
ENDBRANCH   1   2
BRANCH   1  10
ATOM     10  C   UNL     1      13.616  12.619  33.321  1.00  0.00     0.000 C 
BRANCH  10  11
ATOM     11  C   UNL     1      13.521  11.083  33.372  1.00  0.00    -0.000 C 
BRANCH  11  12
ATOM     12  C   UNL     1      14.624  10.378  34.186  1.00  0.00    -0.000 C 
BRANCH  12  13
ATOM     13  C   UNL     1      15.908  11.198  34.406  1.00  0.00    -0.000 C 
BRANCH  13  14
ATOM     14  C   UNL     1      16.218  11.433  35.893  1.00  0.00    -0.000 C 
BRANCH  14  15
ATOM     15  C   UNL     1      16.886  12.794  36.147  1.00  0.00    -0.003 C 
ATOM     16  C   UNL     1      16.768  13.744  34.954  1.00  0.00     0.004 C 
ENDBRANCH  14  15
ENDBRANCH  13  14
ENDBRANCH  12  13
ENDBRANCH  11  12
ENDBRANCH  10  11
ENDBRANCH   1  10
TORSDOF 12
ENDMDL
MODEL 5
REMARK VINA RESULT:    -4.296      1.854      2.978
REMARK INTER + INTRA:          -9.374
REMARK INTER:                  -7.834
REMARK INTRA:                  -1.540
REMARK UNBOUND:                -2.063
REMARK SMILES CCCCCCCCCCCCCC(=O)[O-]
REMARK SMILES IDX 8 1 9 2 10 3 11 4 12 5 13 6 14 7 15 8 16 9 7 10 6 11 5 12
REMARK SMILES IDX 4 13 3 14 2 15 1 16
REMARK H PARENT
REMARK Flexibility Score: inf
ROOT
ATOM      1  C   UNL     1      12.704  12.816  34.450  1.00  0.00     0.000 C 
ENDROOT
BRANCH   1   2
ATOM      2  C   UNL     1      13.303  12.409  33.090  1.00  0.00     0.000 C 
BRANCH   2   3
ATOM      3  C   UNL     1      13.667  10.919  32.948  1.00  0.00     0.000 C 
BRANCH   3   4
ATOM      4  C   UNL     1      15.016  10.567  33.598  1.00  0.00     0.000 C 
BRANCH   4   5
ATOM      5  C   UNL     1      16.174  11.438  33.073  1.00  0.00     0.006 C 
BRANCH   5   6
ATOM      6  C   UNL     1      17.227  11.799  34.133  1.00  0.00     0.053 C 
BRANCH   6   7
ATOM      7  C   UNL     1      18.598  11.920  33.543  1.00  0.00     0.041 C 
ATOM      8  O   UNL     1      18.900  11.277  32.504  1.00  0.00    -0.550 OA
ATOM      9  O   UNL     1      19.532  12.769  34.123  1.00  0.00    -0.550 OA
ENDBRANCH   6   7
ENDBRANCH   5   6
ENDBRANCH   4   5
ENDBRANCH   3   4
ENDBRANCH   2   3
ENDBRANCH   1   2
BRANCH   1  10
ATOM     10  C   UNL     1      13.672  13.650  35.306  1.00  0.00     0.000 C 
BRANCH  10  11
ATOM     11  C   UNL     1      13.898  13.053  36.707  1.00  0.00    -0.000 C 
BRANCH  11  12
ATOM     12  C   UNL     1      13.869  11.513  36.783  1.00  0.00    -0.000 C 
BRANCH  12  13
ATOM     13  C   UNL     1      12.982  10.925  37.895  1.00  0.00    -0.000 C 
BRANCH  13  14
ATOM     14  C   UNL     1      11.503  10.826  37.487  1.00  0.00    -0.000 C 
BRANCH  14  15
ATOM     15  C   UNL     1      10.582  11.634  38.416  1.00  0.00    -0.003 C 
ATOM     16  C   UNL     1      10.286  13.037  37.884  1.00  0.00     0.004 C 
ENDBRANCH  14  15
ENDBRANCH  13  14
ENDBRANCH  12  13
ENDBRANCH  11  12
ENDBRANCH  10  11
ENDBRANCH   1  10
TORSDOF 12
ENDMDL
MODEL 6
REMARK VINA RESULT:    -4.241      1.254      2.479
REMARK INTER + INTRA:          -9.279
REMARK INTER:                  -7.310
REMARK INTRA:                  -1.969
REMARK UNBOUND:                -2.063
REMARK SMILES CCCCCCCCCCCCCC(=O)[O-]
REMARK SMILES IDX 8 1 9 2 10 3 11 4 12 5 13 6 14 7 15 8 16 9 7 10 6 11 5 12
REMARK SMILES IDX 4 13 3 14 2 15 1 16
REMARK H PARENT
REMARK Flexibility Score: inf
ROOT
ATOM      1  C   UNL     1      13.903  10.450  33.424  1.00  0.00     0.000 C 
ENDROOT
BRANCH   1   2
ATOM      2  C   UNL     1      15.215  11.077  32.918  1.00  0.00     0.000 C 
BRANCH   2   3
ATOM      3  C   UNL     1      15.868  12.099  33.866  1.00  0.00     0.000 C 
BRANCH   3   4
ATOM      4  C   UNL     1      17.198  11.603  34.460  1.00  0.00     0.000 C 
BRANCH   4   5
ATOM      5  C   UNL     1      17.265  11.772  35.990  1.00  0.00     0.006 C 
BRANCH   5   6
ATOM      6  C   UNL     1      17.342  13.232  36.464  1.00  0.00     0.053 C 
BRANCH   6   7
ATOM      7  C   UNL     1      18.492  13.964  35.843  1.00  0.00     0.041 C 
ATOM      8  O   UNL     1      18.284  14.961  35.102  1.00  0.00    -0.550 OA
ATOM      9  O   UNL     1      19.795  13.565  36.108  1.00  0.00    -0.550 OA
ENDBRANCH   6   7
ENDBRANCH   5   6
ENDBRANCH   4   5
ENDBRANCH   3   4
ENDBRANCH   2   3
ENDBRANCH   1   2
BRANCH   1  10
ATOM     10  C   UNL     1      14.024   9.867  34.842  1.00  0.00     0.000 C 
BRANCH  10  11
ATOM     11  C   UNL     1      12.666   9.745  35.557  1.00  0.00    -0.000 C 
BRANCH  11  12
ATOM     12  C   UNL     1      12.392  10.804  36.645  1.00  0.00    -0.000 C 
BRANCH  12  13
ATOM     13  C   UNL     1      13.616  11.627  37.084  1.00  0.00    -0.000 C 
BRANCH  13  14
ATOM     14  C   UNL     1      13.559  13.085  36.599  1.00  0.00    -0.000 C 
BRANCH  14  15
ATOM     15  C   UNL     1      12.268  13.397  35.825  1.00  0.00    -0.003 C 
ATOM     16  C   UNL     1      12.522  13.719  34.352  1.00  0.00     0.004 C 
ENDBRANCH  14  15
ENDBRANCH  13  14
ENDBRANCH  12  13
ENDBRANCH  11  12
ENDBRANCH  10  11
ENDBRANCH   1  10
TORSDOF 12
ENDMDL
MODEL 7
REMARK VINA RESULT:    -4.212      3.252      5.679
REMARK INTER + INTRA:          -9.231
REMARK INTER:                  -7.521
REMARK INTRA:                  -1.709
REMARK UNBOUND:                -2.063
REMARK SMILES CCCCCCCCCCCCCC(=O)[O-]
REMARK SMILES IDX 8 1 9 2 10 3 11 4 12 5 13 6 14 7 15 8 16 9 7 10 6 11 5 12
REMARK SMILES IDX 4 13 3 14 2 15 1 16
REMARK H PARENT
REMARK Flexibility Score: inf
ROOT
ATOM      1  C   UNL     1      12.385  13.353  34.347  1.00  0.00     0.000 C 
ENDROOT
BRANCH   1   2
ATOM      2  C   UNL     1      13.274  13.807  35.520  1.00  0.00     0.000 C 
BRANCH   2   3
ATOM      3  C   UNL     1      13.186  12.942  36.790  1.00  0.00     0.000 C 
BRANCH   3   4
ATOM      4  C   UNL     1      11.737  12.624  37.200  1.00  0.00     0.000 C 
BRANCH   4   5
ATOM      5  C   UNL     1      11.525  11.133  37.523  1.00  0.00     0.006 C 
BRANCH   5   6
ATOM      6  C   UNL     1      12.650  10.210  37.027  1.00  0.00     0.053 C 
BRANCH   6   7
ATOM      7  C   UNL     1      13.329   9.497  38.155  1.00  0.00     0.041 C 
ATOM      8  O   UNL     1      13.975   8.438  37.939  1.00  0.00    -0.550 OA
ATOM      9  O   UNL     1      13.276  10.020  39.441  1.00  0.00    -0.550 OA
ENDBRANCH   6   7
ENDBRANCH   5   6
ENDBRANCH   4   5
ENDBRANCH   3   4
ENDBRANCH   2   3
ENDBRANCH   1   2
BRANCH   1  10
ATOM     10  C   UNL     1      13.170  12.627  33.244  1.00  0.00     0.000 C 
BRANCH  10  11
ATOM     11  C   UNL     1      13.986  11.434  33.775  1.00  0.00    -0.000 C 
BRANCH  11  12
ATOM     12  C   UNL     1      15.233  11.062  32.946  1.00  0.00    -0.000 C 
BRANCH  12  13
ATOM     13  C   UNL     1      16.577  11.529  33.534  1.00  0.00    -0.000 C 
BRANCH  13  14
ATOM     14  C   UNL     1      16.490  11.855  35.033  1.00  0.00    -0.000 C 
BRANCH  14  15
ATOM     15  C   UNL     1      16.880  13.310  35.342  1.00  0.00    -0.003 C 
ATOM     16  C   UNL     1      16.647  14.250  34.159  1.00  0.00     0.004 C 
ENDBRANCH  14  15
ENDBRANCH  13  14
ENDBRANCH  12  13
ENDBRANCH  11  12
ENDBRANCH  10  11
ENDBRANCH   1  10
TORSDOF 12
ENDMDL
MODEL 8
REMARK VINA RESULT:    -4.171      1.847      3.379
REMARK INTER + INTRA:          -9.160
REMARK INTER:                  -7.802
REMARK INTRA:                  -1.358
REMARK UNBOUND:                -2.063
REMARK SMILES CCCCCCCCCCCCCC(=O)[O-]
REMARK SMILES IDX 8 1 9 2 10 3 11 4 12 5 13 6 14 7 15 8 16 9 7 10 6 11 5 12
REMARK SMILES IDX 4 13 3 14 2 15 1 16
REMARK H PARENT
REMARK Flexibility Score: inf
ROOT
ATOM      1  C   UNL     1      17.020  11.825  34.212  1.00  0.00     0.000 C 
ENDROOT
BRANCH   1   2
ATOM      2  C   UNL     1      17.064  13.336  34.507  1.00  0.00     0.000 C 
BRANCH   2   3
ATOM      3  C   UNL     1      17.592  13.721  35.902  1.00  0.00     0.000 C 
BRANCH   3   4
ATOM      4  C   UNL     1      18.894  14.540  35.846  1.00  0.00     0.000 C 
BRANCH   4   5
ATOM      5  C   UNL     1      19.178  15.109  34.442  1.00  0.00     0.006 C 
BRANCH   5   6
ATOM      6  C   UNL     1      20.068  16.361  34.434  1.00  0.00     0.053 C 
BRANCH   6   7
ATOM      7  C   UNL     1      19.757  17.264  33.280  1.00  0.00     0.041 C 
ATOM      8  O   UNL     1      19.501  16.779  32.147  1.00  0.00    -0.550 OA
ATOM      9  O   UNL     1      19.717  18.640  33.464  1.00  0.00    -0.550 OA
ENDBRANCH   6   7
ENDBRANCH   5   6
ENDBRANCH   4   5
ENDBRANCH   3   4
ENDBRANCH   2   3
ENDBRANCH   1   2
BRANCH   1  10
ATOM     10  C   UNL     1      16.124  11.474  33.013  1.00  0.00     0.000 C 
BRANCH  10  11
ATOM     11  C   UNL     1      14.848  10.716  33.420  1.00  0.00    -0.000 C 
BRANCH  11  12
ATOM     12  C   UNL     1      13.520  11.377  32.996  1.00  0.00    -0.000 C 
BRANCH  12  13
ATOM     13  C   UNL     1      13.380  12.865  33.362  1.00  0.00    -0.000 C 
BRANCH  13  14
ATOM     14  C   UNL     1      12.655  13.084  34.700  1.00  0.00    -0.000 C 
BRANCH  14  15
ATOM     15  C   UNL     1      13.607  13.543  35.816  1.00  0.00    -0.003 C 
ATOM     16  C   UNL     1      14.034  12.400  36.739  1.00  0.00     0.004 C 
ENDBRANCH  14  15
ENDBRANCH  13  14
ENDBRANCH  12  13
ENDBRANCH  11  12
ENDBRANCH  10  11
ENDBRANCH   1  10
TORSDOF 12
ENDMDL
MODEL 9
REMARK VINA RESULT:    -4.169      1.390      2.211
REMARK INTER + INTRA:          -9.158
REMARK INTER:                  -7.286
REMARK INTRA:                  -1.872
REMARK UNBOUND:                -2.063
REMARK SMILES CCCCCCCCCCCCCC(=O)[O-]
REMARK SMILES IDX 8 1 9 2 10 3 11 4 12 5 13 6 14 7 15 8 16 9 7 10 6 11 5 12
REMARK SMILES IDX 4 13 3 14 2 15 1 16
REMARK H PARENT
REMARK Flexibility Score: inf
ROOT
ATOM      1  C   UNL     1      15.975  11.746  33.795  1.00  0.00     0.000 C 
ENDROOT
BRANCH   1   2
ATOM      2  C   UNL     1      16.669  11.043  34.977  1.00  0.00     0.000 C 
BRANCH   2   3
ATOM      3  C   UNL     1      16.590  11.784  36.325  1.00  0.00     0.000 C 
BRANCH   3   4
ATOM      4  C   UNL     1      16.893  13.287  36.202  1.00  0.00     0.000 C 
BRANCH   4   5
ATOM      5  C   UNL     1      18.184  13.695  36.937  1.00  0.00     0.006 C 
BRANCH   5   6
ATOM      6  C   UNL     1      19.254  14.331  36.035  1.00  0.00     0.053 C 
BRANCH   6   7
ATOM      7  C   UNL     1      19.642  13.430  34.904  1.00  0.00     0.041 C 
ATOM      8  O   UNL     1      19.429  13.779  33.713  1.00  0.00    -0.550 OA
ATOM      9  O   UNL     1      20.269  12.218  35.163  1.00  0.00    -0.550 OA
ENDBRANCH   6   7
ENDBRANCH   5   6
ENDBRANCH   4   5
ENDBRANCH   3   4
ENDBRANCH   2   3
ENDBRANCH   1   2
BRANCH   1  10
ATOM     10  C   UNL     1      14.848  10.905  33.173  1.00  0.00     0.000 C 
BRANCH  10  11
ATOM     11  C   UNL     1      13.516  11.670  33.073  1.00  0.00    -0.000 C 
BRANCH  11  12
ATOM     12  C   UNL     1      13.543  13.119  33.599  1.00  0.00    -0.000 C 
BRANCH  12  13
ATOM     13  C   UNL     1      12.572  13.417  34.756  1.00  0.00    -0.000 C 
BRANCH  13  14
ATOM     14  C   UNL     1      13.275  13.485  36.121  1.00  0.00    -0.000 C 
BRANCH  14  15
ATOM     15  C   UNL     1      12.710  12.465  37.124  1.00  0.00    -0.003 C 
ATOM     16  C   UNL     1      13.092  11.024  36.784  1.00  0.00     0.004 C 
ENDBRANCH  14  15
ENDBRANCH  13  14
ENDBRANCH  12  13
ENDBRANCH  11  12
ENDBRANCH  10  11
ENDBRANCH   1  10
TORSDOF 12
ENDMDL
