MODEL 1
REMARK VINA RESULT:    -4.216      0.000      0.000
REMARK INTER + INTRA:          -4.685
REMARK INTER:                  -4.463
REMARK INTRA:                  -0.222
REMARK UNBOUND:                -0.222
REMARK SMILES C=C1CC[C@@]2(C(C)C)C[C@@H]12
REMARK SMILES IDX 5 1 4 2 3 3 2 4 1 5 10 6 9 7 6 8 7 9 8 10
REMARK H PARENT
REMARK Flexibility Score: inf
ROOT
ATOM      1  C   UNL     1       6.302   6.604  13.161  1.00  0.00    -0.020 C 
ATOM      2  C   UNL     1       7.240   6.289  11.983  1.00  0.00     0.012 C 
ATOM      3  C   UNL     1       8.524   7.096  12.193  1.00  0.00     0.031 C 
ATOM      4  C   UNL     1       8.334   7.797  13.494  1.00  0.00    -0.074 C 
ATOM      5  C   UNL     1       9.267   8.572  14.054  1.00  0.00     0.008 C 
ATOM      6  C   UNL     1       7.013   7.538  14.128  1.00  0.00     0.021 C 
ATOM      7  C   UNL     1       6.753   6.089  14.529  1.00  0.00     0.016 C 
ENDROOT
BRANCH   1   8
ATOM      8  C   UNL     1       4.769   6.706  12.896  1.00  0.00    -0.011 C 
ATOM      9  C   UNL     1       4.477   7.911  11.993  1.00  0.00     0.008 C 
ATOM     10  C   UNL     1       4.103   5.441  12.328  1.00  0.00     0.008 C 
ENDBRANCH   1   8
TORSDOF 1
ENDMDL
MODEL 2
REMARK VINA RESULT:    -4.179      1.202      3.840
REMARK INTER + INTRA:          -4.645
REMARK INTER:                  -4.352
REMARK INTRA:                  -0.293
REMARK UNBOUND:                -0.222
REMARK SMILES C=C1CC[C@@]2(C(C)C)C[C@@H]12
REMARK SMILES IDX 5 1 4 2 3 3 2 4 1 5 10 6 9 7 6 8 7 9 8 10
REMARK H PARENT
REMARK Flexibility Score: inf
ROOT
ATOM      1  C   UNL     1       7.079   7.298  12.686  1.00  0.00    -0.020 C 
ATOM      2  C   UNL     1       7.761   5.956  12.370  1.00  0.00     0.012 C 
ATOM      3  C   UNL     1       6.677   4.875  12.397  1.00  0.00     0.031 C 
ATOM      4  C   UNL     1       5.406   5.606  12.660  1.00  0.00    -0.074 C 
ATOM      5  C   UNL     1       4.212   5.009  12.710  1.00  0.00     0.008 C 
ATOM      6  C   UNL     1       5.583   7.072  12.841  1.00  0.00     0.021 C 
ATOM      7  C   UNL     1       6.113   7.822  11.622  1.00  0.00     0.016 C 
ENDROOT
BRANCH   1   8
ATOM      8  C   UNL     1       7.847   8.347  13.546  1.00  0.00    -0.011 C 
ATOM      9  C   UNL     1       7.366   8.278  15.001  1.00  0.00     0.008 C 
ATOM     10  C   UNL     1       9.382   8.267  13.488  1.00  0.00     0.008 C 
ENDBRANCH   1   8
TORSDOF 1
ENDMDL
MODEL 3
REMARK VINA RESULT:    -4.067      0.955      3.982
REMARK INTER + INTRA:          -4.527
REMARK INTER:                  -4.227
REMARK INTRA:                  -0.300
REMARK UNBOUND:                -0.222
REMARK SMILES C=C1CC[C@@]2(C(C)C)C[C@@H]12
REMARK SMILES IDX 5 1 4 2 3 3 2 4 1 5 10 6 9 7 6 8 7 9 8 10
REMARK H PARENT
REMARK Flexibility Score: inf
ROOT
ATOM      1  C   UNL     1       6.707   6.553  13.291  1.00  0.00    -0.020 C 
ATOM      2  C   UNL     1       5.660   7.647  13.565  1.00  0.00     0.012 C 
ATOM      3  C   UNL     1       4.302   7.101  13.118  1.00  0.00     0.031 C 
ATOM      4  C   UNL     1       4.573   5.707  12.665  1.00  0.00    -0.074 C 
ATOM      5  C   UNL     1       3.618   4.875  12.241  1.00  0.00     0.008 C 
ATOM      6  C   UNL     1       6.006   5.318  12.747  1.00  0.00     0.021 C 
ATOM      7  C   UNL     1       6.597   5.295  14.153  1.00  0.00     0.016 C 
ENDROOT
BRANCH   1   8
ATOM      8  C   UNL     1       8.126   6.976  12.804  1.00  0.00    -0.011 C 
ATOM      9  C   UNL     1       8.130   7.120  11.278  1.00  0.00     0.008 C 
ATOM     10  C   UNL     1       8.711   8.238  13.461  1.00  0.00     0.008 C 
ENDBRANCH   1   8
TORSDOF 1
ENDMDL
MODEL 4
REMARK VINA RESULT:    -2.210      1.310      3.911
REMARK INTER + INTRA:          -2.561
REMARK INTER:                  -2.291
REMARK INTRA:                  -0.270
REMARK UNBOUND:                -0.222
REMARK SMILES C=C1CC[C@@]2(C(C)C)C[C@@H]12
REMARK SMILES IDX 5 1 4 2 3 3 2 4 1 5 10 6 9 7 6 8 7 9 8 10
REMARK H PARENT
REMARK Flexibility Score: inf
ROOT
ATOM      1  C   UNL     1       5.912   7.277  12.234  1.00  0.00    -0.020 C 
ATOM      2  C   UNL     1       5.127   5.964  12.389  1.00  0.00     0.012 C 
ATOM      3  C   UNL     1       3.838   6.289  13.149  1.00  0.00     0.031 C 
ATOM      4  C   UNL     1       3.872   7.764  13.358  1.00  0.00    -0.074 C 
ATOM      5  C   UNL     1       2.887   8.444  13.950  1.00  0.00     0.008 C 
ATOM      6  C   UNL     1       5.097   8.417  12.826  1.00  0.00     0.021 C 
ATOM      7  C   UNL     1       5.283   8.325  11.314  1.00  0.00     0.016 C 
ENDROOT
BRANCH   1   8
ATOM      8  C   UNL     1       7.467   7.239  12.331  1.00  0.00    -0.011 C 
ATOM      9  C   UNL     1       7.918   7.828  13.674  1.00  0.00     0.008 C 
ATOM     10  C   UNL     1       8.119   5.865  12.106  1.00  0.00     0.008 C 
ENDBRANCH   1   8
TORSDOF 1
ENDMDL
