MODEL 1
REMARK VINA RESULT:    -3.568      0.000      0.000
REMARK INTER + INTRA:          -5.243
REMARK INTER:                  -4.611
REMARK INTRA:                  -0.633
REMARK UNBOUND:                -0.633
REMARK SMILES CO[C@]1(CO)O[C@@H](CO)[C@H](O)[C@H]1O
REMARK SMILES IDX 3 1 12 2 10 3 7 4 6 5 2 6 1 7 4 8 5 9 13 11 11 13 8 15 9 16
REMARK H PARENT 5 10 13 12 11 14 9 17
REMARK Flexibility Score: inf
ROOT
ATOM      1  C   UNL     1      18.483  -7.620   6.756  1.00  0.00     0.221 C 
ATOM      2  C   UNL     1      19.327  -8.904   6.689  1.00  0.00     0.207 C 
ATOM      3  C   UNL     1      19.771  -8.917   5.247  1.00  0.00     0.180 C 
ATOM      4  C   UNL     1      19.777  -7.429   4.871  1.00  0.00     0.179 C 
ATOM      5  O   UNL     1      19.060  -6.698   5.846  1.00  0.00    -0.337 OA
ENDROOT
BRANCH   1   6
ATOM      6  O   UNL     1      17.150  -7.972   6.382  1.00  0.00    -0.349 OA
ATOM      7  C   UNL     1      16.186  -7.025   6.800  1.00  0.00     0.198 C 
ENDBRANCH   1   6
BRANCH   1   8
ATOM      8  C   UNL     1      18.459  -7.014   8.178  1.00  0.00     0.224 C 
BRANCH   8   9
ATOM      9  O   UNL     1      19.494  -6.081   8.337  1.00  0.00    -0.391 OA
ATOM     10  H   UNL     1      19.654  -6.008   9.314  1.00  0.00     0.210 HD
ENDBRANCH   8   9
ENDBRANCH   1   8
BRANCH   2  11
ATOM     11  O   UNL     1      20.465  -8.834   7.514  1.00  0.00    -0.385 OA
ATOM     12  H   UNL     1      20.792  -9.763   7.636  1.00  0.00     0.211 HD
ENDBRANCH   2  11
BRANCH   3  13
ATOM     13  O   UNL     1      18.832  -9.598   4.453  1.00  0.00    -0.387 OA
ATOM     14  H   UNL     1      17.962  -9.134   4.580  1.00  0.00     0.211 HD
ENDBRANCH   3  13
BRANCH   4  15
ATOM     15  C   UNL     1      21.199  -6.857   4.773  1.00  0.00     0.191 C 
BRANCH  15  16
ATOM     16  O   UNL     1      21.385  -5.840   5.721  1.00  0.00    -0.394 OA
ATOM     17  H   UNL     1      20.676  -5.162   5.569  1.00  0.00     0.210 HD
ENDBRANCH  15  16
ENDBRANCH   4  15
TORSDOF 7
ENDMDL
MODEL 2
REMARK VINA RESULT:    -3.430      1.714      3.974
REMARK INTER + INTRA:          -5.065
REMARK INTER:                  -4.513
REMARK INTRA:                  -0.553
REMARK UNBOUND:                -0.633
REMARK SMILES CO[C@]1(CO)O[C@@H](CO)[C@H](O)[C@H]1O
REMARK SMILES IDX 3 1 12 2 10 3 7 4 6 5 2 6 1 7 4 8 5 9 13 11 11 13 8 15 9 16
REMARK H PARENT 5 10 13 12 11 14 9 17
REMARK Flexibility Score: inf
ROOT
ATOM      1  C   UNL     1      18.145  -7.502   6.749  1.00  0.00     0.221 C 
ATOM      2  C   UNL     1      16.765  -6.829   6.844  1.00  0.00     0.207 C 
ATOM      3  C   UNL     1      16.010  -7.492   5.718  1.00  0.00     0.180 C 
ATOM      4  C   UNL     1      16.698  -8.859   5.596  1.00  0.00     0.179 C 
ATOM      5  O   UNL     1      17.928  -8.827   6.292  1.00  0.00    -0.337 OA
ENDROOT
BRANCH   1   6
ATOM      6  O   UNL     1      18.921  -6.742   5.822  1.00  0.00    -0.349 OA
ATOM      7  C   UNL     1      20.090  -7.412   5.394  1.00  0.00     0.198 C 
ENDBRANCH   1   6
BRANCH   1   8
ATOM      8  C   UNL     1      18.875  -7.526   8.112  1.00  0.00     0.224 C 
BRANCH   8   9
ATOM      9  O   UNL     1      18.648  -6.335   8.817  1.00  0.00    -0.391 OA
ATOM     10  H   UNL     1      18.579  -6.589   9.774  1.00  0.00     0.210 HD
ENDBRANCH   8   9
ENDBRANCH   1   8
BRANCH   2  11
ATOM     11  O   UNL     1      16.116  -7.119   8.059  1.00  0.00    -0.385 OA
ATOM     12  H   UNL     1      15.325  -7.677   7.839  1.00  0.00     0.211 HD
ENDBRANCH   2  11
BRANCH   3  13
ATOM     13  O   UNL     1      16.181  -6.771   4.524  1.00  0.00    -0.387 OA
ATOM     14  H   UNL     1      15.940  -5.828   4.724  1.00  0.00     0.211 HD
ENDBRANCH   3  13
BRANCH   4  15
ATOM     15  C   UNL     1      15.839  -9.998   6.164  1.00  0.00     0.191 C 
BRANCH  15  16
ATOM     16  O   UNL     1      14.782  -9.481   6.927  1.00  0.00    -0.394 OA
ATOM     17  H   UNL     1      14.059  -9.229   6.296  1.00  0.00     0.210 HD
ENDBRANCH  15  16
ENDBRANCH   4  15
TORSDOF 7
ENDMDL
MODEL 3
REMARK VINA RESULT:    -3.309      1.350      1.797
REMARK INTER + INTRA:          -4.909
REMARK INTER:                  -4.366
REMARK INTRA:                  -0.543
REMARK UNBOUND:                -0.633
REMARK SMILES CO[C@]1(CO)O[C@@H](CO)[C@H](O)[C@H]1O
REMARK SMILES IDX 3 1 12 2 10 3 7 4 6 5 2 6 1 7 4 8 5 9 13 11 11 13 8 15 9 16
REMARK H PARENT 5 10 13 12 11 14 9 17
REMARK Flexibility Score: inf
ROOT
ATOM      1  C   UNL     1      17.614  -7.574   6.095  1.00  0.00     0.221 C 
ATOM      2  C   UNL     1      18.812  -7.836   7.024  1.00  0.00     0.207 C 
ATOM      3  C   UNL     1      19.942  -8.020   6.041  1.00  0.00     0.180 C 
ATOM      4  C   UNL     1      19.491  -7.187   4.833  1.00  0.00     0.179 C 
ATOM      5  O   UNL     1      18.114  -6.888   4.959  1.00  0.00    -0.337 OA
ENDROOT
BRANCH   1   6
ATOM      6  O   UNL     1      17.063  -8.845   5.749  1.00  0.00    -0.349 OA
ATOM      7  C   UNL     1      16.055  -8.764   4.760  1.00  0.00     0.198 C 
ENDBRANCH   1   6
BRANCH   1   8
ATOM      8  C   UNL     1      16.520  -6.725   6.784  1.00  0.00     0.224 C 
BRANCH   8   9
ATOM      9  O   UNL     1      16.432  -7.041   8.147  1.00  0.00    -0.391 OA
ATOM     10  H   UNL     1      16.954  -6.347   8.626  1.00  0.00     0.210 HD
ENDBRANCH   8   9
ENDBRANCH   1   8
BRANCH   2  11
ATOM     11  O   UNL     1      19.100  -6.729   7.844  1.00  0.00    -0.385 OA
ATOM     12  H   UNL     1      19.801  -7.017   8.485  1.00  0.00     0.211 HD
ENDBRANCH   2  11
BRANCH   3  13
ATOM     13  O   UNL     1      20.048  -9.371   5.667  1.00  0.00    -0.387 OA
ATOM     14  H   UNL     1      19.156  -9.780   5.821  1.00  0.00     0.211 HD
ENDBRANCH   3  13
BRANCH   4  15
ATOM     15  C   UNL     1      20.272  -5.871   4.707  1.00  0.00     0.191 C 
BRANCH  15  16
ATOM     16  O   UNL     1      21.001  -5.619   5.878  1.00  0.00    -0.394 OA
ATOM     17  H   UNL     1      21.834  -5.150   5.611  1.00  0.00     0.210 HD
ENDBRANCH  15  16
ENDBRANCH   4  15
TORSDOF 7
ENDMDL
MODEL 4
REMARK VINA RESULT:    -3.245      1.783      3.094
REMARK INTER + INTRA:          -4.827
REMARK INTER:                  -4.220
REMARK INTRA:                  -0.606
REMARK UNBOUND:                -0.633
REMARK SMILES CO[C@]1(CO)O[C@@H](CO)[C@H](O)[C@H]1O
REMARK SMILES IDX 3 1 12 2 10 3 7 4 6 5 2 6 1 7 4 8 5 9 13 11 11 13 8 15 9 16
REMARK H PARENT 5 10 13 12 11 14 9 17
REMARK Flexibility Score: inf
ROOT
ATOM      1  C   UNL     1      16.794  -8.142   5.679  1.00  0.00     0.221 C 
ATOM      2  C   UNL     1      17.847  -9.249   5.853  1.00  0.00     0.207 C 
ATOM      3  C   UNL     1      19.096  -8.456   6.148  1.00  0.00     0.180 C 
ATOM      4  C   UNL     1      18.550  -7.176   6.795  1.00  0.00     0.179 C 
ATOM      5  O   UNL     1      17.161  -7.082   6.547  1.00  0.00    -0.337 OA
ENDROOT
BRANCH   1   6
ATOM      6  O   UNL     1      16.825  -7.741   4.309  1.00  0.00    -0.349 OA
ATOM      7  C   UNL     1      16.131  -6.533   4.066  1.00  0.00     0.198 C 
ENDBRANCH   1   6
BRANCH   1   8
ATOM      8  C   UNL     1      15.369  -8.636   6.024  1.00  0.00     0.224 C 
BRANCH   8   9
ATOM      9  O   UNL     1      15.029  -8.291   7.339  1.00  0.00    -0.391 OA
ATOM     10  H   UNL     1      14.236  -8.839   7.573  1.00  0.00     0.210 HD
ENDBRANCH   8   9
ENDBRANCH   1   8
BRANCH   2  11
ATOM     11  O   UNL     1      17.567 -10.081   6.953  1.00  0.00    -0.385 OA
ATOM     12  H   UNL     1      16.580 -10.169   7.007  1.00  0.00     0.211 HD
ENDBRANCH   2  11
BRANCH   3  13
ATOM     13  O   UNL     1      19.762  -8.131   4.953  1.00  0.00    -0.387 OA
ATOM     14  H   UNL     1      20.715  -8.385   5.079  1.00  0.00     0.211 HD
ENDBRANCH   3  13
BRANCH   4  15
ATOM     15  C   UNL     1      18.784  -7.144   8.312  1.00  0.00     0.191 C 
BRANCH  15  16
ATOM     16  O   UNL     1      19.383  -8.337   8.742  1.00  0.00    -0.394 OA
ATOM     17  H   UNL     1      19.297  -8.370   9.731  1.00  0.00     0.210 HD
ENDBRANCH  15  16
ENDBRANCH   4  15
TORSDOF 7
ENDMDL
MODEL 5
REMARK VINA RESULT:    -3.172      1.647      3.474
REMARK INTER + INTRA:          -4.732
REMARK INTER:                  -3.908
REMARK INTRA:                  -0.824
REMARK UNBOUND:                -0.633
REMARK SMILES CO[C@]1(CO)O[C@@H](CO)[C@H](O)[C@H]1O
REMARK SMILES IDX 3 1 12 2 10 3 7 4 6 5 2 6 1 7 4 8 5 9 13 11 11 13 8 15 9 16
REMARK H PARENT 5 10 13 12 11 14 9 17
REMARK Flexibility Score: inf
ROOT
ATOM      1  C   UNL     1      18.463  -7.593   5.265  1.00  0.00     0.221 C 
ATOM      2  C   UNL     1      18.332  -8.919   6.033  1.00  0.00     0.207 C 
ATOM      3  C   UNL     1      19.235  -8.689   7.220  1.00  0.00     0.180 C 
ATOM      4  C   UNL     1      19.196  -7.165   7.397  1.00  0.00     0.179 C 
ATOM      5  O   UNL     1      18.657  -6.573   6.231  1.00  0.00    -0.337 OA
ENDROOT
BRANCH   1   6
ATOM      6  O   UNL     1      19.588  -7.719   4.394  1.00  0.00    -0.349 OA
ATOM      7  C   UNL     1      20.032  -6.481   3.875  1.00  0.00     0.198 C 
ENDBRANCH   1   6
BRANCH   1   8
ATOM      8  C   UNL     1      17.206  -7.285   4.418  1.00  0.00     0.224 C 
BRANCH   8   9
ATOM      9  O   UNL     1      16.244  -6.612   5.184  1.00  0.00    -0.391 OA
ATOM     10  H   UNL     1      16.713  -6.293   5.998  1.00  0.00     0.210 HD
ENDBRANCH   8   9
ENDBRANCH   1   8
BRANCH   2  11
ATOM     11  O   UNL     1      17.021  -9.137   6.496  1.00  0.00    -0.385 OA
ATOM     12  H   UNL     1      17.082  -9.784   7.245  1.00  0.00     0.211 HD
ENDBRANCH   2  11
BRANCH   3  13
ATOM     13  O   UNL     1      20.547  -9.094   6.921  1.00  0.00    -0.387 OA
ATOM     14  H   UNL     1      20.530 -10.085   6.849  1.00  0.00     0.211 HD
ENDBRANCH   3  13
BRANCH   4  15
ATOM     15  C   UNL     1      18.348  -6.739   8.604  1.00  0.00     0.191 C 
BRANCH  15  16
ATOM     16  O   UNL     1      16.985  -6.743   8.272  1.00  0.00    -0.394 OA
ATOM     17  H   UNL     1      16.496  -6.330   9.031  1.00  0.00     0.210 HD
ENDBRANCH  15  16
ENDBRANCH   4  15
TORSDOF 7
ENDMDL
MODEL 6
REMARK VINA RESULT:    -3.089      1.433      2.942
REMARK INTER + INTRA:          -4.625
REMARK INTER:                  -4.213
REMARK INTRA:                  -0.411
REMARK UNBOUND:                -0.633
REMARK SMILES CO[C@]1(CO)O[C@@H](CO)[C@H](O)[C@H]1O
REMARK SMILES IDX 3 1 12 2 10 3 7 4 6 5 2 6 1 7 4 8 5 9 13 11 11 13 8 15 9 16
REMARK H PARENT 5 10 13 12 11 14 9 17
REMARK Flexibility Score: inf
ROOT
ATOM      1  C   UNL     1      18.829  -8.269   7.043  1.00  0.00     0.221 C 
ATOM      2  C   UNL     1      19.716  -7.650   5.950  1.00  0.00     0.207 C 
ATOM      3  C   UNL     1      18.922  -7.934   4.698  1.00  0.00     0.180 C 
ATOM      4  C   UNL     1      17.476  -7.995   5.211  1.00  0.00     0.179 C 
ATOM      5  O   UNL     1      17.484  -8.118   6.619  1.00  0.00    -0.337 OA
ENDROOT
BRANCH   1   6
ATOM      6  O   UNL     1      19.198  -9.643   7.159  1.00  0.00    -0.349 OA
ATOM      7  C   UNL     1      19.799  -9.957   8.400  1.00  0.00     0.198 C 
ENDBRANCH   1   6
BRANCH   1   8
ATOM      8  C   UNL     1      19.030  -7.580   8.414  1.00  0.00     0.224 C 
BRANCH   8   9
ATOM      9  O   UNL     1      18.013  -6.645   8.653  1.00  0.00    -0.391 OA
ATOM     10  H   UNL     1      17.497  -6.990   9.426  1.00  0.00     0.210 HD
ENDBRANCH   8   9
ENDBRANCH   1   8
BRANCH   2  11
ATOM     11  O   UNL     1      19.847  -6.257   6.098  1.00  0.00    -0.385 OA
ATOM     12  H   UNL     1      20.752  -6.015   5.770  1.00  0.00     0.211 HD
ENDBRANCH   2  11
BRANCH   3  13
ATOM     13  O   UNL     1      19.284  -9.183   4.163  1.00  0.00    -0.387 OA
ATOM     14  H   UNL     1      19.556  -9.021   3.221  1.00  0.00     0.211 HD
ENDBRANCH   3  13
BRANCH   4  15
ATOM     15  C   UNL     1      16.669  -6.747   4.829  1.00  0.00     0.191 C 
BRANCH  15  16
ATOM     16  O   UNL     1      15.786  -6.398   5.862  1.00  0.00    -0.394 OA
ATOM     17  H   UNL     1      14.922  -6.152   5.440  1.00  0.00     0.210 HD
ENDBRANCH  15  16
ENDBRANCH   4  15
TORSDOF 7
ENDMDL
MODEL 7
REMARK VINA RESULT:    -3.008      1.147      3.986
REMARK INTER + INTRA:          -4.520
REMARK INTER:                  -3.679
REMARK INTRA:                  -0.841
REMARK UNBOUND:                -0.633
REMARK SMILES CO[C@]1(CO)O[C@@H](CO)[C@H](O)[C@H]1O
REMARK SMILES IDX 3 1 12 2 10 3 7 4 6 5 2 6 1 7 4 8 5 9 13 11 11 13 8 15 9 16
REMARK H PARENT 5 10 13 12 11 14 9 17
REMARK Flexibility Score: inf
ROOT
ATOM      1  C   UNL     1      19.078  -7.772   5.699  1.00  0.00     0.221 C 
ATOM      2  C   UNL     1      19.226  -8.339   7.121  1.00  0.00     0.207 C 
ATOM      3  C   UNL     1      18.472  -7.325   7.947  1.00  0.00     0.180 C 
ATOM      4  C   UNL     1      17.444  -6.765   6.955  1.00  0.00     0.179 C 
ATOM      5  O   UNL     1      17.816  -7.127   5.641  1.00  0.00    -0.337 OA
ENDROOT
BRANCH   1   6
ATOM      6  O   UNL     1      20.153  -6.855   5.497  1.00  0.00    -0.349 OA
ATOM      7  C   UNL     1      20.018  -6.090   4.315  1.00  0.00     0.198 C 
ENDBRANCH   1   6
BRANCH   1   8
ATOM      8  C   UNL     1      19.156  -8.879   4.622  1.00  0.00     0.224 C 
BRANCH   8   9
ATOM      9  O   UNL     1      17.907  -9.494   4.451  1.00  0.00    -0.391 OA
ATOM     10  H   UNL     1      17.338  -8.836   3.975  1.00  0.00     0.210 HD
ENDBRANCH   8   9
ENDBRANCH   1   8
BRANCH   2  11
ATOM     11  O   UNL     1      18.602  -9.592   7.261  1.00  0.00    -0.385 OA
ATOM     12  H   UNL     1      17.632  -9.452   7.111  1.00  0.00     0.211 HD
ENDBRANCH   2  11
BRANCH   3  13
ATOM     13  O   UNL     1      19.334  -6.295   8.362  1.00  0.00    -0.387 OA
ATOM     14  H   UNL     1      20.228  -6.499   7.977  1.00  0.00     0.211 HD
ENDBRANCH   3  13
BRANCH   4  15
ATOM     15  C   UNL     1      16.026  -7.287   7.228  1.00  0.00     0.191 C 
BRANCH  15  16
ATOM     16  O   UNL     1      15.852  -8.557   6.657  1.00  0.00    -0.394 OA
ATOM     17  H   UNL     1      14.940  -8.581   6.265  1.00  0.00     0.210 HD
ENDBRANCH  15  16
ENDBRANCH   4  15
TORSDOF 7
ENDMDL
MODEL 8
REMARK VINA RESULT:    -2.859      1.371      3.333
REMARK INTER + INTRA:          -4.328
REMARK INTER:                  -3.820
REMARK INTRA:                  -0.508
REMARK UNBOUND:                -0.633
REMARK SMILES CO[C@]1(CO)O[C@@H](CO)[C@H](O)[C@H]1O
REMARK SMILES IDX 3 1 12 2 10 3 7 4 6 5 2 6 1 7 4 8 5 9 13 11 11 13 8 15 9 16
REMARK H PARENT 5 10 13 12 11 14 9 17
REMARK Flexibility Score: inf
ROOT
ATOM      1  C   UNL     1      19.612  -7.603   5.360  1.00  0.00     0.221 C 
ATOM      2  C   UNL     1      18.846  -6.912   6.501  1.00  0.00     0.207 C 
ATOM      3  C   UNL     1      18.146  -8.074   7.163  1.00  0.00     0.180 C 
ATOM      4  C   UNL     1      19.070  -9.259   6.853  1.00  0.00     0.179 C 
ATOM      5  O   UNL     1      19.970  -8.894   5.825  1.00  0.00    -0.337 OA
ENDROOT
BRANCH   1   6
ATOM      6  O   UNL     1      18.730  -7.669   4.239  1.00  0.00    -0.349 OA
ATOM      7  C   UNL     1      18.190  -6.412   3.880  1.00  0.00     0.198 C 
ENDBRANCH   1   6
BRANCH   1   8
ATOM      8  C   UNL     1      20.881  -6.818   4.953  1.00  0.00     0.224 C 
BRANCH   8   9
ATOM      9  O   UNL     1      22.036  -7.483   5.387  1.00  0.00    -0.391 OA
ATOM     10  H   UNL     1      21.762  -8.416   5.582  1.00  0.00     0.210 HD
ENDBRANCH   8   9
ENDBRANCH   1   8
BRANCH   2  11
ATOM     11  O   UNL     1      19.712  -6.313   7.434  1.00  0.00    -0.385 OA
ATOM     12  H   UNL     1      20.614  -6.291   7.022  1.00  0.00     0.211 HD
ENDBRANCH   2  11
BRANCH   3  13
ATOM     13  O   UNL     1      16.890  -8.289   6.568  1.00  0.00    -0.387 OA
ATOM     14  H   UNL     1      16.621  -7.428   6.151  1.00  0.00     0.211 HD
ENDBRANCH   3  13
BRANCH   4  15
ATOM     15  C   UNL     1      19.878  -9.705   8.080  1.00  0.00     0.191 C 
BRANCH  15  16
ATOM     16  O   UNL     1      19.518  -8.950   9.206  1.00  0.00    -0.394 OA
ATOM     17  H   UNL     1      20.358  -8.632   9.628  1.00  0.00     0.210 HD
ENDBRANCH  15  16
ENDBRANCH   4  15
TORSDOF 7
ENDMDL
MODEL 9
REMARK VINA RESULT:    -2.804      2.012      3.783
REMARK INTER + INTRA:          -4.257
REMARK INTER:                  -3.440
REMARK INTRA:                  -0.816
REMARK UNBOUND:                -0.633
REMARK SMILES CO[C@]1(CO)O[C@@H](CO)[C@H](O)[C@H]1O
REMARK SMILES IDX 3 1 12 2 10 3 7 4 6 5 2 6 1 7 4 8 5 9 13 11 11 13 8 15 9 16
REMARK H PARENT 5 10 13 12 11 14 9 17
REMARK Flexibility Score: inf
ROOT
ATOM      1  C   UNL     1      17.550  -7.602   6.377  1.00  0.00     0.221 C 
ATOM      2  C   UNL     1      17.776  -6.950   5.003  1.00  0.00     0.207 C 
ATOM      3  C   UNL     1      18.286  -8.108   4.181  1.00  0.00     0.180 C 
ATOM      4  C   UNL     1      17.652  -9.326   4.867  1.00  0.00     0.179 C 
ATOM      5  O   UNL     1      17.165  -8.946   6.139  1.00  0.00    -0.337 OA
ENDROOT
BRANCH   1   6
ATOM      6  O   UNL     1      18.785  -7.523   7.090  1.00  0.00    -0.349 OA
ATOM      7  C   UNL     1      18.669  -6.860   8.333  1.00  0.00     0.198 C 
ENDBRANCH   1   6
BRANCH   1   8
ATOM      8  C   UNL     1      16.455  -6.875   7.193  1.00  0.00     0.224 C 
BRANCH   8   9
ATOM      9  O   UNL     1      15.178  -7.273   6.773  1.00  0.00    -0.391 OA
ATOM     10  H   UNL     1      14.562  -6.537   7.023  1.00  0.00     0.210 HD
ENDBRANCH   8   9
ENDBRANCH   1   8
BRANCH   2  11
ATOM     11  O   UNL     1      16.577  -6.483   4.434  1.00  0.00    -0.385 OA
ATOM     12  H   UNL     1      16.481  -6.929   3.553  1.00  0.00     0.211 HD
ENDBRANCH   2  11
BRANCH   3  13
ATOM     13  O   UNL     1      19.686  -8.193   4.273  1.00  0.00    -0.387 OA
ATOM     14  H   UNL     1      19.924  -7.969   5.212  1.00  0.00     0.211 HD
ENDBRANCH   3  13
BRANCH   4  15
ATOM     15  C   UNL     1      16.493  -9.918   4.052  1.00  0.00     0.191 C 
BRANCH  15  16
ATOM     16  O   UNL     1      15.288  -9.277   4.375  1.00  0.00    -0.394 OA
ATOM     17  H   UNL     1      14.788  -9.880   4.984  1.00  0.00     0.210 HD
ENDBRANCH  15  16
ENDBRANCH   4  15
TORSDOF 7
ENDMDL
