MODEL 1
REMARK VINA RESULT:    -6.631      0.000      0.000
REMARK INTER + INTRA:          -8.520
REMARK INTER:                  -8.181
REMARK INTRA:                  -0.339
REMARK UNBOUND:                -0.339
REMARK SMILES Oc1cc(O)c2cc(O)c(-c3cc(O)c(O)c(O)c3)[o+]c2c1
REMARK SMILES IDX 10 1 20 2 21 3 22 4 2 5 3 6 4 7 6 8 7 9 8 10 11 11 12 12
REMARK SMILES IDX 13 13 19 14 15 15 17 16 14 17 16 19 18 21 9 23 1 25 5 27
REMARK H PARENT 14 18 16 20 18 22 9 24 1 26 5 28
REMARK Flexibility Score: inf
ROOT
ATOM      1  C   UNL     1       4.445 -18.037 -38.188  1.00  0.00     0.402 A 
ATOM      2  O   UNL     1       4.054 -17.258 -37.183  1.00  0.00    -0.202 OA
ATOM      3  C   UNL     1       2.836 -17.310 -36.651  1.00  0.00     0.368 A 
ATOM      4  C   UNL     1       2.520 -16.452 -35.595  1.00  0.00     0.162 A 
ATOM      5  C   UNL     1       1.251 -16.486 -35.014  1.00  0.00     0.128 A 
ATOM      6  C   UNL     1       0.291 -17.385 -35.492  1.00  0.00     0.093 A 
ATOM      7  C   UNL     1       0.584 -18.255 -36.550  1.00  0.00     0.136 A 
ATOM      8  C   UNL     1       1.872 -18.220 -37.144  1.00  0.00     0.125 A 
ATOM      9  C   UNL     1       2.250 -19.046 -38.215  1.00  0.00     0.078 A 
ATOM     10  C   UNL     1       3.537 -18.952 -38.753  1.00  0.00     0.223 A 
ENDROOT
BRANCH   1  11
ATOM     11  C   UNL     1       5.832 -17.892 -38.688  1.00  0.00     0.091 A 
ATOM     12  C   UNL     1       6.923 -18.435 -37.988  1.00  0.00     0.068 A 
ATOM     13  C   UNL     1       8.230 -18.267 -38.466  1.00  0.00     0.162 A 
ATOM     14  C   UNL     1       6.070 -17.150 -39.855  1.00  0.00     0.068 A 
ATOM     15  C   UNL     1       8.457 -17.542 -39.647  1.00  0.00     0.200 A 
ATOM     16  C   UNL     1       7.370 -16.980 -40.340  1.00  0.00     0.162 A 
BRANCH  13  17
ATOM     17  O   UNL     1       9.304 -18.816 -37.767  1.00  0.00    -0.504 OA
ATOM     18  H   UNL     1       9.424 -18.663 -36.773  1.00  0.00     0.293 HD
ENDBRANCH  13  17
BRANCH  15  19
ATOM     19  O   UNL     1       9.751 -17.369 -40.139  1.00  0.00    -0.502 OA
ATOM     20  H   UNL     1      10.568 -17.435 -39.544  1.00  0.00     0.293 HD
ENDBRANCH  15  19
BRANCH  16  21
ATOM     21  O   UNL     1       7.563 -16.247 -41.511  1.00  0.00    -0.504 OA
ATOM     22  H   UNL     1       6.988 -16.384 -42.333  1.00  0.00     0.293 HD
ENDBRANCH  16  21
ENDBRANCH   1  11
BRANCH  10  23
ATOM     23  O   UNL     1       3.897 -19.736 -39.849  1.00  0.00    -0.500 OA
ATOM     24  H   UNL     1       4.862 -19.828 -40.144  1.00  0.00     0.294 HD
ENDBRANCH  10  23
BRANCH   5  25
ATOM     25  O   UNL     1       0.955 -15.623 -33.962  1.00  0.00    -0.507 OA
ATOM     26  H   UNL     1       0.019 -15.555 -33.581  1.00  0.00     0.293 HD
ENDBRANCH   5  25
BRANCH   7  27
ATOM     27  O   UNL     1      -0.428 -19.124 -36.967  1.00  0.00    -0.507 OA
ATOM     28  H   UNL     1      -1.254 -18.837 -37.471  1.00  0.00     0.293 HD
ENDBRANCH   7  27
TORSDOF 7
ENDMDL
MODEL 2
REMARK VINA RESULT:    -6.593      0.269      1.814
REMARK INTER + INTRA:          -8.474
REMARK INTER:                  -8.097
REMARK INTRA:                  -0.377
REMARK UNBOUND:                -0.339
REMARK SMILES Oc1cc(O)c2cc(O)c(-c3cc(O)c(O)c(O)c3)[o+]c2c1
REMARK SMILES IDX 10 1 20 2 21 3 22 4 2 5 3 6 4 7 6 8 7 9 8 10 11 11 12 12
REMARK SMILES IDX 13 13 19 14 15 15 17 16 14 17 16 19 18 21 9 23 1 25 5 27
REMARK H PARENT 14 18 16 20 18 22 9 24 1 26 5 28
REMARK Flexibility Score: inf
ROOT
ATOM      1  C   UNL     1       4.575 -18.047 -38.212  1.00  0.00     0.402 A 
ATOM      2  O   UNL     1       4.080 -17.174 -37.339  1.00  0.00    -0.202 OA
ATOM      3  C   UNL     1       2.856 -17.269 -36.826  1.00  0.00     0.368 A 
ATOM      4  C   UNL     1       2.426 -16.303 -35.913  1.00  0.00     0.162 A 
ATOM      5  C   UNL     1       1.149 -16.378 -35.356  1.00  0.00     0.128 A 
ATOM      6  C   UNL     1       0.293 -17.426 -35.714  1.00  0.00     0.093 A 
ATOM      7  C   UNL     1       0.702 -18.407 -36.628  1.00  0.00     0.136 A 
ATOM      8  C   UNL     1       1.999 -18.331 -37.198  1.00  0.00     0.125 A 
ATOM      9  C   UNL     1       2.488 -19.261 -38.130  1.00  0.00     0.078 A 
ATOM     10  C   UNL     1       3.776 -19.119 -38.652  1.00  0.00     0.223 A 
ENDROOT
BRANCH   1  11
ATOM     11  C   UNL     1       5.956 -17.839 -38.703  1.00  0.00     0.091 A 
ATOM     12  C   UNL     1       6.214 -17.122 -39.884  1.00  0.00     0.068 A 
ATOM     13  C   UNL     1       7.527 -16.956 -40.345  1.00  0.00     0.162 A 
ATOM     14  C   UNL     1       7.029 -18.418 -38.008  1.00  0.00     0.068 A 
ATOM     15  C   UNL     1       8.597 -17.520 -39.630  1.00  0.00     0.200 A 
ATOM     16  C   UNL     1       8.343 -18.255 -38.460  1.00  0.00     0.162 A 
BRANCH  13  17
ATOM     17  O   UNL     1       7.771 -16.236 -41.514  1.00  0.00    -0.504 OA
ATOM     18  H   UNL     1       7.583 -16.630 -42.428  1.00  0.00     0.293 HD
ENDBRANCH  13  17
BRANCH  15  19
ATOM     19  O   UNL     1       9.911 -17.360 -40.072  1.00  0.00    -0.502 OA
ATOM     20  H   UNL     1      10.191 -16.589 -40.667  1.00  0.00     0.293 HD
ENDBRANCH  15  19
BRANCH  16  21
ATOM     21  O   UNL     1       9.383 -18.834 -37.733  1.00  0.00    -0.504 OA
ATOM     22  H   UNL     1       9.354 -19.800 -37.427  1.00  0.00     0.293 HD
ENDBRANCH  16  21
ENDBRANCH   1  11
BRANCH  10  23
ATOM     23  O   UNL     1       4.244 -20.013 -39.615  1.00  0.00    -0.500 OA
ATOM     24  H   UNL     1       5.225 -20.258 -39.683  1.00  0.00     0.294 HD
ENDBRANCH  10  23
BRANCH   5  25
ATOM     25  O   UNL     1       0.738 -15.405 -34.447  1.00  0.00    -0.507 OA
ATOM     26  H   UNL     1       1.086 -14.455 -34.495  1.00  0.00     0.293 HD
ENDBRANCH   5  25
BRANCH   7  27
ATOM     27  O   UNL     1      -0.209 -19.423 -36.931  1.00  0.00    -0.507 OA
ATOM     28  H   UNL     1      -0.642 -20.024 -36.246  1.00  0.00     0.293 HD
ENDBRANCH   7  27
TORSDOF 7
ENDMDL
MODEL 3
REMARK VINA RESULT:    -6.337      1.900      7.540
REMARK INTER + INTRA:          -8.157
REMARK INTER:                  -7.799
REMARK INTRA:                  -0.358
REMARK UNBOUND:                -0.339
REMARK SMILES Oc1cc(O)c2cc(O)c(-c3cc(O)c(O)c(O)c3)[o+]c2c1
REMARK SMILES IDX 10 1 20 2 21 3 22 4 2 5 3 6 4 7 6 8 7 9 8 10 11 11 12 12
REMARK SMILES IDX 13 13 19 14 15 15 17 16 14 17 16 19 18 21 9 23 1 25 5 27
REMARK H PARENT 14 18 16 20 18 22 9 24 1 26 5 28
REMARK Flexibility Score: inf
ROOT
ATOM      1  C   UNL     1       6.398 -17.509 -39.149  1.00  0.00     0.402 A 
ATOM      2  O   UNL     1       7.462 -18.271 -38.906  1.00  0.00    -0.202 OA
ATOM      3  C   UNL     1       8.695 -17.943 -39.282  1.00  0.00     0.368 A 
ATOM      4  C   UNL     1       9.749 -18.808 -38.979  1.00  0.00     0.162 A 
ATOM      5  C   UNL     1      11.054 -18.490 -39.358  1.00  0.00     0.128 A 
ATOM      6  C   UNL     1      11.308 -17.298 -40.045  1.00  0.00     0.093 A 
ATOM      7  C   UNL     1      10.268 -16.414 -40.361  1.00  0.00     0.136 A 
ATOM      8  C   UNL     1       8.939 -16.737 -39.979  1.00  0.00     0.125 A 
ATOM      9  C   UNL     1       7.834 -15.918 -40.264  1.00  0.00     0.078 A 
ATOM     10  C   UNL     1       6.553 -16.305 -39.860  1.00  0.00     0.223 A 
ENDROOT
BRANCH   1  11
ATOM     11  C   UNL     1       5.077 -17.978 -38.670  1.00  0.00     0.091 A 
ATOM     12  C   UNL     1       4.482 -17.437 -37.517  1.00  0.00     0.068 A 
ATOM     13  C   UNL     1       3.242 -17.909 -37.068  1.00  0.00     0.162 A 
ATOM     14  C   UNL     1       4.430 -19.022 -39.347  1.00  0.00     0.068 A 
ATOM     15  C   UNL     1       2.590 -18.940 -37.765  1.00  0.00     0.200 A 
ATOM     16  C   UNL     1       3.191 -19.498 -38.906  1.00  0.00     0.162 A 
BRANCH  13  17
ATOM     17  O   UNL     1       2.658 -17.360 -35.927  1.00  0.00    -0.504 OA
ATOM     18  H   UNL     1       2.504 -17.912 -35.091  1.00  0.00     0.293 HD
ENDBRANCH  13  17
BRANCH  15  19
ATOM     19  O   UNL     1       1.353 -19.420 -37.333  1.00  0.00    -0.502 OA
ATOM     20  H   UNL     1       1.050 -20.370 -37.509  1.00  0.00     0.293 HD
ENDBRANCH  15  19
BRANCH  16  21
ATOM     21  O   UNL     1       2.573 -20.529 -39.615  1.00  0.00    -0.504 OA
ATOM     22  H   UNL     1       1.635 -20.845 -39.398  1.00  0.00     0.293 HD
ENDBRANCH  16  21
ENDBRANCH   1  11
BRANCH  10  23
ATOM     23  O   UNL     1       5.449 -15.517 -40.186  1.00  0.00    -0.500 OA
ATOM     24  H   UNL     1       4.653 -15.897 -40.687  1.00  0.00     0.294 HD
ENDBRANCH  10  23
BRANCH   5  25
ATOM     25  O   UNL     1      12.092 -19.365 -39.046  1.00  0.00    -0.507 OA
ATOM     26  H   UNL     1      12.516 -19.378 -38.126  1.00  0.00     0.293 HD
ENDBRANCH   5  25
BRANCH   7  27
ATOM     27  O   UNL     1      10.604 -15.243 -41.046  1.00  0.00    -0.507 OA
ATOM     28  H   UNL     1      10.198 -14.338 -40.862  1.00  0.00     0.293 HD
ENDBRANCH   7  27
TORSDOF 7
ENDMDL
MODEL 4
REMARK VINA RESULT:    -6.160      1.876      7.588
REMARK INTER + INTRA:          -7.939
REMARK INTER:                  -7.580
REMARK INTRA:                  -0.359
REMARK UNBOUND:                -0.339
REMARK SMILES Oc1cc(O)c2cc(O)c(-c3cc(O)c(O)c(O)c3)[o+]c2c1
REMARK SMILES IDX 10 1 20 2 21 3 22 4 2 5 3 6 4 7 6 8 7 9 8 10 11 11 12 12
REMARK SMILES IDX 13 13 19 14 15 15 17 16 14 17 16 19 18 21 9 23 1 25 5 27
REMARK H PARENT 14 18 16 20 18 22 9 24 1 26 5 28
REMARK Flexibility Score: inf
ROOT
ATOM      1  C   UNL     1       6.486 -17.561 -39.102  1.00  0.00     0.402 A 
ATOM      2  O   UNL     1       7.561 -18.274 -38.775  1.00  0.00    -0.202 OA
ATOM      3  C   UNL     1       8.796 -17.936 -39.133  1.00  0.00     0.368 A 
ATOM      4  C   UNL     1       9.863 -18.748 -38.738  1.00  0.00     0.162 A 
ATOM      5  C   UNL     1      11.171 -18.419 -39.096  1.00  0.00     0.128 A 
ATOM      6  C   UNL     1      11.416 -17.267 -39.854  1.00  0.00     0.093 A 
ATOM      7  C   UNL     1      10.364 -16.437 -40.261  1.00  0.00     0.136 A 
ATOM      8  C   UNL     1       9.032 -16.772 -39.901  1.00  0.00     0.125 A 
ATOM      9  C   UNL     1       7.916 -16.006 -40.275  1.00  0.00     0.078 A 
ATOM     10  C   UNL     1       6.633 -16.402 -39.887  1.00  0.00     0.223 A 
ENDROOT
BRANCH   1  11
ATOM     11  C   UNL     1       5.163 -18.034 -38.636  1.00  0.00     0.091 A 
ATOM     12  C   UNL     1       4.457 -19.034 -39.327  1.00  0.00     0.068 A 
ATOM     13  C   UNL     1       3.196 -19.452 -38.882  1.00  0.00     0.162 A 
ATOM     14  C   UNL     1       4.573 -17.434 -37.513  1.00  0.00     0.068 A 
ATOM     15  C   UNL     1       2.623 -18.862 -37.743  1.00  0.00     0.200 A 
ATOM     16  C   UNL     1       3.315 -17.847 -37.061  1.00  0.00     0.162 A 
BRANCH  13  17
ATOM     17  O   UNL     1       2.508 -20.450 -39.572  1.00  0.00    -0.504 OA
ATOM     18  H   UNL     1       1.507 -20.399 -39.721  1.00  0.00     0.293 HD
ENDBRANCH  13  17
BRANCH  15  19
ATOM     19  O   UNL     1       1.369 -19.269 -37.284  1.00  0.00    -0.502 OA
ATOM     20  H   UNL     1       0.515 -18.799 -37.558  1.00  0.00     0.293 HD
ENDBRANCH  15  19
BRANCH  16  21
ATOM     21  O   UNL     1       2.770 -17.235 -35.932  1.00  0.00    -0.504 OA
ATOM     22  H   UNL     1       2.072 -16.504 -36.000  1.00  0.00     0.293 HD
ENDBRANCH  16  21
ENDBRANCH   1  11
BRANCH  10  23
ATOM     23  O   UNL     1       5.520 -15.670 -40.301  1.00  0.00    -0.500 OA
ATOM     24  H   UNL     1       4.684 -15.605 -39.731  1.00  0.00     0.294 HD
ENDBRANCH  10  23
BRANCH   5  25
ATOM     25  O   UNL     1      12.221 -19.241 -38.694  1.00  0.00    -0.507 OA
ATOM     26  H   UNL     1      13.027 -19.398 -39.286  1.00  0.00     0.293 HD
ENDBRANCH   5  25
BRANCH   7  27
ATOM     27  O   UNL     1      10.692 -15.305 -41.012  1.00  0.00    -0.507 OA
ATOM     28  H   UNL     1      11.413 -14.645 -40.763  1.00  0.00     0.293 HD
ENDBRANCH   7  27
TORSDOF 7
ENDMDL
MODEL 5
REMARK VINA RESULT:    -6.092      1.279      7.075
REMARK INTER + INTRA:          -7.856
REMARK INTER:                  -7.495
REMARK INTRA:                  -0.361
REMARK UNBOUND:                -0.339
REMARK SMILES Oc1cc(O)c2cc(O)c(-c3cc(O)c(O)c(O)c3)[o+]c2c1
REMARK SMILES IDX 10 1 20 2 21 3 22 4 2 5 3 6 4 7 6 8 7 9 8 10 11 11 12 12
REMARK SMILES IDX 13 13 19 14 15 15 17 16 14 17 16 19 18 21 9 23 1 25 5 27
REMARK H PARENT 14 18 16 20 18 22 9 24 1 26 5 28
REMARK Flexibility Score: inf
ROOT
ATOM      1  C   UNL     1       4.229 -17.779 -37.915  1.00  0.00     0.402 A 
ATOM      2  O   UNL     1       4.542 -16.799 -38.760  1.00  0.00    -0.202 OA
ATOM      3  C   UNL     1       5.712 -16.722 -39.386  1.00  0.00     0.368 A 
ATOM      4  C   UNL     1       5.947 -15.656 -40.257  1.00  0.00     0.162 A 
ATOM      5  C   UNL     1       7.164 -15.549 -40.931  1.00  0.00     0.128 A 
ATOM      6  C   UNL     1       8.156 -16.517 -40.733  1.00  0.00     0.093 A 
ATOM      7  C   UNL     1       7.945 -17.595 -39.864  1.00  0.00     0.136 A 
ATOM      8  C   UNL     1       6.709 -17.704 -39.176  1.00  0.00     0.125 A 
ATOM      9  C   UNL     1       6.415 -18.743 -38.278  1.00  0.00     0.078 A 
ATOM     10  C   UNL     1       5.176 -18.782 -37.633  1.00  0.00     0.223 A 
ENDROOT
BRANCH   1  11
ATOM     11  C   UNL     1       2.888 -17.761 -37.287  1.00  0.00     0.091 A 
ATOM     12  C   UNL     1       2.623 -16.981 -36.148  1.00  0.00     0.068 A 
ATOM     13  C   UNL     1       1.354 -16.996 -35.555  1.00  0.00     0.162 A 
ATOM     14  C   UNL     1       1.874 -18.582 -37.803  1.00  0.00     0.068 A 
ATOM     15  C   UNL     1       0.338 -17.804 -36.092  1.00  0.00     0.200 A 
ATOM     16  C   UNL     1       0.604 -18.601 -37.219  1.00  0.00     0.162 A 
BRANCH  13  17
ATOM     17  O   UNL     1       1.100 -16.213 -34.430  1.00  0.00    -0.504 OA
ATOM     18  H   UNL     1       0.846 -16.626 -33.541  1.00  0.00     0.293 HD
ENDBRANCH  13  17
BRANCH  15  19
ATOM     19  O   UNL     1      -0.933 -17.827 -35.516  1.00  0.00    -0.502 OA
ATOM     20  H   UNL     1      -1.071 -17.891 -34.515  1.00  0.00     0.293 HD
ENDBRANCH  15  19
BRANCH  16  21
ATOM     21  O   UNL     1      -0.381 -19.421 -37.770  1.00  0.00    -0.504 OA
ATOM     22  H   UNL     1      -0.444 -19.591 -38.767  1.00  0.00     0.293 HD
ENDBRANCH  16  21
ENDBRANCH   1  11
BRANCH  10  23
ATOM     23  O   UNL     1       4.901 -19.785 -36.703  1.00  0.00    -0.500 OA
ATOM     24  H   UNL     1       3.974 -19.911 -36.313  1.00  0.00     0.294 HD
ENDBRANCH  10  23
BRANCH   5  25
ATOM     25  O   UNL     1       7.379 -14.478 -41.795  1.00  0.00    -0.507 OA
ATOM     26  H   UNL     1       6.786 -13.657 -41.780  1.00  0.00     0.293 HD
ENDBRANCH   5  25
BRANCH   7  27
ATOM     27  O   UNL     1       8.983 -18.520 -39.724  1.00  0.00    -0.507 OA
ATOM     28  H   UNL     1       8.900 -19.506 -39.923  1.00  0.00     0.293 HD
ENDBRANCH   7  27
TORSDOF 7
ENDMDL
MODEL 6
REMARK VINA RESULT:    -6.039      2.270      4.193
REMARK INTER + INTRA:          -7.791
REMARK INTER:                  -7.595
REMARK INTRA:                  -0.195
REMARK UNBOUND:                -0.339
REMARK SMILES Oc1cc(O)c2cc(O)c(-c3cc(O)c(O)c(O)c3)[o+]c2c1
REMARK SMILES IDX 10 1 20 2 21 3 22 4 2 5 3 6 4 7 6 8 7 9 8 10 11 11 12 12
REMARK SMILES IDX 13 13 19 14 15 15 17 16 14 17 16 19 18 21 9 23 1 25 5 27
REMARK H PARENT 14 18 16 20 18 22 9 24 1 26 5 28
REMARK Flexibility Score: inf
ROOT
ATOM      1  C   UNL     1       5.777 -16.665 -39.501  1.00  0.00     0.402 A 
ATOM      2  O   UNL     1       5.743 -17.976 -39.280  1.00  0.00    -0.202 OA
ATOM      3  C   UNL     1       4.859 -18.556 -38.473  1.00  0.00     0.368 A 
ATOM      4  C   UNL     1       4.902 -19.943 -38.306  1.00  0.00     0.162 A 
ATOM      5  C   UNL     1       3.986 -20.581 -37.468  1.00  0.00     0.128 A 
ATOM      6  C   UNL     1       3.018 -19.827 -36.793  1.00  0.00     0.093 A 
ATOM      7  C   UNL     1       2.955 -18.436 -36.945  1.00  0.00     0.136 A 
ATOM      8  C   UNL     1       3.888 -17.785 -37.794  1.00  0.00     0.125 A 
ATOM      9  C   UNL     1       3.907 -16.396 -37.995  1.00  0.00     0.078 A 
ATOM     10  C   UNL     1       4.860 -15.824 -38.843  1.00  0.00     0.223 A 
ENDROOT
BRANCH   1  11
ATOM     11  C   UNL     1       6.804 -16.138 -40.430  1.00  0.00     0.091 A 
ATOM     12  C   UNL     1       6.448 -15.411 -41.579  1.00  0.00     0.068 A 
ATOM     13  C   UNL     1       7.434 -14.940 -42.457  1.00  0.00     0.162 A 
ATOM     14  C   UNL     1       8.158 -16.417 -40.190  1.00  0.00     0.068 A 
ATOM     15  C   UNL     1       8.789 -15.205 -42.197  1.00  0.00     0.200 A 
ATOM     16  C   UNL     1       9.148 -15.949 -41.060  1.00  0.00     0.162 A 
BRANCH  13  17
ATOM     17  O   UNL     1       7.070 -14.214 -43.590  1.00  0.00    -0.504 OA
ATOM     18  H   UNL     1       7.143 -13.204 -43.620  1.00  0.00     0.293 HD
ENDBRANCH  13  17
BRANCH  15  19
ATOM     19  O   UNL     1       9.783 -14.740 -43.059  1.00  0.00    -0.502 OA
ATOM     20  H   UNL     1      10.766 -14.931 -42.903  1.00  0.00     0.293 HD
ENDBRANCH  15  19
BRANCH  16  21
ATOM     21  O   UNL     1      10.484 -16.236 -40.779  1.00  0.00    -0.504 OA
ATOM     22  H   UNL     1      11.008 -15.727 -40.076  1.00  0.00     0.293 HD
ENDBRANCH  16  21
ENDBRANCH   1  11
BRANCH  10  23
ATOM     23  O   UNL     1       4.913 -14.439 -39.005  1.00  0.00    -0.500 OA
ATOM     24  H   UNL     1       4.079 -13.865 -38.950  1.00  0.00     0.294 HD
ENDBRANCH  10  23
BRANCH   5  25
ATOM     25  O   UNL     1       4.044 -21.964 -37.314  1.00  0.00    -0.507 OA
ATOM     26  H   UNL     1       3.654 -22.591 -38.007  1.00  0.00     0.293 HD
ENDBRANCH   5  25
BRANCH   7  27
ATOM     27  O   UNL     1       1.958 -17.757 -36.239  1.00  0.00    -0.507 OA
ATOM     28  H   UNL     1       2.118 -16.936 -35.674  1.00  0.00     0.293 HD
ENDBRANCH   7  27
TORSDOF 7
ENDMDL
MODEL 7
REMARK VINA RESULT:    -5.998      4.134      7.021
REMARK INTER + INTRA:          -7.740
REMARK INTER:                  -7.537
REMARK INTRA:                  -0.203
REMARK UNBOUND:                -0.339
REMARK SMILES Oc1cc(O)c2cc(O)c(-c3cc(O)c(O)c(O)c3)[o+]c2c1
REMARK SMILES IDX 10 1 20 2 21 3 22 4 2 5 3 6 4 7 6 8 7 9 8 10 11 11 12 12
REMARK SMILES IDX 13 13 19 14 15 15 17 16 14 17 16 19 18 21 9 23 1 25 5 27
REMARK H PARENT 14 18 16 20 18 22 9 24 1 26 5 28
REMARK Flexibility Score: inf
ROOT
ATOM      1  C   UNL     1      10.850 -18.346 -39.382  1.00  0.00     0.402 A 
ATOM      2  O   UNL     1      10.155 -17.519 -40.158  1.00  0.00    -0.202 OA
ATOM      3  C   UNL     1       8.876 -17.221 -39.946  1.00  0.00     0.368 A 
ATOM      4  C   UNL     1       8.231 -16.339 -40.815  1.00  0.00     0.162 A 
ATOM      5  C   UNL     1       6.891 -16.005 -40.617  1.00  0.00     0.128 A 
ATOM      6  C   UNL     1       6.189 -16.556 -39.538  1.00  0.00     0.093 A 
ATOM      7  C   UNL     1       6.813 -17.444 -38.652  1.00  0.00     0.136 A 
ATOM      8  C   UNL     1       8.176 -17.787 -38.854  1.00  0.00     0.125 A 
ATOM      9  C   UNL     1       8.878 -18.676 -38.025  1.00  0.00     0.078 A 
ATOM     10  C   UNL     1      10.219 -18.971 -38.290  1.00  0.00     0.223 A 
ENDROOT
BRANCH   1  11
ATOM     11  C   UNL     1      12.272 -18.591 -39.716  1.00  0.00     0.091 A 
ATOM     12  C   UNL     1      13.299 -18.303 -38.801  1.00  0.00     0.068 A 
ATOM     13  C   UNL     1      14.640 -18.521 -39.145  1.00  0.00     0.162 A 
ATOM     14  C   UNL     1      12.608 -19.068 -40.992  1.00  0.00     0.068 A 
ATOM     15  C   UNL     1      14.966 -19.020 -40.417  1.00  0.00     0.200 A 
ATOM     16  C   UNL     1      13.943 -19.290 -41.343  1.00  0.00     0.162 A 
BRANCH  13  17
ATOM     17  O   UNL     1      15.651 -18.237 -38.227  1.00  0.00    -0.504 OA
ATOM     18  H   UNL     1      15.673 -17.363 -37.715  1.00  0.00     0.293 HD
ENDBRANCH  13  17
BRANCH  15  19
ATOM     19  O   UNL     1      16.296 -19.246 -40.774  1.00  0.00    -0.502 OA
ATOM     20  H   UNL     1      17.012 -18.538 -40.667  1.00  0.00     0.293 HD
ENDBRANCH  15  19
BRANCH  16  21
ATOM     21  O   UNL     1      14.234 -19.779 -42.616  1.00  0.00    -0.504 OA
ATOM     22  H   UNL     1      15.060 -20.336 -42.804  1.00  0.00     0.293 HD
ENDBRANCH  16  21
ENDBRANCH   1  11
BRANCH  10  23
ATOM     23  O   UNL     1      10.903 -19.892 -37.497  1.00  0.00    -0.500 OA
ATOM     24  H   UNL     1      10.662 -20.877 -37.496  1.00  0.00     0.294 HD
ENDBRANCH  10  23
BRANCH   5  25
ATOM     25  O   UNL     1       6.265 -15.124 -41.495  1.00  0.00    -0.507 OA
ATOM     26  H   UNL     1       6.302 -15.260 -42.498  1.00  0.00     0.293 HD
ENDBRANCH   5  25
BRANCH   7  27
ATOM     27  O   UNL     1       6.045 -17.948 -37.599  1.00  0.00    -0.507 OA
ATOM     28  H   UNL     1       5.841 -18.927 -37.460  1.00  0.00     0.293 HD
ENDBRANCH   7  27
TORSDOF 7
ENDMDL
MODEL 8
REMARK VINA RESULT:    -5.982      2.785      7.024
REMARK INTER + INTRA:          -7.720
REMARK INTER:                  -7.523
REMARK INTRA:                  -0.197
REMARK UNBOUND:                -0.339
REMARK SMILES Oc1cc(O)c2cc(O)c(-c3cc(O)c(O)c(O)c3)[o+]c2c1
REMARK SMILES IDX 10 1 20 2 21 3 22 4 2 5 3 6 4 7 6 8 7 9 8 10 11 11 12 12
REMARK SMILES IDX 13 13 19 14 15 15 17 16 14 17 16 19 18 21 9 23 1 25 5 27
REMARK H PARENT 14 18 16 20 18 22 9 24 1 26 5 28
REMARK Flexibility Score: inf
ROOT
ATOM      1  C   UNL     1       6.548 -17.365 -39.459  1.00  0.00     0.402 A 
ATOM      2  O   UNL     1       6.015 -16.342 -40.123  1.00  0.00    -0.202 OA
ATOM      3  C   UNL     1       6.730 -15.505 -40.868  1.00  0.00     0.368 A 
ATOM      4  C   UNL     1       6.080 -14.461 -41.531  1.00  0.00     0.162 A 
ATOM      5  C   UNL     1       6.803 -13.568 -42.323  1.00  0.00     0.128 A 
ATOM      6  C   UNL     1       8.188 -13.720 -42.455  1.00  0.00     0.093 A 
ATOM      7  C   UNL     1       8.863 -14.759 -41.801  1.00  0.00     0.136 A 
ATOM      8  C   UNL     1       8.130 -15.666 -40.993  1.00  0.00     0.125 A 
ATOM      9  C   UNL     1       8.724 -16.728 -40.292  1.00  0.00     0.078 A 
ATOM     10  C   UNL     1       7.938 -17.579 -39.510  1.00  0.00     0.223 A 
ENDROOT
BRANCH   1  11
ATOM     11  C   UNL     1       5.645 -18.234 -38.670  1.00  0.00     0.091 A 
ATOM     12  C   UNL     1       5.770 -18.345 -37.274  1.00  0.00     0.068 A 
ATOM     13  C   UNL     1       4.920 -19.191 -36.548  1.00  0.00     0.162 A 
ATOM     14  C   UNL     1       4.680 -19.008 -39.333  1.00  0.00     0.068 A 
ATOM     15  C   UNL     1       3.942 -19.945 -37.218  1.00  0.00     0.200 A 
ATOM     16  C   UNL     1       3.827 -19.853 -38.615  1.00  0.00     0.162 A 
BRANCH  13  17
ATOM     17  O   UNL     1       5.049 -19.287 -35.163  1.00  0.00    -0.504 OA
ATOM     18  H   UNL     1       5.647 -18.659 -34.640  1.00  0.00     0.293 HD
ENDBRANCH  13  17
BRANCH  15  19
ATOM     19  O   UNL     1       3.085 -20.788 -36.509  1.00  0.00    -0.502 OA
ATOM     20  H   UNL     1       3.406 -21.649 -36.082  1.00  0.00     0.293 HD
ENDBRANCH  15  19
BRANCH  16  21
ATOM     21  O   UNL     1       2.872 -20.595 -39.310  1.00  0.00    -0.504 OA
ATOM     22  H   UNL     1       1.979 -20.202 -39.584  1.00  0.00     0.293 HD
ENDBRANCH  16  21
ENDBRANCH   1  11
BRANCH  10  23
ATOM     23  O   UNL     1       8.533 -18.603 -38.773  1.00  0.00    -0.500 OA
ATOM     24  H   UNL     1       8.092 -19.510 -38.668  1.00  0.00     0.294 HD
ENDBRANCH  10  23
BRANCH   5  25
ATOM     25  O   UNL     1       6.137 -12.534 -42.975  1.00  0.00    -0.507 OA
ATOM     26  H   UNL     1       5.820 -11.711 -42.477  1.00  0.00     0.293 HD
ENDBRANCH   5  25
BRANCH   7  27
ATOM     27  O   UNL     1      10.246 -14.844 -41.986  1.00  0.00    -0.507 OA
ATOM     28  H   UNL     1      10.721 -14.616 -42.847  1.00  0.00     0.293 HD
ENDBRANCH   7  27
TORSDOF 7
ENDMDL
MODEL 9
REMARK VINA RESULT:    -5.879      1.229      7.207
REMARK INTER + INTRA:          -7.593
REMARK INTER:                  -7.213
REMARK INTRA:                  -0.380
REMARK UNBOUND:                -0.339
REMARK SMILES Oc1cc(O)c2cc(O)c(-c3cc(O)c(O)c(O)c3)[o+]c2c1
REMARK SMILES IDX 10 1 20 2 21 3 22 4 2 5 3 6 4 7 6 8 7 9 8 10 11 11 12 12
REMARK SMILES IDX 13 13 19 14 15 15 17 16 14 17 16 19 18 21 9 23 1 25 5 27
REMARK H PARENT 14 18 16 20 18 22 9 24 1 26 5 28
REMARK Flexibility Score: inf
ROOT
ATOM      1  C   UNL     1       4.355 -17.140 -38.150  1.00  0.00     0.402 A 
ATOM      2  O   UNL     1       5.425 -17.861 -37.825  1.00  0.00    -0.202 OA
ATOM      3  C   UNL     1       6.610 -17.712 -38.411  1.00  0.00     0.368 A 
ATOM      4  C   UNL     1       7.677 -18.514 -37.998  1.00  0.00     0.162 A 
ATOM      5  C   UNL     1       8.932 -18.380 -38.592  1.00  0.00     0.128 A 
ATOM      6  C   UNL     1       9.124 -17.434 -39.607  1.00  0.00     0.093 A 
ATOM      7  C   UNL     1       8.070 -16.618 -40.038  1.00  0.00     0.136 A 
ATOM      8  C   UNL     1       6.792 -16.756 -39.437  1.00  0.00     0.125 A 
ATOM      9  C   UNL     1       5.677 -15.990 -39.813  1.00  0.00     0.078 A 
ATOM     10  C   UNL     1       4.446 -16.185 -39.179  1.00  0.00     0.223 A 
ENDROOT
BRANCH   1  11
ATOM     11  C   UNL     1       3.093 -17.392 -37.417  1.00  0.00     0.091 A 
ATOM     12  C   UNL     1       2.160 -18.341 -37.869  1.00  0.00     0.068 A 
ATOM     13  C   UNL     1       0.961 -18.548 -37.174  1.00  0.00     0.162 A 
ATOM     14  C   UNL     1       2.793 -16.628 -36.279  1.00  0.00     0.068 A 
ATOM     15  C   UNL     1       0.679 -17.794 -36.023  1.00  0.00     0.200 A 
ATOM     16  C   UNL     1       1.599 -16.829 -35.578  1.00  0.00     0.162 A 
BRANCH  13  17
ATOM     17  O   UNL     1       0.046 -19.497 -37.628  1.00  0.00    -0.504 OA
ATOM     18  H   UNL     1       0.096 -19.877 -38.566  1.00  0.00     0.293 HD
ENDBRANCH  13  17
BRANCH  15  19
ATOM     19  O   UNL     1      -0.509 -17.990 -35.316  1.00  0.00    -0.502 OA
ATOM     20  H   UNL     1      -0.682 -18.828 -34.774  1.00  0.00     0.293 HD
ENDBRANCH  15  19
BRANCH  16  21
ATOM     21  O   UNL     1       1.345 -16.059 -34.444  1.00  0.00    -0.504 OA
ATOM     22  H   UNL     1       0.983 -15.115 -34.503  1.00  0.00     0.293 HD
ENDBRANCH  16  21
ENDBRANCH   1  11
BRANCH  10  23
ATOM     23  O   UNL     1       3.326 -15.460 -39.586  1.00  0.00    -0.500 OA
ATOM     24  H   UNL     1       2.461 -15.475 -39.058  1.00  0.00     0.294 HD
ENDBRANCH  10  23
BRANCH   5  25
ATOM     25  O   UNL     1       9.983 -19.189 -38.168  1.00  0.00    -0.507 OA
ATOM     26  H   UNL     1       9.989 -19.609 -37.246  1.00  0.00     0.293 HD
ENDBRANCH   5  25
BRANCH   7  27
ATOM     27  O   UNL     1       8.344 -15.697 -41.053  1.00  0.00    -0.507 OA
ATOM     28  H   UNL     1       8.081 -15.819 -42.020  1.00  0.00     0.293 HD
ENDBRANCH   7  27
TORSDOF 7
ENDMDL
