MODEL 1
REMARK VINA RESULT:    -4.045      0.000      0.000
REMARK INTER + INTRA:          -4.164
REMARK INTER:                  -4.164
REMARK INTRA:                   0.000
REMARK UNBOUND:                 0.000
REMARK SMILES Cc1ccccc1O
REMARK SMILES IDX 1 1 2 2 3 3 4 4 5 5 6 6 7 7 8 8
REMARK H PARENT 8 9
REMARK Flexibility Score: inf
ROOT
ATOM      1  C   UNL     1      19.634 -24.134  17.855  1.00  0.00     0.048 C 
ATOM      2  C   UNL     1      20.984 -24.029  18.509  1.00  0.00    -0.009 A 
ATOM      3  C   UNL     1      21.932 -23.123  18.003  1.00  0.00     0.007 A 
ATOM      4  C   UNL     1      23.192 -23.010  18.597  1.00  0.00     0.001 A 
ATOM      5  C   UNL     1      23.518 -23.798  19.701  1.00  0.00     0.004 A 
ATOM      6  C   UNL     1      22.586 -24.702  20.214  1.00  0.00     0.046 A 
ATOM      7  C   UNL     1      21.320 -24.825  19.629  1.00  0.00     0.118 A 
ENDROOT
BRANCH   7   8
ATOM      8  O   UNL     1      20.423 -25.743  20.180  1.00  0.00    -0.508 OA
ATOM      9  H   UNL     1      20.541 -26.145  21.101  1.00  0.00     0.293 HD
ENDBRANCH   7   8
TORSDOF 1
ENDMDL
MODEL 2
REMARK VINA RESULT:    -4.043      8.486     10.338
REMARK INTER + INTRA:          -4.161
REMARK INTER:                  -4.161
REMARK INTRA:                   0.000
REMARK UNBOUND:                 0.000
REMARK SMILES Cc1ccccc1O
REMARK SMILES IDX 1 1 2 2 3 3 4 4 5 5 6 6 7 7 8 8
REMARK H PARENT 8 9
REMARK Flexibility Score: inf
ROOT
ATOM      1  C   UNL     1      16.998 -23.488  12.763  1.00  0.00     0.048 C 
ATOM      2  C   UNL     1      15.634 -24.072  12.519  1.00  0.00    -0.009 A 
ATOM      3  C   UNL     1      15.341 -25.368  12.979  1.00  0.00     0.007 A 
ATOM      4  C   UNL     1      14.079 -25.928  12.762  1.00  0.00     0.001 A 
ATOM      5  C   UNL     1      13.098 -25.202  12.086  1.00  0.00     0.004 A 
ATOM      6  C   UNL     1      13.375 -23.914  11.625  1.00  0.00     0.046 A 
ATOM      7  C   UNL     1      14.635 -23.340  11.835  1.00  0.00     0.118 A 
ENDROOT
BRANCH   7   8
ATOM      8  O   UNL     1      14.863 -22.049  11.354  1.00  0.00    -0.508 OA
ATOM      9  H   UNL     1      14.141 -21.341  11.311  1.00  0.00     0.293 HD
ENDBRANCH   7   8
TORSDOF 1
ENDMDL
MODEL 3
REMARK VINA RESULT:    -3.978     13.110     14.239
REMARK INTER + INTRA:          -4.094
REMARK INTER:                  -4.094
REMARK INTRA:                   0.000
REMARK UNBOUND:                 0.000
REMARK SMILES Cc1ccccc1O
REMARK SMILES IDX 1 1 2 2 3 3 4 4 5 5 6 6 7 7 8 8
REMARK H PARENT 8 9
REMARK Flexibility Score: inf
ROOT
ATOM      1  C   UNL     1       6.869 -23.871  16.678  1.00  0.00     0.048 C 
ATOM      2  C   UNL     1       7.583 -24.763  15.700  1.00  0.00    -0.009 A 
ATOM      3  C   UNL     1       7.050 -24.948  14.412  1.00  0.00     0.007 A 
ATOM      4  C   UNL     1       7.698 -25.772  13.489  1.00  0.00     0.001 A 
ATOM      5  C   UNL     1       8.883 -26.420  13.840  1.00  0.00     0.004 A 
ATOM      6  C   UNL     1       9.423 -26.245  15.115  1.00  0.00     0.046 A 
ATOM      7  C   UNL     1       8.785 -25.421  16.051  1.00  0.00     0.118 A 
ENDROOT
BRANCH   7   8
ATOM      8  O   UNL     1       9.365 -25.279  17.313  1.00  0.00    -0.508 OA
ATOM      9  H   UNL     1       8.928 -24.762  18.065  1.00  0.00     0.293 HD
ENDBRANCH   7   8
TORSDOF 1
ENDMDL
MODEL 4
REMARK VINA RESULT:    -3.970      1.544      2.815
REMARK INTER + INTRA:          -4.086
REMARK INTER:                  -4.086
REMARK INTRA:                   0.000
REMARK UNBOUND:                 0.000
REMARK SMILES Cc1ccccc1O
REMARK SMILES IDX 1 1 2 2 3 3 4 4 5 5 6 6 7 7 8 8
REMARK H PARENT 8 9
REMARK Flexibility Score: inf
ROOT
ATOM      1  C   UNL     1      23.867 -22.084  18.490  1.00  0.00     0.048 C 
ATOM      2  C   UNL     1      22.803 -23.125  18.700  1.00  0.00    -0.009 A 
ATOM      3  C   UNL     1      21.691 -23.165  17.840  1.00  0.00     0.007 A 
ATOM      4  C   UNL     1      20.691 -24.125  18.019  1.00  0.00     0.001 A 
ATOM      5  C   UNL     1      20.790 -25.053  19.056  1.00  0.00     0.004 A 
ATOM      6  C   UNL     1      21.889 -25.026  19.916  1.00  0.00     0.046 A 
ATOM      7  C   UNL     1      22.898 -24.070  19.749  1.00  0.00     0.118 A 
ENDROOT
BRANCH   7   8
ATOM      8  O   UNL     1      23.976 -24.083  20.636  1.00  0.00    -0.508 OA
ATOM      9  H   UNL     1      23.863 -24.068  21.642  1.00  0.00     0.293 HD
ENDBRANCH   7   8
TORSDOF 1
ENDMDL
MODEL 5
REMARK VINA RESULT:    -3.967      0.706      2.498
REMARK INTER + INTRA:          -4.083
REMARK INTER:                  -4.083
REMARK INTRA:                   0.000
REMARK UNBOUND:                 0.000
REMARK SMILES Cc1ccccc1O
REMARK SMILES IDX 1 1 2 2 3 3 4 4 5 5 6 6 7 7 8 8
REMARK H PARENT 8 9
REMARK Flexibility Score: inf
ROOT
ATOM      1  C   UNL     1      23.185 -25.466  20.990  1.00  0.00     0.048 C 
ATOM      2  C   UNL     1      22.418 -24.732  19.925  1.00  0.00    -0.009 A 
ATOM      3  C   UNL     1      23.083 -23.804  19.105  1.00  0.00     0.007 A 
ATOM      4  C   UNL     1      22.388 -23.113  18.109  1.00  0.00     0.001 A 
ATOM      5  C   UNL     1      21.024 -23.339  17.922  1.00  0.00     0.004 A 
ATOM      6  C   UNL     1      20.351 -24.258  18.729  1.00  0.00     0.046 A 
ATOM      7  C   UNL     1      21.035 -24.959  19.731  1.00  0.00     0.118 A 
ENDROOT
BRANCH   7   8
ATOM      8  O   UNL     1      20.317 -25.867  20.512  1.00  0.00    -0.508 OA
ATOM      9  H   UNL     1      20.577 -26.841  20.603  1.00  0.00     0.293 HD
ENDBRANCH   7   8
TORSDOF 1
ENDMDL
MODEL 6
REMARK VINA RESULT:    -3.964     13.112     14.119
REMARK INTER + INTRA:          -4.079
REMARK INTER:                  -4.079
REMARK INTRA:                   0.000
REMARK UNBOUND:                 0.000
REMARK SMILES Cc1ccccc1O
REMARK SMILES IDX 1 1 2 2 3 3 4 4 5 5 6 6 7 7 8 8
REMARK H PARENT 8 9
REMARK Flexibility Score: inf
ROOT
ATOM      1  C   UNL     1       9.593 -27.407  13.637  1.00  0.00     0.048 C 
ATOM      2  C   UNL     1       8.822 -26.279  14.267  1.00  0.00    -0.009 A 
ATOM      3  C   UNL     1       7.744 -25.702  13.572  1.00  0.00     0.007 A 
ATOM      4  C   UNL     1       7.015 -24.654  14.140  1.00  0.00     0.001 A 
ATOM      5  C   UNL     1       7.352 -24.172  15.405  1.00  0.00     0.004 A 
ATOM      6  C   UNL     1       8.419 -24.737  16.107  1.00  0.00     0.046 A 
ATOM      7  C   UNL     1       9.159 -25.788  15.550  1.00  0.00     0.118 A 
ENDROOT
BRANCH   7   8
ATOM      8  O   UNL     1      10.216 -26.319  16.291  1.00  0.00    -0.508 OA
ATOM      9  H   UNL     1      10.137 -26.560  17.270  1.00  0.00     0.293 HD
ENDBRANCH   7   8
TORSDOF 1
ENDMDL
MODEL 7
REMARK VINA RESULT:    -3.829     12.761     14.296
REMARK INTER + INTRA:          -3.941
REMARK INTER:                  -3.941
REMARK INTRA:                   0.000
REMARK UNBOUND:                 0.000
REMARK SMILES Cc1ccccc1O
REMARK SMILES IDX 1 1 2 2 3 3 4 4 5 5 6 6 7 7 8 8
REMARK H PARENT 8 9
REMARK Flexibility Score: inf
ROOT
ATOM      1  C   UNL     1       9.594 -26.210  17.224  1.00  0.00     0.048 C 
ATOM      2  C   UNL     1       8.807 -25.751  16.028  1.00  0.00    -0.009 A 
ATOM      3  C   UNL     1       8.900 -26.463  14.820  1.00  0.00     0.007 A 
ATOM      4  C   UNL     1       8.177 -26.053  13.697  1.00  0.00     0.001 A 
ATOM      5  C   UNL     1       7.353 -24.929  13.767  1.00  0.00     0.004 A 
ATOM      6  C   UNL     1       7.250 -24.212  14.961  1.00  0.00     0.046 A 
ATOM      7  C   UNL     1       7.970 -24.612  16.094  1.00  0.00     0.118 A 
ENDROOT
BRANCH   7   8
ATOM      8  O   UNL     1       7.833 -23.862  17.264  1.00  0.00    -0.508 OA
ATOM      9  H   UNL     1       7.036 -23.946  17.883  1.00  0.00     0.293 HD
ENDBRANCH   7   8
TORSDOF 1
ENDMDL
MODEL 8
REMARK VINA RESULT:    -3.823     14.072     14.901
REMARK INTER + INTRA:          -3.934
REMARK INTER:                  -3.934
REMARK INTRA:                   0.000
REMARK UNBOUND:                 0.000
REMARK SMILES Cc1ccccc1O
REMARK SMILES IDX 1 1 2 2 3 3 4 4 5 5 6 6 7 7 8 8
REMARK H PARENT 8 9
REMARK Flexibility Score: inf
ROOT
ATOM      1  C   UNL     1       7.744 -17.889  23.003  1.00  0.00     0.048 C 
ATOM      2  C   UNL     1       9.032 -17.112  22.967  1.00  0.00    -0.009 A 
ATOM      3  C   UNL     1      10.087 -17.478  23.821  1.00  0.00     0.007 A 
ATOM      4  C   UNL     1      11.291 -16.770  23.803  1.00  0.00     0.001 A 
ATOM      5  C   UNL     1      11.456 -15.691  22.934  1.00  0.00     0.004 A 
ATOM      6  C   UNL     1      10.416 -15.317  22.080  1.00  0.00     0.046 A 
ATOM      7  C   UNL     1       9.204 -16.018  22.087  1.00  0.00     0.118 A 
ENDROOT
BRANCH   7   8
ATOM      8  O   UNL     1       8.195 -15.605  21.215  1.00  0.00    -0.508 OA
ATOM      9  H   UNL     1       7.547 -14.860  21.435  1.00  0.00     0.293 HD
ENDBRANCH   7   8
TORSDOF 1
ENDMDL
MODEL 9
REMARK VINA RESULT:    -3.793     13.410     14.449
REMARK INTER + INTRA:          -3.904
REMARK INTER:                  -3.904
REMARK INTRA:                   0.000
REMARK UNBOUND:                 0.000
REMARK SMILES Cc1ccccc1O
REMARK SMILES IDX 1 1 2 2 3 3 4 4 5 5 6 6 7 7 8 8
REMARK H PARENT 8 9
REMARK Flexibility Score: inf
ROOT
ATOM      1  C   UNL     1       6.876 -23.884  16.681  1.00  0.00     0.048 C 
ATOM      2  C   UNL     1       7.724 -24.844  15.892  1.00  0.00    -0.009 A 
ATOM      3  C   UNL     1       8.705 -25.606  16.551  1.00  0.00     0.007 A 
ATOM      4  C   UNL     1       9.503 -26.503  15.836  1.00  0.00     0.001 A 
ATOM      5  C   UNL     1       9.330 -26.651  14.459  1.00  0.00     0.004 A 
ATOM      6  C   UNL     1       8.358 -25.901  13.793  1.00  0.00     0.046 A 
ATOM      7  C   UNL     1       7.551 -24.998  14.497  1.00  0.00     0.118 A 
ENDROOT
BRANCH   7   8
ATOM      8  O   UNL     1       6.595 -24.272  13.785  1.00  0.00    -0.508 OA
ATOM      9  H   UNL     1       6.546 -23.261  13.800  1.00  0.00     0.293 HD
ENDBRANCH   7   8
TORSDOF 1
ENDMDL
