MODEL 1
REMARK VINA RESULT:    -2.464      0.000      0.000
REMARK INTER + INTRA:          -2.798
REMARK INTER:                  -2.752
REMARK INTRA:                  -0.045
REMARK UNBOUND:                -0.045
REMARK SMILES CCCC(=O)[O-]
REMARK SMILES IDX 3 1 4 2 5 3 6 4 2 5 1 6
REMARK H PARENT
REMARK Flexibility Score: inf
ROOT
ATOM      1  C   UNL     1     -10.913  22.286  19.044  1.00  0.00     0.052 C 
ENDROOT
BRANCH   1   2
ATOM      2  C   UNL     1     -12.370  21.961  19.147  1.00  0.00     0.041 C 
ATOM      3  O   UNL     1     -13.119  22.637  19.899  1.00  0.00    -0.550 OA
ATOM      4  O   UNL     1     -12.892  20.879  18.449  1.00  0.00    -0.550 OA
ENDBRANCH   1   2
BRANCH   1   5
ATOM      5  C   UNL     1     -10.083  21.284  19.853  1.00  0.00     0.003 C 
ATOM      6  C   UNL     1     -10.003  21.694  21.321  1.00  0.00     0.004 C 
ENDBRANCH   1   5
TORSDOF 2
ENDMDL
MODEL 2
REMARK VINA RESULT:    -2.459      1.826      2.505
REMARK INTER + INTRA:          -2.792
REMARK INTER:                  -2.721
REMARK INTRA:                  -0.070
REMARK UNBOUND:                -0.045
REMARK SMILES CCCC(=O)[O-]
REMARK SMILES IDX 3 1 4 2 5 3 6 4 2 5 1 6
REMARK H PARENT
REMARK Flexibility Score: inf
ROOT
ATOM      1  C   UNL     1     -11.479  23.085  19.539  1.00  0.00     0.052 C 
ENDROOT
BRANCH   1   2
ATOM      2  C   UNL     1     -11.799  23.276  20.988  1.00  0.00     0.041 C 
ATOM      3  O   UNL     1     -12.770  22.668  21.509  1.00  0.00    -0.550 OA
ATOM      4  O   UNL     1     -11.053  24.164  21.754  1.00  0.00    -0.550 OA
ENDBRANCH   1   2
BRANCH   1   5
ATOM      5  C   UNL     1     -11.063  21.636  19.270  1.00  0.00     0.003 C 
ATOM      6  C   UNL     1      -9.824  21.260  20.078  1.00  0.00     0.004 C 
ENDBRANCH   1   5
TORSDOF 2
ENDMDL
MODEL 3
REMARK VINA RESULT:    -2.446      2.293      3.228
REMARK INTER + INTRA:          -2.777
REMARK INTER:                  -2.738
REMARK INTRA:                  -0.038
REMARK UNBOUND:                -0.045
REMARK SMILES CCCC(=O)[O-]
REMARK SMILES IDX 3 1 4 2 5 3 6 4 2 5 1 6
REMARK H PARENT
REMARK Flexibility Score: inf
ROOT
ATOM      1  C   UNL     1     -10.249  21.529  19.727  1.00  0.00     0.052 C 
ENDROOT
BRANCH   1   2
ATOM      2  C   UNL     1     -10.061  21.913  21.160  1.00  0.00     0.041 C 
ATOM      3  O   UNL     1     -10.700  22.882  21.647  1.00  0.00    -0.550 OA
ATOM      4  O   UNL     1      -9.141  21.231  21.948  1.00  0.00    -0.550 OA
ENDBRANCH   1   2
BRANCH   1   5
ATOM      5  C   UNL     1     -11.304  22.423  19.068  1.00  0.00     0.003 C 
ATOM      6  C   UNL     1     -12.617  21.670  18.869  1.00  0.00     0.004 C 
ENDBRANCH   1   5
TORSDOF 2
ENDMDL
MODEL 4
REMARK VINA RESULT:    -2.179      2.026      2.429
REMARK INTER + INTRA:          -2.479
REMARK INTER:                  -2.438
REMARK INTRA:                  -0.041
REMARK UNBOUND:                -0.045
REMARK SMILES CCCC(=O)[O-]
REMARK SMILES IDX 3 1 4 2 5 3 6 4 2 5 1 6
REMARK H PARENT
REMARK Flexibility Score: inf
ROOT
ATOM      1  C   UNL     1     -11.606  23.132  19.494  1.00  0.00     0.052 C 
ENDROOT
BRANCH   1   2
ATOM      2  C   UNL     1     -11.167  21.719  19.276  1.00  0.00     0.041 C 
ATOM      3  O   UNL     1     -11.956  20.882  18.765  1.00  0.00    -0.550 OA
ATOM      4  O   UNL     1      -9.902  21.312  19.683  1.00  0.00    -0.550 OA
ENDBRANCH   1   2
BRANCH   1   5
ATOM      5  C   UNL     1     -12.240  23.289  20.879  1.00  0.00     0.003 C 
ATOM      6  C   UNL     1     -11.231  23.830  21.888  1.00  0.00     0.004 C 
ENDBRANCH   1   5
TORSDOF 2
ENDMDL
MODEL 5
REMARK VINA RESULT:    -1.972     15.607     16.183
REMARK INTER + INTRA:          -2.248
REMARK INTER:                  -2.235
REMARK INTRA:                  -0.012
REMARK UNBOUND:                -0.045
REMARK SMILES CCCC(=O)[O-]
REMARK SMILES IDX 3 1 4 2 5 3 6 4 2 5 1 6
REMARK H PARENT
REMARK Flexibility Score: inf
ROOT
ATOM      1  C   UNL     1      -1.130  21.033   7.723  1.00  0.00     0.052 C 
ENDROOT
BRANCH   1   2
ATOM      2  C   UNL     1      -0.488  22.009   6.789  1.00  0.00     0.041 C 
ATOM      3  O   UNL     1      -1.039  22.296   5.694  1.00  0.00    -0.550 OA
ATOM      4  O   UNL     1       0.745  22.567   7.104  1.00  0.00    -0.550 OA
ENDBRANCH   1   2
BRANCH   1   5
ATOM      5  C   UNL     1      -1.014  21.522   9.170  1.00  0.00     0.003 C 
ATOM      6  C   UNL     1      -2.389  21.645   9.821  1.00  0.00     0.004 C 
ENDBRANCH   1   5
TORSDOF 2
ENDMDL
MODEL 6
REMARK VINA RESULT:    -1.932     18.164     18.709
REMARK INTER + INTRA:          -2.203
REMARK INTER:                  -2.192
REMARK INTRA:                  -0.011
REMARK UNBOUND:                -0.045
REMARK SMILES CCCC(=O)[O-]
REMARK SMILES IDX 3 1 4 2 5 3 6 4 2 5 1 6
REMARK H PARENT
REMARK Flexibility Score: inf
ROOT
ATOM      1  C   UNL     1      -8.631  39.462  17.941  1.00  0.00     0.052 C 
ENDROOT
BRANCH   1   2
ATOM      2  C   UNL     1      -7.637  39.665  19.041  1.00  0.00     0.041 C 
ATOM      3  O   UNL     1      -7.999  39.594  20.244  1.00  0.00    -0.550 OA
ATOM      4  O   UNL     1      -6.318  39.982  18.737  1.00  0.00    -0.550 OA
ENDBRANCH   1   2
BRANCH   1   5
ATOM      5  C   UNL     1      -8.266  40.319  16.725  1.00  0.00     0.003 C 
ATOM      6  C   UNL     1      -9.036  39.870  15.486  1.00  0.00     0.004 C 
ENDBRANCH   1   5
TORSDOF 2
ENDMDL
MODEL 7
REMARK VINA RESULT:    -1.927     17.824     18.435
REMARK INTER + INTRA:          -2.197
REMARK INTER:                  -2.178
REMARK INTRA:                  -0.019
REMARK UNBOUND:                -0.045
REMARK SMILES CCCC(=O)[O-]
REMARK SMILES IDX 3 1 4 2 5 3 6 4 2 5 1 6
REMARK H PARENT
REMARK Flexibility Score: inf
ROOT
ATOM      1  C   UNL     1      -7.401  39.686  19.053  1.00  0.00     0.052 C 
ENDROOT
BRANCH   1   2
ATOM      2  C   UNL     1      -8.713  39.314  18.438  1.00  0.00     0.041 C 
ATOM      3  O   UNL     1      -8.866  39.367  17.189  1.00  0.00    -0.550 OA
ATOM      4  O   UNL     1      -9.784  38.955  19.247  1.00  0.00    -0.550 OA
ENDBRANCH   1   2
BRANCH   1   5
ATOM      5  C   UNL     1      -6.580  40.542  18.084  1.00  0.00     0.003 C 
ATOM      6  C   UNL     1      -5.084  40.318  18.285  1.00  0.00     0.004 C 
ENDBRANCH   1   5
TORSDOF 2
ENDMDL
MODEL 8
REMARK VINA RESULT:    -1.917     18.429     18.903
REMARK INTER + INTRA:          -2.187
REMARK INTER:                  -2.172
REMARK INTRA:                  -0.015
REMARK UNBOUND:                -0.045
REMARK SMILES CCCC(=O)[O-]
REMARK SMILES IDX 3 1 4 2 5 3 6 4 2 5 1 6
REMARK H PARENT
REMARK Flexibility Score: inf
ROOT
ATOM      1  C   UNL     1      -7.285  40.840  17.191  1.00  0.00     0.052 C 
ENDROOT
BRANCH   1   2
ATOM      2  C   UNL     1      -8.429  39.940  16.848  1.00  0.00     0.041 C 
ATOM      3  O   UNL     1      -9.058  39.337  17.757  1.00  0.00    -0.550 OA
ATOM      4  O   UNL     1      -8.772  39.727  15.518  1.00  0.00    -0.550 OA
ENDBRANCH   1   2
BRANCH   1   5
ATOM      5  C   UNL     1      -6.597  40.364  18.474  1.00  0.00     0.003 C 
ATOM      6  C   UNL     1      -5.081  40.313  18.299  1.00  0.00     0.004 C 
ENDBRANCH   1   5
TORSDOF 2
ENDMDL
MODEL 9
REMARK VINA RESULT:    -1.866     21.475     21.965
REMARK INTER + INTRA:          -2.129
REMARK INTER:                  -2.097
REMARK INTRA:                  -0.033
REMARK UNBOUND:                -0.045
REMARK SMILES CCCC(=O)[O-]
REMARK SMILES IDX 3 1 4 2 5 3 6 4 2 5 1 6
REMARK H PARENT
REMARK Flexibility Score: inf
ROOT
ATOM      1  C   UNL     1       6.084  24.632   5.771  1.00  0.00     0.052 C 
ENDROOT
BRANCH   1   2
ATOM      2  C   UNL     1       4.783  24.307   5.107  1.00  0.00     0.041 C 
ATOM      3  O   UNL     1       4.556  24.697   3.931  1.00  0.00    -0.550 OA
ATOM      4  O   UNL     1       3.800  23.615   5.803  1.00  0.00    -0.550 OA
ENDBRANCH   1   2
BRANCH   1   5
ATOM      5  C   UNL     1       6.020  24.296   7.264  1.00  0.00     0.003 C 
ATOM      6  C   UNL     1       7.124  23.317   7.655  1.00  0.00     0.004 C 
ENDBRANCH   1   5
TORSDOF 2
ENDMDL
