MODEL 1
REMARK VINA RESULT:    -8.066      0.000      0.000
REMARK INTER + INTRA:         -11.831
REMARK INTER:                 -10.896
REMARK INTRA:                  -0.935
REMARK UNBOUND:                -0.935
REMARK SMILES CC[C@@H](CC[C@@H](C)[C@@H]1CC[C@H]2[C@H]3CC(=O)C4=CC(=O)CC[C@@]4(C)[C@@H]3CC[C@]21C)C(C)C
REMARK SMILES IDX 4 1 3 2 2 3 1 4 29 5 30 6 31 7 5 8 6 9 7 10 8 11 9 12 27 13
REMARK SMILES IDX 10 14 11 15 26 16 28 17 12 18 25 19 24 20 13 21 22 22 14 23
REMARK SMILES IDX 16 24 21 25 23 26 15 27 17 28 20 29 18 30 19 31
REMARK H PARENT
REMARK Flexibility Score: inf
ROOT
ATOM      1  C   UNL     1      35.471  12.888  29.122  1.00  0.00     0.004 C 
ENDROOT
BRANCH   1   2
ATOM      2  C   UNL     1      35.763  14.326  28.601  1.00  0.00    -0.009 C 
BRANCH   2   3
ATOM      3  C   UNL     1      37.126  14.840  29.143  1.00  0.00     0.000 C 
ATOM      4  C   UNL     1      38.128  15.119  28.018  1.00  0.00     0.004 C 
ENDBRANCH   2   3
BRANCH   2   5
ATOM      5  C   UNL     1      34.618  15.377  28.907  1.00  0.00    -0.014 C 
ATOM      6  C   UNL     1      34.001  15.127  30.292  1.00  0.00     0.007 C 
ATOM      7  C   UNL     1      35.007  16.864  28.770  1.00  0.00     0.007 C 
ENDBRANCH   2   5
ENDBRANCH   1   2
BRANCH   1   8
ATOM      8  C   UNL     1      36.572  11.867  28.754  1.00  0.00     0.004 C 
BRANCH   8   9
ATOM      9  C   UNL     1      36.007  10.470  28.364  1.00  0.00    -0.011 C 
ATOM     10  C   UNL     1      34.468  10.517  28.231  1.00  0.00     0.008 C 
BRANCH   9  11
ATOM     11  C   UNL     1      36.760   9.913  27.095  1.00  0.00    -0.002 C 
ATOM     12  C   UNL     1      35.880   9.888  25.828  1.00  0.00     0.005 C 
ATOM     13  C   UNL     1      37.406   8.485  27.171  1.00  0.00    -0.026 C 
ATOM     14  C   UNL     1      35.693   8.425  25.424  1.00  0.00     0.005 C 
ATOM     15  C   UNL     1      36.356   7.565  26.510  1.00  0.00    -0.001 C 
ATOM     16  C   UNL     1      38.715   8.502  26.315  1.00  0.00     0.007 C 
ATOM     17  C   UNL     1      37.746   8.027  28.615  1.00  0.00     0.012 C 
ATOM     18  C   UNL     1      36.894   6.177  26.036  1.00  0.00     0.004 C 
ATOM     19  C   UNL     1      39.244   7.113  25.956  1.00  0.00     0.005 C 
ATOM     20  C   UNL     1      38.195   6.276  25.185  1.00  0.00     0.003 C 
ATOM     21  C   UNL     1      35.786   5.397  25.305  1.00  0.00     0.085 C 
ATOM     22  C   UNL     1      38.753   4.863  24.729  1.00  0.00    -0.000 C 
ATOM     23  C   UNL     1      36.278   4.085  24.793  1.00  0.00     0.159 C 
ATOM     24  C   UNL     1      37.615   3.998  24.171  1.00  0.00     0.005 C 
ATOM     25  C   UNL     1      39.828   5.081  23.614  1.00  0.00     0.020 C 
ATOM     26  C   UNL     1      39.389   4.081  25.913  1.00  0.00     0.017 C 
ATOM     27  O   UNL     1      35.509   3.086  24.810  1.00  0.00    -0.295 OA
ATOM     28  C   UNL     1      37.828   3.078  23.210  1.00  0.00     0.055 C 
ATOM     29  C   UNL     1      40.301   3.776  22.962  1.00  0.00     0.081 C 
ATOM     30  C   UNL     1      39.136   2.924  22.560  1.00  0.00     0.156 C 
ATOM     31  O   UNL     1      39.288   2.038  21.677  1.00  0.00    -0.295 OA
ENDBRANCH   9  11
ENDBRANCH   8   9
ENDBRANCH   1   8
TORSDOF 6
ENDMDL
MODEL 2
REMARK VINA RESULT:    -7.851      1.677      2.068
REMARK INTER + INTRA:         -11.539
REMARK INTER:                 -10.741
REMARK INTRA:                  -0.798
REMARK UNBOUND:                -0.935
REMARK SMILES CC[C@@H](CC[C@@H](C)[C@@H]1CC[C@H]2[C@H]3CC(=O)C4=CC(=O)CC[C@@]4(C)[C@@H]3CC[C@]21C)C(C)C
REMARK SMILES IDX 4 1 3 2 2 3 1 4 29 5 30 6 31 7 5 8 6 9 7 10 8 11 9 12 27 13
REMARK SMILES IDX 10 14 11 15 26 16 28 17 12 18 25 19 24 20 13 21 22 22 14 23
REMARK SMILES IDX 16 24 21 25 23 26 15 27 17 28 20 29 18 30 19 31
REMARK H PARENT
REMARK Flexibility Score: inf
ROOT
ATOM      1  C   UNL     1      34.632  12.788  29.710  1.00  0.00     0.004 C 
ENDROOT
BRANCH   1   2
ATOM      2  C   UNL     1      34.407  14.327  29.625  1.00  0.00    -0.009 C 
BRANCH   2   3
ATOM      3  C   UNL     1      35.685  15.041  29.103  1.00  0.00     0.000 C 
ATOM      4  C   UNL     1      35.356  16.314  28.316  1.00  0.00     0.004 C 
ENDBRANCH   2   3
BRANCH   2   5
ATOM      5  C   UNL     1      33.920  14.991  30.978  1.00  0.00    -0.014 C 
ATOM      6  C   UNL     1      32.798  16.008  30.717  1.00  0.00     0.007 C 
ATOM      7  C   UNL     1      33.492  14.018  32.097  1.00  0.00     0.007 C 
ENDBRANCH   2   5
ENDBRANCH   1   2
BRANCH   1   8
ATOM      8  C   UNL     1      35.212  12.181  28.412  1.00  0.00     0.004 C 
BRANCH   8   9
ATOM      9  C   UNL     1      34.934  10.656  28.272  1.00  0.00    -0.011 C 
ATOM     10  C   UNL     1      33.416  10.379  28.184  1.00  0.00     0.008 C 
BRANCH   9  11
ATOM     11  C   UNL     1      35.782  10.054  27.085  1.00  0.00    -0.002 C 
ATOM     12  C   UNL     1      34.946   9.193  26.116  1.00  0.00     0.005 C 
ATOM     13  C   UNL     1      37.040   9.180  27.428  1.00  0.00    -0.026 C 
ATOM     14  C   UNL     1      35.462   7.756  26.213  1.00  0.00     0.005 C 
ATOM     15  C   UNL     1      36.524   7.728  27.322  1.00  0.00    -0.001 C 
ATOM     16  C   UNL     1      38.122   9.442  26.330  1.00  0.00     0.007 C 
ATOM     17  C   UNL     1      37.647   9.475  28.825  1.00  0.00     0.012 C 
ATOM     18  C   UNL     1      37.633   6.639  27.167  1.00  0.00     0.004 C 
ATOM     19  C   UNL     1      39.232   8.391  26.284  1.00  0.00     0.005 C 
ATOM     20  C   UNL     1      38.669   6.967  26.052  1.00  0.00     0.003 C 
ATOM     21  C   UNL     1      36.994   5.251  26.969  1.00  0.00     0.085 C 
ATOM     22  C   UNL     1      39.809   5.873  25.915  1.00  0.00    -0.000 C 
ATOM     23  C   UNL     1      38.024   4.191  26.765  1.00  0.00     0.159 C 
ATOM     24  C   UNL     1      39.196   4.466  25.910  1.00  0.00     0.005 C 
ATOM     25  C   UNL     1      40.575   6.106  24.571  1.00  0.00     0.020 C 
ATOM     26  C   UNL     1      40.815   5.933  27.099  1.00  0.00     0.017 C 
ATOM     27  O   UNL     1      37.835   3.043  27.249  1.00  0.00    -0.295 OA
ATOM     28  C   UNL     1      39.766   3.447  25.239  1.00  0.00     0.055 C 
ATOM     29  C   UNL     1      41.577   4.993  24.240  1.00  0.00     0.081 C 
ATOM     30  C   UNL     1      40.944   3.642  24.382  1.00  0.00     0.156 C 
ATOM     31  O   UNL     1      41.448   2.653  23.788  1.00  0.00    -0.295 OA
ENDBRANCH   9  11
ENDBRANCH   8   9
ENDBRANCH   1   8
TORSDOF 6
ENDMDL
MODEL 3
REMARK VINA RESULT:    -7.376      1.405      2.678
REMARK INTER + INTRA:         -10.899
REMARK INTER:                 -10.075
REMARK INTRA:                  -0.823
REMARK UNBOUND:                -0.935
REMARK SMILES CC[C@@H](CC[C@@H](C)[C@@H]1CC[C@H]2[C@H]3CC(=O)C4=CC(=O)CC[C@@]4(C)[C@@H]3CC[C@]21C)C(C)C
REMARK SMILES IDX 4 1 3 2 2 3 1 4 29 5 30 6 31 7 5 8 6 9 7 10 8 11 9 12 27 13
REMARK SMILES IDX 10 14 11 15 26 16 28 17 12 18 25 19 24 20 13 21 22 22 14 23
REMARK SMILES IDX 16 24 21 25 23 26 15 27 17 28 20 29 18 30 19 31
REMARK H PARENT
REMARK Flexibility Score: inf
ROOT
ATOM      1  C   UNL     1      37.117  11.384  28.954  1.00  0.00     0.004 C 
ENDROOT
BRANCH   1   2
ATOM      2  C   UNL     1      35.754  11.596  28.230  1.00  0.00    -0.009 C 
BRANCH   2   3
ATOM      3  C   UNL     1      34.988  12.802  28.842  1.00  0.00     0.000 C 
ATOM      4  C   UNL     1      35.823  14.087  28.825  1.00  0.00     0.004 C 
ENDBRANCH   2   3
BRANCH   2   5
ATOM      5  C   UNL     1      34.826  10.314  28.198  1.00  0.00    -0.014 C 
ATOM      6  C   UNL     1      33.487  10.588  28.901  1.00  0.00     0.007 C 
ATOM      7  C   UNL     1      34.567   9.697  26.807  1.00  0.00     0.007 C 
ENDBRANCH   2   5
ENDBRANCH   1   2
BRANCH   1   8
ATOM      8  C   UNL     1      38.298  11.156  27.984  1.00  0.00     0.004 C 
BRANCH   8   9
ATOM      9  C   UNL     1      38.939   9.744  28.120  1.00  0.00    -0.011 C 
ATOM     10  C   UNL     1      38.135   8.868  29.107  1.00  0.00     0.008 C 
BRANCH   9  11
ATOM     11  C   UNL     1      39.152   9.102  26.695  1.00  0.00    -0.002 C 
ATOM     12  C   UNL     1      38.017   9.433  25.703  1.00  0.00     0.005 C 
ATOM     13  C   UNL     1      39.344   7.548  26.591  1.00  0.00    -0.026 C 
ATOM     14  C   UNL     1      37.310   8.122  25.356  1.00  0.00     0.005 C 
ATOM     15  C   UNL     1      37.939   7.022  26.225  1.00  0.00    -0.001 C 
ATOM     16  C   UNL     1      40.342   7.263  25.421  1.00  0.00     0.007 C 
ATOM     17  C   UNL     1      39.882   6.895  27.892  1.00  0.00     0.012 C 
ATOM     18  C   UNL     1      37.906   5.582  25.620  1.00  0.00     0.004 C 
ATOM     19  C   UNL     1      40.329   5.815  24.929  1.00  0.00     0.005 C 
ATOM     20  C   UNL     1      38.922   5.377  24.457  1.00  0.00     0.003 C 
ATOM     21  C   UNL     1      36.470   5.212  25.202  1.00  0.00     0.085 C 
ATOM     22  C   UNL     1      38.904   3.907  23.863  1.00  0.00    -0.000 C 
ATOM     23  C   UNL     1      36.408   3.862  24.571  1.00  0.00     0.159 C 
ATOM     24  C   UNL     1      37.460   3.450  23.620  1.00  0.00     0.005 C 
ATOM     25  C   UNL     1      39.682   3.902  22.505  1.00  0.00     0.020 C 
ATOM     26  C   UNL     1      39.555   2.882  24.833  1.00  0.00     0.017 C 
ATOM     27  O   UNL     1      35.408   3.124  24.785  1.00  0.00    -0.295 OA
ATOM     28  C   UNL     1      37.144   2.590  22.632  1.00  0.00     0.055 C 
ATOM     29  C   UNL     1      39.569   2.574  21.745  1.00  0.00     0.081 C 
ATOM     30  C   UNL     1      38.142   2.124  21.659  1.00  0.00     0.156 C 
ATOM     31  O   UNL     1      37.799   1.308  20.764  1.00  0.00    -0.295 OA
ENDBRANCH   9  11
ENDBRANCH   8   9
ENDBRANCH   1   8
TORSDOF 6
ENDMDL
MODEL 4
REMARK VINA RESULT:    -7.062      4.589      6.664
REMARK INTER + INTRA:         -10.474
REMARK INTER:                  -9.354
REMARK INTRA:                  -1.119
REMARK UNBOUND:                -0.935
REMARK SMILES CC[C@@H](CC[C@@H](C)[C@@H]1CC[C@H]2[C@H]3CC(=O)C4=CC(=O)CC[C@@]4(C)[C@@H]3CC[C@]21C)C(C)C
REMARK SMILES IDX 4 1 3 2 2 3 1 4 29 5 30 6 31 7 5 8 6 9 7 10 8 11 9 12 27 13
REMARK SMILES IDX 10 14 11 15 26 16 28 17 12 18 25 19 24 20 13 21 22 22 14 23
REMARK SMILES IDX 16 24 21 25 23 26 15 27 17 28 20 29 18 30 19 31
REMARK H PARENT
REMARK Flexibility Score: inf
ROOT
ATOM      1  C   UNL     1      28.950  10.386  25.486  1.00  0.00     0.004 C 
ENDROOT
BRANCH   1   2
ATOM      2  C   UNL     1      27.506  10.957  25.594  1.00  0.00    -0.009 C 
BRANCH   2   3
ATOM      3  C   UNL     1      27.504  12.495  25.366  1.00  0.00     0.000 C 
ATOM      4  C   UNL     1      27.769  12.863  23.903  1.00  0.00     0.004 C 
ENDBRANCH   2   3
BRANCH   2   5
ATOM      5  C   UNL     1      26.762  10.601  26.947  1.00  0.00    -0.014 C 
ATOM      6  C   UNL     1      25.886  11.774  27.416  1.00  0.00     0.007 C 
ATOM      7  C   UNL     1      25.933   9.300  26.944  1.00  0.00     0.007 C 
ENDBRANCH   2   5
ENDBRANCH   1   2
BRANCH   1   8
ATOM      8  C   UNL     1      29.842  10.741  26.697  1.00  0.00     0.004 C 
BRANCH   8   9
ATOM      9  C   UNL     1      30.928   9.666  26.994  1.00  0.00    -0.011 C 
ATOM     10  C   UNL     1      30.480   8.277  26.487  1.00  0.00     0.008 C 
BRANCH   9  11
ATOM     11  C   UNL     1      32.330  10.143  26.450  1.00  0.00    -0.002 C 
ATOM     12  C   UNL     1      32.712   9.496  25.102  1.00  0.00     0.005 C 
ATOM     13  C   UNL     1      33.594   9.959  27.364  1.00  0.00    -0.026 C 
ATOM     14  C   UNL     1      33.948   8.626  25.341  1.00  0.00     0.005 C 
ATOM     15  C   UNL     1      34.238   8.653  26.849  1.00  0.00    -0.001 C 
ATOM     16  C   UNL     1      34.554  11.166  27.106  1.00  0.00     0.007 C 
ATOM     17  C   UNL     1      33.265   9.881  28.878  1.00  0.00     0.012 C 
ATOM     18  C   UNL     1      35.734   8.448  27.252  1.00  0.00     0.004 C 
ATOM     19  C   UNL     1      35.984  10.942  27.601  1.00  0.00     0.005 C 
ATOM     20  C   UNL     1      36.628   9.689  26.960  1.00  0.00     0.003 C 
ATOM     21  C   UNL     1      36.292   7.170  26.597  1.00  0.00     0.085 C 
ATOM     22  C   UNL     1      38.140   9.487  27.394  1.00  0.00    -0.000 C 
ATOM     23  C   UNL     1      37.735   6.968  26.918  1.00  0.00     0.159 C 
ATOM     24  C   UNL     1      38.653   8.125  26.911  1.00  0.00     0.005 C 
ATOM     25  C   UNL     1      39.006  10.622  26.753  1.00  0.00     0.020 C 
ATOM     26  C   UNL     1      38.308   9.522  28.939  1.00  0.00     0.017 C 
ATOM     27  O   UNL     1      38.171   5.800  27.099  1.00  0.00    -0.295 OA
ATOM     28  C   UNL     1      39.947   7.927  26.591  1.00  0.00     0.055 C 
ATOM     29  C   UNL     1      40.514  10.420  26.948  1.00  0.00     0.081 C 
ATOM     30  C   UNL     1      40.921   9.026  26.578  1.00  0.00     0.156 C 
ATOM     31  O   UNL     1      42.123   8.786  26.288  1.00  0.00    -0.295 OA
ENDBRANCH   9  11
ENDBRANCH   8   9
ENDBRANCH   1   8
TORSDOF 6
ENDMDL
MODEL 5
REMARK VINA RESULT:    -6.812      1.193      2.265
REMARK INTER + INTRA:         -10.136
REMARK INTER:                 -10.570
REMARK INTRA:                   0.434
REMARK UNBOUND:                -0.935
REMARK SMILES CC[C@@H](CC[C@@H](C)[C@@H]1CC[C@H]2[C@H]3CC(=O)C4=CC(=O)CC[C@@]4(C)[C@@H]3CC[C@]21C)C(C)C
REMARK SMILES IDX 4 1 3 2 2 3 1 4 29 5 30 6 31 7 5 8 6 9 7 10 8 11 9 12 27 13
REMARK SMILES IDX 10 14 11 15 26 16 28 17 12 18 25 19 24 20 13 21 22 22 14 23
REMARK SMILES IDX 16 24 21 25 23 26 15 27 17 28 20 29 18 30 19 31
REMARK H PARENT
REMARK Flexibility Score: inf
ROOT
ATOM      1  C   UNL     1      37.047  11.772  28.760  1.00  0.00     0.004 C 
ENDROOT
BRANCH   1   2
ATOM      2  C   UNL     1      35.609  12.335  28.959  1.00  0.00    -0.009 C 
BRANCH   2   3
ATOM      3  C   UNL     1      34.593  11.579  28.058  1.00  0.00     0.000 C 
ATOM      4  C   UNL     1      33.567  10.790  28.878  1.00  0.00     0.004 C 
ENDBRANCH   2   3
BRANCH   2   5
ATOM      5  C   UNL     1      35.483  13.898  28.738  1.00  0.00    -0.014 C 
ATOM      6  C   UNL     1      34.421  14.501  29.671  1.00  0.00     0.007 C 
ATOM      7  C   UNL     1      36.793  14.707  28.848  1.00  0.00     0.007 C 
ENDBRANCH   2   5
ENDBRANCH   1   2
BRANCH   1   8
ATOM      8  C   UNL     1      37.074  10.262  28.432  1.00  0.00     0.004 C 
BRANCH   8   9
ATOM      9  C   UNL     1      38.516   9.681  28.341  1.00  0.00    -0.011 C 
ATOM     10  C   UNL     1      38.774   8.668  29.479  1.00  0.00     0.008 C 
BRANCH   9  11
ATOM     11  C   UNL     1      38.786   9.122  26.890  1.00  0.00    -0.002 C 
ATOM     12  C   UNL     1      37.646   9.430  25.897  1.00  0.00     0.005 C 
ATOM     13  C   UNL     1      39.075   7.589  26.716  1.00  0.00    -0.026 C 
ATOM     14  C   UNL     1      37.026   8.096  25.477  1.00  0.00     0.005 C 
ATOM     15  C   UNL     1      37.710   6.997  26.303  1.00  0.00    -0.001 C 
ATOM     16  C   UNL     1      40.103   7.422  25.550  1.00  0.00     0.007 C 
ATOM     17  C   UNL     1      39.635   6.909  27.994  1.00  0.00     0.012 C 
ATOM     18  C   UNL     1      37.773   5.588  25.631  1.00  0.00     0.004 C 
ATOM     19  C   UNL     1      40.186   6.001  24.990  1.00  0.00     0.005 C 
ATOM     20  C   UNL     1      38.815   5.502  24.476  1.00  0.00     0.003 C 
ATOM     21  C   UNL     1      36.368   5.152  25.173  1.00  0.00     0.085 C 
ATOM     22  C   UNL     1      38.895   4.063  23.813  1.00  0.00    -0.000 C 
ATOM     23  C   UNL     1      36.397   3.832  24.479  1.00  0.00     0.159 C 
ATOM     24  C   UNL     1      37.485   3.531  23.526  1.00  0.00     0.005 C 
ATOM     25  C   UNL     1      39.689   4.170  22.469  1.00  0.00     0.020 C 
ATOM     26  C   UNL     1      39.595   3.034  24.745  1.00  0.00     0.017 C 
ATOM     27  O   UNL     1      35.442   3.026  24.642  1.00  0.00    -0.295 OA
ATOM     28  C   UNL     1      37.236   2.702  22.494  1.00  0.00     0.055 C 
ATOM     29  C   UNL     1      39.668   2.876  21.646  1.00  0.00     0.081 C 
ATOM     30  C   UNL     1      38.273   2.345  21.516  1.00  0.00     0.156 C 
ATOM     31  O   UNL     1      37.993   1.553  20.578  1.00  0.00    -0.295 OA
ENDBRANCH   9  11
ENDBRANCH   8   9
ENDBRANCH   1   8
TORSDOF 6
ENDMDL
MODEL 6
REMARK VINA RESULT:    -6.501      3.041      9.593
REMARK INTER + INTRA:          -9.716
REMARK INTER:                  -8.479
REMARK INTRA:                  -1.237
REMARK UNBOUND:                -0.935
REMARK SMILES CC[C@@H](CC[C@@H](C)[C@@H]1CC[C@H]2[C@H]3CC(=O)C4=CC(=O)CC[C@@]4(C)[C@@H]3CC[C@]21C)C(C)C
REMARK SMILES IDX 4 1 3 2 2 3 1 4 29 5 30 6 31 7 5 8 6 9 7 10 8 11 9 12 27 13
REMARK SMILES IDX 10 14 11 15 26 16 28 17 12 18 25 19 24 20 13 21 22 22 14 23
REMARK SMILES IDX 16 24 21 25 23 26 15 27 17 28 20 29 18 30 19 31
REMARK H PARENT
REMARK Flexibility Score: inf
ROOT
ATOM      1  C   UNL     1      40.641   2.489  22.375  1.00  0.00     0.004 C 
ENDROOT
BRANCH   1   2
ATOM      2  C   UNL     1      39.413   2.011  21.545  1.00  0.00    -0.009 C 
BRANCH   2   3
ATOM      3  C   UNL     1      39.875   1.252  20.270  1.00  0.00     0.000 C 
ATOM      4  C   UNL     1      41.401   1.185  20.157  1.00  0.00     0.004 C 
ENDBRANCH   2   3
BRANCH   2   5
ATOM      5  C   UNL     1      38.395   3.162  21.162  1.00  0.00    -0.014 C 
ATOM      6  C   UNL     1      38.577   3.590  19.697  1.00  0.00     0.007 C 
ATOM      7  C   UNL     1      36.905   2.871  21.439  1.00  0.00     0.007 C 
ENDBRANCH   2   5
ENDBRANCH   1   2
BRANCH   1   8
ATOM      8  C   UNL     1      40.551   2.117  23.873  1.00  0.00     0.004 C 
BRANCH   8   9
ATOM      9  C   UNL     1      39.148   2.391  24.489  1.00  0.00    -0.011 C 
ATOM     10  C   UNL     1      38.474   1.073  24.930  1.00  0.00     0.008 C 
BRANCH   9  11
ATOM     11  C   UNL     1      39.255   3.486  25.620  1.00  0.00    -0.002 C 
ATOM     12  C   UNL     1      38.270   3.254  26.786  1.00  0.00     0.005 C 
ATOM     13  C   UNL     1      39.072   4.994  25.226  1.00  0.00    -0.026 C 
ATOM     14  C   UNL     1      37.283   4.422  26.797  1.00  0.00     0.005 C 
ATOM     15  C   UNL     1      37.596   5.294  25.571  1.00  0.00    -0.001 C 
ATOM     16  C   UNL     1      40.016   5.847  26.136  1.00  0.00     0.007 C 
ATOM     17  C   UNL     1      39.388   5.295  23.737  1.00  0.00     0.012 C 
ATOM     18  C   UNL     1      37.242   6.808  25.712  1.00  0.00     0.004 C 
ATOM     19  C   UNL     1      39.675   7.338  26.165  1.00  0.00     0.005 C 
ATOM     20  C   UNL     1      38.222   7.589  26.637  1.00  0.00     0.003 C 
ATOM     21  C   UNL     1      35.776   6.974  26.157  1.00  0.00     0.085 C 
ATOM     22  C   UNL     1      37.875   9.132  26.756  1.00  0.00    -0.000 C 
ATOM     23  C   UNL     1      35.416   8.408  26.351  1.00  0.00     0.159 C 
ATOM     24  C   UNL     1      36.373   9.320  27.010  1.00  0.00     0.005 C 
ATOM     25  C   UNL     1      38.680   9.740  27.952  1.00  0.00     0.020 C 
ATOM     26  C   UNL     1      38.223   9.907  25.454  1.00  0.00     0.017 C 
ATOM     27  O   UNL     1      34.261   8.805  26.038  1.00  0.00    -0.295 OA
ATOM     28  C   UNL     1      35.899  10.362  27.719  1.00  0.00     0.055 C 
ATOM     29  C   UNL     1      38.280  11.184  28.282  1.00  0.00     0.081 C 
ATOM     30  C   UNL     1      36.792  11.318  28.387  1.00  0.00     0.156 C 
ATOM     31  O   UNL     1      36.298  12.285  29.026  1.00  0.00    -0.295 OA
ENDBRANCH   9  11
ENDBRANCH   8   9
ENDBRANCH   1   8
TORSDOF 6
ENDMDL
MODEL 7
REMARK VINA RESULT:    -6.349      2.983      9.045
REMARK INTER + INTRA:          -9.510
REMARK INTER:                  -8.063
REMARK INTRA:                  -1.447
REMARK UNBOUND:                -0.935
REMARK SMILES CC[C@@H](CC[C@@H](C)[C@@H]1CC[C@H]2[C@H]3CC(=O)C4=CC(=O)CC[C@@]4(C)[C@@H]3CC[C@]21C)C(C)C
REMARK SMILES IDX 4 1 3 2 2 3 1 4 29 5 30 6 31 7 5 8 6 9 7 10 8 11 9 12 27 13
REMARK SMILES IDX 10 14 11 15 26 16 28 17 12 18 25 19 24 20 13 21 22 22 14 23
REMARK SMILES IDX 16 24 21 25 23 26 15 27 17 28 20 29 18 30 19 31
REMARK H PARENT
REMARK Flexibility Score: inf
ROOT
ATOM      1  C   UNL     1      38.469   1.401  23.962  1.00  0.00     0.004 C 
ENDROOT
BRANCH   1   2
ATOM      2  C   UNL     1      37.026   1.765  23.505  1.00  0.00    -0.009 C 
BRANCH   2   3
ATOM      3  C   UNL     1      37.009   3.144  22.787  1.00  0.00     0.000 C 
ATOM      4  C   UNL     1      36.864   3.004  21.268  1.00  0.00     0.004 C 
ENDBRANCH   2   3
BRANCH   2   5
ATOM      5  C   UNL     1      35.946   1.734  24.663  1.00  0.00    -0.014 C 
ATOM      6  C   UNL     1      36.522   1.089  25.933  1.00  0.00     0.007 C 
ATOM      7  C   UNL     1      35.290   3.086  25.016  1.00  0.00     0.007 C 
ENDBRANCH   2   5
ENDBRANCH   1   2
BRANCH   1   8
ATOM      8  C   UNL     1      39.489   2.541  23.742  1.00  0.00     0.004 C 
BRANCH   8   9
ATOM      9  C   UNL     1      40.696   2.483  24.723  1.00  0.00    -0.011 C 
ATOM     10  C   UNL     1      42.034   2.549  23.954  1.00  0.00     0.008 C 
BRANCH   9  11
ATOM     11  C   UNL     1      40.532   3.572  25.853  1.00  0.00    -0.002 C 
ATOM     12  C   UNL     1      39.491   3.186  26.924  1.00  0.00     0.005 C 
ATOM     13  C   UNL     1      40.161   5.039  25.434  1.00  0.00    -0.026 C 
ATOM     14  C   UNL     1      38.342   4.193  26.837  1.00  0.00     0.005 C 
ATOM     15  C   UNL     1      38.632   5.110  25.640  1.00  0.00    -0.001 C 
ATOM     16  C   UNL     1      40.878   6.017  26.422  1.00  0.00     0.007 C 
ATOM     17  C   UNL     1      40.564   5.396  23.979  1.00  0.00     0.012 C 
ATOM     18  C   UNL     1      38.042   6.554  25.738  1.00  0.00     0.004 C 
ATOM     19  C   UNL     1      40.316   7.439  26.410  1.00  0.00     0.005 C 
ATOM     20  C   UNL     1      38.805   7.466  26.744  1.00  0.00     0.003 C 
ATOM     21  C   UNL     1      36.534   6.494  26.045  1.00  0.00     0.085 C 
ATOM     22  C   UNL     1      38.220   8.938  26.822  1.00  0.00    -0.000 C 
ATOM     23  C   UNL     1      35.945   7.856  26.197  1.00  0.00     0.159 C 
ATOM     24  C   UNL     1      36.690   8.896  26.935  1.00  0.00     0.005 C 
ATOM     25  C   UNL     1      38.810   9.650  28.083  1.00  0.00     0.020 C 
ATOM     26  C   UNL     1      38.566   9.766  25.553  1.00  0.00     0.017 C 
ATOM     27  O   UNL     1      34.778   8.076  25.775  1.00  0.00    -0.295 OA
ATOM     28  C   UNL     1      36.001   9.849  27.591  1.00  0.00     0.055 C 
ATOM     29  C   UNL     1      38.170  11.015  28.366  1.00  0.00     0.081 C 
ATOM     30  C   UNL     1      36.674  10.923  28.333  1.00  0.00     0.156 C 
ATOM     31  O   UNL     1      35.984  11.800  28.917  1.00  0.00    -0.295 OA
ENDBRANCH   9  11
ENDBRANCH   8   9
ENDBRANCH   1   8
TORSDOF 6
ENDMDL
MODEL 8
REMARK VINA RESULT:    -6.128      2.886      9.236
REMARK INTER + INTRA:          -9.212
REMARK INTER:                  -8.540
REMARK INTRA:                  -0.672
REMARK UNBOUND:                -0.935
REMARK SMILES CC[C@@H](CC[C@@H](C)[C@@H]1CC[C@H]2[C@H]3CC(=O)C4=CC(=O)CC[C@@]4(C)[C@@H]3CC[C@]21C)C(C)C
REMARK SMILES IDX 4 1 3 2 2 3 1 4 29 5 30 6 31 7 5 8 6 9 7 10 8 11 9 12 27 13
REMARK SMILES IDX 10 14 11 15 26 16 28 17 12 18 25 19 24 20 13 21 22 22 14 23
REMARK SMILES IDX 16 24 21 25 23 26 15 27 17 28 20 29 18 30 19 31
REMARK H PARENT
REMARK Flexibility Score: inf
ROOT
ATOM      1  C   UNL     1      39.242   3.205  22.984  1.00  0.00     0.004 C 
ENDROOT
BRANCH   1   2
ATOM      2  C   UNL     1      37.758   3.152  22.517  1.00  0.00    -0.009 C 
BRANCH   2   3
ATOM      3  C   UNL     1      36.906   2.288  23.489  1.00  0.00     0.000 C 
ATOM      4  C   UNL     1      35.908   3.131  24.289  1.00  0.00     0.004 C 
ENDBRANCH   2   3
BRANCH   2   5
ATOM      5  C   UNL     1      37.559   2.658  21.025  1.00  0.00    -0.014 C 
ATOM      6  C   UNL     1      38.233   3.620  20.034  1.00  0.00     0.007 C 
ATOM      7  C   UNL     1      37.998   1.209  20.725  1.00  0.00     0.007 C 
ENDBRANCH   2   5
ENDBRANCH   1   2
BRANCH   1   8
ATOM      8  C   UNL     1      39.511   2.388  24.268  1.00  0.00     0.004 C 
BRANCH   8   9
ATOM      9  C   UNL     1      40.745   2.895  25.070  1.00  0.00    -0.011 C 
ATOM     10  C   UNL     1      41.831   3.445  24.119  1.00  0.00     0.008 C 
BRANCH   9  11
ATOM     11  C   UNL     1      40.286   3.902  26.195  1.00  0.00    -0.002 C 
ATOM     12  C   UNL     1      38.952   3.503  26.861  1.00  0.00     0.005 C 
ATOM     13  C   UNL     1      40.120   5.418  25.826  1.00  0.00    -0.026 C 
ATOM     14  C   UNL     1      37.927   4.588  26.527  1.00  0.00     0.005 C 
ATOM     15  C   UNL     1      38.606   5.575  25.566  1.00  0.00    -0.001 C 
ATOM     16  C   UNL     1      40.538   6.266  27.071  1.00  0.00     0.007 C 
ATOM     17  C   UNL     1      40.963   5.860  24.600  1.00  0.00     0.012 C 
ATOM     18  C   UNL     1      38.071   7.042  25.618  1.00  0.00     0.004 C 
ATOM     19  C   UNL     1      40.063   7.719  27.025  1.00  0.00     0.005 C 
ATOM     20  C   UNL     1      38.524   7.820  26.889  1.00  0.00     0.003 C 
ATOM     21  C   UNL     1      36.541   7.059  25.448  1.00  0.00     0.085 C 
ATOM     22  C   UNL     1      38.003   9.318  26.925  1.00  0.00    -0.000 C 
ATOM     23  C   UNL     1      35.988   8.441  25.543  1.00  0.00     0.159 C 
ATOM     24  C   UNL     1      36.512   9.369  26.567  1.00  0.00     0.005 C 
ATOM     25  C   UNL     1      38.206   9.888  28.368  1.00  0.00     0.020 C 
ATOM     26  C   UNL     1      38.754  10.217  25.904  1.00  0.00     0.017 C 
ATOM     27  O   UNL     1      35.015   8.771  24.812  1.00  0.00    -0.295 OA
ATOM     28  C   UNL     1      35.693  10.311  27.072  1.00  0.00     0.055 C 
ATOM     29  C   UNL     1      37.564  11.266  28.572  1.00  0.00     0.081 C 
ATOM     30  C   UNL     1      36.149  11.278  28.080  1.00  0.00     0.156 C 
ATOM     31  O   UNL     1      35.348  12.149  28.510  1.00  0.00    -0.295 OA
ENDBRANCH   9  11
ENDBRANCH   8   9
ENDBRANCH   1   8
TORSDOF 6
ENDMDL
MODEL 9
REMARK VINA RESULT:    -6.001      4.826      7.276
REMARK INTER + INTRA:          -9.040
REMARK INTER:                  -8.058
REMARK INTRA:                  -0.982
REMARK UNBOUND:                -0.935
REMARK SMILES CC[C@@H](CC[C@@H](C)[C@@H]1CC[C@H]2[C@H]3CC(=O)C4=CC(=O)CC[C@@]4(C)[C@@H]3CC[C@]21C)C(C)C
REMARK SMILES IDX 4 1 3 2 2 3 1 4 29 5 30 6 31 7 5 8 6 9 7 10 8 11 9 12 27 13
REMARK SMILES IDX 10 14 11 15 26 16 28 17 12 18 25 19 24 20 13 21 22 22 14 23
REMARK SMILES IDX 16 24 21 25 23 26 15 27 17 28 20 29 18 30 19 31
REMARK H PARENT
REMARK Flexibility Score: inf
ROOT
ATOM      1  C   UNL     1      28.975   9.721  25.489  1.00  0.00     0.004 C 
ENDROOT
BRANCH   1   2
ATOM      2  C   UNL     1      27.952   9.357  26.605  1.00  0.00    -0.009 C 
BRANCH   2   3
ATOM      3  C   UNL     1      26.979   8.247  26.119  1.00  0.00     0.000 C 
ATOM      4  C   UNL     1      27.614   6.853  26.183  1.00  0.00     0.004 C 
ENDBRANCH   2   3
BRANCH   2   5
ATOM      5  C   UNL     1      27.137  10.591  27.173  1.00  0.00    -0.014 C 
ATOM      6  C   UNL     1      27.342  11.835  26.294  1.00  0.00     0.007 C 
ATOM      7  C   UNL     1      25.630  10.360  27.406  1.00  0.00     0.007 C 
ENDBRANCH   2   5
ENDBRANCH   1   2
BRANCH   1   8
ATOM      8  C   UNL     1      30.298   8.930  25.588  1.00  0.00     0.004 C 
BRANCH   8   9
ATOM      9  C   UNL     1      31.539   9.838  25.827  1.00  0.00    -0.011 C 
ATOM     10  C   UNL     1      31.118  11.195  26.436  1.00  0.00     0.008 C 
BRANCH   9  11
ATOM     11  C   UNL     1      32.634   9.058  26.653  1.00  0.00    -0.002 C 
ATOM     12  C   UNL     1      32.774   9.562  28.105  1.00  0.00     0.005 C 
ATOM     13  C   UNL     1      34.101   9.006  26.097  1.00  0.00    -0.026 C 
ATOM     14  C   UNL     1      34.173  10.161  28.253  1.00  0.00     0.005 C 
ATOM     15  C   UNL     1      34.832  10.128  26.866  1.00  0.00    -0.001 C 
ATOM     16  C   UNL     1      34.709   7.616  26.475  1.00  0.00     0.007 C 
ATOM     17  C   UNL     1      34.195   9.205  24.561  1.00  0.00     0.012 C 
ATOM     18  C   UNL     1      36.391  10.029  26.861  1.00  0.00     0.004 C 
ATOM     19  C   UNL     1      36.234   7.552  26.365  1.00  0.00     0.005 C 
ATOM     20  C   UNL     1      36.921   8.618  27.253  1.00  0.00     0.003 C 
ATOM     21  C   UNL     1      36.998  11.137  27.742  1.00  0.00     0.085 C 
ATOM     22  C   UNL     1      38.504   8.513  27.221  1.00  0.00    -0.000 C 
ATOM     23  C   UNL     1      38.486  11.043  27.803  1.00  0.00     0.159 C 
ATOM     24  C   UNL     1      39.129   9.720  27.933  1.00  0.00     0.005 C 
ATOM     25  C   UNL     1      38.938   7.201  27.952  1.00  0.00     0.020 C 
ATOM     26  C   UNL     1      39.054   8.500  25.767  1.00  0.00     0.017 C 
ATOM     27  O   UNL     1      39.172  12.100  27.838  1.00  0.00    -0.295 OA
ATOM     28  C   UNL     1      40.310   9.630  28.576  1.00  0.00     0.055 C 
ATOM     29  C   UNL     1      40.455   7.088  28.150  1.00  0.00     0.081 C 
ATOM     30  C   UNL     1      41.016   8.351  28.730  1.00  0.00     0.156 C 
ATOM     31  O   UNL     1      42.125   8.324  29.325  1.00  0.00    -0.295 OA
ENDBRANCH   9  11
ENDBRANCH   8   9
ENDBRANCH   1   8
TORSDOF 6
ENDMDL
