MODEL 1
REMARK VINA RESULT:    -6.607      0.000      0.000
REMARK INTER + INTRA:          -7.186
REMARK INTER:                  -7.186
REMARK INTRA:                   0.000
REMARK UNBOUND:                 0.000
REMARK SMILES Cc1cc(O)c2c(c1)C(=O)c1cc(O)cc(O)c1C2=O
REMARK SMILES IDX 1 1 2 2 8 3 7 4 6 5 4 6 3 7 19 8 20 9 18 10 11 11 9 12 10 13
REMARK SMILES IDX 12 14 13 15 15 16 16 17 5 18 17 20 14 22
REMARK H PARENT 5 19 17 21 14 23
REMARK Flexibility Score: inf
ROOT
ATOM      1  C   UNL     1     -33.478   5.612  79.131  1.00  0.00     0.044 C 
ATOM      2  C   UNL     1     -34.468   5.121  80.146  1.00  0.00    -0.047 A 
ATOM      3  C   UNL     1     -35.842   5.234  79.902  1.00  0.00     0.016 A 
ATOM      4  C   UNL     1     -36.778   4.743  80.829  1.00  0.00     0.038 A 
ATOM      5  C   UNL     1     -36.331   4.122  82.014  1.00  0.00     0.076 A 
ATOM      6  C   UNL     1     -34.944   3.984  82.244  1.00  0.00     0.127 A 
ATOM      7  C   UNL     1     -34.026   4.479  81.308  1.00  0.00     0.050 A 
ATOM      8  C   UNL     1     -37.333   3.645  83.004  1.00  0.00     0.201 C 
ATOM      9  O   UNL     1     -36.977   3.431  84.193  1.00  0.00    -0.288 OA
ATOM     10  C   UNL     1     -38.769   3.532  82.620  1.00  0.00     0.076 A 
ATOM     11  C   UNL     1     -39.209   4.211  81.460  1.00  0.00     0.041 A 
ATOM     12  C   UNL     1     -38.229   4.874  80.567  1.00  0.00     0.194 C 
ATOM     13  O   UNL     1     -38.631   5.537  79.571  1.00  0.00    -0.289 OA
ATOM     14  C   UNL     1     -40.580   4.247  81.148  1.00  0.00     0.059 A 
ATOM     15  C   UNL     1     -41.512   3.606  81.966  1.00  0.00     0.120 A 
ATOM     16  C   UNL     1     -41.079   2.897  83.084  1.00  0.00     0.093 A 
ATOM     17  C   UNL     1     -39.719   2.820  83.402  1.00  0.00     0.131 A 
ENDROOT
BRANCH   6  18
ATOM     18  O   UNL     1     -34.472   3.347  83.392  1.00  0.00    -0.507 OA
ATOM     19  H   UNL     1     -35.093   3.073  84.144  1.00  0.00     0.293 HD
ENDBRANCH   6  18
BRANCH  17  20
ATOM     20  O   UNL     1     -39.361   2.001  84.476  1.00  0.00    -0.507 OA
ATOM     21  H   UNL     1     -39.778   2.066  85.394  1.00  0.00     0.293 HD
ENDBRANCH  17  20
BRANCH  15  22
ATOM     22  O   UNL     1     -42.872   3.655  81.669  1.00  0.00    -0.508 OA
ATOM     23  H   UNL     1     -43.575   3.419  82.360  1.00  0.00     0.293 HD
ENDBRANCH  15  22
TORSDOF 3
ENDMDL
MODEL 2
REMARK VINA RESULT:    -6.507      2.164      3.220
REMARK INTER + INTRA:          -7.077
REMARK INTER:                  -7.077
REMARK INTRA:                   0.000
REMARK UNBOUND:                 0.000
REMARK SMILES Cc1cc(O)c2c(c1)C(=O)c1cc(O)cc(O)c1C2=O
REMARK SMILES IDX 1 1 2 2 8 3 7 4 6 5 4 6 3 7 19 8 20 9 18 10 11 11 9 12 10 13
REMARK SMILES IDX 12 14 13 15 15 16 16 17 5 18 17 20 14 22
REMARK H PARENT 5 19 17 21 14 23
REMARK Flexibility Score: inf
ROOT
ATOM      1  C   UNL     1     -33.916   4.402  82.148  1.00  0.00     0.044 C 
ATOM      2  C   UNL     1     -35.412   4.397  82.030  1.00  0.00    -0.047 A 
ATOM      3  C   UNL     1     -36.020   4.123  80.799  1.00  0.00     0.016 A 
ATOM      4  C   UNL     1     -37.420   4.078  80.685  1.00  0.00     0.038 A 
ATOM      5  C   UNL     1     -38.224   4.304  81.823  1.00  0.00     0.076 A 
ATOM      6  C   UNL     1     -37.606   4.553  83.069  1.00  0.00     0.127 A 
ATOM      7  C   UNL     1     -36.209   4.592  83.163  1.00  0.00     0.050 A 
ATOM      8  C   UNL     1     -39.704   4.294  81.677  1.00  0.00     0.201 C 
ATOM      9  O   UNL     1     -40.417   4.839  82.561  1.00  0.00    -0.288 OA
ATOM     10  C   UNL     1     -40.331   3.748  80.441  1.00  0.00     0.076 A 
ATOM     11  C   UNL     1     -39.520   3.585  79.293  1.00  0.00     0.041 A 
ATOM     12  C   UNL     1     -38.056   3.795  79.378  1.00  0.00     0.194 C 
ATOM     13  O   UNL     1     -37.346   3.717  78.338  1.00  0.00    -0.289 OA
ATOM     14  C   UNL     1     -40.106   3.211  78.070  1.00  0.00     0.059 A 
ATOM     15  C   UNL     1     -41.481   2.984  77.981  1.00  0.00     0.120 A 
ATOM     16  C   UNL     1     -42.277   3.098  79.119  1.00  0.00     0.093 A 
ATOM     17  C   UNL     1     -41.716   3.441  80.354  1.00  0.00     0.131 A 
ENDROOT
BRANCH   6  18
ATOM     18  O   UNL     1     -38.373   4.749  84.217  1.00  0.00    -0.507 OA
ATOM     19  H   UNL     1     -39.237   4.243  84.375  1.00  0.00     0.293 HD
ENDBRANCH   6  18
BRANCH  17  20
ATOM     20  O   UNL     1     -42.565   3.428  81.464  1.00  0.00    -0.507 OA
ATOM     21  H   UNL     1     -42.655   2.642  82.092  1.00  0.00     0.293 HD
ENDBRANCH  17  20
BRANCH  15  22
ATOM     22  O   UNL     1     -42.066   2.631  76.767  1.00  0.00    -0.508 OA
ATOM     23  H   UNL     1     -42.010   1.685  76.407  1.00  0.00     0.293 HD
ENDBRANCH  15  22
TORSDOF 3
ENDMDL
MODEL 3
REMARK VINA RESULT:    -6.469      2.319      5.098
REMARK INTER + INTRA:          -7.036
REMARK INTER:                  -7.036
REMARK INTRA:                   0.000
REMARK UNBOUND:                 0.000
REMARK SMILES Cc1cc(O)c2c(c1)C(=O)c1cc(O)cc(O)c1C2=O
REMARK SMILES IDX 1 1 2 2 8 3 7 4 6 5 4 6 3 7 19 8 20 9 18 10 11 11 9 12 10 13
REMARK SMILES IDX 12 14 13 15 15 16 16 17 5 18 17 20 14 22
REMARK H PARENT 5 19 17 21 14 23
REMARK Flexibility Score: inf
ROOT
ATOM      1  C   UNL     1     -38.382   7.892  76.034  1.00  0.00     0.044 C 
ATOM      2  C   UNL     1     -38.345   6.973  77.219  1.00  0.00    -0.047 A 
ATOM      3  C   UNL     1     -37.121   6.617  77.798  1.00  0.00     0.016 A 
ATOM      4  C   UNL     1     -37.077   5.787  78.931  1.00  0.00     0.038 A 
ATOM      5  C   UNL     1     -38.278   5.311  79.498  1.00  0.00     0.076 A 
ATOM      6  C   UNL     1     -39.513   5.693  78.928  1.00  0.00     0.127 A 
ATOM      7  C   UNL     1     -39.537   6.523  77.799  1.00  0.00     0.050 A 
ATOM      8  C   UNL     1     -38.214   4.400  80.672  1.00  0.00     0.201 C 
ATOM      9  O   UNL     1     -39.212   3.688  80.960  1.00  0.00    -0.288 OA
ATOM     10  C   UNL     1     -36.940   4.245  81.430  1.00  0.00     0.076 A 
ATOM     11  C   UNL     1     -35.739   4.675  80.819  1.00  0.00     0.041 A 
ATOM     12  C   UNL     1     -35.778   5.410  79.533  1.00  0.00     0.194 C 
ATOM     13  O   UNL     1     -34.702   5.731  78.957  1.00  0.00    -0.289 OA
ATOM     14  C   UNL     1     -34.505   4.413  81.441  1.00  0.00     0.059 A 
ATOM     15  C   UNL     1     -34.454   3.743  82.665  1.00  0.00     0.120 A 
ATOM     16  C   UNL     1     -35.637   3.359  83.293  1.00  0.00     0.093 A 
ATOM     17  C   UNL     1     -36.879   3.632  82.711  1.00  0.00     0.131 A 
ENDROOT
BRANCH   6  18
ATOM     18  O   UNL     1     -40.718   5.264  79.485  1.00  0.00    -0.507 OA
ATOM     19  H   UNL     1     -40.745   4.646  80.287  1.00  0.00     0.293 HD
ENDBRANCH   6  18
BRANCH  17  20
ATOM     20  O   UNL     1     -38.016   3.310  83.457  1.00  0.00    -0.507 OA
ATOM     21  H   UNL     1     -38.959   3.371  83.097  1.00  0.00     0.293 HD
ENDBRANCH  17  20
BRANCH  15  22
ATOM     22  O   UNL     1     -33.232   3.467  83.275  1.00  0.00    -0.508 OA
ATOM     23  H   UNL     1     -32.426   3.170  82.737  1.00  0.00     0.293 HD
ENDBRANCH  15  22
TORSDOF 3
ENDMDL
MODEL 4
REMARK VINA RESULT:    -6.408     12.777     14.545
REMARK INTER + INTRA:          -6.970
REMARK INTER:                  -6.970
REMARK INTRA:                   0.000
REMARK UNBOUND:                 0.000
REMARK SMILES Cc1cc(O)c2c(c1)C(=O)c1cc(O)cc(O)c1C2=O
REMARK SMILES IDX 1 1 2 2 8 3 7 4 6 5 4 6 3 7 19 8 20 9 18 10 11 11 9 12 10 13
REMARK SMILES IDX 12 14 13 15 15 16 16 17 5 18 17 20 14 22
REMARK H PARENT 5 19 17 21 14 23
REMARK Flexibility Score: inf
ROOT
ATOM      1  C   UNL     1     -48.009  -0.207  74.774  1.00  0.00     0.044 C 
ATOM      2  C   UNL     1     -47.805   0.856  73.736  1.00  0.00    -0.047 A 
ATOM      3  C   UNL     1     -47.657   2.195  74.116  1.00  0.00     0.016 A 
ATOM      4  C   UNL     1     -47.427   3.194  73.154  1.00  0.00     0.038 A 
ATOM      5  C   UNL     1     -47.337   2.845  71.790  1.00  0.00     0.076 A 
ATOM      6  C   UNL     1     -47.459   1.489  71.412  1.00  0.00     0.127 A 
ATOM      7  C   UNL     1     -47.687   0.507  72.385  1.00  0.00     0.050 A 
ATOM      8  C   UNL     1     -47.134   3.918  70.780  1.00  0.00     0.201 C 
ATOM      9  O   UNL     1     -47.411   3.692  69.572  1.00  0.00    -0.288 OA
ATOM     10  C   UNL     1     -46.719   5.283  71.211  1.00  0.00     0.076 A 
ATOM     11  C   UNL     1     -46.874   5.632  72.573  1.00  0.00     0.041 A 
ATOM     12  C   UNL     1     -47.279   4.608  73.564  1.00  0.00     0.194 C 
ATOM     13  O   UNL     1     -47.483   4.938  74.766  1.00  0.00    -0.289 OA
ATOM     14  C   UNL     1     -46.630   6.954  72.988  1.00  0.00     0.059 A 
ATOM     15  C   UNL     1     -46.223   7.923  72.070  1.00  0.00     0.120 A 
ATOM     16  C   UNL     1     -46.025   7.573  70.736  1.00  0.00     0.093 A 
ATOM     17  C   UNL     1     -46.232   6.260  70.301  1.00  0.00     0.131 A 
ENDROOT
BRANCH   6  18
ATOM     18  O   UNL     1     -47.343   1.110  70.074  1.00  0.00    -0.507 OA
ATOM     19  H   UNL     1     -46.691   1.563  69.446  1.00  0.00     0.293 HD
ENDBRANCH   6  18
BRANCH  17  20
ATOM     20  O   UNL     1     -45.907   5.970  68.974  1.00  0.00    -0.507 OA
ATOM     21  H   UNL     1     -46.545   5.534  68.323  1.00  0.00     0.293 HD
ENDBRANCH  17  20
BRANCH  15  22
ATOM     22  O   UNL     1     -45.998   9.237  72.475  1.00  0.00    -0.508 OA
ATOM     23  H   UNL     1     -46.168   9.534  73.429  1.00  0.00     0.293 HD
ENDBRANCH  15  22
TORSDOF 3
ENDMDL
MODEL 5
REMARK VINA RESULT:    -6.255      8.051      9.931
REMARK INTER + INTRA:          -6.803
REMARK INTER:                  -6.803
REMARK INTRA:                   0.000
REMARK UNBOUND:                 0.000
REMARK SMILES Cc1cc(O)c2c(c1)C(=O)c1cc(O)cc(O)c1C2=O
REMARK SMILES IDX 1 1 2 2 8 3 7 4 6 5 4 6 3 7 19 8 20 9 18 10 11 11 9 12 10 13
REMARK SMILES IDX 12 14 13 15 15 16 16 17 5 18 17 20 14 22
REMARK H PARENT 5 19 17 21 14 23
REMARK Flexibility Score: inf
ROOT
ATOM      1  C   UNL     1     -39.122  -0.986  85.125  1.00  0.00     0.044 C 
ATOM      2  C   UNL     1     -39.445  -2.147  84.232  1.00  0.00    -0.047 A 
ATOM      3  C   UNL     1     -40.778  -2.490  83.977  1.00  0.00     0.016 A 
ATOM      4  C   UNL     1     -41.092  -3.553  83.112  1.00  0.00     0.038 A 
ATOM      5  C   UNL     1     -40.056  -4.278  82.487  1.00  0.00     0.076 A 
ATOM      6  C   UNL     1     -38.712  -3.912  82.725  1.00  0.00     0.127 A 
ATOM      7  C   UNL     1     -38.418  -2.849  83.590  1.00  0.00     0.050 A 
ATOM      8  C   UNL     1     -40.403  -5.426  81.607  1.00  0.00     0.201 C 
ATOM      9  O   UNL     1     -39.527  -6.291  81.341  1.00  0.00    -0.288 OA
ATOM     10  C   UNL     1     -41.806  -5.612  81.139  1.00  0.00     0.076 A 
ATOM     11  C   UNL     1     -42.837  -4.921  81.817  1.00  0.00     0.041 A 
ATOM     12  C   UNL     1     -42.504  -3.914  82.852  1.00  0.00     0.194 C 
ATOM     13  O   UNL     1     -43.427  -3.351  83.504  1.00  0.00    -0.289 OA
ATOM     14  C   UNL     1     -44.182  -5.183  81.499  1.00  0.00     0.059 A 
ATOM     15  C   UNL     1     -44.510  -6.111  80.509  1.00  0.00     0.120 A 
ATOM     16  C   UNL     1     -43.496  -6.760  79.805  1.00  0.00     0.093 A 
ATOM     17  C   UNL     1     -42.151  -6.497  80.081  1.00  0.00     0.131 A 
ENDROOT
BRANCH   6  18
ATOM     18  O   UNL     1     -37.667  -4.590  82.098  1.00  0.00    -0.507 OA
ATOM     19  H   UNL     1     -36.697  -4.355  82.273  1.00  0.00     0.293 HD
ENDBRANCH   6  18
BRANCH  17  20
ATOM     20  O   UNL     1     -41.201  -7.108  79.259  1.00  0.00    -0.507 OA
ATOM     21  H   UNL     1     -40.543  -6.597  78.686  1.00  0.00     0.293 HD
ENDBRANCH  17  20
BRANCH  15  22
ATOM     22  O   UNL     1     -45.841  -6.385  80.204  1.00  0.00    -0.508 OA
ATOM     23  H   UNL     1     -46.167  -6.433  79.245  1.00  0.00     0.293 HD
ENDBRANCH  15  22
TORSDOF 3
ENDMDL
MODEL 6
REMARK VINA RESULT:    -6.218      2.427      5.180
REMARK INTER + INTRA:          -6.763
REMARK INTER:                  -6.763
REMARK INTRA:                   0.000
REMARK UNBOUND:                 0.000
REMARK SMILES Cc1cc(O)c2c(c1)C(=O)c1cc(O)cc(O)c1C2=O
REMARK SMILES IDX 1 1 2 2 8 3 7 4 6 5 4 6 3 7 19 8 20 9 18 10 11 11 9 12 10 13
REMARK SMILES IDX 12 14 13 15 15 16 16 17 5 18 17 20 14 22
REMARK H PARENT 5 19 17 21 14 23
REMARK Flexibility Score: inf
ROOT
ATOM      1  C   UNL     1     -37.743   2.598  84.633  1.00  0.00     0.044 C 
ATOM      2  C   UNL     1     -37.158   3.179  83.380  1.00  0.00    -0.047 A 
ATOM      3  C   UNL     1     -37.997   3.630  82.354  1.00  0.00     0.016 A 
ATOM      4  C   UNL     1     -37.461   4.210  81.191  1.00  0.00     0.038 A 
ATOM      5  C   UNL     1     -36.063   4.349  81.058  1.00  0.00     0.076 A 
ATOM      6  C   UNL     1     -35.221   3.919  82.108  1.00  0.00     0.127 A 
ATOM      7  C   UNL     1     -35.774   3.343  83.259  1.00  0.00     0.050 A 
ATOM      8  C   UNL     1     -35.510   4.928  79.805  1.00  0.00     0.201 C 
ATOM      9  O   UNL     1     -34.300   4.730  79.512  1.00  0.00    -0.288 OA
ATOM     10  C   UNL     1     -36.405   5.636  78.847  1.00  0.00     0.076 A 
ATOM     11  C   UNL     1     -37.801   5.436  78.962  1.00  0.00     0.041 A 
ATOM     12  C   UNL     1     -38.355   4.677  80.107  1.00  0.00     0.194 C 
ATOM     13  O   UNL     1     -39.593   4.442  80.169  1.00  0.00    -0.289 OA
ATOM     14  C   UNL     1     -38.666   5.970  77.989  1.00  0.00     0.059 A 
ATOM     15  C   UNL     1     -38.161   6.709  76.918  1.00  0.00     0.120 A 
ATOM     16  C   UNL     1     -36.791   6.948  76.827  1.00  0.00     0.093 A 
ATOM     17  C   UNL     1     -35.911   6.453  77.795  1.00  0.00     0.131 A 
ENDROOT
BRANCH   6  18
ATOM     18  O   UNL     1     -33.837   4.071  82.018  1.00  0.00    -0.507 OA
ATOM     19  H   UNL     1     -33.311   3.718  81.227  1.00  0.00     0.293 HD
ENDBRANCH   6  18
BRANCH  17  20
ATOM     20  O   UNL     1     -34.569   6.828  77.687  1.00  0.00    -0.507 OA
ATOM     21  H   UNL     1     -34.254   7.789  77.686  1.00  0.00     0.293 HD
ENDBRANCH  17  20
BRANCH  15  22
ATOM     22  O   UNL     1     -39.014   7.225  75.945  1.00  0.00    -0.508 OA
ATOM     23  H   UNL     1     -39.871   6.750  75.685  1.00  0.00     0.293 HD
ENDBRANCH  15  22
TORSDOF 3
ENDMDL
MODEL 7
REMARK VINA RESULT:    -6.190      1.677      3.361
REMARK INTER + INTRA:          -6.733
REMARK INTER:                  -6.733
REMARK INTRA:                   0.000
REMARK UNBOUND:                 0.000
REMARK SMILES Cc1cc(O)c2c(c1)C(=O)c1cc(O)cc(O)c1C2=O
REMARK SMILES IDX 1 1 2 2 8 3 7 4 6 5 4 6 3 7 19 8 20 9 18 10 11 11 9 12 10 13
REMARK SMILES IDX 12 14 13 15 15 16 16 17 5 18 17 20 14 22
REMARK H PARENT 5 19 17 21 14 23
REMARK Flexibility Score: inf
ROOT
ATOM      1  C   UNL     1     -33.205   4.690  84.035  1.00  0.00     0.044 C 
ATOM      2  C   UNL     1     -34.231   4.476  82.962  1.00  0.00    -0.047 A 
ATOM      3  C   UNL     1     -35.568   4.239  83.302  1.00  0.00     0.016 A 
ATOM      4  C   UNL     1     -36.544   4.074  82.304  1.00  0.00     0.038 A 
ATOM      5  C   UNL     1     -36.176   4.155  80.944  1.00  0.00     0.076 A 
ATOM      6  C   UNL     1     -34.831   4.422  80.604  1.00  0.00     0.127 A 
ATOM      7  C   UNL     1     -33.872   4.584  81.614  1.00  0.00     0.050 A 
ATOM      8  C   UNL     1     -37.213   3.938  79.900  1.00  0.00     0.201 C 
ATOM      9  O   UNL     1     -36.859   3.646  78.727  1.00  0.00    -0.288 OA
ATOM     10  C   UNL     1     -38.658   3.952  80.265  1.00  0.00     0.076 A 
ATOM     11  C   UNL     1     -39.007   3.809  81.629  1.00  0.00     0.041 A 
ATOM     12  C   UNL     1     -37.955   3.817  82.672  1.00  0.00     0.194 C 
ATOM     13  O   UNL     1     -38.262   3.621  83.880  1.00  0.00    -0.289 OA
ATOM     14  C   UNL     1     -40.358   3.672  81.995  1.00  0.00     0.059 A 
ATOM     15  C   UNL     1     -41.361   3.688  81.024  1.00  0.00     0.120 A 
ATOM     16  C   UNL     1     -41.026   3.874  79.685  1.00  0.00     0.093 A 
ATOM     17  C   UNL     1     -39.693   4.042  79.296  1.00  0.00     0.131 A 
ENDROOT
BRANCH   6  18
ATOM     18  O   UNL     1     -34.443   4.538  79.270  1.00  0.00    -0.507 OA
ATOM     19  H   UNL     1     -33.474   4.665  79.005  1.00  0.00     0.293 HD
ENDBRANCH   6  18
BRANCH  17  20
ATOM     20  O   UNL     1     -39.454   4.331  77.950  1.00  0.00    -0.507 OA
ATOM     21  H   UNL     1     -38.767   5.000  77.634  1.00  0.00     0.293 HD
ENDBRANCH  17  20
BRANCH  15  22
ATOM     22  O   UNL     1     -42.699   3.535  81.382  1.00  0.00    -0.508 OA
ATOM     23  H   UNL     1     -43.306   2.881  80.901  1.00  0.00     0.293 HD
ENDBRANCH  15  22
TORSDOF 3
ENDMDL
MODEL 8
REMARK VINA RESULT:    -6.185      1.805      4.006
REMARK INTER + INTRA:          -6.728
REMARK INTER:                  -6.728
REMARK INTRA:                   0.000
REMARK UNBOUND:                 0.000
REMARK SMILES Cc1cc(O)c2c(c1)C(=O)c1cc(O)cc(O)c1C2=O
REMARK SMILES IDX 1 1 2 2 8 3 7 4 6 5 4 6 3 7 19 8 20 9 18 10 11 11 9 12 10 13
REMARK SMILES IDX 12 14 13 15 15 16 16 17 5 18 17 20 14 22
REMARK H PARENT 5 19 17 21 14 23
REMARK Flexibility Score: inf
ROOT
ATOM      1  C   UNL     1     -34.246   7.254  77.586  1.00  0.00     0.044 C 
ATOM      2  C   UNL     1     -35.518   6.570  77.992  1.00  0.00    -0.047 A 
ATOM      3  C   UNL     1     -35.566   5.810  79.167  1.00  0.00     0.016 A 
ATOM      4  C   UNL     1     -36.762   5.196  79.576  1.00  0.00     0.038 A 
ATOM      5  C   UNL     1     -37.931   5.352  78.800  1.00  0.00     0.076 A 
ATOM      6  C   UNL     1     -37.886   6.142  77.630  1.00  0.00     0.127 A 
ATOM      7  C   UNL     1     -36.684   6.747  77.239  1.00  0.00     0.050 A 
ATOM      8  C   UNL     1     -39.178   4.662  79.224  1.00  0.00     0.201 C 
ATOM      9  O   UNL     1     -40.103   4.484  78.388  1.00  0.00    -0.288 OA
ATOM     10  C   UNL     1     -39.286   4.085  80.594  1.00  0.00     0.076 A 
ATOM     11  C   UNL     1     -38.096   3.882  81.332  1.00  0.00     0.041 A 
ATOM     12  C   UNL     1     -36.803   4.388  80.816  1.00  0.00     0.194 C 
ATOM     13  O   UNL     1     -35.735   4.146  81.442  1.00  0.00    -0.289 OA
ATOM     14  C   UNL     1     -38.144   3.207  82.565  1.00  0.00     0.059 A 
ATOM     15  C   UNL     1     -39.359   2.746  83.076  1.00  0.00     0.120 A 
ATOM     16  C   UNL     1     -40.540   2.985  82.375  1.00  0.00     0.093 A 
ATOM     17  C   UNL     1     -40.524   3.678  81.160  1.00  0.00     0.131 A 
ENDROOT
BRANCH   6  18
ATOM     18  O   UNL     1     -39.032   6.340  76.859  1.00  0.00    -0.507 OA
ATOM     19  H   UNL     1     -39.800   6.914  77.184  1.00  0.00     0.293 HD
ENDBRANCH   6  18
BRANCH  17  20
ATOM     20  O   UNL     1     -41.761   3.968  80.577  1.00  0.00    -0.507 OA
ATOM     21  H   UNL     1     -41.880   4.607  79.803  1.00  0.00     0.293 HD
ENDBRANCH  17  20
BRANCH  15  22
ATOM     22  O   UNL     1     -39.407   2.063  84.289  1.00  0.00    -0.508 OA
ATOM     23  H   UNL     1     -38.569   1.875  84.825  1.00  0.00     0.293 HD
ENDBRANCH  15  22
TORSDOF 3
ENDMDL
MODEL 9
REMARK VINA RESULT:    -5.992      1.779      6.138
REMARK INTER + INTRA:          -6.517
REMARK INTER:                  -6.517
REMARK INTRA:                   0.000
REMARK UNBOUND:                 0.000
REMARK SMILES Cc1cc(O)c2c(c1)C(=O)c1cc(O)cc(O)c1C2=O
REMARK SMILES IDX 1 1 2 2 8 3 7 4 6 5 4 6 3 7 19 8 20 9 18 10 11 11 9 12 10 13
REMARK SMILES IDX 12 14 13 15 15 16 16 17 5 18 17 20 14 22
REMARK H PARENT 5 19 17 21 14 23
REMARK Flexibility Score: inf
ROOT
ATOM      1  C   UNL     1     -38.732   1.200  85.125  1.00  0.00     0.044 C 
ATOM      2  C   UNL     1     -38.546   2.091  83.932  1.00  0.00    -0.047 A 
ATOM      3  C   UNL     1     -37.283   2.621  83.640  1.00  0.00     0.016 A 
ATOM      4  C   UNL     1     -37.090   3.426  82.504  1.00  0.00     0.038 A 
ATOM      5  C   UNL     1     -38.175   3.699  81.644  1.00  0.00     0.076 A 
ATOM      6  C   UNL     1     -39.441   3.139  81.927  1.00  0.00     0.127 A 
ATOM      7  C   UNL     1     -39.614   2.338  83.064  1.00  0.00     0.050 A 
ATOM      8  C   UNL     1     -37.962   4.586  80.469  1.00  0.00     0.201 C 
ATOM      9  O   UNL     1     -38.955   5.127  79.915  1.00  0.00    -0.288 OA
ATOM     10  C   UNL     1     -36.580   4.923  80.025  1.00  0.00     0.076 A 
ATOM     11  C   UNL     1     -35.512   4.697  80.926  1.00  0.00     0.041 A 
ATOM     12  C   UNL     1     -35.753   3.989  82.205  1.00  0.00     0.194 C 
ATOM     13  O   UNL     1     -34.813   3.851  83.036  1.00  0.00    -0.289 OA
ATOM     14  C   UNL     1     -34.217   5.135  80.598  1.00  0.00     0.059 A 
ATOM     15  C   UNL     1     -33.971   5.781  79.385  1.00  0.00     0.120 A 
ATOM     16  C   UNL     1     -35.010   5.964  78.475  1.00  0.00     0.093 A 
ATOM     17  C   UNL     1     -36.302   5.512  78.762  1.00  0.00     0.131 A 
ENDROOT
BRANCH   6  18
ATOM     18  O   UNL     1     -40.525   3.365  81.079  1.00  0.00    -0.507 OA
ATOM     19  H   UNL     1     -40.998   4.260  81.045  1.00  0.00     0.293 HD
ENDBRANCH   6  18
BRANCH  17  20
ATOM     20  O   UNL     1     -37.260   5.639  77.753  1.00  0.00    -0.507 OA
ATOM     21  H   UNL     1     -38.068   6.243  77.819  1.00  0.00     0.293 HD
ENDBRANCH  17  20
BRANCH  15  22
ATOM     22  O   UNL     1     -32.692   6.232  79.066  1.00  0.00    -0.508 OA
ATOM     23  H   UNL     1     -32.151   5.809  78.321  1.00  0.00     0.293 HD
ENDBRANCH  15  22
TORSDOF 3
ENDMDL
