MODEL 1
REMARK VINA RESULT:    -4.066      0.000      0.000
REMARK INTER + INTRA:          -4.066
REMARK INTER:                  -4.066
REMARK INTRA:                   0.000
REMARK UNBOUND:                 0.000
REMARK SMILES CC1=CC(=O)[C@@H]2C[C@H]1C2(C)C
REMARK SMILES IDX 1 1 2 2 3 3 4 4 5 5 6 6 7 7 8 8 9 9 10 10 11 11
REMARK H PARENT
REMARK Flexibility Score: inf
ROOT
ATOM      1  C   UNL     1      14.007  30.197  29.723  1.00  0.00     0.040 C 
ATOM      2  C   UNL     1      14.951  31.247  30.216  1.00  0.00    -0.066 C 
ATOM      3  C   UNL     1      14.773  31.850  31.423  1.00  0.00     0.047 C 
ATOM      4  C   UNL     1      15.805  32.864  31.817  1.00  0.00     0.159 C 
ATOM      5  O   UNL     1      15.773  33.459  32.926  1.00  0.00    -0.295 OA
ATOM      6  C   UNL     1      16.899  33.120  30.781  1.00  0.00     0.067 C 
ATOM      7  C   UNL     1      16.132  33.255  29.447  1.00  0.00     0.021 C 
ATOM      8  C   UNL     1      16.160  31.711  29.376  1.00  0.00     0.022 C 
ATOM      9  C   UNL     1      17.431  31.750  30.273  1.00  0.00    -0.019 C 
ATOM     10  C   UNL     1      18.733  31.892  29.445  1.00  0.00     0.012 C 
ATOM     11  C   UNL     1      17.634  30.607  31.307  1.00  0.00     0.012 C 
ENDROOT
TORSDOF 0
ENDMDL
MODEL 2
REMARK VINA RESULT:    -4.033      1.654      2.570
REMARK INTER + INTRA:          -4.033
REMARK INTER:                  -4.033
REMARK INTRA:                   0.000
REMARK UNBOUND:                 0.000
REMARK SMILES CC1=CC(=O)[C@@H]2C[C@H]1C2(C)C
REMARK SMILES IDX 1 1 2 2 3 3 4 4 5 5 6 6 7 7 8 8 9 9 10 10 11 11
REMARK H PARENT
REMARK Flexibility Score: inf
ROOT
ATOM      1  C   UNL     1      18.667  29.907  28.931  1.00  0.00     0.040 C 
ATOM      2  C   UNL     1      17.751  31.005  29.368  1.00  0.00    -0.066 C 
ATOM      3  C   UNL     1      16.479  30.746  29.778  1.00  0.00     0.047 C 
ATOM      4  C   UNL     1      15.670  31.928  30.222  1.00  0.00     0.159 C 
ATOM      5  O   UNL     1      14.496  31.813  30.660  1.00  0.00    -0.295 OA
ATOM      6  C   UNL     1      16.373  33.281  30.107  1.00  0.00     0.067 C 
ATOM      7  C   UNL     1      17.022  33.252  28.706  1.00  0.00     0.021 C 
ATOM      8  C   UNL     1      18.193  32.484  29.360  1.00  0.00     0.022 C 
ATOM      9  C   UNL     1      17.800  33.151  30.710  1.00  0.00    -0.019 C 
ATOM     10  C   UNL     1      18.484  34.527  30.910  1.00  0.00     0.012 C 
ATOM     11  C   UNL     1      17.977  32.325  32.016  1.00  0.00     0.012 C 
ENDROOT
TORSDOF 0
ENDMDL
MODEL 3
REMARK VINA RESULT:    -3.961      2.157      3.869
REMARK INTER + INTRA:          -3.961
REMARK INTER:                  -3.961
REMARK INTRA:                   0.000
REMARK UNBOUND:                 0.000
REMARK SMILES CC1=CC(=O)[C@@H]2C[C@H]1C2(C)C
REMARK SMILES IDX 1 1 2 2 3 3 4 4 5 5 6 6 7 7 8 8 9 9 10 10 11 11
REMARK H PARENT
REMARK Flexibility Score: inf
ROOT
ATOM      1  C   UNL     1      18.843  35.125  30.266  1.00  0.00     0.040 C 
ATOM      2  C   UNL     1      18.175  33.814  30.001  1.00  0.00    -0.066 C 
ATOM      3  C   UNL     1      18.873  32.745  29.530  1.00  0.00     0.047 C 
ATOM      4  C   UNL     1      18.096  31.477  29.336  1.00  0.00     0.159 C 
ATOM      5  O   UNL     1      18.636  30.410  28.943  1.00  0.00    -0.295 OA
ATOM      6  C   UNL     1      16.602  31.572  29.650  1.00  0.00     0.067 C 
ATOM      7  C   UNL     1      16.155  32.883  28.967  1.00  0.00     0.021 C 
ATOM      8  C   UNL     1      16.662  33.612  30.232  1.00  0.00     0.022 C 
ATOM      9  C   UNL     1      16.428  32.290  31.018  1.00  0.00    -0.019 C 
ATOM     10  C   UNL     1      14.983  32.175  31.565  1.00  0.00     0.012 C 
ATOM     11  C   UNL     1      17.414  31.936  32.168  1.00  0.00     0.012 C 
ENDROOT
TORSDOF 0
ENDMDL
MODEL 4
REMARK VINA RESULT:    -3.923      2.033      3.051
REMARK INTER + INTRA:          -3.923
REMARK INTER:                  -3.923
REMARK INTRA:                   0.000
REMARK UNBOUND:                 0.000
REMARK SMILES CC1=CC(=O)[C@@H]2C[C@H]1C2(C)C
REMARK SMILES IDX 1 1 2 2 3 3 4 4 5 5 6 6 7 7 8 8 9 9 10 10 11 11
REMARK H PARENT
REMARK Flexibility Score: inf
ROOT
ATOM      1  C   UNL     1      16.206  33.562  32.986  1.00  0.00     0.040 C 
ATOM      2  C   UNL     1      16.786  33.258  31.641  1.00  0.00    -0.066 C 
ATOM      3  C   UNL     1      17.881  33.919  31.175  1.00  0.00     0.047 C 
ATOM      4  C   UNL     1      18.384  33.501  29.826  1.00  0.00     0.159 C 
ATOM      5  O   UNL     1      19.411  34.008  29.305  1.00  0.00    -0.295 OA
ATOM      6  C   UNL     1      17.564  32.413  29.130  1.00  0.00     0.067 C 
ATOM      7  C   UNL     1      16.099  32.865  29.319  1.00  0.00     0.021 C 
ATOM      8  C   UNL     1      16.163  32.196  30.710  1.00  0.00     0.022 C 
ATOM      9  C   UNL     1      17.286  31.274  30.151  1.00  0.00    -0.019 C 
ATOM     10  C   UNL     1      16.720  30.000  29.474  1.00  0.00     0.012 C 
ATOM     11  C   UNL     1      18.431  30.847  31.112  1.00  0.00     0.012 C 
ENDROOT
TORSDOF 0
ENDMDL
MODEL 5
REMARK VINA RESULT:    -3.879      1.706      2.429
REMARK INTER + INTRA:          -3.879
REMARK INTER:                  -3.879
REMARK INTRA:                   0.000
REMARK UNBOUND:                 0.000
REMARK SMILES CC1=CC(=O)[C@@H]2C[C@H]1C2(C)C
REMARK SMILES IDX 1 1 2 2 3 3 4 4 5 5 6 6 7 7 8 8 9 9 10 10 11 11
REMARK H PARENT
REMARK Flexibility Score: inf
ROOT
ATOM      1  C   UNL     1      14.734  30.607  29.682  1.00  0.00     0.040 C 
ATOM      2  C   UNL     1      16.063  31.289  29.744  1.00  0.00    -0.066 C 
ATOM      3  C   UNL     1      16.192  32.617  29.477  1.00  0.00     0.047 C 
ATOM      4  C   UNL     1      17.572  33.189  29.604  1.00  0.00     0.159 C 
ATOM      5  O   UNL     1      17.812  34.412  29.422  1.00  0.00    -0.295 OA
ATOM      6  C   UNL     1      18.665  32.185  29.972  1.00  0.00     0.067 C 
ATOM      7  C   UNL     1      18.395  30.977  29.048  1.00  0.00     0.021 C 
ATOM      8  C   UNL     1      17.355  30.520  30.095  1.00  0.00     0.022 C 
ATOM      9  C   UNL     1      18.161  31.318  31.160  1.00  0.00    -0.019 C 
ATOM     10  C   UNL     1      19.294  30.475  31.798  1.00  0.00     0.012 C 
ATOM     11  C   UNL     1      17.373  32.019  32.304  1.00  0.00     0.012 C 
ENDROOT
TORSDOF 0
ENDMDL
MODEL 6
REMARK VINA RESULT:    -3.848     15.276     16.929
REMARK INTER + INTRA:          -3.848
REMARK INTER:                  -3.848
REMARK INTRA:                   0.000
REMARK UNBOUND:                 0.000
REMARK SMILES CC1=CC(=O)[C@@H]2C[C@H]1C2(C)C
REMARK SMILES IDX 1 1 2 2 3 3 4 4 5 5 6 6 7 7 8 8 9 9 10 10 11 11
REMARK H PARENT
REMARK Flexibility Score: inf
ROOT
ATOM      1  C   UNL     1      34.125  33.854  26.826  1.00  0.00     0.040 C 
ATOM      2  C   UNL     1      33.383  32.762  27.529  1.00  0.00    -0.066 C 
ATOM      3  C   UNL     1      33.830  31.477  27.513  1.00  0.00     0.047 C 
ATOM      4  C   UNL     1      33.014  30.481  28.281  1.00  0.00     0.159 C 
ATOM      5  O   UNL     1      33.345  29.270  28.376  1.00  0.00    -0.295 OA
ATOM      6  C   UNL     1      31.754  31.039  28.944  1.00  0.00     0.067 C 
ATOM      7  C   UNL     1      31.104  31.910  27.847  1.00  0.00     0.021 C 
ATOM      8  C   UNL     1      32.068  33.034  28.290  1.00  0.00     0.022 C 
ATOM      9  C   UNL     1      32.127  32.353  29.688  1.00  0.00    -0.019 C 
ATOM     10  C   UNL     1      30.996  32.839  30.630  1.00  0.00     0.012 C 
ATOM     11  C   UNL     1      33.469  32.402  30.472  1.00  0.00     0.012 C 
ENDROOT
TORSDOF 0
ENDMDL
MODEL 7
REMARK VINA RESULT:    -3.821      1.633      3.495
REMARK INTER + INTRA:          -3.821
REMARK INTER:                  -3.821
REMARK INTRA:                   0.000
REMARK UNBOUND:                 0.000
REMARK SMILES CC1=CC(=O)[C@@H]2C[C@H]1C2(C)C
REMARK SMILES IDX 1 1 2 2 3 3 4 4 5 5 6 6 7 7 8 8 9 9 10 10 11 11
REMARK H PARENT
REMARK Flexibility Score: inf
ROOT
ATOM      1  C   UNL     1      19.162  30.387  28.825  1.00  0.00     0.040 C 
ATOM      2  C   UNL     1      18.584  31.444  29.711  1.00  0.00    -0.066 C 
ATOM      3  C   UNL     1      19.163  32.671  29.822  1.00  0.00     0.047 C 
ATOM      4  C   UNL     1      18.469  33.653  30.717  1.00  0.00     0.159 C 
ATOM      5  O   UNL     1      18.884  34.832  30.871  1.00  0.00    -0.295 OA
ATOM      6  C   UNL     1      17.223  33.124  31.428  1.00  0.00     0.067 C 
ATOM      7  C   UNL     1      17.651  31.739  31.961  1.00  0.00     0.021 C 
ATOM      8  C   UNL     1      17.316  31.192  30.555  1.00  0.00     0.022 C 
ATOM      9  C   UNL     1      16.334  32.388  30.386  1.00  0.00    -0.019 C 
ATOM     10  C   UNL     1      14.920  32.072  30.936  1.00  0.00     0.012 C 
ATOM     11  C   UNL     1      16.179  33.016  28.972  1.00  0.00     0.012 C 
ENDROOT
TORSDOF 0
ENDMDL
MODEL 8
REMARK VINA RESULT:    -3.790      1.936      3.581
REMARK INTER + INTRA:          -3.790
REMARK INTER:                  -3.790
REMARK INTRA:                   0.000
REMARK UNBOUND:                 0.000
REMARK SMILES CC1=CC(=O)[C@@H]2C[C@H]1C2(C)C
REMARK SMILES IDX 1 1 2 2 3 3 4 4 5 5 6 6 7 7 8 8 9 9 10 10 11 11
REMARK H PARENT
REMARK Flexibility Score: inf
ROOT
ATOM      1  C   UNL     1      17.388  33.290  28.838  1.00  0.00     0.040 C 
ATOM      2  C   UNL     1      16.874  32.082  29.555  1.00  0.00    -0.066 C 
ATOM      3  C   UNL     1      17.693  31.039  29.861  1.00  0.00     0.047 C 
ATOM      4  C   UNL     1      17.065  29.901  30.609  1.00  0.00     0.159 C 
ATOM      5  O   UNL     1      17.725  28.897  30.984  1.00  0.00    -0.295 OA
ATOM      6  C   UNL     1      15.567  30.046  30.884  1.00  0.00     0.067 C 
ATOM      7  C   UNL     1      14.980  30.524  29.538  1.00  0.00     0.021 C 
ATOM      8  C   UNL     1      15.392  31.951  29.965  1.00  0.00     0.022 C 
ATOM      9  C   UNL     1      15.303  31.473  31.443  1.00  0.00    -0.019 C 
ATOM     10  C   UNL     1      13.875  31.622  32.027  1.00  0.00     0.012 C 
ATOM     11  C   UNL     1      16.313  32.063  32.468  1.00  0.00     0.012 C 
ENDROOT
TORSDOF 0
ENDMDL
MODEL 9
REMARK VINA RESULT:    -3.719      2.753      4.048
REMARK INTER + INTRA:          -3.719
REMARK INTER:                  -3.719
REMARK INTRA:                   0.000
REMARK UNBOUND:                 0.000
REMARK SMILES CC1=CC(=O)[C@@H]2C[C@H]1C2(C)C
REMARK SMILES IDX 1 1 2 2 3 3 4 4 5 5 6 6 7 7 8 8 9 9 10 10 11 11
REMARK H PARENT
REMARK Flexibility Score: inf
ROOT
ATOM      1  C   UNL     1      16.116  33.237  29.137  1.00  0.00     0.040 C 
ATOM      2  C   UNL     1      17.418  32.934  29.808  1.00  0.00    -0.066 C 
ATOM      3  C   UNL     1      18.299  32.043  29.276  1.00  0.00     0.047 C 
ATOM      4  C   UNL     1      19.582  31.850  30.028  1.00  0.00     0.159 C 
ATOM      5  O   UNL     1      20.493  31.084  29.617  1.00  0.00    -0.295 OA
ATOM      6  C   UNL     1      19.707  32.649  31.325  1.00  0.00     0.067 C 
ATOM      7  C   UNL     1      18.346  32.448  32.026  1.00  0.00     0.021 C 
ATOM      8  C   UNL     1      17.818  33.600  31.142  1.00  0.00     0.022 C 
ATOM      9  C   UNL     1      19.282  34.119  31.044  1.00  0.00    -0.019 C 
ATOM     10  C   UNL     1      19.650  35.072  32.209  1.00  0.00     0.012 C 
ATOM     11  C   UNL     1      19.740  34.778  29.712  1.00  0.00     0.012 C 
ENDROOT
TORSDOF 0
ENDMDL
