MODEL 1
REMARK VINA RESULT:    -3.505      0.000      0.000
REMARK INTER + INTRA:          -5.782
REMARK INTER:                  -5.350
REMARK INTRA:                  -0.432
REMARK UNBOUND:                -0.432
REMARK SMILES O=C([O-])CCCCCCCCC(=O)[O-]
REMARK SMILES IDX 7 1 6 2 5 3 4 4 2 5 1 6 3 7 8 8 9 9 10 10 11 11 12 12 13 13
REMARK SMILES IDX 14 14
REMARK H PARENT
REMARK Flexibility Score: inf
ROOT
ATOM      1  C   UNL     1     -45.492 -21.431  27.428  1.00  0.00     0.000 C 
ENDROOT
BRANCH   1   2
ATOM      2  C   UNL     1     -44.553 -22.338  28.234  1.00  0.00     0.000 C 
BRANCH   2   3
ATOM      3  C   UNL     1     -43.099 -22.163  27.785  1.00  0.00     0.006 C 
BRANCH   3   4
ATOM      4  C   UNL     1     -42.136 -22.320  28.966  1.00  0.00     0.053 C 
BRANCH   4   5
ATOM      5  C   UNL     1     -40.808 -21.710  28.644  1.00  0.00     0.041 C 
ATOM      6  O   UNL     1     -40.398 -20.709  29.287  1.00  0.00    -0.550 OA
ATOM      7  O   UNL     1     -40.002 -22.278  27.666  1.00  0.00    -0.550 OA
ENDBRANCH   4   5
ENDBRANCH   3   4
ENDBRANCH   2   3
ENDBRANCH   1   2
BRANCH   1   8
ATOM      8  C   UNL     1     -46.909 -21.447  28.012  1.00  0.00     0.000 C 
BRANCH   8   9
ATOM      9  C   UNL     1     -47.655 -20.145  27.682  1.00  0.00     0.000 C 
BRANCH   9  10
ATOM     10  C   UNL     1     -46.988 -19.350  26.549  1.00  0.00     0.006 C 
BRANCH  10  11
ATOM     11  C   UNL     1     -46.788 -17.871  26.902  1.00  0.00     0.053 C 
BRANCH  11  12
ATOM     12  C   UNL     1     -45.428 -17.413  26.480  1.00  0.00     0.041 C 
ATOM     13  O   UNL     1     -45.095 -16.207  26.614  1.00  0.00    -0.550 OA
ATOM     14  O   UNL     1     -44.508 -18.330  25.984  1.00  0.00    -0.550 OA
ENDBRANCH  11  12
ENDBRANCH  10  11
ENDBRANCH   9  10
ENDBRANCH   8   9
ENDBRANCH   1   8
TORSDOF 9
ENDMDL
MODEL 2
REMARK VINA RESULT:    -3.498      2.421      6.029
REMARK INTER + INTRA:          -5.771
REMARK INTER:                  -5.320
REMARK INTRA:                  -0.451
REMARK UNBOUND:                -0.432
REMARK SMILES O=C([O-])CCCCCCCCC(=O)[O-]
REMARK SMILES IDX 7 1 6 2 5 3 4 4 2 5 1 6 3 7 8 8 9 9 10 10 11 11 12 12 13 13
REMARK SMILES IDX 14 14
REMARK H PARENT
REMARK Flexibility Score: inf
ROOT
ATOM      1  C   UNL     1     -43.634 -22.387  28.476  1.00  0.00     0.000 C 
ENDROOT
BRANCH   1   2
ATOM      2  C   UNL     1     -43.675 -21.758  27.078  1.00  0.00     0.000 C 
BRANCH   2   3
ATOM      3  C   UNL     1     -45.005 -21.037  26.837  1.00  0.00     0.006 C 
BRANCH   3   4
ATOM      4  C   UNL     1     -46.095 -21.568  27.774  1.00  0.00     0.053 C 
BRANCH   4   5
ATOM      5  C   UNL     1     -47.310 -20.697  27.710  1.00  0.00     0.041 C 
ATOM      6  O   UNL     1     -48.075 -20.603  28.706  1.00  0.00    -0.550 OA
ATOM      7  O   UNL     1     -47.573 -19.952  26.568  1.00  0.00    -0.550 OA
ENDBRANCH   4   5
ENDBRANCH   3   4
ENDBRANCH   2   3
ENDBRANCH   1   2
BRANCH   1   8
ATOM      8  C   UNL     1     -42.200 -22.443  29.015  1.00  0.00     0.000 C 
BRANCH   8   9
ATOM      9  C   UNL     1     -41.253 -21.602  28.147  1.00  0.00     0.000 C 
BRANCH   9  10
ATOM     10  C   UNL     1     -40.273 -20.762  28.980  1.00  0.00     0.006 C 
BRANCH  10  11
ATOM     11  C   UNL     1     -38.927 -20.550  28.275  1.00  0.00     0.053 C 
BRANCH  11  12
ATOM     12  C   UNL     1     -39.092 -19.637  27.100  1.00  0.00     0.041 C 
ATOM     13  O   UNL     1     -39.665 -18.525  27.238  1.00  0.00    -0.550 OA
ATOM     14  O   UNL     1     -38.568 -19.994  25.864  1.00  0.00    -0.550 OA
ENDBRANCH  11  12
ENDBRANCH  10  11
ENDBRANCH   9  10
ENDBRANCH   8   9
ENDBRANCH   1   8
TORSDOF 9
ENDMDL
MODEL 3
REMARK VINA RESULT:    -3.449      2.352      6.405
REMARK INTER + INTRA:          -5.697
REMARK INTER:                  -5.205
REMARK INTRA:                  -0.492
REMARK UNBOUND:                -0.432
REMARK SMILES O=C([O-])CCCCCCCCC(=O)[O-]
REMARK SMILES IDX 7 1 6 2 5 3 4 4 2 5 1 6 3 7 8 8 9 9 10 10 11 11 12 12 13 13
REMARK SMILES IDX 14 14
REMARK H PARENT
REMARK Flexibility Score: inf
ROOT
ATOM      1  C   UNL     1     -43.647 -22.489  28.071  1.00  0.00     0.000 C 
ENDROOT
BRANCH   1   2
ATOM      2  C   UNL     1     -43.619 -21.552  26.858  1.00  0.00     0.000 C 
BRANCH   2   3
ATOM      3  C   UNL     1     -44.933 -20.773  26.733  1.00  0.00     0.006 C 
BRANCH   3   4
ATOM      4  C   UNL     1     -46.045 -21.437  27.551  1.00  0.00     0.053 C 
BRANCH   4   5
ATOM      5  C   UNL     1     -47.298 -20.622  27.488  1.00  0.00     0.041 C 
ATOM      6  O   UNL     1     -47.627 -20.047  26.418  1.00  0.00    -0.550 OA
ATOM      7  O   UNL     1     -48.129 -20.538  28.598  1.00  0.00    -0.550 OA
ENDBRANCH   4   5
ENDBRANCH   3   4
ENDBRANCH   2   3
ENDBRANCH   1   2
BRANCH   1   8
ATOM      8  C   UNL     1     -42.359 -22.366  28.893  1.00  0.00     0.000 C 
BRANCH   8   9
ATOM      9  C   UNL     1     -41.231 -21.739  28.059  1.00  0.00     0.000 C 
BRANCH   9  10
ATOM     10  C   UNL     1     -40.351 -20.781  28.877  1.00  0.00     0.006 C 
BRANCH  10  11
ATOM     11  C   UNL     1     -39.481 -19.878  27.993  1.00  0.00     0.053 C 
BRANCH  11  12
ATOM     12  C   UNL     1     -38.416 -20.682  27.316  1.00  0.00     0.041 C 
ATOM     13  O   UNL     1     -38.304 -20.657  26.063  1.00  0.00    -0.550 OA
ATOM     14  O   UNL     1     -37.515 -21.421  28.073  1.00  0.00    -0.550 OA
ENDBRANCH  11  12
ENDBRANCH  10  11
ENDBRANCH   9  10
ENDBRANCH   8   9
ENDBRANCH   1   8
TORSDOF 9
ENDMDL
MODEL 4
REMARK VINA RESULT:    -3.428      2.548      3.379
REMARK INTER + INTRA:          -5.663
REMARK INTER:                  -5.177
REMARK INTRA:                  -0.486
REMARK UNBOUND:                -0.432
REMARK SMILES O=C([O-])CCCCCCCCC(=O)[O-]
REMARK SMILES IDX 7 1 6 2 5 3 4 4 2 5 1 6 3 7 8 8 9 9 10 10 11 11 12 12 13 13
REMARK SMILES IDX 14 14
REMARK H PARENT
REMARK Flexibility Score: inf
ROOT
ATOM      1  C   UNL     1     -42.906 -21.842  27.376  1.00  0.00     0.000 C 
ENDROOT
BRANCH   1   2
ATOM      2  C   UNL     1     -41.423 -22.154  27.608  1.00  0.00     0.000 C 
BRANCH   2   3
ATOM      3  C   UNL     1     -40.967 -21.669  28.989  1.00  0.00     0.006 C 
BRANCH   3   4
ATOM      4  C   UNL     1     -40.022 -20.471  28.866  1.00  0.00     0.053 C 
BRANCH   4   5
ATOM      5  C   UNL     1     -38.756 -20.871  28.176  1.00  0.00     0.041 C 
ATOM      6  O   UNL     1     -37.995 -21.728  28.698  1.00  0.00    -0.550 OA
ATOM      7  O   UNL     1     -38.440 -20.335  26.935  1.00  0.00    -0.550 OA
ENDBRANCH   4   5
ENDBRANCH   3   4
ENDBRANCH   2   3
ENDBRANCH   1   2
BRANCH   1   8
ATOM      8  C   UNL     1     -43.777 -22.453  28.480  1.00  0.00     0.000 C 
BRANCH   8   9
ATOM      9  C   UNL     1     -45.270 -22.299  28.152  1.00  0.00     0.000 C 
BRANCH   9  10
ATOM     10  C   UNL     1     -45.512 -21.584  26.814  1.00  0.00     0.006 C 
BRANCH  10  11
ATOM     11  C   UNL     1     -46.388 -20.333  26.962  1.00  0.00     0.053 C 
BRANCH  11  12
ATOM     12  C   UNL     1     -47.777 -20.714  27.368  1.00  0.00     0.041 C 
ATOM     13  O   UNL     1     -48.200 -20.432  28.519  1.00  0.00    -0.550 OA
ATOM     14  O   UNL     1     -48.622 -21.334  26.456  1.00  0.00    -0.550 OA
ENDBRANCH  11  12
ENDBRANCH  10  11
ENDBRANCH   9  10
ENDBRANCH   8   9
ENDBRANCH   1   8
TORSDOF 9
ENDMDL
MODEL 5
REMARK VINA RESULT:    -3.388      4.320      8.139
REMARK INTER + INTRA:          -5.603
REMARK INTER:                  -4.818
REMARK INTRA:                  -0.785
REMARK UNBOUND:                -0.432
REMARK SMILES O=C([O-])CCCCCCCCC(=O)[O-]
REMARK SMILES IDX 7 1 6 2 5 3 4 4 2 5 1 6 3 7 8 8 9 9 10 10 11 11 12 12 13 13
REMARK SMILES IDX 14 14
REMARK H PARENT
REMARK Flexibility Score: inf
ROOT
ATOM      1  C   UNL     1     -38.888 -20.359  28.123  1.00  0.00     0.000 C 
ENDROOT
BRANCH   1   2
ATOM      2  C   UNL     1     -40.186 -20.626  28.894  1.00  0.00     0.000 C 
BRANCH   2   3
ATOM      3  C   UNL     1     -41.138 -21.509  28.082  1.00  0.00     0.006 C 
BRANCH   3   4
ATOM      4  C   UNL     1     -41.889 -22.487  28.990  1.00  0.00     0.053 C 
BRANCH   4   5
ATOM      5  C   UNL     1     -43.167 -22.925  28.345  1.00  0.00     0.041 C 
ATOM      6  O   UNL     1     -43.176 -23.913  27.565  1.00  0.00    -0.550 OA
ATOM      7  O   UNL     1     -44.356 -22.272  28.643  1.00  0.00    -0.550 OA
ENDBRANCH   4   5
ENDBRANCH   3   4
ENDBRANCH   2   3
ENDBRANCH   1   2
BRANCH   1   8
ATOM      8  C   UNL     1     -37.877 -21.492  28.335  1.00  0.00     0.000 C 
BRANCH   8   9
ATOM      9  C   UNL     1     -37.625 -22.257  27.027  1.00  0.00     0.000 C 
BRANCH   9  10
ATOM     10  C   UNL     1     -37.921 -23.760  27.152  1.00  0.00     0.006 C 
BRANCH  10  11
ATOM     11  C   UNL     1     -38.494 -24.137  28.524  1.00  0.00     0.053 C 
BRANCH  11  12
ATOM     12  C   UNL     1     -37.853 -25.390  29.031  1.00  0.00     0.041 C 
ATOM     13  O   UNL     1     -36.967 -25.969  28.349  1.00  0.00    -0.550 OA
ATOM     14  O   UNL     1     -38.197 -25.892  30.280  1.00  0.00    -0.550 OA
ENDBRANCH  11  12
ENDBRANCH  10  11
ENDBRANCH   9  10
ENDBRANCH   8   9
ENDBRANCH   1   8
TORSDOF 9
ENDMDL
MODEL 6
REMARK VINA RESULT:    -3.387      2.213      6.093
REMARK INTER + INTRA:          -5.601
REMARK INTER:                  -5.239
REMARK INTRA:                  -0.362
REMARK UNBOUND:                -0.432
REMARK SMILES O=C([O-])CCCCCCCCC(=O)[O-]
REMARK SMILES IDX 7 1 6 2 5 3 4 4 2 5 1 6 3 7 8 8 9 9 10 10 11 11 12 12 13 13
REMARK SMILES IDX 14 14
REMARK H PARENT
REMARK Flexibility Score: inf
ROOT
ATOM      1  C   UNL     1     -43.821 -22.257  27.664  1.00  0.00     0.000 C 
ENDROOT
BRANCH   1   2
ATOM      2  C   UNL     1     -45.048 -22.629  28.505  1.00  0.00     0.000 C 
BRANCH   2   3
ATOM      3  C   UNL     1     -46.342 -22.171  27.824  1.00  0.00     0.006 C 
BRANCH   3   4
ATOM      4  C   UNL     1     -46.134 -20.847  27.083  1.00  0.00     0.053 C 
BRANCH   4   5
ATOM      5  C   UNL     1     -47.235 -19.887  27.405  1.00  0.00     0.041 C 
ATOM      6  O   UNL     1     -47.196 -18.707  26.968  1.00  0.00    -0.550 OA
ATOM      7  O   UNL     1     -48.330 -20.309  28.149  1.00  0.00    -0.550 OA
ENDBRANCH   4   5
ENDBRANCH   3   4
ENDBRANCH   2   3
ENDBRANCH   1   2
BRANCH   1   8
ATOM      8  C   UNL     1     -42.539 -22.316  28.503  1.00  0.00     0.000 C 
BRANCH   8   9
ATOM      9  C   UNL     1     -41.413 -21.505  27.844  1.00  0.00     0.000 C 
BRANCH   9  10
ATOM     10  C   UNL     1     -40.447 -20.892  28.869  1.00  0.00     0.006 C 
BRANCH  10  11
ATOM     11  C   UNL     1     -39.020 -20.746  28.323  1.00  0.00     0.053 C 
BRANCH  11  12
ATOM     12  C   UNL     1     -39.013 -19.862  27.115  1.00  0.00     0.041 C 
ATOM     13  O   UNL     1     -39.402 -18.668  27.201  1.00  0.00    -0.550 OA
ATOM     14  O   UNL     1     -38.528 -20.344  25.905  1.00  0.00    -0.550 OA
ENDBRANCH  11  12
ENDBRANCH  10  11
ENDBRANCH   9  10
ENDBRANCH   8   9
ENDBRANCH   1   8
TORSDOF 9
ENDMDL
MODEL 7
REMARK VINA RESULT:    -3.373      5.265      6.455
REMARK INTER + INTRA:          -5.580
REMARK INTER:                  -4.485
REMARK INTRA:                  -1.095
REMARK UNBOUND:                -0.432
REMARK SMILES O=C([O-])CCCCCCCCC(=O)[O-]
REMARK SMILES IDX 7 1 6 2 5 3 4 4 2 5 1 6 3 7 8 8 9 9 10 10 11 11 12 12 13 13
REMARK SMILES IDX 14 14
REMARK H PARENT
REMARK Flexibility Score: inf
ROOT
ATOM      1  C   UNL     1     -40.666 -21.017  28.060  1.00  0.00     0.000 C 
ENDROOT
BRANCH   1   2
ATOM      2  C   UNL     1     -39.386 -20.642  28.816  1.00  0.00     0.000 C 
BRANCH   2   3
ATOM      3  C   UNL     1     -38.311 -21.722  28.647  1.00  0.00     0.006 C 
BRANCH   3   4
ATOM      4  C   UNL     1     -37.484 -21.481  27.381  1.00  0.00     0.053 C 
BRANCH   4   5
ATOM      5  C   UNL     1     -37.590 -22.652  26.456  1.00  0.00     0.041 C 
ATOM      6  O   UNL     1     -36.610 -23.429  26.303  1.00  0.00    -0.550 OA
ATOM      7  O   UNL     1     -38.785 -22.915  25.799  1.00  0.00    -0.550 OA
ENDBRANCH   4   5
ENDBRANCH   3   4
ENDBRANCH   2   3
ENDBRANCH   1   2
BRANCH   1   8
ATOM      8  C   UNL     1     -40.978 -19.995  26.961  1.00  0.00     0.000 C 
BRANCH   8   9
ATOM      9  C   UNL     1     -40.024 -18.794  27.040  1.00  0.00     0.000 C 
BRANCH   9  10
ATOM     10  C   UNL     1     -39.482 -18.376  25.664  1.00  0.00     0.006 C 
BRANCH  10  11
ATOM     11  C   UNL     1     -39.306 -19.566  24.712  1.00  0.00     0.053 C 
BRANCH  11  12
ATOM     12  C   UNL     1     -37.975 -19.498  24.032  1.00  0.00     0.041 C 
ATOM     13  O   UNL     1     -37.401 -20.553  23.657  1.00  0.00    -0.550 OA
ATOM     14  O   UNL     1     -37.392 -18.265  23.767  1.00  0.00    -0.550 OA
ENDBRANCH  11  12
ENDBRANCH  10  11
ENDBRANCH   9  10
ENDBRANCH   8   9
ENDBRANCH   1   8
TORSDOF 9
ENDMDL
MODEL 8
REMARK VINA RESULT:    -3.347      3.333      6.901
REMARK INTER + INTRA:          -5.541
REMARK INTER:                  -4.979
REMARK INTRA:                  -0.562
REMARK UNBOUND:                -0.432
REMARK SMILES O=C([O-])CCCCCCCCC(=O)[O-]
REMARK SMILES IDX 7 1 6 2 5 3 4 4 2 5 1 6 3 7 8 8 9 9 10 10 11 11 12 12 13 13
REMARK SMILES IDX 14 14
REMARK H PARENT
REMARK Flexibility Score: inf
ROOT
ATOM      1  C   UNL     1     -41.520 -22.041  28.212  1.00  0.00     0.000 C 
ENDROOT
BRANCH   1   2
ATOM      2  C   UNL     1     -42.255 -21.355  27.053  1.00  0.00     0.000 C 
BRANCH   2   3
ATOM      3  C   UNL     1     -43.755 -21.664  27.094  1.00  0.00     0.006 C 
BRANCH   3   4
ATOM      4  C   UNL     1     -44.133 -22.385  28.392  1.00  0.00     0.053 C 
BRANCH   4   5
ATOM      5  C   UNL     1     -45.611 -22.607  28.456  1.00  0.00     0.041 C 
ATOM      6  O   UNL     1     -46.404 -21.701  28.088  1.00  0.00    -0.550 OA
ATOM      7  O   UNL     1     -46.113 -23.831  28.878  1.00  0.00    -0.550 OA
ENDBRANCH   4   5
ENDBRANCH   3   4
ENDBRANCH   2   3
ENDBRANCH   1   2
BRANCH   1   8
ATOM      8  C   UNL     1     -40.529 -21.081  28.881  1.00  0.00     0.000 C 
BRANCH   8   9
ATOM      9  C   UNL     1     -40.017 -20.033  27.882  1.00  0.00     0.000 C 
BRANCH   9  10
ATOM     10  C   UNL     1     -38.614 -20.360  27.346  1.00  0.00     0.006 C 
BRANCH  10  11
ATOM     11  C   UNL     1     -37.901 -21.436  28.176  1.00  0.00     0.053 C 
BRANCH  11  12
ATOM     12  C   UNL     1     -37.718 -22.681  27.366  1.00  0.00     0.041 C 
ATOM     13  O   UNL     1     -38.238 -23.764  27.742  1.00  0.00    -0.550 OA
ATOM     14  O   UNL     1     -37.014 -22.635  26.169  1.00  0.00    -0.550 OA
ENDBRANCH  11  12
ENDBRANCH  10  11
ENDBRANCH   9  10
ENDBRANCH   8   9
ENDBRANCH   1   8
TORSDOF 9
ENDMDL
MODEL 9
REMARK VINA RESULT:    -3.226      3.267      5.654
REMARK INTER + INTRA:          -5.355
REMARK INTER:                  -4.833
REMARK INTRA:                  -0.522
REMARK UNBOUND:                -0.432
REMARK SMILES O=C([O-])CCCCCCCCC(=O)[O-]
REMARK SMILES IDX 7 1 6 2 5 3 4 4 2 5 1 6 3 7 8 8 9 9 10 10 11 11 12 12 13 13
REMARK SMILES IDX 14 14
REMARK H PARENT
REMARK Flexibility Score: inf
ROOT
ATOM      1  C   UNL     1     -40.608 -21.883  28.438  1.00  0.00     0.000 C 
ENDROOT
BRANCH   1   2
ATOM      2  C   UNL     1     -41.901 -22.224  29.188  1.00  0.00     0.000 C 
BRANCH   2   3
ATOM      3  C   UNL     1     -42.884 -22.972  28.280  1.00  0.00     0.006 C 
BRANCH   3   4
ATOM      4  C   UNL     1     -44.183 -22.179  28.106  1.00  0.00     0.053 C 
BRANCH   4   5
ATOM      5  C   UNL     1     -45.370 -23.073  28.280  1.00  0.00     0.041 C 
ATOM      6  O   UNL     1     -45.488 -24.112  27.579  1.00  0.00    -0.550 OA
ATOM      7  O   UNL     1     -46.320 -22.785  29.251  1.00  0.00    -0.550 OA
ENDBRANCH   4   5
ENDBRANCH   3   4
ENDBRANCH   2   3
ENDBRANCH   1   2
BRANCH   1   8
ATOM      8  C   UNL     1     -39.936 -20.641  29.034  1.00  0.00     0.000 C 
BRANCH   8   9
ATOM      9  C   UNL     1     -38.866 -20.084  28.083  1.00  0.00     0.000 C 
BRANCH   9  10
ATOM     10  C   UNL     1     -39.112 -20.477  26.618  1.00  0.00     0.006 C 
BRANCH  10  11
ATOM     11  C   UNL     1     -39.403 -19.266  25.722  1.00  0.00     0.053 C 
BRANCH  11  12
ATOM     12  C   UNL     1     -40.640 -18.561  26.183  1.00  0.00     0.041 C 
ATOM     13  O   UNL     1     -40.587 -17.355  26.539  1.00  0.00    -0.550 OA
ATOM     14  O   UNL     1     -41.862 -19.223  26.171  1.00  0.00    -0.550 OA
ENDBRANCH  11  12
ENDBRANCH  10  11
ENDBRANCH   9  10
ENDBRANCH   8   9
ENDBRANCH   1   8
TORSDOF 9
ENDMDL
