MODEL 1
REMARK VINA RESULT:    -3.887      0.000      0.000
REMARK INTER + INTRA:          -6.288
REMARK INTER:                  -5.477
REMARK INTRA:                  -0.810
REMARK UNBOUND:                -0.810
REMARK SMILES CCCCCCCCC(=O)[O-]
REMARK SMILES IDX 6 1 7 2 8 3 9 4 10 5 11 6 5 7 4 8 3 9 2 10 1 11
REMARK H PARENT
REMARK Flexibility Score: inf
ROOT
ATOM      1  C   UNL     1      88.026  76.851  68.277  1.00  0.00     0.000 C 
ENDROOT
BRANCH   1   2
ATOM      2  C   UNL     1      88.043  75.959  67.023  1.00  0.00     0.006 C 
BRANCH   2   3
ATOM      3  C   UNL     1      86.862  74.979  66.993  1.00  0.00     0.053 C 
BRANCH   3   4
ATOM      4  C   UNL     1      87.286  73.586  67.345  1.00  0.00     0.041 C 
ATOM      5  O   UNL     1      86.580  72.602  67.006  1.00  0.00    -0.550 OA
ATOM      6  O   UNL     1      88.481  73.375  68.025  1.00  0.00    -0.550 OA
ENDBRANCH   3   4
ENDBRANCH   2   3
ENDBRANCH   1   2
BRANCH   1   7
ATOM      7  C   UNL     1      86.600  77.183  68.744  1.00  0.00     0.000 C 
BRANCH   7   8
ATOM      8  C   UNL     1      86.417  77.003  70.262  1.00  0.00    -0.000 C 
BRANCH   8   9
ATOM      9  C   UNL     1      85.449  75.860  70.615  1.00  0.00    -0.000 C 
BRANCH   9  10
ATOM     10  C   UNL     1      86.108  74.473  70.736  1.00  0.00    -0.003 C 
ATOM     11  C   UNL     1      87.558  74.540  71.212  1.00  0.00     0.004 C 
ENDBRANCH   9  10
ENDBRANCH   8   9
ENDBRANCH   7   8
ENDBRANCH   1   7
TORSDOF 7
ENDMDL
MODEL 2
REMARK VINA RESULT:    -3.838      2.436      4.116
REMARK INTER + INTRA:          -6.219
REMARK INTER:                  -5.534
REMARK INTRA:                  -0.685
REMARK UNBOUND:                -0.810
REMARK SMILES CCCCCCCCC(=O)[O-]
REMARK SMILES IDX 6 1 7 2 8 3 9 4 10 5 11 6 5 7 4 8 3 9 2 10 1 11
REMARK H PARENT
REMARK Flexibility Score: inf
ROOT
ATOM      1  C   UNL     1      86.587  77.159  70.156  1.00  0.00     0.000 C 
ENDROOT
BRANCH   1   2
ATOM      2  C   UNL     1      85.728  75.914  70.439  1.00  0.00     0.006 C 
BRANCH   2   3
ATOM      3  C   UNL     1      86.583  74.683  70.768  1.00  0.00     0.053 C 
BRANCH   3   4
ATOM      4  C   UNL     1      86.753  74.502  72.245  1.00  0.00     0.041 C 
ATOM      5  O   UNL     1      85.793  74.098  72.950  1.00  0.00    -0.550 OA
ATOM      6  O   UNL     1      87.985  74.753  72.839  1.00  0.00    -0.550 OA
ENDBRANCH   3   4
ENDBRANCH   2   3
ENDBRANCH   1   2
BRANCH   1   7
ATOM      7  C   UNL     1      86.822  77.384  68.655  1.00  0.00     0.000 C 
BRANCH   7   8
ATOM      8  C   UNL     1      88.196  76.872  68.187  1.00  0.00    -0.000 C 
BRANCH   8   9
ATOM      9  C   UNL     1      88.104  75.966  66.946  1.00  0.00    -0.000 C 
BRANCH   9  10
ATOM     10  C   UNL     1      86.885  75.025  66.926  1.00  0.00    -0.003 C 
ATOM     11  C   UNL     1      87.250  73.568  67.209  1.00  0.00     0.004 C 
ENDBRANCH   9  10
ENDBRANCH   8   9
ENDBRANCH   7   8
ENDBRANCH   1   7
TORSDOF 7
ENDMDL
MODEL 3
REMARK VINA RESULT:    -3.817      2.384      4.105
REMARK INTER + INTRA:          -6.189
REMARK INTER:                  -5.459
REMARK INTRA:                  -0.730
REMARK UNBOUND:                -0.810
REMARK SMILES CCCCCCCCC(=O)[O-]
REMARK SMILES IDX 6 1 7 2 8 3 9 4 10 5 11 6 5 7 4 8 3 9 2 10 1 11
REMARK H PARENT
REMARK Flexibility Score: inf
ROOT
ATOM      1  C   UNL     1      87.186  73.805  67.938  1.00  0.00     0.000 C 
ENDROOT
BRANCH   1   2
ATOM      2  C   UNL     1      87.580  74.213  69.368  1.00  0.00     0.006 C 
BRANCH   2   3
ATOM      3  C   UNL     1      86.357  74.397  70.276  1.00  0.00     0.053 C 
BRANCH   3   4
ATOM      4  C   UNL     1      86.752  74.705  71.688  1.00  0.00     0.041 C 
ATOM      5  O   UNL     1      87.710  75.486  71.923  1.00  0.00    -0.550 OA
ATOM      6  O   UNL     1      86.042  74.149  72.746  1.00  0.00    -0.550 OA
ENDBRANCH   3   4
ENDBRANCH   2   3
ENDBRANCH   1   2
BRANCH   1   7
ATOM      7  C   UNL     1      87.319  74.962  66.937  1.00  0.00     0.000 C 
BRANCH   7   8
ATOM      8  C   UNL     1      88.321  76.035  67.401  1.00  0.00    -0.000 C 
BRANCH   8   9
ATOM      9  C   UNL     1      87.718  77.451  67.408  1.00  0.00    -0.000 C 
BRANCH   9  10
ATOM     10  C   UNL     1      86.328  77.556  68.065  1.00  0.00    -0.003 C 
ATOM     11  C   UNL     1      86.391  77.983  69.531  1.00  0.00     0.004 C 
ENDBRANCH   9  10
ENDBRANCH   8   9
ENDBRANCH   7   8
ENDBRANCH   1   7
TORSDOF 7
ENDMDL
MODEL 4
REMARK VINA RESULT:    -3.803      2.584      4.653
REMARK INTER + INTRA:          -6.169
REMARK INTER:                  -5.397
REMARK INTRA:                  -0.772
REMARK UNBOUND:                -0.810
REMARK SMILES CCCCCCCCC(=O)[O-]
REMARK SMILES IDX 6 1 7 2 8 3 9 4 10 5 11 6 5 7 4 8 3 9 2 10 1 11
REMARK H PARENT
REMARK Flexibility Score: inf
ROOT
ATOM      1  C   UNL     1      86.593  74.192  70.164  1.00  0.00     0.000 C 
ENDROOT
BRANCH   1   2
ATOM      2  C   UNL     1      86.607  75.423  71.088  1.00  0.00     0.006 C 
BRANCH   2   3
ATOM      3  C   UNL     1      85.750  76.571  70.537  1.00  0.00     0.053 C 
BRANCH   3   4
ATOM      4  C   UNL     1      86.594  77.670  69.967  1.00  0.00     0.041 C 
ATOM      5  O   UNL     1      87.701  77.956  70.489  1.00  0.00    -0.550 OA
ATOM      6  O   UNL     1      86.167  78.358  68.837  1.00  0.00    -0.550 OA
ENDBRANCH   3   4
ENDBRANCH   2   3
ENDBRANCH   1   2
BRANCH   1   7
ATOM      7  C   UNL     1      87.701  74.241  69.101  1.00  0.00     0.000 C 
BRANCH   7   8
ATOM      8  C   UNL     1      87.153  74.495  67.685  1.00  0.00    -0.000 C 
BRANCH   8   9
ATOM      9  C   UNL     1      87.822  75.696  66.994  1.00  0.00    -0.000 C 
BRANCH   9  10
ATOM     10  C   UNL     1      89.117  76.188  67.669  1.00  0.00    -0.003 C 
ATOM     11  C   UNL     1      89.588  77.543  67.142  1.00  0.00     0.004 C 
ENDBRANCH   9  10
ENDBRANCH   8   9
ENDBRANCH   7   8
ENDBRANCH   1   7
TORSDOF 7
ENDMDL
MODEL 5
REMARK VINA RESULT:    -3.752      2.372      3.240
REMARK INTER + INTRA:          -6.098
REMARK INTER:                  -5.438
REMARK INTRA:                  -0.660
REMARK UNBOUND:                -0.810
REMARK SMILES CCCCCCCCC(=O)[O-]
REMARK SMILES IDX 6 1 7 2 8 3 9 4 10 5 11 6 5 7 4 8 3 9 2 10 1 11
REMARK H PARENT
REMARK Flexibility Score: inf
ROOT
ATOM      1  C   UNL     1      88.836  75.724  68.194  1.00  0.00     0.000 C 
ENDROOT
BRANCH   1   2
ATOM      2  C   UNL     1      88.760  76.516  66.877  1.00  0.00     0.006 C 
BRANCH   2   3
ATOM      3  C   UNL     1      87.975  77.825  67.033  1.00  0.00     0.053 C 
BRANCH   3   4
ATOM      4  C   UNL     1      86.601  77.588  67.581  1.00  0.00     0.041 C 
ATOM      5  O   UNL     1      86.223  78.180  68.626  1.00  0.00    -0.550 OA
ATOM      6  O   UNL     1      85.726  76.735  66.919  1.00  0.00    -0.550 OA
ENDBRANCH   3   4
ENDBRANCH   2   3
ENDBRANCH   1   2
BRANCH   1   7
ATOM      7  C   UNL     1      88.226  74.319  68.074  1.00  0.00     0.000 C 
BRANCH   7   8
ATOM      8  C   UNL     1      87.059  74.094  69.052  1.00  0.00    -0.000 C 
BRANCH   8   9
ATOM      9  C   UNL     1      87.084  75.066  70.244  1.00  0.00    -0.000 C 
BRANCH   9  10
ATOM     10  C   UNL     1      85.696  75.452  70.790  1.00  0.00    -0.003 C 
ATOM     11  C   UNL     1      85.006  74.306  71.529  1.00  0.00     0.004 C 
ENDBRANCH   9  10
ENDBRANCH   8   9
ENDBRANCH   7   8
ENDBRANCH   1   7
TORSDOF 7
ENDMDL
MODEL 6
REMARK VINA RESULT:    -3.747      2.027      2.666
REMARK INTER + INTRA:          -6.092
REMARK INTER:                  -5.641
REMARK INTRA:                  -0.451
REMARK UNBOUND:                -0.810
REMARK SMILES CCCCCCCCC(=O)[O-]
REMARK SMILES IDX 6 1 7 2 8 3 9 4 10 5 11 6 5 7 4 8 3 9 2 10 1 11
REMARK H PARENT
REMARK Flexibility Score: inf
ROOT
ATOM      1  C   UNL     1      86.552  77.852  69.218  1.00  0.00     0.000 C 
ENDROOT
BRANCH   1   2
ATOM      2  C   UNL     1      86.543  77.179  67.834  1.00  0.00     0.006 C 
BRANCH   2   3
ATOM      3  C   UNL     1      87.759  77.579  66.988  1.00  0.00     0.053 C 
BRANCH   3   4
ATOM      4  C   UNL     1      89.005  76.881  67.440  1.00  0.00     0.041 C 
ATOM      5  O   UNL     1      88.984  75.652  67.707  1.00  0.00    -0.550 OA
ATOM      6  O   UNL     1      90.199  77.587  67.539  1.00  0.00    -0.550 OA
ENDBRANCH   3   4
ENDBRANCH   2   3
ENDBRANCH   1   2
BRANCH   1   7
ATOM      7  C   UNL     1      86.106  76.900  70.339  1.00  0.00     0.000 C 
BRANCH   7   8
ATOM      8  C   UNL     1      86.247  75.417  69.948  1.00  0.00    -0.000 C 
BRANCH   8   9
ATOM      9  C   UNL     1      85.731  74.462  71.039  1.00  0.00    -0.000 C 
BRANCH   9  10
ATOM     10  C   UNL     1      86.540  74.483  72.349  1.00  0.00    -0.003 C 
ATOM     11  C   UNL     1      88.002  74.081  72.155  1.00  0.00     0.004 C 
ENDBRANCH   9  10
ENDBRANCH   8   9
ENDBRANCH   7   8
ENDBRANCH   1   7
TORSDOF 7
ENDMDL
MODEL 7
REMARK VINA RESULT:    -3.727      2.320      3.832
REMARK INTER + INTRA:          -6.062
REMARK INTER:                  -5.423
REMARK INTRA:                  -0.639
REMARK UNBOUND:                -0.810
REMARK SMILES CCCCCCCCC(=O)[O-]
REMARK SMILES IDX 6 1 7 2 8 3 9 4 10 5 11 6 5 7 4 8 3 9 2 10 1 11
REMARK H PARENT
REMARK Flexibility Score: inf
ROOT
ATOM      1  C   UNL     1      87.498  77.065  70.651  1.00  0.00     0.000 C 
ENDROOT
BRANCH   1   2
ATOM      2  C   UNL     1      86.104  77.555  70.221  1.00  0.00     0.006 C 
BRANCH   2   3
ATOM      3  C   UNL     1      86.170  78.507  69.019  1.00  0.00     0.053 C 
BRANCH   3   4
ATOM      4  C   UNL     1      86.537  77.786  67.758  1.00  0.00     0.041 C 
ATOM      5  O   UNL     1      85.680  77.097  67.148  1.00  0.00    -0.550 OA
ATOM      6  O   UNL     1      87.822  77.901  67.241  1.00  0.00    -0.550 OA
ENDBRANCH   3   4
ENDBRANCH   2   3
ENDBRANCH   1   2
BRANCH   1   7
ATOM      7  C   UNL     1      87.534  75.552  70.917  1.00  0.00     0.000 C 
BRANCH   7   8
ATOM      8  C   UNL     1      87.063  74.725  69.707  1.00  0.00    -0.000 C 
BRANCH   8   9
ATOM      9  C   UNL     1      88.143  74.593  68.619  1.00  0.00    -0.000 C 
BRANCH   9  10
ATOM     10  C   UNL     1      87.607  74.225  67.222  1.00  0.00    -0.003 C 
ATOM     11  C   UNL     1      86.889  72.876  67.194  1.00  0.00     0.004 C 
ENDBRANCH   9  10
ENDBRANCH   8   9
ENDBRANCH   7   8
ENDBRANCH   1   7
TORSDOF 7
ENDMDL
MODEL 8
REMARK VINA RESULT:    -3.720      2.412      4.276
REMARK INTER + INTRA:          -6.053
REMARK INTER:                  -5.451
REMARK INTRA:                  -0.602
REMARK UNBOUND:                -0.810
REMARK SMILES CCCCCCCCC(=O)[O-]
REMARK SMILES IDX 6 1 7 2 8 3 9 4 10 5 11 6 5 7 4 8 3 9 2 10 1 11
REMARK H PARENT
REMARK Flexibility Score: inf
ROOT
ATOM      1  C   UNL     1      85.727  75.561  70.584  1.00  0.00     0.000 C 
ENDROOT
BRANCH   1   2
ATOM      2  C   UNL     1      86.378  74.634  71.626  1.00  0.00     0.006 C 
BRANCH   2   3
ATOM      3  C   UNL     1      87.743  74.108  71.161  1.00  0.00     0.053 C 
BRANCH   3   4
ATOM      4  C   UNL     1      88.583  73.648  72.313  1.00  0.00     0.041 C 
ATOM      5  O   UNL     1      88.782  74.406  73.297  1.00  0.00    -0.550 OA
ATOM      6  O   UNL     1      89.121  72.366  72.312  1.00  0.00    -0.550 OA
ENDBRANCH   3   4
ENDBRANCH   2   3
ENDBRANCH   1   2
BRANCH   1   7
ATOM      7  C   UNL     1      86.753  76.175  69.619  1.00  0.00     0.000 C 
BRANCH   7   8
ATOM      8  C   UNL     1      86.138  76.550  68.259  1.00  0.00    -0.000 C 
BRANCH   8   9
ATOM      9  C   UNL     1      86.746  75.754  67.090  1.00  0.00    -0.000 C 
BRANCH   9  10
ATOM     10  C   UNL     1      87.716  74.634  67.510  1.00  0.00    -0.003 C 
ATOM     11  C   UNL     1      87.137  73.234  67.302  1.00  0.00     0.004 C 
ENDBRANCH   9  10
ENDBRANCH   8   9
ENDBRANCH   7   8
ENDBRANCH   1   7
TORSDOF 7
ENDMDL
MODEL 9
REMARK VINA RESULT:    -3.472      2.430      4.704
REMARK INTER + INTRA:          -5.703
REMARK INTER:                  -5.371
REMARK INTRA:                  -0.332
REMARK UNBOUND:                -0.810
REMARK SMILES CCCCCCCCC(=O)[O-]
REMARK SMILES IDX 6 1 7 2 8 3 9 4 10 5 11 6 5 7 4 8 3 9 2 10 1 11
REMARK H PARENT
REMARK Flexibility Score: inf
ROOT
ATOM      1  C   UNL     1      85.969  75.192  70.995  1.00  0.00     0.000 C 
ENDROOT
BRANCH   1   2
ATOM      2  C   UNL     1      86.490  74.476  72.254  1.00  0.00     0.006 C 
BRANCH   2   3
ATOM      3  C   UNL     1      87.997  74.683  72.457  1.00  0.00     0.053 C 
BRANCH   3   4
ATOM      4  C   UNL     1      88.734  73.381  72.523  1.00  0.00     0.041 C 
ATOM      5  O   UNL     1      89.138  72.826  71.469  1.00  0.00    -0.550 OA
ATOM      6  O   UNL     1      89.000  72.795  73.756  1.00  0.00    -0.550 OA
ENDBRANCH   3   4
ENDBRANCH   2   3
ENDBRANCH   1   2
BRANCH   1   7
ATOM      7  C   UNL     1      86.627  74.673  69.708  1.00  0.00     0.000 C 
BRANCH   7   8
ATOM      8  C   UNL     1      86.680  75.739  68.598  1.00  0.00    -0.000 C 
BRANCH   8   9
ATOM      9  C   UNL     1      87.998  76.533  68.598  1.00  0.00    -0.000 C 
BRANCH   9  10
ATOM     10  C   UNL     1      88.597  76.786  67.201  1.00  0.00    -0.003 C 
ATOM     11  C   UNL     1      89.949  77.499  67.251  1.00  0.00     0.004 C 
ENDBRANCH   9  10
ENDBRANCH   8   9
ENDBRANCH   7   8
ENDBRANCH   1   7
TORSDOF 7
ENDMDL
