MODEL 1
REMARK VINA RESULT:    -5.043      0.000      0.000
REMARK INTER + INTRA:          -5.857
REMARK INTER:                  -5.780
REMARK INTRA:                  -0.076
REMARK UNBOUND:                -0.076
REMARK SMILES COc1cc(C(=O)[O-])ccc1O
REMARK SMILES IDX 5 1 9 2 4 3 10 4 3 5 11 6 6 7 7 8 8 9 2 10 1 11 12 12
REMARK H PARENT 12 13
REMARK Flexibility Score: inf
ROOT
ATOM      1  C   UNL     1     -39.323  47.191  -2.844  1.00  0.00     0.001 A 
ATOM      2  C   UNL     1     -40.406  47.474  -1.996  1.00  0.00     0.014 A 
ATOM      3  C   UNL     1     -38.657  48.253  -3.481  1.00  0.00     0.060 A 
ATOM      4  C   UNL     1     -40.815  48.793  -1.789  1.00  0.00     0.051 A 
ATOM      5  C   UNL     1     -39.066  49.587  -3.276  1.00  0.00     0.161 A 
ATOM      6  C   UNL     1     -40.153  49.848  -2.423  1.00  0.00     0.157 A 
ENDROOT
BRANCH   1   7
ATOM      7  C   UNL     1     -38.886  45.794  -3.065  1.00  0.00     0.072 C 
ATOM      8  O   UNL     1     -39.200  45.183  -4.120  1.00  0.00    -0.545 OA
ATOM      9  O   UNL     1     -38.121  45.135  -2.108  1.00  0.00    -0.545 OA
ENDBRANCH   1   7
BRANCH   5  10
ATOM     10  O   UNL     1     -38.419  50.667  -3.898  1.00  0.00    -0.493 OA
ATOM     11  C   UNL     1     -38.804  51.228  -5.149  1.00  0.00     0.278 C 
ENDBRANCH   5  10
BRANCH   6  12
ATOM     12  O   UNL     1     -40.591  51.152  -2.191  1.00  0.00    -0.504 OA
ATOM     13  H   UNL     1     -40.596  51.858  -2.918  1.00  0.00     0.293 HD
ENDBRANCH   6  12
TORSDOF 3
ENDMDL
MODEL 2
REMARK VINA RESULT:    -4.897      1.612      4.691
REMARK INTER + INTRA:          -5.689
REMARK INTER:                  -5.604
REMARK INTRA:                  -0.085
REMARK UNBOUND:                -0.076
REMARK SMILES COc1cc(C(=O)[O-])ccc1O
REMARK SMILES IDX 5 1 9 2 4 3 10 4 3 5 11 6 6 7 7 8 8 9 2 10 1 11 12 12
REMARK H PARENT 12 13
REMARK Flexibility Score: inf
ROOT
ATOM      1  C   UNL     1     -39.152  49.449  -3.384  1.00  0.00     0.001 A 
ATOM      2  C   UNL     1     -38.320  48.378  -3.750  1.00  0.00     0.014 A 
ATOM      3  C   UNL     1     -40.314  49.189  -2.636  1.00  0.00     0.060 A 
ATOM      4  C   UNL     1     -38.645  47.072  -3.375  1.00  0.00     0.051 A 
ATOM      5  C   UNL     1     -40.646  47.874  -2.255  1.00  0.00     0.161 A 
ATOM      6  C   UNL     1     -39.800  46.815  -2.633  1.00  0.00     0.157 A 
ENDROOT
BRANCH   1   7
ATOM      7  C   UNL     1     -38.810  50.835  -3.779  1.00  0.00     0.072 C 
ATOM      8  O   UNL     1     -38.375  51.655  -2.929  1.00  0.00    -0.545 OA
ATOM      9  O   UNL     1     -38.962  51.249  -5.098  1.00  0.00    -0.545 OA
ENDBRANCH   1   7
BRANCH   5  10
ATOM     10  O   UNL     1     -41.800  47.584  -1.508  1.00  0.00    -0.493 OA
ATOM     11  C   UNL     1     -42.125  48.184  -0.259  1.00  0.00     0.278 C 
ENDBRANCH   5  10
BRANCH   6  12
ATOM     12  O   UNL     1     -40.091  45.498  -2.277  1.00  0.00    -0.504 OA
ATOM     13  H   UNL     1     -39.471  44.944  -1.698  1.00  0.00     0.293 HD
ENDBRANCH   6  12
TORSDOF 3
ENDMDL
MODEL 3
REMARK VINA RESULT:    -4.888      0.985      2.649
REMARK INTER + INTRA:          -5.678
REMARK INTER:                  -5.597
REMARK INTRA:                  -0.081
REMARK UNBOUND:                -0.076
REMARK SMILES COc1cc(C(=O)[O-])ccc1O
REMARK SMILES IDX 5 1 9 2 4 3 10 4 3 5 11 6 6 7 7 8 8 9 2 10 1 11 12 12
REMARK H PARENT 12 13
REMARK Flexibility Score: inf
ROOT
ATOM      1  C   UNL     1     -39.177  47.227  -2.979  1.00  0.00     0.001 A 
ATOM      2  C   UNL     1     -38.375  48.192  -3.612  1.00  0.00     0.014 A 
ATOM      3  C   UNL     1     -40.313  47.645  -2.264  1.00  0.00     0.060 A 
ATOM      4  C   UNL     1     -38.704  49.546  -3.532  1.00  0.00     0.051 A 
ATOM      5  C   UNL     1     -40.650  49.011  -2.180  1.00  0.00     0.161 A 
ATOM      6  C   UNL     1     -39.833  49.961  -2.821  1.00  0.00     0.157 A 
ENDROOT
BRANCH   1   7
ATOM      7  C   UNL     1     -38.831  45.790  -3.063  1.00  0.00     0.072 C 
ATOM      8  O   UNL     1     -39.195  45.100  -4.051  1.00  0.00    -0.545 OA
ATOM      9  O   UNL     1     -38.097  45.182  -2.050  1.00  0.00    -0.545 OA
ENDBRANCH   1   7
BRANCH   5  10
ATOM     10  O   UNL     1     -41.779  49.457  -1.474  1.00  0.00    -0.493 OA
ATOM     11  C   UNL     1     -42.124  49.043  -0.156  1.00  0.00     0.278 C 
ENDBRANCH   5  10
BRANCH   6  12
ATOM     12  O   UNL     1     -40.129  51.322  -2.764  1.00  0.00    -0.504 OA
ATOM     13  H   UNL     1     -39.529  51.987  -2.290  1.00  0.00     0.293 HD
ENDBRANCH   6  12
TORSDOF 3
ENDMDL
MODEL 4
REMARK VINA RESULT:    -4.878     16.321     18.161
REMARK INTER + INTRA:          -5.667
REMARK INTER:                  -5.573
REMARK INTRA:                  -0.094
REMARK UNBOUND:                -0.076
REMARK SMILES COc1cc(C(=O)[O-])ccc1O
REMARK SMILES IDX 5 1 9 2 4 3 10 4 3 5 11 6 6 7 7 8 8 9 2 10 1 11 12 12
REMARK H PARENT 12 13
REMARK Flexibility Score: inf
ROOT
ATOM      1  C   UNL     1     -23.193  39.328   0.681  1.00  0.00     0.001 A 
ATOM      2  C   UNL     1     -22.211  39.355  -0.323  1.00  0.00     0.014 A 
ATOM      3  C   UNL     1     -24.251  40.252   0.629  1.00  0.00     0.060 A 
ATOM      4  C   UNL     1     -22.287  40.289  -1.359  1.00  0.00     0.051 A 
ATOM      5  C   UNL     1     -24.332  41.196  -0.414  1.00  0.00     0.161 A 
ATOM      6  C   UNL     1     -23.338  41.207  -1.410  1.00  0.00     0.157 A 
ENDROOT
BRANCH   1   7
ATOM      7  C   UNL     1     -23.115  38.339   1.781  1.00  0.00     0.072 C 
ATOM      8  O   UNL     1     -22.794  37.144   1.547  1.00  0.00    -0.545 OA
ATOM      9  O   UNL     1     -23.396  38.717   3.089  1.00  0.00    -0.545 OA
ENDBRANCH   1   7
BRANCH   5  10
ATOM     10  O   UNL     1     -25.378  42.131  -0.493  1.00  0.00    -0.493 OA
ATOM     11  C   UNL     1     -26.751  41.795  -0.664  1.00  0.00     0.278 C 
ENDBRANCH   5  10
BRANCH   6  12
ATOM     12  O   UNL     1     -23.380  42.124  -2.460  1.00  0.00    -0.504 OA
ATOM     13  H   UNL     1     -24.234  42.329  -2.965  1.00  0.00     0.293 HD
ENDBRANCH   6  12
TORSDOF 3
ENDMDL
MODEL 5
REMARK VINA RESULT:    -4.783      1.622      4.170
REMARK INTER + INTRA:          -5.559
REMARK INTER:                  -5.473
REMARK INTRA:                  -0.086
REMARK UNBOUND:                -0.076
REMARK SMILES COc1cc(C(=O)[O-])ccc1O
REMARK SMILES IDX 5 1 9 2 4 3 10 4 3 5 11 6 6 7 7 8 8 9 2 10 1 11 12 12
REMARK H PARENT 12 13
REMARK Flexibility Score: inf
ROOT
ATOM      1  C   UNL     1     -39.353  49.646  -3.334  1.00  0.00     0.001 A 
ATOM      2  C   UNL     1     -40.563  50.097  -2.780  1.00  0.00     0.014 A 
ATOM      3  C   UNL     1     -38.772  48.466  -2.838  1.00  0.00     0.060 A 
ATOM      4  C   UNL     1     -41.178  49.382  -1.751  1.00  0.00     0.051 A 
ATOM      5  C   UNL     1     -39.388  47.740  -1.798  1.00  0.00     0.161 A 
ATOM      6  C   UNL     1     -40.599  48.210  -1.257  1.00  0.00     0.157 A 
ENDROOT
BRANCH   1   7
ATOM      7  C   UNL     1     -38.699  50.402  -4.426  1.00  0.00     0.072 C 
ATOM      8  O   UNL     1     -37.553  50.078  -4.833  1.00  0.00    -0.545 OA
ATOM      9  O   UNL     1     -39.344  51.481  -5.020  1.00  0.00    -0.545 OA
ENDBRANCH   1   7
BRANCH   5  10
ATOM     10  O   UNL     1     -38.830  46.559  -1.283  1.00  0.00    -0.493 OA
ATOM     11  C   UNL     1     -38.203  45.551  -2.070  1.00  0.00     0.278 C 
ENDBRANCH   5  10
BRANCH   6  12
ATOM     12  O   UNL     1     -41.243  47.523  -0.229  1.00  0.00    -0.504 OA
ATOM     13  H   UNL     1     -40.958  46.596   0.064  1.00  0.00     0.293 HD
ENDBRANCH   6  12
TORSDOF 3
ENDMDL
MODEL 6
REMARK VINA RESULT:    -4.747     12.835     14.876
REMARK INTER + INTRA:          -5.517
REMARK INTER:                  -5.422
REMARK INTRA:                  -0.095
REMARK UNBOUND:                -0.076
REMARK SMILES COc1cc(C(=O)[O-])ccc1O
REMARK SMILES IDX 5 1 9 2 4 3 10 4 3 5 11 6 6 7 7 8 8 9 2 10 1 11 12 12
REMARK H PARENT 12 13
REMARK Flexibility Score: inf
ROOT
ATOM      1  C   UNL     1     -32.034  35.067  -3.372  1.00  0.00     0.001 A 
ATOM      2  C   UNL     1     -32.144  33.950  -2.528  1.00  0.00     0.014 A 
ATOM      3  C   UNL     1     -32.199  36.354  -2.830  1.00  0.00     0.060 A 
ATOM      4  C   UNL     1     -32.415  34.117  -1.168  1.00  0.00     0.051 A 
ATOM      5  C   UNL     1     -32.472  36.528  -1.458  1.00  0.00     0.161 A 
ATOM      6  C   UNL     1     -32.580  35.396  -0.630  1.00  0.00     0.157 A 
ENDROOT
BRANCH   1   7
ATOM      7  C   UNL     1     -31.746  34.893  -4.814  1.00  0.00     0.072 C 
ATOM      8  O   UNL     1     -32.349  34.016  -5.487  1.00  0.00    -0.545 OA
ATOM      9  O   UNL     1     -30.804  35.698  -5.447  1.00  0.00    -0.545 OA
ENDBRANCH   1   7
BRANCH   5  10
ATOM     10  O   UNL     1     -32.641  37.801  -0.889  1.00  0.00    -0.493 OA
ATOM     11  C   UNL     1     -31.611  38.776  -0.769  1.00  0.00     0.278 C 
ENDBRANCH   5  10
BRANCH   6  12
ATOM     12  O   UNL     1     -32.849  35.523   0.732  1.00  0.00    -0.504 OA
ATOM     13  H   UNL     1     -32.206  35.196   1.444  1.00  0.00     0.293 HD
ENDBRANCH   6  12
TORSDOF 3
ENDMDL
MODEL 7
REMARK VINA RESULT:    -4.683     13.144     14.523
REMARK INTER + INTRA:          -5.444
REMARK INTER:                  -5.367
REMARK INTRA:                  -0.077
REMARK UNBOUND:                -0.076
REMARK SMILES COc1cc(C(=O)[O-])ccc1O
REMARK SMILES IDX 5 1 9 2 4 3 10 4 3 5 11 6 6 7 7 8 8 9 2 10 1 11 12 12
REMARK H PARENT 12 13
REMARK Flexibility Score: inf
ROOT
ATOM      1  C   UNL     1     -31.678  37.257  -1.348  1.00  0.00     0.001 A 
ATOM      2  C   UNL     1     -32.464  36.494  -0.469  1.00  0.00     0.014 A 
ATOM      3  C   UNL     1     -31.599  36.879  -2.700  1.00  0.00     0.060 A 
ATOM      4  C   UNL     1     -33.157  35.374  -0.934  1.00  0.00     0.051 A 
ATOM      5  C   UNL     1     -32.297  35.750  -3.174  1.00  0.00     0.161 A 
ATOM      6  C   UNL     1     -33.079  34.999  -2.277  1.00  0.00     0.157 A 
ENDROOT
BRANCH   1   7
ATOM      7  C   UNL     1     -30.942  38.445  -0.858  1.00  0.00     0.072 C 
ATOM      8  O   UNL     1     -30.967  39.526  -1.504  1.00  0.00    -0.545 OA
ATOM      9  O   UNL     1     -30.213  38.384   0.325  1.00  0.00    -0.545 OA
ENDBRANCH   1   7
BRANCH   5  10
ATOM     10  O   UNL     1     -32.238  35.350  -4.519  1.00  0.00    -0.493 OA
ATOM     11  C   UNL     1     -31.220  35.740  -5.434  1.00  0.00     0.278 C 
ENDBRANCH   5  10
BRANCH   6  12
ATOM     12  O   UNL     1     -33.785  33.875  -2.704  1.00  0.00    -0.504 OA
ATOM     13  H   UNL     1     -33.321  33.028  -3.009  1.00  0.00     0.293 HD
ENDBRANCH   6  12
TORSDOF 3
ENDMDL
MODEL 8
REMARK VINA RESULT:    -4.608     12.511     14.080
REMARK INTER + INTRA:          -5.358
REMARK INTER:                  -5.271
REMARK INTRA:                  -0.087
REMARK UNBOUND:                -0.076
REMARK SMILES COc1cc(C(=O)[O-])ccc1O
REMARK SMILES IDX 5 1 9 2 4 3 10 4 3 5 11 6 6 7 7 8 8 9 2 10 1 11 12 12
REMARK H PARENT 12 13
REMARK Flexibility Score: inf
ROOT
ATOM      1  C   UNL     1     -33.389  35.528  -2.305  1.00  0.00     0.001 A 
ATOM      2  C   UNL     1     -32.741  34.617  -1.454  1.00  0.00     0.014 A 
ATOM      3  C   UNL     1     -33.176  36.905  -2.121  1.00  0.00     0.060 A 
ATOM      4  C   UNL     1     -31.898  35.075  -0.439  1.00  0.00     0.051 A 
ATOM      5  C   UNL     1     -32.326  37.373  -1.099  1.00  0.00     0.161 A 
ATOM      6  C   UNL     1     -31.688  36.444  -0.257  1.00  0.00     0.157 A 
ENDROOT
BRANCH   1   7
ATOM      7  C   UNL     1     -34.282  35.045  -3.382  1.00  0.00     0.072 C 
ATOM      8  O   UNL     1     -34.077  33.932  -3.935  1.00  0.00    -0.545 OA
ATOM      9  O   UNL     1     -35.363  35.815  -3.799  1.00  0.00    -0.545 OA
ENDBRANCH   1   7
BRANCH   5  10
ATOM     10  O   UNL     1     -32.095  38.743  -0.892  1.00  0.00    -0.493 OA
ATOM     11  C   UNL     1     -31.044  39.486  -1.501  1.00  0.00     0.278 C 
ENDBRANCH   5  10
BRANCH   6  12
ATOM     12  O   UNL     1     -30.839  36.863   0.767  1.00  0.00    -0.504 OA
ATOM     13  H   UNL     1     -30.265  37.694   0.687  1.00  0.00     0.293 HD
ENDBRANCH   6  12
TORSDOF 3
ENDMDL
MODEL 9
REMARK VINA RESULT:    -4.601     15.510     17.364
REMARK INTER + INTRA:          -5.350
REMARK INTER:                  -5.335
REMARK INTRA:                  -0.015
REMARK UNBOUND:                -0.076
REMARK SMILES COc1cc(C(=O)[O-])ccc1O
REMARK SMILES IDX 5 1 9 2 4 3 10 4 3 5 11 6 6 7 7 8 8 9 2 10 1 11 12 12
REMARK H PARENT 12 13
REMARK Flexibility Score: inf
ROOT
ATOM      1  C   UNL     1     -25.393  41.434   0.357  1.00  0.00     0.001 A 
ATOM      2  C   UNL     1     -25.142  42.810   0.226  1.00  0.00     0.014 A 
ATOM      3  C   UNL     1     -24.451  40.625   1.016  1.00  0.00     0.060 A 
ATOM      4  C   UNL     1     -23.970  43.365   0.744  1.00  0.00     0.051 A 
ATOM      5  C   UNL     1     -23.266  41.181   1.541  1.00  0.00     0.161 A 
ATOM      6  C   UNL     1     -23.033  42.561   1.399  1.00  0.00     0.157 A 
ENDROOT
BRANCH   1   7
ATOM      7  C   UNL     1     -26.635  40.842  -0.190  1.00  0.00     0.072 C 
ATOM      8  O   UNL     1     -27.759  41.159   0.281  1.00  0.00    -0.545 OA
ATOM      9  O   UNL     1     -26.578  39.926  -1.235  1.00  0.00    -0.545 OA
ENDBRANCH   1   7
BRANCH   5  10
ATOM     10  O   UNL     1     -22.307  40.398   2.204  1.00  0.00    -0.493 OA
ATOM     11  C   UNL     1     -22.149  40.340   3.618  1.00  0.00     0.278 C 
ENDBRANCH   5  10
BRANCH   6  12
ATOM     12  O   UNL     1     -21.875  43.152   1.903  1.00  0.00    -0.504 OA
ATOM     13  H   UNL     1     -21.240  42.659   2.519  1.00  0.00     0.293 HD
ENDBRANCH   6  12
TORSDOF 3
ENDMDL
