MODEL 1
REMARK VINA RESULT:    -3.692      0.000      0.000
REMARK INTER + INTRA:          -4.429
REMARK INTER:                  -4.340
REMARK INTRA:                  -0.090
REMARK UNBOUND:                -0.090
REMARK SMILES CCCCC(=O)[O-]
REMARK SMILES IDX 4 1 5 2 6 3 7 4 3 5 2 6 1 7
REMARK H PARENT
REMARK Flexibility Score: inf
ROOT
ATOM      1  C   UNL     1      12.903  14.984  14.760  1.00  0.00     0.053 C 
ENDROOT
BRANCH   1   2
ATOM      2  C   UNL     1      13.316  15.428  13.390  1.00  0.00     0.041 C 
ATOM      3  O   UNL     1      13.881  16.542  13.227  1.00  0.00    -0.550 OA
ATOM      4  O   UNL     1      13.048  14.625  12.289  1.00  0.00    -0.550 OA
ENDBRANCH   1   2
BRANCH   1   5
ATOM      5  C   UNL     1      13.344  13.544  15.048  1.00  0.00     0.006 C 
BRANCH   5   6
ATOM      6  C   UNL     1      12.150  12.606  15.275  1.00  0.00    -0.003 C 
ATOM      7  C   UNL     1      11.744  11.909  13.979  1.00  0.00     0.004 C 
ENDBRANCH   5   6
ENDBRANCH   1   5
TORSDOF 3
ENDMDL
MODEL 2
REMARK VINA RESULT:    -3.219      2.565      3.911
REMARK INTER + INTRA:          -3.873
REMARK INTER:                  -3.850
REMARK INTRA:                  -0.023
REMARK UNBOUND:                -0.090
REMARK SMILES CCCCC(=O)[O-]
REMARK SMILES IDX 4 1 5 2 6 3 7 4 3 5 2 6 1 7
REMARK H PARENT
REMARK Flexibility Score: inf
ROOT
ATOM      1  C   UNL     1      12.987  13.487  15.091  1.00  0.00     0.053 C 
ENDROOT
BRANCH   1   2
ATOM      2  C   UNL     1      12.313  12.162  14.914  1.00  0.00     0.041 C 
ATOM      3  O   UNL     1      11.182  12.093  14.364  1.00  0.00    -0.550 OA
ATOM      4  O   UNL     1      12.919  11.005  15.387  1.00  0.00    -0.550 OA
ENDBRANCH   1   2
BRANCH   1   5
ATOM      5  C   UNL     1      13.330  14.135  13.744  1.00  0.00     0.006 C 
BRANCH   5   6
ATOM      6  C   UNL     1      13.268  15.668  13.804  1.00  0.00    -0.003 C 
ATOM      7  C   UNL     1      13.543  16.284  12.435  1.00  0.00     0.004 C 
ENDBRANCH   5   6
ENDBRANCH   1   5
TORSDOF 3
ENDMDL
MODEL 3
REMARK VINA RESULT:    -3.217      1.803      3.031
REMARK INTER + INTRA:          -3.871
REMARK INTER:                  -3.774
REMARK INTRA:                  -0.097
REMARK UNBOUND:                -0.090
REMARK SMILES CCCCC(=O)[O-]
REMARK SMILES IDX 4 1 5 2 6 3 7 4 3 5 2 6 1 7
REMARK H PARENT
REMARK Flexibility Score: inf
ROOT
ATOM      1  C   UNL     1      11.480  12.141  13.173  1.00  0.00     0.053 C 
ENDROOT
BRANCH   1   2
ATOM      2  C   UNL     1      12.157  12.784  12.002  1.00  0.00     0.041 C 
ATOM      3  O   UNL     1      12.148  12.221  10.875  1.00  0.00    -0.550 OA
ATOM      4  O   UNL     1      12.826  13.990  12.163  1.00  0.00    -0.550 OA
ENDBRANCH   1   2
BRANCH   1   5
ATOM      5  C   UNL     1      12.460  11.879  14.324  1.00  0.00     0.006 C 
BRANCH   5   6
ATOM      6  C   UNL     1      12.295  12.889  15.468  1.00  0.00    -0.003 C 
ATOM      7  C   UNL     1      13.603  13.624  15.747  1.00  0.00     0.004 C 
ENDBRANCH   5   6
ENDBRANCH   1   5
TORSDOF 3
ENDMDL
MODEL 4
REMARK VINA RESULT:    -3.215      2.208      2.937
REMARK INTER + INTRA:          -3.868
REMARK INTER:                  -3.888
REMARK INTRA:                   0.019
REMARK UNBOUND:                -0.090
REMARK SMILES CCCCC(=O)[O-]
REMARK SMILES IDX 4 1 5 2 6 3 7 4 3 5 2 6 1 7
REMARK H PARENT
REMARK Flexibility Score: inf
ROOT
ATOM      1  C   UNL     1      11.887  12.695  15.158  1.00  0.00     0.053 C 
ENDROOT
BRANCH   1   2
ATOM      2  C   UNL     1      13.037  13.616  15.425  1.00  0.00     0.041 C 
ATOM      3  O   UNL     1      14.095  13.176  15.950  1.00  0.00    -0.550 OA
ATOM      4  O   UNL     1      12.929  14.968  15.126  1.00  0.00    -0.550 OA
ENDBRANCH   1   2
BRANCH   1   5
ATOM      5  C   UNL     1      12.074  11.917  13.849  1.00  0.00     0.006 C 
BRANCH   5   6
ATOM      6  C   UNL     1      12.556  12.817  12.703  1.00  0.00    -0.003 C 
ATOM      7  C   UNL     1      11.804  12.513  11.411  1.00  0.00     0.004 C 
ENDBRANCH   5   6
ENDBRANCH   1   5
TORSDOF 3
ENDMDL
MODEL 5
REMARK VINA RESULT:    -2.772      9.468     10.574
REMARK INTER + INTRA:          -3.347
REMARK INTER:                  -3.326
REMARK INTRA:                  -0.022
REMARK UNBOUND:                -0.090
REMARK SMILES CCCCC(=O)[O-]
REMARK SMILES IDX 4 1 5 2 6 3 7 4 3 5 2 6 1 7
REMARK H PARENT
REMARK Flexibility Score: inf
ROOT
ATOM      1  C   UNL     1      12.512   5.566  18.617  1.00  0.00     0.053 C 
ENDROOT
BRANCH   1   2
ATOM      2  C   UNL     1      12.906   5.597  17.172  1.00  0.00     0.041 C 
ATOM      3  O   UNL     1      12.814   6.666  16.512  1.00  0.00    -0.550 OA
ATOM      4  O   UNL     1      13.345   4.438  16.546  1.00  0.00    -0.550 OA
ENDBRANCH   1   2
BRANCH   1   5
ATOM      5  C   UNL     1      12.393   4.130  19.143  1.00  0.00     0.006 C 
BRANCH   5   6
ATOM      6  C   UNL     1      11.290   3.989  20.202  1.00  0.00    -0.003 C 
ATOM      7  C   UNL     1      11.794   3.225  21.422  1.00  0.00     0.004 C 
ENDBRANCH   5   6
ENDBRANCH   1   5
TORSDOF 3
ENDMDL
MODEL 6
REMARK VINA RESULT:    -2.326      1.434      1.995
REMARK INTER + INTRA:          -2.824
REMARK INTER:                  -2.980
REMARK INTRA:                   0.156
REMARK UNBOUND:                -0.090
REMARK SMILES CCCCC(=O)[O-]
REMARK SMILES IDX 4 1 5 2 6 3 7 4 3 5 2 6 1 7
REMARK H PARENT
REMARK Flexibility Score: inf
ROOT
ATOM      1  C   UNL     1      12.928  13.078  12.596  1.00  0.00     0.053 C 
ENDROOT
BRANCH   1   2
ATOM      2  C   UNL     1      13.046  14.535  12.924  1.00  0.00     0.041 C 
ATOM      3  O   UNL     1      12.929  15.401  12.017  1.00  0.00    -0.550 OA
ATOM      4  O   UNL     1      13.318  14.934  14.226  1.00  0.00    -0.550 OA
ENDBRANCH   1   2
BRANCH   1   5
ATOM      5  C   UNL     1      11.665  12.458  13.206  1.00  0.00     0.006 C 
BRANCH   5   6
ATOM      6  C   UNL     1      11.745  12.363  14.736  1.00  0.00    -0.003 C 
ATOM      7  C   UNL     1      12.910  11.480  15.172  1.00  0.00     0.004 C 
ENDBRANCH   5   6
ENDBRANCH   1   5
TORSDOF 3
ENDMDL
MODEL 7
REMARK VINA RESULT:    -1.989     17.735     18.449
REMARK INTER + INTRA:          -2.427
REMARK INTER:                  -2.323
REMARK INTRA:                  -0.104
REMARK UNBOUND:                -0.090
REMARK SMILES CCCCC(=O)[O-]
REMARK SMILES IDX 4 1 5 2 6 3 7 4 3 5 2 6 1 7
REMARK H PARENT
REMARK Flexibility Score: inf
ROOT
ATOM      1  C   UNL     1      23.066   0.359  12.872  1.00  0.00     0.053 C 
ENDROOT
BRANCH   1   2
ATOM      2  C   UNL     1      23.532   0.332  14.296  1.00  0.00     0.041 C 
ATOM      3  O   UNL     1      23.821   1.405  14.889  1.00  0.00    -0.550 OA
ATOM      4  O   UNL     1      23.678  -0.880  14.957  1.00  0.00    -0.550 OA
ENDBRANCH   1   2
BRANCH   1   5
ATOM      5  C   UNL     1      24.081  -0.301  11.930  1.00  0.00     0.006 C 
BRANCH   5   6
ATOM      6  C   UNL     1      23.519  -1.565  11.264  1.00  0.00    -0.003 C 
ATOM      7  C   UNL     1      24.123  -2.824  11.878  1.00  0.00     0.004 C 
ENDBRANCH   5   6
ENDBRANCH   1   5
TORSDOF 3
ENDMDL
MODEL 8
REMARK VINA RESULT:    -1.947     17.609     18.377
REMARK INTER + INTRA:          -2.378
REMARK INTER:                  -2.383
REMARK INTRA:                   0.005
REMARK UNBOUND:                -0.090
REMARK SMILES CCCCC(=O)[O-]
REMARK SMILES IDX 4 1 5 2 6 3 7 4 3 5 2 6 1 7
REMARK H PARENT
REMARK Flexibility Score: inf
ROOT
ATOM      1  C   UNL     1      23.379   0.108  14.293  1.00  0.00     0.053 C 
ENDROOT
BRANCH   1   2
ATOM      2  C   UNL     1      23.884  -1.300  14.387  1.00  0.00     0.041 C 
ATOM      3  O   UNL     1      24.125  -1.958  13.340  1.00  0.00    -0.550 OA
ATOM      4  O   UNL     1      24.057  -1.894  15.629  1.00  0.00    -0.550 OA
ENDBRANCH   1   2
BRANCH   1   5
ATOM      5  C   UNL     1      24.124   0.909  13.217  1.00  0.00     0.006 C 
BRANCH   5   6
ATOM      6  C   UNL     1      23.382   0.906  11.874  1.00  0.00    -0.003 C 
ATOM      7  C   UNL     1      21.895   0.625  12.068  1.00  0.00     0.004 C 
ENDBRANCH   5   6
ENDBRANCH   1   5
TORSDOF 3
ENDMDL
