MODEL 1
REMARK VINA RESULT:    -4.603      0.000      0.000
REMARK INTER + INTRA:         -13.518
REMARK INTER:                  -9.986
REMARK INTRA:                  -3.532
REMARK UNBOUND:                -3.532
REMARK SMILES CCCCCCCCCCCCCCCCCCCCCC(=O)[O-]
REMARK SMILES IDX 12 1 11 2 10 3 9 4 8 5 7 6 6 7 5 8 4 9 3 10 2 11 1 12 13 13
REMARK SMILES IDX 14 14 15 15 16 16 17 17 18 18 19 19 20 20 21 21 22 22 23 23
REMARK SMILES IDX 24 24
REMARK H PARENT
REMARK Flexibility Score: inf
ROOT
ATOM      1  C   UNL     1      16.603  72.894  19.978  1.00  0.00     0.000 C 
ENDROOT
BRANCH   1   2
ATOM      2  C   UNL     1      16.076  71.561  20.535  1.00  0.00     0.000 C 
BRANCH   2   3
ATOM      3  C   UNL     1      17.177  70.493  20.638  1.00  0.00     0.000 C 
BRANCH   3   4
ATOM      4  C   UNL     1      18.567  71.036  20.271  1.00  0.00    -0.000 C 
BRANCH   4   5
ATOM      5  C   UNL     1      19.064  70.524  18.910  1.00  0.00    -0.000 C 
BRANCH   5   6
ATOM      6  C   UNL     1      18.128  69.445  18.352  1.00  0.00    -0.000 C 
BRANCH   6   7
ATOM      7  C   UNL     1      17.520  69.884  17.012  1.00  0.00    -0.000 C 
BRANCH   7   8
ATOM      8  C   UNL     1      16.218  69.137  16.680  1.00  0.00    -0.000 C 
BRANCH   8   9
ATOM      9  C   UNL     1      15.320  68.936  17.911  1.00  0.00    -0.000 C 
BRANCH   9  10
ATOM     10  C   UNL     1      13.896  69.482  17.710  1.00  0.00    -0.000 C 
BRANCH  10  11
ATOM     11  C   UNL     1      13.848  70.992  17.398  1.00  0.00    -0.003 C 
ATOM     12  C   UNL     1      12.491  71.613  17.726  1.00  0.00     0.004 C 
ENDBRANCH  10  11
ENDBRANCH   9  10
ENDBRANCH   8   9
ENDBRANCH   7   8
ENDBRANCH   6   7
ENDBRANCH   5   6
ENDBRANCH   4   5
ENDBRANCH   3   4
ENDBRANCH   2   3
ENDBRANCH   1   2
BRANCH   1  13
ATOM     13  C   UNL     1      15.538  73.667  19.185  1.00  0.00     0.000 C 
BRANCH  13  14
ATOM     14  C   UNL     1      16.024  73.968  17.762  1.00  0.00     0.000 C 
BRANCH  14  15
ATOM     15  C   UNL     1      17.463  73.472  17.555  1.00  0.00     0.000 C 
BRANCH  15  16
ATOM     16  C   UNL     1      18.384  74.556  16.972  1.00  0.00     0.000 C 
BRANCH  16  17
ATOM     17  C   UNL     1      19.843  74.400  17.425  1.00  0.00     0.000 C 
BRANCH  17  18
ATOM     18  C   UNL     1      19.937  74.319  18.955  1.00  0.00     0.000 C 
BRANCH  18  19
ATOM     19  C   UNL     1      19.859  75.696  19.633  1.00  0.00     0.000 C 
BRANCH  19  20
ATOM     20  C   UNL     1      20.564  76.816  18.837  1.00  0.00     0.006 C 
BRANCH  20  21
ATOM     21  C   UNL     1      19.584  77.900  18.371  1.00  0.00     0.053 C 
BRANCH  21  22
ATOM     22  C   UNL     1      20.075  78.541  17.112  1.00  0.00     0.041 C 
ATOM     23  O   UNL     1      20.272  77.844  16.081  1.00  0.00    -0.550 OA
ATOM     24  O   UNL     1      20.265  79.917  17.059  1.00  0.00    -0.550 OA
ENDBRANCH  21  22
ENDBRANCH  20  21
ENDBRANCH  19  20
ENDBRANCH  18  19
ENDBRANCH  17  18
ENDBRANCH  16  17
ENDBRANCH  15  16
ENDBRANCH  14  15
ENDBRANCH  13  14
ENDBRANCH   1  13
TORSDOF 20
ENDMDL
MODEL 2
REMARK VINA RESULT:    -4.579      4.405      8.051
REMARK INTER + INTRA:         -13.465
REMARK INTER:                  -9.774
REMARK INTRA:                  -3.690
REMARK UNBOUND:                -3.532
REMARK SMILES CCCCCCCCCCCCCCCCCCCCCC(=O)[O-]
REMARK SMILES IDX 12 1 11 2 10 3 9 4 8 5 7 6 6 7 5 8 4 9 3 10 2 11 1 12 13 13
REMARK SMILES IDX 14 14 15 15 16 16 17 17 18 18 19 19 20 20 21 21 22 22 23 23
REMARK SMILES IDX 24 24
REMARK H PARENT
REMARK Flexibility Score: inf
ROOT
ATOM      1  C   UNL     1      17.471  70.232  20.780  1.00  0.00     0.000 C 
ENDROOT
BRANCH   1   2
ATOM      2  C   UNL     1      16.127  70.978  20.751  1.00  0.00     0.000 C 
BRANCH   2   3
ATOM      3  C   UNL     1      16.275  72.433  20.273  1.00  0.00     0.000 C 
BRANCH   3   4
ATOM      4  C   UNL     1      15.403  72.746  19.046  1.00  0.00    -0.000 C 
BRANCH   4   5
ATOM      5  C   UNL     1      16.002  73.847  18.158  1.00  0.00    -0.000 C 
BRANCH   5   6
ATOM      6  C   UNL     1      17.374  74.291  18.681  1.00  0.00    -0.000 C 
BRANCH   6   7
ATOM      7  C   UNL     1      18.471  74.031  17.638  1.00  0.00    -0.000 C 
BRANCH   7   8
ATOM      8  C   UNL     1      19.883  74.063  18.243  1.00  0.00    -0.000 C 
BRANCH   8   9
ATOM      9  C   UNL     1      19.905  74.654  19.663  1.00  0.00    -0.000 C 
BRANCH   9  10
ATOM     10  C   UNL     1      20.784  75.911  19.775  1.00  0.00    -0.000 C 
BRANCH  10  11
ATOM     11  C   UNL     1      20.377  77.042  18.808  1.00  0.00    -0.003 C 
ATOM     12  C   UNL     1      18.971  77.573  19.089  1.00  0.00     0.004 C 
ENDBRANCH  10  11
ENDBRANCH   9  10
ENDBRANCH   8   9
ENDBRANCH   7   8
ENDBRANCH   6   7
ENDBRANCH   5   6
ENDBRANCH   4   5
ENDBRANCH   3   4
ENDBRANCH   2   3
ENDBRANCH   1   2
BRANCH   1  13
ATOM     13  C   UNL     1      18.629  71.074  20.223  1.00  0.00     0.000 C 
BRANCH  13  14
ATOM     14  C   UNL     1      19.126  70.508  18.887  1.00  0.00     0.000 C 
BRANCH  14  15
ATOM     15  C   UNL     1      18.007  69.745  18.161  1.00  0.00     0.000 C 
BRANCH  15  16
ATOM     16  C   UNL     1      17.527  70.466  16.891  1.00  0.00     0.000 C 
BRANCH  16  17
ATOM     17  C   UNL     1      16.399  69.711  16.173  1.00  0.00     0.000 C 
BRANCH  17  18
ATOM     18  C   UNL     1      15.059  70.441  16.335  1.00  0.00     0.000 C 
BRANCH  18  19
ATOM     19  C   UNL     1      14.067  69.679  17.229  1.00  0.00     0.000 C 
BRANCH  19  20
ATOM     20  C   UNL     1      14.472  68.213  17.490  1.00  0.00     0.006 C 
BRANCH  20  21
ATOM     21  C   UNL     1      14.088  67.748  18.900  1.00  0.00     0.053 C 
BRANCH  21  22
ATOM     22  C   UNL     1      12.885  66.860  18.848  1.00  0.00     0.041 C 
ATOM     23  O   UNL     1      12.582  66.266  17.779  1.00  0.00    -0.550 OA
ATOM     24  O   UNL     1      12.127  66.645  19.993  1.00  0.00    -0.550 OA
ENDBRANCH  21  22
ENDBRANCH  20  21
ENDBRANCH  19  20
ENDBRANCH  18  19
ENDBRANCH  17  18
ENDBRANCH  16  17
ENDBRANCH  15  16
ENDBRANCH  14  15
ENDBRANCH  13  14
ENDBRANCH   1  13
TORSDOF 20
ENDMDL
MODEL 3
REMARK VINA RESULT:    -4.554      3.899      8.277
REMARK INTER + INTRA:         -13.412
REMARK INTER:                 -10.425
REMARK INTRA:                  -2.987
REMARK UNBOUND:                -3.532
REMARK SMILES CCCCCCCCCCCCCCCCCCCCCC(=O)[O-]
REMARK SMILES IDX 12 1 11 2 10 3 9 4 8 5 7 6 6 7 5 8 4 9 3 10 2 11 1 12 13 13
REMARK SMILES IDX 14 14 15 15 16 16 17 17 18 18 19 19 20 20 21 21 22 22 23 23
REMARK SMILES IDX 24 24
REMARK H PARENT
REMARK Flexibility Score: inf
ROOT
ATOM      1  C   UNL     1      15.067  73.075  18.126  1.00  0.00     0.000 C 
ENDROOT
BRANCH   1   2
ATOM      2  C   UNL     1      16.420  73.394  17.469  1.00  0.00     0.000 C 
BRANCH   2   3
ATOM      3  C   UNL     1      16.630  74.904  17.264  1.00  0.00     0.000 C 
BRANCH   3   4
ATOM      4  C   UNL     1      17.981  75.394  17.810  1.00  0.00    -0.000 C 
BRANCH   4   5
ATOM      5  C   UNL     1      19.074  74.316  17.748  1.00  0.00    -0.000 C 
BRANCH   5   6
ATOM      6  C   UNL     1      19.919  74.315  19.028  1.00  0.00    -0.000 C 
BRANCH   6   7
ATOM      7  C   UNL     1      19.955  75.713  19.663  1.00  0.00    -0.000 C 
BRANCH   7   8
ATOM      8  C   UNL     1      21.299  76.427  19.447  1.00  0.00    -0.000 C 
BRANCH   8   9
ATOM      9  C   UNL     1      21.258  77.420  18.274  1.00  0.00    -0.000 C 
BRANCH   9  10
ATOM     10  C   UNL     1      19.994  78.296  18.274  1.00  0.00    -0.000 C 
BRANCH  10  11
ATOM     11  C   UNL     1      20.150  79.612  17.485  1.00  0.00    -0.003 C 
ATOM     12  C   UNL     1      20.784  80.722  18.322  1.00  0.00     0.004 C 
ENDBRANCH  10  11
ENDBRANCH   9  10
ENDBRANCH   8   9
ENDBRANCH   7   8
ENDBRANCH   6   7
ENDBRANCH   5   6
ENDBRANCH   4   5
ENDBRANCH   3   4
ENDBRANCH   2   3
ENDBRANCH   1   2
BRANCH   1  13
ATOM     13  C   UNL     1      15.216  72.532  19.556  1.00  0.00     0.000 C 
BRANCH  13  14
ATOM     14  C   UNL     1      16.666  72.651  20.039  1.00  0.00     0.000 C 
BRANCH  14  15
ATOM     15  C   UNL     1      17.229  71.279  20.438  1.00  0.00     0.000 C 
BRANCH  15  16
ATOM     16  C   UNL     1      18.411  70.845  19.556  1.00  0.00     0.000 C 
BRANCH  16  17
ATOM     17  C   UNL     1      18.105  69.584  18.735  1.00  0.00     0.000 C 
BRANCH  17  18
ATOM     18  C   UNL     1      17.661  69.950  17.312  1.00  0.00     0.000 C 
BRANCH  18  19
ATOM     19  C   UNL     1      16.332  69.290  16.910  1.00  0.00     0.000 C 
BRANCH  19  20
ATOM     20  C   UNL     1      15.254  69.356  18.013  1.00  0.00     0.006 C 
BRANCH  20  21
ATOM     21  C   UNL     1      14.206  68.245  17.866  1.00  0.00     0.053 C 
BRANCH  21  22
ATOM     22  C   UNL     1      14.145  67.416  19.110  1.00  0.00     0.041 C 
ATOM     23  O   UNL     1      13.222  66.573  19.265  1.00  0.00    -0.550 OA
ATOM     24  O   UNL     1      15.137  67.535  20.076  1.00  0.00    -0.550 OA
ENDBRANCH  21  22
ENDBRANCH  20  21
ENDBRANCH  19  20
ENDBRANCH  18  19
ENDBRANCH  17  18
ENDBRANCH  16  17
ENDBRANCH  15  16
ENDBRANCH  14  15
ENDBRANCH  13  14
ENDBRANCH   1  13
TORSDOF 20
ENDMDL
MODEL 4
REMARK VINA RESULT:    -4.538      4.042      8.250
REMARK INTER + INTRA:         -13.377
REMARK INTER:                 -10.198
REMARK INTRA:                  -3.179
REMARK UNBOUND:                -3.532
REMARK SMILES CCCCCCCCCCCCCCCCCCCCCC(=O)[O-]
REMARK SMILES IDX 12 1 11 2 10 3 9 4 8 5 7 6 6 7 5 8 4 9 3 10 2 11 1 12 13 13
REMARK SMILES IDX 14 14 15 15 16 16 17 17 18 18 19 19 20 20 21 21 22 22 23 23
REMARK SMILES IDX 24 24
REMARK H PARENT
REMARK Flexibility Score: inf
ROOT
ATOM      1  C   UNL     1      16.810  72.980  19.964  1.00  0.00     0.000 C 
ENDROOT
BRANCH   1   2
ATOM      2  C   UNL     1      16.943  74.008  18.829  1.00  0.00     0.000 C 
BRANCH   2   3
ATOM      3  C   UNL     1      17.939  73.562  17.747  1.00  0.00     0.000 C 
BRANCH   3   4
ATOM      4  C   UNL     1      18.278  74.685  16.752  1.00  0.00    -0.000 C 
BRANCH   4   5
ATOM      5  C   UNL     1      17.245  75.822  16.767  1.00  0.00    -0.000 C 
BRANCH   5   6
ATOM      6  C   UNL     1      17.819  77.096  16.135  1.00  0.00    -0.000 C 
BRANCH   6   7
ATOM      7  C   UNL     1      19.354  77.085  16.175  1.00  0.00    -0.000 C 
BRANCH   7   8
ATOM      8  C   UNL     1      19.943  78.412  16.679  1.00  0.00    -0.000 C 
BRANCH   8   9
ATOM      9  C   UNL     1      20.473  78.316  18.119  1.00  0.00    -0.000 C 
BRANCH   9  10
ATOM     10  C   UNL     1      20.765  76.870  18.555  1.00  0.00    -0.000 C 
BRANCH  10  11
ATOM     11  C   UNL     1      19.822  76.352  19.660  1.00  0.00    -0.003 C 
ATOM     12  C   UNL     1      20.424  75.184  20.441  1.00  0.00     0.004 C 
ENDBRANCH  10  11
ENDBRANCH   9  10
ENDBRANCH   8   9
ENDBRANCH   7   8
ENDBRANCH   6   7
ENDBRANCH   5   6
ENDBRANCH   4   5
ENDBRANCH   3   4
ENDBRANCH   2   3
ENDBRANCH   1   2
BRANCH   1  13
ATOM     13  C   UNL     1      18.164  72.387  20.387  1.00  0.00     0.000 C 
BRANCH  13  14
ATOM     14  C   UNL     1      18.143  70.856  20.298  1.00  0.00     0.000 C 
BRANCH  14  15
ATOM     15  C   UNL     1      18.987  70.361  19.113  1.00  0.00     0.000 C 
BRANCH  15  16
ATOM     16  C   UNL     1      18.191  69.457  18.158  1.00  0.00     0.000 C 
BRANCH  16  17
ATOM     17  C   UNL     1      16.674  69.560  18.371  1.00  0.00     0.000 C 
BRANCH  17  18
ATOM     18  C   UNL     1      16.014  70.362  17.242  1.00  0.00     0.000 C 
BRANCH  18  19
ATOM     19  C   UNL     1      14.572  70.784  17.571  1.00  0.00     0.000 C 
BRANCH  19  20
ATOM     20  C   UNL     1      13.502  69.945  16.840  1.00  0.00     0.006 C 
BRANCH  20  21
ATOM     21  C   UNL     1      12.710  69.051  17.802  1.00  0.00     0.053 C 
BRANCH  21  22
ATOM     22  C   UNL     1      13.378  67.721  17.949  1.00  0.00     0.041 C 
ATOM     23  O   UNL     1      13.487  66.954  16.956  1.00  0.00    -0.550 OA
ATOM     24  O   UNL     1      13.927  67.349  19.170  1.00  0.00    -0.550 OA
ENDBRANCH  21  22
ENDBRANCH  20  21
ENDBRANCH  19  20
ENDBRANCH  18  19
ENDBRANCH  17  18
ENDBRANCH  16  17
ENDBRANCH  15  16
ENDBRANCH  14  15
ENDBRANCH  13  14
ENDBRANCH   1  13
TORSDOF 20
ENDMDL
MODEL 5
REMARK VINA RESULT:    -4.493      3.361      7.751
REMARK INTER + INTRA:         -13.278
REMARK INTER:                 -10.216
REMARK INTRA:                  -3.063
REMARK UNBOUND:                -3.532
REMARK SMILES CCCCCCCCCCCCCCCCCCCCCC(=O)[O-]
REMARK SMILES IDX 12 1 11 2 10 3 9 4 8 5 7 6 6 7 5 8 4 9 3 10 2 11 1 12 13 13
REMARK SMILES IDX 14 14 15 15 16 16 17 17 18 18 19 19 20 20 21 21 22 22 23 23
REMARK SMILES IDX 24 24
REMARK H PARENT
REMARK Flexibility Score: inf
ROOT
ATOM      1  C   UNL     1      16.506  72.347  20.327  1.00  0.00     0.000 C 
ENDROOT
BRANCH   1   2
ATOM      2  C   UNL     1      15.380  72.490  19.290  1.00  0.00     0.000 C 
BRANCH   2   3
ATOM      3  C   UNL     1      15.793  73.361  18.092  1.00  0.00     0.000 C 
BRANCH   3   4
ATOM      4  C   UNL     1      17.079  74.160  18.356  1.00  0.00    -0.000 C 
BRANCH   4   5
ATOM      5  C   UNL     1      18.172  73.890  17.309  1.00  0.00    -0.000 C 
BRANCH   5   6
ATOM      6  C   UNL     1      19.569  74.000  17.931  1.00  0.00    -0.000 C 
BRANCH   6   7
ATOM      7  C   UNL     1      20.560  74.639  16.947  1.00  0.00    -0.000 C 
BRANCH   7   8
ATOM      8  C   UNL     1      19.901  75.690  16.041  1.00  0.00    -0.000 C 
BRANCH   8   9
ATOM      9  C   UNL     1      20.578  77.067  16.142  1.00  0.00    -0.000 C 
BRANCH   9  10
ATOM     10  C   UNL     1      19.870  78.012  17.128  1.00  0.00    -0.000 C 
BRANCH  10  11
ATOM     11  C   UNL     1      20.239  79.498  16.936  1.00  0.00    -0.003 C 
ATOM     12  C   UNL     1      20.422  80.229  18.266  1.00  0.00     0.004 C 
ENDBRANCH  10  11
ENDBRANCH   9  10
ENDBRANCH   8   9
ENDBRANCH   7   8
ENDBRANCH   6   7
ENDBRANCH   5   6
ENDBRANCH   4   5
ENDBRANCH   3   4
ENDBRANCH   2   3
ENDBRANCH   1   2
BRANCH   1  13
ATOM     13  C   UNL     1      16.846  70.881  20.635  1.00  0.00     0.000 C 
BRANCH  13  14
ATOM     14  C   UNL     1      18.363  70.658  20.632  1.00  0.00     0.000 C 
BRANCH  14  15
ATOM     15  C   UNL     1      18.915  70.637  19.199  1.00  0.00     0.000 C 
BRANCH  15  16
ATOM     16  C   UNL     1      18.233  69.577  18.318  1.00  0.00     0.000 C 
BRANCH  16  17
ATOM     17  C   UNL     1      17.488  70.192  17.123  1.00  0.00     0.000 C 
BRANCH  17  18
ATOM     18  C   UNL     1      16.275  69.336  16.734  1.00  0.00     0.000 C 
BRANCH  18  19
ATOM     19  C   UNL     1      15.466  68.856  17.950  1.00  0.00     0.000 C 
BRANCH  19  20
ATOM     20  C   UNL     1      13.938  68.951  17.751  1.00  0.00     0.006 C 
BRANCH  20  21
ATOM     21  C   UNL     1      13.538  70.172  16.912  1.00  0.00     0.053 C 
BRANCH  21  22
ATOM     22  C   UNL     1      12.259  70.759  17.420  1.00  0.00     0.041 C 
ATOM     23  O   UNL     1      12.219  71.959  17.800  1.00  0.00    -0.550 OA
ATOM     24  O   UNL     1      11.097  69.996  17.425  1.00  0.00    -0.550 OA
ENDBRANCH  21  22
ENDBRANCH  20  21
ENDBRANCH  19  20
ENDBRANCH  18  19
ENDBRANCH  17  18
ENDBRANCH  16  17
ENDBRANCH  15  16
ENDBRANCH  14  15
ENDBRANCH  13  14
ENDBRANCH   1  13
TORSDOF 20
ENDMDL
MODEL 6
REMARK VINA RESULT:    -4.432      3.345      6.815
REMARK INTER + INTRA:         -13.147
REMARK INTER:                  -9.601
REMARK INTRA:                  -3.546
REMARK UNBOUND:                -3.532
REMARK SMILES CCCCCCCCCCCCCCCCCCCCCC(=O)[O-]
REMARK SMILES IDX 12 1 11 2 10 3 9 4 8 5 7 6 6 7 5 8 4 9 3 10 2 11 1 12 13 13
REMARK SMILES IDX 14 14 15 15 16 16 17 17 18 18 19 19 20 20 21 21 22 22 23 23
REMARK SMILES IDX 24 24
REMARK H PARENT
REMARK Flexibility Score: inf
ROOT
ATOM      1  C   UNL     1      20.643  75.616  20.174  1.00  0.00     0.000 C 
ENDROOT
BRANCH   1   2
ATOM      2  C   UNL     1      21.378  76.588  19.236  1.00  0.00     0.000 C 
BRANCH   2   3
ATOM      3  C   UNL     1      21.012  76.365  17.758  1.00  0.00     0.000 C 
BRANCH   3   4
ATOM      4  C   UNL     1      20.156  77.505  17.181  1.00  0.00    -0.000 C 
BRANCH   4   5
ATOM      5  C   UNL     1      19.385  77.088  15.919  1.00  0.00    -0.000 C 
BRANCH   5   6
ATOM      6  C   UNL     1      17.886  76.945  16.212  1.00  0.00    -0.000 C 
BRANCH   6   7
ATOM      7  C   UNL     1      17.559  75.537  16.730  1.00  0.00    -0.000 C 
BRANCH   7   8
ATOM      8  C   UNL     1      16.765  75.559  18.045  1.00  0.00    -0.000 C 
BRANCH   8   9
ATOM      9  C   UNL     1      15.411  74.839  17.931  1.00  0.00    -0.000 C 
BRANCH   9  10
ATOM     10  C   UNL     1      15.254  73.693  18.945  1.00  0.00    -0.000 C 
BRANCH  10  11
ATOM     11  C   UNL     1      14.612  72.422  18.352  1.00  0.00    -0.003 C 
ATOM     12  C   UNL     1      14.564  72.451  16.825  1.00  0.00     0.004 C 
ENDBRANCH  10  11
ENDBRANCH   9  10
ENDBRANCH   8   9
ENDBRANCH   7   8
ENDBRANCH   6   7
ENDBRANCH   5   6
ENDBRANCH   4   5
ENDBRANCH   3   4
ENDBRANCH   2   3
ENDBRANCH   1   2
BRANCH   1  13
ATOM     13  C   UNL     1      19.950  74.472  19.417  1.00  0.00     0.000 C 
BRANCH  13  14
ATOM     14  C   UNL     1      19.141  73.591  20.376  1.00  0.00     0.000 C 
BRANCH  14  15
ATOM     15  C   UNL     1      18.463  72.435  19.624  1.00  0.00     0.000 C 
BRANCH  15  16
ATOM     16  C   UNL     1      18.932  72.324  18.164  1.00  0.00     0.000 C 
BRANCH  16  17
ATOM     17  C   UNL     1      18.102  71.318  17.352  1.00  0.00     0.000 C 
BRANCH  17  18
ATOM     18  C   UNL     1      17.980  69.981  18.095  1.00  0.00     0.000 C 
BRANCH  18  19
ATOM     19  C   UNL     1      16.604  69.320  17.916  1.00  0.00     0.000 C 
BRANCH  19  20
ATOM     20  C   UNL     1      15.876  69.043  19.249  1.00  0.00     0.006 C 
BRANCH  20  21
ATOM     21  C   UNL     1      16.855  68.794  20.404  1.00  0.00     0.053 C 
BRANCH  21  22
ATOM     22  C   UNL     1      16.563  69.717  21.544  1.00  0.00     0.041 C 
ATOM     23  O   UNL     1      16.977  69.443  22.702  1.00  0.00    -0.550 OA
ATOM     24  O   UNL     1      15.880  70.906  21.321  1.00  0.00    -0.550 OA
ENDBRANCH  21  22
ENDBRANCH  20  21
ENDBRANCH  19  20
ENDBRANCH  18  19
ENDBRANCH  17  18
ENDBRANCH  16  17
ENDBRANCH  15  16
ENDBRANCH  14  15
ENDBRANCH  13  14
ENDBRANCH   1  13
TORSDOF 20
ENDMDL
MODEL 7
REMARK VINA RESULT:    -4.419      5.041      8.320
REMARK INTER + INTRA:         -13.119
REMARK INTER:                 -10.640
REMARK INTRA:                  -2.479
REMARK UNBOUND:                -3.532
REMARK SMILES CCCCCCCCCCCCCCCCCCCCCC(=O)[O-]
REMARK SMILES IDX 12 1 11 2 10 3 9 4 8 5 7 6 6 7 5 8 4 9 3 10 2 11 1 12 13 13
REMARK SMILES IDX 14 14 15 15 16 16 17 17 18 18 19 19 20 20 21 21 22 22 23 23
REMARK SMILES IDX 24 24
REMARK H PARENT
REMARK Flexibility Score: inf
ROOT
ATOM      1  C   UNL     1      18.489  71.783  19.465  1.00  0.00     0.000 C 
ENDROOT
BRANCH   1   2
ATOM      2  C   UNL     1      19.155  73.044  18.890  1.00  0.00     0.000 C 
BRANCH   2   3
ATOM      3  C   UNL     1      19.439  74.101  19.970  1.00  0.00     0.000 C 
BRANCH   3   4
ATOM      4  C   UNL     1      20.269  75.282  19.441  1.00  0.00    -0.000 C 
BRANCH   4   5
ATOM      5  C   UNL     1      19.493  76.608  19.456  1.00  0.00    -0.000 C 
BRANCH   5   6
ATOM      6  C   UNL     1      19.754  77.412  18.176  1.00  0.00    -0.000 C 
BRANCH   6   7
ATOM      7  C   UNL     1      19.439  76.575  16.927  1.00  0.00    -0.000 C 
BRANCH   7   8
ATOM      8  C   UNL     1      18.133  77.005  16.240  1.00  0.00    -0.000 C 
BRANCH   8   9
ATOM      9  C   UNL     1      17.084  75.881  16.206  1.00  0.00    -0.000 C 
BRANCH   9  10
ATOM     10  C   UNL     1      16.493  75.572  17.592  1.00  0.00    -0.000 C 
BRANCH  10  11
ATOM     11  C   UNL     1      16.050  74.105  17.765  1.00  0.00    -0.003 C 
ATOM     12  C   UNL     1      16.084  73.326  16.450  1.00  0.00     0.004 C 
ENDBRANCH  10  11
ENDBRANCH   9  10
ENDBRANCH   8   9
ENDBRANCH   7   8
ENDBRANCH   6   7
ENDBRANCH   5   6
ENDBRANCH   4   5
ENDBRANCH   3   4
ENDBRANCH   2   3
ENDBRANCH   1   2
BRANCH   1  13
ATOM     13  C   UNL     1      19.061  70.487  18.869  1.00  0.00     0.000 C 
BRANCH  13  14
ATOM     14  C   UNL     1      17.950  69.635  18.243  1.00  0.00     0.000 C 
BRANCH  14  15
ATOM     15  C   UNL     1      16.566  70.086  18.734  1.00  0.00     0.000 C 
BRANCH  15  16
ATOM     16  C   UNL     1      15.797  68.963  19.449  1.00  0.00     0.000 C 
BRANCH  16  17
ATOM     17  C   UNL     1      16.495  68.494  20.735  1.00  0.00     0.000 C 
BRANCH  17  18
ATOM     18  C   UNL     1      16.496  69.604  21.795  1.00  0.00     0.000 C 
BRANCH  18  19
ATOM     19  C   UNL     1      17.439  69.307  22.972  1.00  0.00     0.000 C 
BRANCH  19  20
ATOM     20  C   UNL     1      16.727  68.682  24.190  1.00  0.00     0.006 C 
BRANCH  20  21
ATOM     21  C   UNL     1      17.210  67.254  24.475  1.00  0.00     0.053 C 
BRANCH  21  22
ATOM     22  C   UNL     1      17.185  66.976  25.944  1.00  0.00     0.041 C 
ATOM     23  O   UNL     1      16.845  65.839  26.368  1.00  0.00    -0.550 OA
ATOM     24  O   UNL     1      17.586  67.955  26.845  1.00  0.00    -0.550 OA
ENDBRANCH  21  22
ENDBRANCH  20  21
ENDBRANCH  19  20
ENDBRANCH  18  19
ENDBRANCH  17  18
ENDBRANCH  16  17
ENDBRANCH  15  16
ENDBRANCH  14  15
ENDBRANCH  13  14
ENDBRANCH   1  13
TORSDOF 20
ENDMDL
MODEL 8
REMARK VINA RESULT:    -4.402      1.726      3.091
REMARK INTER + INTRA:         -13.081
REMARK INTER:                  -9.199
REMARK INTRA:                  -3.881
REMARK UNBOUND:                -3.532
REMARK SMILES CCCCCCCCCCCCCCCCCCCCCC(=O)[O-]
REMARK SMILES IDX 12 1 11 2 10 3 9 4 8 5 7 6 6 7 5 8 4 9 3 10 2 11 1 12 13 13
REMARK SMILES IDX 14 14 15 15 16 16 17 17 18 18 19 19 20 20 21 21 22 22 23 23
REMARK SMILES IDX 24 24
REMARK H PARENT
REMARK Flexibility Score: inf
ROOT
ATOM      1  C   UNL     1      17.214  72.022  20.385  1.00  0.00     0.000 C 
ENDROOT
BRANCH   1   2
ATOM      2  C   UNL     1      18.311  71.115  19.804  1.00  0.00     0.000 C 
BRANCH   2   3
ATOM      3  C   UNL     1      17.768  69.746  19.364  1.00  0.00     0.000 C 
BRANCH   3   4
ATOM      4  C   UNL     1      18.018  69.458  17.875  1.00  0.00    -0.000 C 
BRANCH   4   5
ATOM      5  C   UNL     1      17.687  70.659  16.975  1.00  0.00    -0.000 C 
BRANCH   5   6
ATOM      6  C   UNL     1      16.593  70.303  15.961  1.00  0.00    -0.000 C 
BRANCH   6   7
ATOM      7  C   UNL     1      16.100  68.863  16.168  1.00  0.00    -0.000 C 
BRANCH   7   8
ATOM      8  C   UNL     1      14.572  68.775  16.311  1.00  0.00    -0.000 C 
BRANCH   8   9
ATOM      9  C   UNL     1      14.094  69.066  17.743  1.00  0.00    -0.000 C 
BRANCH   9  10
ATOM     10  C   UNL     1      14.648  68.068  18.774  1.00  0.00    -0.000 C 
BRANCH  10  11
ATOM     11  C   UNL     1      13.615  67.022  19.242  1.00  0.00    -0.003 C 
ATOM     12  C   UNL     1      12.556  66.731  18.179  1.00  0.00     0.004 C 
ENDBRANCH  10  11
ENDBRANCH   9  10
ENDBRANCH   8   9
ENDBRANCH   7   8
ENDBRANCH   6   7
ENDBRANCH   5   6
ENDBRANCH   4   5
ENDBRANCH   3   4
ENDBRANCH   2   3
ENDBRANCH   1   2
BRANCH   1  13
ATOM     13  C   UNL     1      15.799  71.496  20.101  1.00  0.00     0.000 C 
BRANCH  13  14
ATOM     14  C   UNL     1      14.882  72.625  19.613  1.00  0.00     0.000 C 
BRANCH  14  15
ATOM     15  C   UNL     1      14.744  72.600  18.083  1.00  0.00     0.000 C 
BRANCH  15  16
ATOM     16  C   UNL     1      15.524  73.735  17.400  1.00  0.00     0.000 C 
BRANCH  16  17
ATOM     17  C   UNL     1      15.871  74.879  18.366  1.00  0.00     0.000 C 
BRANCH  17  18
ATOM     18  C   UNL     1      17.329  75.323  18.189  1.00  0.00     0.000 C 
BRANCH  18  19
ATOM     19  C   UNL     1      18.110  74.437  17.204  1.00  0.00     0.000 C 
BRANCH  19  20
ATOM     20  C   UNL     1      19.480  73.976  17.744  1.00  0.00     0.006 C 
BRANCH  20  21
ATOM     21  C   UNL     1      19.708  74.412  19.197  1.00  0.00     0.053 C 
BRANCH  21  22
ATOM     22  C   UNL     1      20.677  75.550  19.255  1.00  0.00     0.041 C 
ATOM     23  O   UNL     1      21.085  75.979  20.367  1.00  0.00    -0.550 OA
ATOM     24  O   UNL     1      21.172  76.104  18.080  1.00  0.00    -0.550 OA
ENDBRANCH  21  22
ENDBRANCH  20  21
ENDBRANCH  19  20
ENDBRANCH  18  19
ENDBRANCH  17  18
ENDBRANCH  16  17
ENDBRANCH  15  16
ENDBRANCH  14  15
ENDBRANCH  13  14
ENDBRANCH   1  13
TORSDOF 20
ENDMDL
MODEL 9
REMARK VINA RESULT:    -4.396      3.237      7.248
REMARK INTER + INTRA:         -13.069
REMARK INTER:                  -9.711
REMARK INTRA:                  -3.358
REMARK UNBOUND:                -3.532
REMARK SMILES CCCCCCCCCCCCCCCCCCCCCC(=O)[O-]
REMARK SMILES IDX 12 1 11 2 10 3 9 4 8 5 7 6 6 7 5 8 4 9 3 10 2 11 1 12 13 13
REMARK SMILES IDX 14 14 15 15 16 16 17 17 18 18 19 19 20 20 21 21 22 22 23 23
REMARK SMILES IDX 24 24
REMARK H PARENT
REMARK Flexibility Score: inf
ROOT
ATOM      1  C   UNL     1      17.740  72.520  20.130  1.00  0.00     0.000 C 
ENDROOT
BRANCH   1   2
ATOM      2  C   UNL     1      18.254  73.246  18.877  1.00  0.00     0.000 C 
BRANCH   2   3
ATOM      3  C   UNL     1      17.243  74.271  18.337  1.00  0.00     0.000 C 
BRANCH   3   4
ATOM      4  C   UNL     1      16.951  74.083  16.839  1.00  0.00    -0.000 C 
BRANCH   4   5
ATOM      5  C   UNL     1      17.846  74.956  15.945  1.00  0.00    -0.000 C 
BRANCH   5   6
ATOM      6  C   UNL     1      17.759  76.432  16.352  1.00  0.00    -0.000 C 
BRANCH   6   7
ATOM      7  C   UNL     1      19.029  77.191  15.942  1.00  0.00    -0.000 C 
BRANCH   7   8
ATOM      8  C   UNL     1      20.065  77.268  17.075  1.00  0.00    -0.000 C 
BRANCH   8   9
ATOM      9  C   UNL     1      19.495  77.900  18.356  1.00  0.00    -0.000 C 
BRANCH   9  10
ATOM     10  C   UNL     1      19.414  76.908  19.529  1.00  0.00    -0.000 C 
BRANCH  10  11
ATOM     11  C   UNL     1      20.633  75.969  19.633  1.00  0.00    -0.003 C 
ATOM     12  C   UNL     1      20.584  75.084  20.878  1.00  0.00     0.004 C 
ENDBRANCH  10  11
ENDBRANCH   9  10
ENDBRANCH   8   9
ENDBRANCH   7   8
ENDBRANCH   6   7
ENDBRANCH   5   6
ENDBRANCH   4   5
ENDBRANCH   3   4
ENDBRANCH   2   3
ENDBRANCH   1   2
BRANCH   1  13
ATOM     13  C   UNL     1      18.194  71.053  20.194  1.00  0.00     0.000 C 
BRANCH  13  14
ATOM     14  C   UNL     1      18.886  70.636  18.890  1.00  0.00     0.000 C 
BRANCH  14  15
ATOM     15  C   UNL     1      18.035  69.620  18.115  1.00  0.00     0.000 C 
BRANCH  15  16
ATOM     16  C   UNL     1      17.234  70.268  16.973  1.00  0.00     0.000 C 
BRANCH  16  17
ATOM     17  C   UNL     1      15.767  69.815  16.949  1.00  0.00     0.000 C 
BRANCH  17  18
ATOM     18  C   UNL     1      14.821  71.006  17.154  1.00  0.00     0.000 C 
BRANCH  18  19
ATOM     19  C   UNL     1      14.778  71.493  18.611  1.00  0.00     0.000 C 
BRANCH  19  20
ATOM     20  C   UNL     1      13.945  72.777  18.808  1.00  0.00     0.006 C 
BRANCH  20  21
ATOM     21  C   UNL     1      12.926  72.986  17.680  1.00  0.00     0.053 C 
BRANCH  21  22
ATOM     22  C   UNL     1      11.764  73.791  18.168  1.00  0.00     0.041 C 
ATOM     23  O   UNL     1      11.043  74.421  17.350  1.00  0.00    -0.550 OA
ATOM     24  O   UNL     1      11.444  73.805  19.520  1.00  0.00    -0.550 OA
ENDBRANCH  21  22
ENDBRANCH  20  21
ENDBRANCH  19  20
ENDBRANCH  18  19
ENDBRANCH  17  18
ENDBRANCH  16  17
ENDBRANCH  15  16
ENDBRANCH  14  15
ENDBRANCH  13  14
ENDBRANCH   1  13
TORSDOF 20
ENDMDL
