MODEL 1
REMARK VINA RESULT:    -4.202      0.000      0.000
REMARK INTER + INTRA:          -4.763
REMARK INTER:                  -4.571
REMARK INTRA:                  -0.192
REMARK UNBOUND:                -0.192
REMARK SMILES O=C([O-])c1ccccc1O
REMARK SMILES IDX 4 1 9 2 5 3 8 4 6 5 7 6 2 7 1 8 3 9 10 10
REMARK H PARENT 10 11
REMARK Flexibility Score: inf
ROOT
ATOM      1  C   UNL     1     102.809 118.500  94.811  1.00  0.00     0.039 A 
ATOM      2  C   UNL     1     101.553 118.897  94.294  1.00  0.00     0.124 A 
ATOM      3  C   UNL     1     103.403 119.279  95.824  1.00  0.00     0.014 A 
ATOM      4  C   UNL     1     100.924 120.049  94.791  1.00  0.00     0.047 A 
ATOM      5  C   UNL     1     102.766 120.424  96.309  1.00  0.00     0.001 A 
ATOM      6  C   UNL     1     101.529 120.808  95.794  1.00  0.00     0.004 A 
ENDROOT
BRANCH   1   7
ATOM      7  C   UNL     1     103.510 117.287  94.314  1.00  0.00     0.075 C 
ATOM      8  O   UNL     1     104.021 117.276  93.162  1.00  0.00    -0.545 OA
ATOM      9  O   UNL     1     103.618 116.146  95.100  1.00  0.00    -0.545 OA
ENDBRANCH   1   7
BRANCH   2  10
ATOM     10  O   UNL     1     100.927 118.157  93.291  1.00  0.00    -0.507 OA
ATOM     11  H   UNL     1      99.938 118.258  93.092  1.00  0.00     0.293 HD
ENDBRANCH   2  10
TORSDOF 2
ENDMDL
MODEL 2
REMARK VINA RESULT:    -4.175      0.123      1.021
REMARK INTER + INTRA:          -4.733
REMARK INTER:                  -4.540
REMARK INTRA:                  -0.193
REMARK UNBOUND:                -0.192
REMARK SMILES O=C([O-])c1ccccc1O
REMARK SMILES IDX 4 1 9 2 5 3 8 4 6 5 7 6 2 7 1 8 3 9 10 10
REMARK H PARENT 10 11
REMARK Flexibility Score: inf
ROOT
ATOM      1  C   UNL     1     102.811 118.435  94.817  1.00  0.00     0.039 A 
ATOM      2  C   UNL     1     101.582 118.862  94.260  1.00  0.00     0.124 A 
ATOM      3  C   UNL     1     103.420 119.231  95.808  1.00  0.00     0.014 A 
ATOM      4  C   UNL     1     100.994 120.059  94.697  1.00  0.00     0.047 A 
ATOM      5  C   UNL     1     102.823 120.420  96.234  1.00  0.00     0.001 A 
ATOM      6  C   UNL     1     101.612 120.833  95.679  1.00  0.00     0.004 A 
ENDROOT
BRANCH   1   7
ATOM      7  C   UNL     1     103.469 117.175  94.383  1.00  0.00     0.075 C 
ATOM      8  O   UNL     1     103.575 116.205  95.181  1.00  0.00    -0.545 OA
ATOM      9  O   UNL     1     103.981 117.037  93.098  1.00  0.00    -0.545 OA
ENDBRANCH   1   7
BRANCH   2  10
ATOM     10  O   UNL     1     100.944 118.107  93.276  1.00  0.00    -0.507 OA
ATOM     11  H   UNL     1      99.945 118.178  93.114  1.00  0.00     0.293 HD
ENDBRANCH   2  10
TORSDOF 2
ENDMDL
MODEL 3
REMARK VINA RESULT:    -4.016      1.922      4.055
REMARK INTER + INTRA:          -4.560
REMARK INTER:                  -4.327
REMARK INTRA:                  -0.234
REMARK UNBOUND:                -0.192
REMARK SMILES O=C([O-])c1ccccc1O
REMARK SMILES IDX 4 1 9 2 5 3 8 4 6 5 7 6 2 7 1 8 3 9 10 10
REMARK H PARENT 10 11
REMARK Flexibility Score: inf
ROOT
ATOM      1  C   UNL     1     103.252 117.568  94.340  1.00  0.00     0.039 A 
ATOM      2  C   UNL     1     103.646 117.405  92.991  1.00  0.00     0.124 A 
ATOM      3  C   UNL     1     103.267 116.446  95.193  1.00  0.00     0.014 A 
ATOM      4  C   UNL     1     104.042 116.141  92.526  1.00  0.00     0.047 A 
ATOM      5  C   UNL     1     103.664 115.195  94.717  1.00  0.00     0.001 A 
ATOM      6  C   UNL     1     104.051 115.042  93.386  1.00  0.00     0.004 A 
ENDROOT
BRANCH   1   7
ATOM      7  C   UNL     1     102.824 118.888  94.874  1.00  0.00     0.075 C 
ATOM      8  O   UNL     1     103.437 119.411  95.843  1.00  0.00    -0.545 OA
ATOM      9  O   UNL     1     101.747 119.572  94.323  1.00  0.00    -0.545 OA
ENDBRANCH   1   7
BRANCH   2  10
ATOM     10  O   UNL     1     103.646 118.487  92.110  1.00  0.00    -0.507 OA
ATOM     11  H   UNL     1     102.941 118.587  91.389  1.00  0.00     0.293 HD
ENDBRANCH   2  10
TORSDOF 2
ENDMDL
MODEL 4
REMARK VINA RESULT:    -3.976      4.514      5.783
REMARK INTER + INTRA:          -4.517
REMARK INTER:                  -4.262
REMARK INTRA:                  -0.255
REMARK UNBOUND:                -0.192
REMARK SMILES O=C([O-])c1ccccc1O
REMARK SMILES IDX 4 1 9 2 5 3 8 4 6 5 7 6 2 7 1 8 3 9 10 10
REMARK H PARENT 10 11
REMARK Flexibility Score: inf
ROOT
ATOM      1  C   UNL     1     100.055 122.833  94.541  1.00  0.00     0.039 A 
ATOM      2  C   UNL     1     100.875 123.911  94.132  1.00  0.00     0.124 A 
ATOM      3  C   UNL     1     100.544 121.940  95.516  1.00  0.00     0.014 A 
ATOM      4  C   UNL     1     102.150 124.074  94.696  1.00  0.00     0.047 A 
ATOM      5  C   UNL     1     101.815 122.114  96.068  1.00  0.00     0.001 A 
ATOM      6  C   UNL     1     102.616 123.179  95.659  1.00  0.00     0.004 A 
ENDROOT
BRANCH   1   7
ATOM      7  C   UNL     1      98.698 122.623  93.970  1.00  0.00     0.075 C 
ATOM      8  O   UNL     1      98.334 121.475  93.603  1.00  0.00    -0.545 OA
ATOM      9  O   UNL     1      97.807 123.680  93.829  1.00  0.00    -0.545 OA
ENDBRANCH   1   7
BRANCH   2  10
ATOM     10  O   UNL     1     100.433 124.820  93.170  1.00  0.00    -0.507 OA
ATOM     11  H   UNL     1     101.032 125.125  92.411  1.00  0.00     0.293 HD
ENDBRANCH   2  10
TORSDOF 2
ENDMDL
MODEL 5
REMARK VINA RESULT:    -3.907      2.797      3.850
REMARK INTER + INTRA:          -4.442
REMARK INTER:                  -4.191
REMARK INTRA:                  -0.251
REMARK UNBOUND:                -0.192
REMARK SMILES O=C([O-])c1ccccc1O
REMARK SMILES IDX 4 1 9 2 5 3 8 4 6 5 7 6 2 7 1 8 3 9 10 10
REMARK H PARENT 10 11
REMARK Flexibility Score: inf
ROOT
ATOM      1  C   UNL     1     103.209 115.245  93.529  1.00  0.00     0.039 A 
ATOM      2  C   UNL     1     103.239 116.241  92.525  1.00  0.00     0.124 A 
ATOM      3  C   UNL     1     103.225 115.643  94.881  1.00  0.00     0.014 A 
ATOM      4  C   UNL     1     103.283 117.597  92.885  1.00  0.00     0.047 A 
ATOM      5  C   UNL     1     103.269 116.997  95.225  1.00  0.00     0.001 A 
ATOM      6  C   UNL     1     103.297 117.971  94.229  1.00  0.00     0.004 A 
ENDROOT
BRANCH   1   7
ATOM      7  C   UNL     1     103.163 113.798  93.193  1.00  0.00     0.075 C 
ATOM      8  O   UNL     1     102.431 113.014  93.854  1.00  0.00    -0.545 OA
ATOM      9  O   UNL     1     103.920 113.278  92.149  1.00  0.00    -0.545 OA
ENDBRANCH   1   7
BRANCH   2  10
ATOM     10  O   UNL     1     103.225 115.895  91.174  1.00  0.00    -0.507 OA
ATOM     11  H   UNL     1     103.493 114.969  90.858  1.00  0.00     0.293 HD
ENDBRANCH   2  10
TORSDOF 2
ENDMDL
MODEL 6
REMARK VINA RESULT:    -3.889      2.155      3.033
REMARK INTER + INTRA:          -4.422
REMARK INTER:                  -4.168
REMARK INTRA:                  -0.254
REMARK UNBOUND:                -0.192
REMARK SMILES O=C([O-])c1ccccc1O
REMARK SMILES IDX 4 1 9 2 5 3 8 4 6 5 7 6 2 7 1 8 3 9 10 10
REMARK H PARENT 10 11
REMARK Flexibility Score: inf
ROOT
ATOM      1  C   UNL     1     102.174 116.638  93.243  1.00  0.00     0.039 A 
ATOM      2  C   UNL     1     102.743 117.934  93.245  1.00  0.00     0.124 A 
ATOM      3  C   UNL     1     101.281 116.287  94.275  1.00  0.00     0.014 A 
ATOM      4  C   UNL     1     102.413 118.841  94.264  1.00  0.00     0.047 A 
ATOM      5  C   UNL     1     100.961 117.201  95.282  1.00  0.00     0.001 A 
ATOM      6  C   UNL     1     101.526 118.475  95.277  1.00  0.00     0.004 A 
ENDROOT
BRANCH   1   7
ATOM      7  C   UNL     1     102.497 115.646  92.185  1.00  0.00     0.075 C 
ATOM      8  O   UNL     1     101.583 114.952  91.663  1.00  0.00    -0.545 OA
ATOM      9  O   UNL     1     103.803 115.460  91.748  1.00  0.00    -0.545 OA
ENDBRANCH   1   7
BRANCH   2  10
ATOM     10  O   UNL     1     103.633 118.326  92.245  1.00  0.00    -0.507 OA
ATOM     11  H   UNL     1     103.461 118.118  91.268  1.00  0.00     0.293 HD
ENDBRANCH   2  10
TORSDOF 2
ENDMDL
MODEL 7
REMARK VINA RESULT:    -3.815      2.139      2.797
REMARK INTER + INTRA:          -4.342
REMARK INTER:                  -4.125
REMARK INTRA:                  -0.217
REMARK UNBOUND:                -0.192
REMARK SMILES O=C([O-])c1ccccc1O
REMARK SMILES IDX 4 1 9 2 5 3 8 4 6 5 7 6 2 7 1 8 3 9 10 10
REMARK H PARENT 10 11
REMARK Flexibility Score: inf
ROOT
ATOM      1  C   UNL     1     102.610 116.580  93.283  1.00  0.00     0.039 A 
ATOM      2  C   UNL     1     101.396 116.493  94.004  1.00  0.00     0.124 A 
ATOM      3  C   UNL     1     103.559 117.550  93.665  1.00  0.00     0.014 A 
ATOM      4  C   UNL     1     101.155 117.364  95.077  1.00  0.00     0.047 A 
ATOM      5  C   UNL     1     103.306 118.410  94.736  1.00  0.00     0.001 A 
ATOM      6  C   UNL     1     102.107 118.318  95.441  1.00  0.00     0.004 A 
ENDROOT
BRANCH   1   7
ATOM      7  C   UNL     1     102.906 115.677  92.139  1.00  0.00     0.075 C 
ATOM      8  O   UNL     1     104.098 115.446  91.803  1.00  0.00    -0.545 OA
ATOM      9  O   UNL     1     101.883 115.073  91.418  1.00  0.00    -0.545 OA
ENDBRANCH   1   7
BRANCH   2  10
ATOM     10  O   UNL     1     100.427 115.549  93.661  1.00  0.00    -0.507 OA
ATOM     11  H   UNL     1     100.677 114.619  93.347  1.00  0.00     0.293 HD
ENDBRANCH   2  10
TORSDOF 2
ENDMDL
MODEL 8
REMARK VINA RESULT:    -3.788      2.412      4.231
REMARK INTER + INTRA:          -4.313
REMARK INTER:                  -4.063
REMARK INTRA:                  -0.250
REMARK UNBOUND:                -0.192
REMARK SMILES O=C([O-])c1ccccc1O
REMARK SMILES IDX 4 1 9 2 5 3 8 4 6 5 7 6 2 7 1 8 3 9 10 10
REMARK H PARENT 10 11
REMARK Flexibility Score: inf
ROOT
ATOM      1  C   UNL     1     101.037 121.131  95.150  1.00  0.00     0.039 A 
ATOM      2  C   UNL     1     101.045 119.761  94.798  1.00  0.00     0.124 A 
ATOM      3  C   UNL     1     102.121 121.650  95.886  1.00  0.00     0.014 A 
ATOM      4  C   UNL     1     102.121 118.946  95.183  1.00  0.00     0.047 A 
ATOM      5  C   UNL     1     103.186 120.827  96.261  1.00  0.00     0.001 A 
ATOM      6  C   UNL     1     103.186 119.479  95.910  1.00  0.00     0.004 A 
ENDROOT
BRANCH   1   7
ATOM      7  C   UNL     1      99.917 122.030  94.764  1.00  0.00     0.075 C 
ATOM      8  O   UNL     1      98.729 121.725  95.050  1.00  0.00    -0.545 OA
ATOM      9  O   UNL     1     100.152 123.218  94.083  1.00  0.00    -0.545 OA
ENDBRANCH   1   7
BRANCH   2  10
ATOM     10  O   UNL     1      99.993 119.203  94.071  1.00  0.00    -0.507 OA
ATOM     11  H   UNL     1      99.141 119.719  93.885  1.00  0.00     0.293 HD
ENDBRANCH   2  10
TORSDOF 2
ENDMDL
MODEL 9
REMARK VINA RESULT:    -3.697      3.570      4.689
REMARK INTER + INTRA:          -4.213
REMARK INTER:                  -3.971
REMARK INTRA:                  -0.242
REMARK UNBOUND:                -0.192
REMARK SMILES O=C([O-])c1ccccc1O
REMARK SMILES IDX 4 1 9 2 5 3 8 4 6 5 7 6 2 7 1 8 3 9 10 10
REMARK H PARENT 10 11
REMARK Flexibility Score: inf
ROOT
ATOM      1  C   UNL     1     101.939 122.102  95.626  1.00  0.00     0.039 A 
ATOM      2  C   UNL     1     100.847 121.426  95.031  1.00  0.00     0.124 A 
ATOM      3  C   UNL     1     102.987 121.341  96.181  1.00  0.00     0.014 A 
ATOM      4  C   UNL     1     100.824 120.023  95.003  1.00  0.00     0.047 A 
ATOM      5  C   UNL     1     102.951 119.945  96.145  1.00  0.00     0.001 A 
ATOM      6  C   UNL     1     101.872 119.288  95.558  1.00  0.00     0.004 A 
ENDROOT
BRANCH   1   7
ATOM      7  C   UNL     1     102.004 123.586  95.678  1.00  0.00     0.075 C 
ATOM      8  O   UNL     1     102.992 124.197  95.190  1.00  0.00    -0.545 OA
ATOM      9  O   UNL     1     100.985 124.330  96.261  1.00  0.00    -0.545 OA
ENDBRANCH   1   7
BRANCH   2  10
ATOM     10  O   UNL     1      99.786 122.137  94.470  1.00  0.00    -0.507 OA
ATOM     11  H   UNL     1      99.649 122.187  93.467  1.00  0.00     0.293 HD
ENDBRANCH   2  10
TORSDOF 2
ENDMDL
