MODEL 1
REMARK VINA RESULT:    -3.417      0.000      0.000
REMARK INTER + INTRA:          -4.051
REMARK INTER:                  -4.017
REMARK INTRA:                  -0.035
REMARK UNBOUND:                -0.035
REMARK SMILES O=C([O-])CCC(=O)[O-]
REMARK SMILES IDX 4 1 2 2 1 3 3 4 5 5 6 6 7 7 8 8
REMARK H PARENT
REMARK Flexibility Score: inf
ROOT
ATOM      1  C   UNL     1       5.562  23.234  20.300  1.00  0.00     0.059 C 
ENDROOT
BRANCH   1   2
ATOM      2  C   UNL     1       6.753  24.139  20.385  1.00  0.00     0.042 C 
ATOM      3  O   UNL     1       7.547  24.053  21.358  1.00  0.00    -0.550 OA
ATOM      4  O   UNL     1       7.007  25.050  19.368  1.00  0.00    -0.550 OA
ENDBRANCH   1   2
BRANCH   1   5
ATOM      5  C   UNL     1       5.727  22.000  21.194  1.00  0.00     0.059 C 
BRANCH   5   6
ATOM      6  C   UNL     1       4.438  21.250  21.343  1.00  0.00     0.042 C 
ATOM      7  O   UNL     1       4.308  20.107  20.830  1.00  0.00    -0.550 OA
ATOM      8  O   UNL     1       3.368  21.831  22.012  1.00  0.00    -0.550 OA
ENDBRANCH   5   6
ENDBRANCH   1   5
TORSDOF 3
ENDMDL
MODEL 2
REMARK VINA RESULT:    -3.398      0.076      4.299
REMARK INTER + INTRA:          -4.029
REMARK INTER:                  -3.992
REMARK INTRA:                  -0.036
REMARK UNBOUND:                -0.035
REMARK SMILES O=C([O-])CCC(=O)[O-]
REMARK SMILES IDX 4 1 2 2 1 3 3 4 5 5 6 6 7 7 8 8
REMARK H PARENT
REMARK Flexibility Score: inf
ROOT
ATOM      1  C   UNL     1       5.686  21.978  21.189  1.00  0.00     0.059 C 
ENDROOT
BRANCH   1   2
ATOM      2  C   UNL     1       4.389  21.252  21.373  1.00  0.00     0.042 C 
ATOM      3  O   UNL     1       3.444  21.792  22.008  1.00  0.00    -0.550 OA
ATOM      4  O   UNL     1       4.209  19.995  20.810  1.00  0.00    -0.550 OA
ENDBRANCH   1   2
BRANCH   1   5
ATOM      5  C   UNL     1       5.518  23.216  20.303  1.00  0.00     0.059 C 
BRANCH   5   6
ATOM      6  C   UNL     1       6.718  24.111  20.370  1.00  0.00     0.042 C 
ATOM      7  O   UNL     1       7.508  24.038  21.348  1.00  0.00    -0.550 OA
ATOM      8  O   UNL     1       6.939  25.055  19.375  1.00  0.00    -0.550 OA
ENDBRANCH   5   6
ENDBRANCH   1   5
TORSDOF 3
ENDMDL
MODEL 3
REMARK VINA RESULT:    -3.383      2.135      4.918
REMARK INTER + INTRA:          -4.010
REMARK INTER:                  -3.920
REMARK INTRA:                  -0.091
REMARK UNBOUND:                -0.035
REMARK SMILES O=C([O-])CCC(=O)[O-]
REMARK SMILES IDX 4 1 2 2 1 3 3 4 5 5 6 6 7 7 8 8
REMARK H PARENT
REMARK Flexibility Score: inf
ROOT
ATOM      1  C   UNL     1       7.389  24.099  20.802  1.00  0.00     0.059 C 
ENDROOT
BRANCH   1   2
ATOM      2  C   UNL     1       6.118  23.374  20.484  1.00  0.00     0.042 C 
ATOM      3  O   UNL     1       5.286  23.872  19.680  1.00  0.00    -0.550 OA
ATOM      4  O   UNL     1       5.869  22.128  21.047  1.00  0.00    -0.550 OA
ENDBRANCH   1   2
BRANCH   1   5
ATOM      5  C   UNL     1       7.760  25.095  19.698  1.00  0.00     0.059 C 
BRANCH   5   6
ATOM      6  C   UNL     1       7.593  26.513  20.153  1.00  0.00     0.042 C 
ATOM      7  O   UNL     1       7.453  26.773  21.377  1.00  0.00    -0.550 OA
ATOM      8  O   UNL     1       7.550  27.542  19.220  1.00  0.00    -0.550 OA
ENDBRANCH   5   6
ENDBRANCH   1   5
TORSDOF 3
ENDMDL
MODEL 4
REMARK VINA RESULT:    -3.362      2.128      2.883
REMARK INTER + INTRA:          -3.986
REMARK INTER:                  -3.895
REMARK INTRA:                  -0.091
REMARK UNBOUND:                -0.035
REMARK SMILES O=C([O-])CCC(=O)[O-]
REMARK SMILES IDX 4 1 2 2 1 3 3 4 5 5 6 6 7 7 8 8
REMARK H PARENT
REMARK Flexibility Score: inf
ROOT
ATOM      1  C   UNL     1       7.667  25.102  19.711  1.00  0.00     0.059 C 
ENDROOT
BRANCH   1   2
ATOM      2  C   UNL     1       7.515  26.526  20.149  1.00  0.00     0.042 C 
ATOM      3  O   UNL     1       7.401  26.807  21.371  1.00  0.00    -0.550 OA
ATOM      4  O   UNL     1       7.540  27.549  19.209  1.00  0.00    -0.550 OA
ENDBRANCH   1   2
BRANCH   1   5
ATOM      5  C   UNL     1       7.338  24.126  20.845  1.00  0.00     0.059 C 
BRANCH   5   6
ATOM      6  C   UNL     1       6.091  23.346  20.560  1.00  0.00     0.042 C 
ATOM      7  O   UNL     1       5.212  23.816  19.791  1.00  0.00    -0.550 OA
ATOM      8  O   UNL     1       5.882  22.118  21.177  1.00  0.00    -0.550 OA
ENDBRANCH   5   6
ENDBRANCH   1   5
TORSDOF 3
ENDMDL
MODEL 5
REMARK VINA RESULT:    -3.268      2.473      4.588
REMARK INTER + INTRA:          -3.876
REMARK INTER:                  -3.772
REMARK INTRA:                  -0.104
REMARK UNBOUND:                -0.035
REMARK SMILES O=C([O-])CCC(=O)[O-]
REMARK SMILES IDX 4 1 2 2 1 3 3 4 5 5 6 6 7 7 8 8
REMARK H PARENT
REMARK Flexibility Score: inf
ROOT
ATOM      1  C   UNL     1       7.177  24.889  19.814  1.00  0.00     0.059 C 
ENDROOT
BRANCH   1   2
ATOM      2  C   UNL     1       6.163  23.845  20.165  1.00  0.00     0.042 C 
ATOM      3  O   UNL     1       5.035  23.840  19.604  1.00  0.00    -0.550 OA
ATOM      4  O   UNL     1       6.477  22.852  21.085  1.00  0.00    -0.550 OA
ENDBRANCH   1   2
BRANCH   1   5
ATOM      5  C   UNL     1       8.362  24.873  20.785  1.00  0.00     0.059 C 
BRANCH   5   6
ATOM      6  C   UNL     1       8.132  25.781  21.955  1.00  0.00     0.042 C 
ATOM      7  O   UNL     1       8.369  25.379  23.125  1.00  0.00    -0.550 OA
ATOM      8  O   UNL     1       7.614  27.055  21.756  1.00  0.00    -0.550 OA
ENDBRANCH   5   6
ENDBRANCH   1   5
TORSDOF 3
ENDMDL
MODEL 6
REMARK VINA RESULT:    -3.243      1.226      4.085
REMARK INTER + INTRA:          -3.847
REMARK INTER:                  -3.744
REMARK INTRA:                  -0.103
REMARK UNBOUND:                -0.035
REMARK SMILES O=C([O-])CCC(=O)[O-]
REMARK SMILES IDX 4 1 2 2 1 3 3 4 5 5 6 6 7 7 8 8
REMARK H PARENT
REMARK Flexibility Score: inf
ROOT
ATOM      1  C   UNL     1       5.129  21.426  20.938  1.00  0.00     0.059 C 
ENDROOT
BRANCH   1   2
ATOM      2  C   UNL     1       4.058  21.252  21.971  1.00  0.00     0.042 C 
ATOM      3  O   UNL     1       4.171  20.366  22.859  1.00  0.00    -0.550 OA
ATOM      4  O   UNL     1       2.954  22.094  21.976  1.00  0.00    -0.550 OA
ENDBRANCH   1   2
BRANCH   1   5
ATOM      5  C   UNL     1       6.157  22.479  21.363  1.00  0.00     0.059 C 
BRANCH   5   6
ATOM      6  C   UNL     1       6.210  23.623  20.396  1.00  0.00     0.042 C 
ATOM      7  O   UNL     1       5.196  23.919  19.710  1.00  0.00    -0.550 OA
ATOM      8  O   UNL     1       7.391  24.333  20.222  1.00  0.00    -0.550 OA
ENDBRANCH   5   6
ENDBRANCH   1   5
TORSDOF 3
ENDMDL
MODEL 7
REMARK VINA RESULT:    -3.209      1.401      1.685
REMARK INTER + INTRA:          -3.807
REMARK INTER:                  -3.719
REMARK INTRA:                  -0.088
REMARK UNBOUND:                -0.035
REMARK SMILES O=C([O-])CCC(=O)[O-]
REMARK SMILES IDX 4 1 2 2 1 3 3 4 5 5 6 6 7 7 8 8
REMARK H PARENT
REMARK Flexibility Score: inf
ROOT
ATOM      1  C   UNL     1       5.397  21.448  21.021  1.00  0.00     0.059 C 
ENDROOT
BRANCH   1   2
ATOM      2  C   UNL     1       5.961  22.822  20.828  1.00  0.00     0.042 C 
ATOM      3  O   UNL     1       6.962  23.197  21.494  1.00  0.00    -0.550 OA
ATOM      4  O   UNL     1       5.405  23.676  19.884  1.00  0.00    -0.550 OA
ENDBRANCH   1   2
BRANCH   1   5
ATOM      5  C   UNL     1       4.551  21.360  22.295  1.00  0.00     0.059 C 
BRANCH   5   6
ATOM      6  C   UNL     1       3.085  21.340  21.985  1.00  0.00     0.042 C 
ATOM      7  O   UNL     1       2.528  20.269  21.625  1.00  0.00    -0.550 OA
ATOM      8  O   UNL     1       2.343  22.513  22.053  1.00  0.00    -0.550 OA
ENDBRANCH   5   6
ENDBRANCH   1   5
TORSDOF 3
ENDMDL
MODEL 8
REMARK VINA RESULT:    -3.158      2.994      5.663
REMARK INTER + INTRA:          -3.746
REMARK INTER:                  -3.626
REMARK INTRA:                  -0.121
REMARK UNBOUND:                -0.035
REMARK SMILES O=C([O-])CCC(=O)[O-]
REMARK SMILES IDX 4 1 2 2 1 3 3 4 5 5 6 6 7 7 8 8
REMARK H PARENT
REMARK Flexibility Score: inf
ROOT
ATOM      1  C   UNL     1       2.673  19.149  20.252  1.00  0.00     0.059 C 
ENDROOT
BRANCH   1   2
ATOM      2  C   UNL     1       1.198  19.078  20.504  1.00  0.00     0.042 C 
ATOM      3  O   UNL     1       0.642  17.967  20.712  1.00  0.00    -0.550 OA
ATOM      4  O   UNL     1       0.443  20.243  20.548  1.00  0.00    -0.550 OA
ENDBRANCH   1   2
BRANCH   1   5
ATOM      5  C   UNL     1       3.450  19.457  21.536  1.00  0.00     0.059 C 
BRANCH   5   6
ATOM      6  C   UNL     1       3.956  20.867  21.552  1.00  0.00     0.042 C 
ATOM      7  O   UNL     1       3.220  21.799  21.973  1.00  0.00    -0.550 OA
ATOM      8  O   UNL     1       5.224  21.157  21.064  1.00  0.00    -0.550 OA
ENDBRANCH   5   6
ENDBRANCH   1   5
TORSDOF 3
ENDMDL
MODEL 9
REMARK VINA RESULT:    -3.126      3.071      4.450
REMARK INTER + INTRA:          -3.709
REMARK INTER:                  -3.600
REMARK INTRA:                  -0.109
REMARK UNBOUND:                -0.035
REMARK SMILES O=C([O-])CCC(=O)[O-]
REMARK SMILES IDX 4 1 2 2 1 3 3 4 5 5 6 6 7 7 8 8
REMARK H PARENT
REMARK Flexibility Score: inf
ROOT
ATOM      1  C   UNL     1       3.522  19.356  21.408  1.00  0.00     0.059 C 
ENDROOT
BRANCH   1   2
ATOM      2  C   UNL     1       3.893  20.797  21.577  1.00  0.00     0.042 C 
ATOM      3  O   UNL     1       5.046  21.197  21.265  1.00  0.00    -0.550 OA
ATOM      4  O   UNL     1       2.952  21.707  22.042  1.00  0.00    -0.550 OA
ENDBRANCH   1   2
BRANCH   1   5
ATOM      5  C   UNL     1       2.717  19.128  20.124  1.00  0.00     0.059 C 
BRANCH   5   6
ATOM      6  C   UNL     1       1.260  18.928  20.413  1.00  0.00     0.042 C 
ATOM      7  O   UNL     1       0.846  17.819  20.840  1.00  0.00    -0.550 OA
ATOM      8  O   UNL     1       0.356  19.954  20.168  1.00  0.00    -0.550 OA
ENDBRANCH   5   6
ENDBRANCH   1   5
TORSDOF 3
ENDMDL
