MODEL 1
REMARK VINA RESULT:     9.560      0.000      0.000
REMARK INTER + INTRA:          16.238
REMARK INTER:                  17.384
REMARK INTRA:                  -1.147
REMARK UNBOUND:                -1.147
REMARK SMILES CCCCCC=CCC=CCCCCCCCC(=O)[O-]
REMARK SMILES IDX 11 1 12 2 13 3 14 4 15 5 16 6 17 7 18 8 19 9 20 10 10 11
REMARK SMILES IDX 9 12 8 13 7 14 6 15 5 16 4 17 3 18 2 19 1 20
REMARK H PARENT
REMARK Flexibility Score: inf
ROOT
ATOM      1  C   UNL     1      -4.642 103.673  62.228  1.00  0.00     0.027 C 
ENDROOT
BRANCH   1   2
ATOM      2  C   UNL     1      -4.292 102.181  62.272  1.00  0.00     0.004 C 
BRANCH   2   3
ATOM      3  C   UNL     1      -3.704 101.799  63.638  1.00  0.00     0.000 C 
BRANCH   3   4
ATOM      4  C   UNL     1      -2.341 101.096  63.523  1.00  0.00     0.000 C 
BRANCH   4   5
ATOM      5  C   UNL     1      -1.840 101.016  62.071  1.00  0.00     0.000 C 
BRANCH   5   6
ATOM      6  C   UNL     1      -0.337 101.318  61.949  1.00  0.00     0.006 C 
BRANCH   6   7
ATOM      7  C   UNL     1       0.083 102.559  62.747  1.00  0.00     0.053 C 
BRANCH   7   8
ATOM      8  C   UNL     1       1.167 103.296  62.027  1.00  0.00     0.041 C 
ATOM      9  O   UNL     1       2.052 102.660  61.398  1.00  0.00    -0.550 OA
ATOM     10  O   UNL     1       1.247 104.682  62.119  1.00  0.00    -0.550 OA
ENDBRANCH   7   8
ENDBRANCH   6   7
ENDBRANCH   5   6
ENDBRANCH   4   5
ENDBRANCH   3   4
ENDBRANCH   2   3
ENDBRANCH   1   2
BRANCH   1  11
ATOM     11  C   UNL     1      -4.111 104.389  63.441  1.00  0.00    -0.031 C 
ATOM     12  C   UNL     1      -4.047 105.730  63.495  1.00  0.00    -0.027 C 
BRANCH  12  13
ATOM     13  C   UNL     1      -3.538 106.434  64.723  1.00  0.00     0.054 C 
BRANCH  13  14
ATOM     14  C   UNL     1      -4.006 107.869  64.746  1.00  0.00    -0.027 C 
ATOM     15  C   UNL     1      -4.462 108.487  65.850  1.00  0.00    -0.031 C 
BRANCH  15  16
ATOM     16  C   UNL     1      -4.457 107.877  67.229  1.00  0.00     0.027 C 
BRANCH  16  17
ATOM     17  C   UNL     1      -5.885 107.786  67.781  1.00  0.00     0.004 C 
BRANCH  17  18
ATOM     18  C   UNL     1      -6.887 107.434  66.669  1.00  0.00     0.000 C 
BRANCH  18  19
ATOM     19  C   UNL     1      -7.806 108.612  66.309  1.00  0.00    -0.003 C 
ATOM     20  C   UNL     1      -8.122 109.507  67.509  1.00  0.00     0.004 C 
ENDBRANCH  18  19
ENDBRANCH  17  18
ENDBRANCH  16  17
ENDBRANCH  15  16
ENDBRANCH  13  14
ENDBRANCH  12  13
ENDBRANCH   1  11
TORSDOF 14
ENDMDL
MODEL 2
REMARK VINA RESULT:     9.625      0.822      1.586
REMARK INTER + INTRA:          16.356
REMARK INTER:                  16.949
REMARK INTRA:                  -0.593
REMARK UNBOUND:                -1.147
REMARK SMILES CCCCCC=CCC=CCCCCCCCC(=O)[O-]
REMARK SMILES IDX 11 1 12 2 13 3 14 4 15 5 16 6 17 7 18 8 19 9 20 10 10 11
REMARK SMILES IDX 9 12 8 13 7 14 6 15 5 16 4 17 3 18 2 19 1 20
REMARK H PARENT
REMARK Flexibility Score: inf
ROOT
ATOM      1  C   UNL     1      -3.641 105.069  63.239  1.00  0.00     0.027 C 
ENDROOT
BRANCH   1   2
ATOM      2  C   UNL     1      -4.712 104.006  62.968  1.00  0.00     0.004 C 
BRANCH   2   3
ATOM      3  C   UNL     1      -4.066 102.658  62.616  1.00  0.00     0.000 C 
BRANCH   3   4
ATOM      4  C   UNL     1      -3.250 102.067  63.778  1.00  0.00     0.000 C 
BRANCH   4   5
ATOM      5  C   UNL     1      -2.256 100.990  63.311  1.00  0.00     0.000 C 
BRANCH   5   6
ATOM      6  C   UNL     1      -1.233 101.532  62.299  1.00  0.00     0.006 C 
BRANCH   6   7
ATOM      7  C   UNL     1      -0.108 102.334  62.968  1.00  0.00     0.053 C 
BRANCH   7   8
ATOM      8  C   UNL     1       0.873 102.805  61.943  1.00  0.00     0.041 C 
ATOM      9  O   UNL     1       1.437 101.976  61.181  1.00  0.00    -0.550 OA
ATOM     10  O   UNL     1       1.226 104.149  61.883  1.00  0.00    -0.550 OA
ENDBRANCH   7   8
ENDBRANCH   6   7
ENDBRANCH   5   6
ENDBRANCH   4   5
ENDBRANCH   3   4
ENDBRANCH   2   3
ENDBRANCH   1   2
BRANCH   1  11
ATOM     11  C   UNL     1      -4.231 106.264  63.937  1.00  0.00    -0.031 C 
ATOM     12  C   UNL     1      -3.489 107.050  64.736  1.00  0.00    -0.027 C 
BRANCH  12  13
ATOM     13  C   UNL     1      -4.084 108.257  65.409  1.00  0.00     0.054 C 
BRANCH  13  14
ATOM     14  C   UNL     1      -3.832 108.215  66.896  1.00  0.00    -0.027 C 
ATOM     15  C   UNL     1      -4.425 107.341  67.730  1.00  0.00    -0.031 C 
BRANCH  15  16
ATOM     16  C   UNL     1      -5.322 106.215  67.281  1.00  0.00     0.027 C 
BRANCH  16  17
ATOM     17  C   UNL     1      -6.770 106.703  67.148  1.00  0.00     0.004 C 
BRANCH  17  18
ATOM     18  C   UNL     1      -6.866 108.221  67.371  1.00  0.00     0.000 C 
BRANCH  18  19
ATOM     19  C   UNL     1      -8.124 108.833  66.734  1.00  0.00    -0.003 C 
ATOM     20  C   UNL     1      -8.088 108.808  65.205  1.00  0.00     0.004 C 
ENDBRANCH  18  19
ENDBRANCH  17  18
ENDBRANCH  16  17
ENDBRANCH  15  16
ENDBRANCH  13  14
ENDBRANCH  12  13
ENDBRANCH   1  11
TORSDOF 14
ENDMDL
MODEL 3
REMARK VINA RESULT:    10.115      1.277      1.860
REMARK INTER + INTRA:          17.247
REMARK INTER:                  17.778
REMARK INTRA:                  -0.530
REMARK UNBOUND:                -1.147
REMARK SMILES CCCCCC=CCC=CCCCCCCCC(=O)[O-]
REMARK SMILES IDX 11 1 12 2 13 3 14 4 15 5 16 6 17 7 18 8 19 9 20 10 10 11
REMARK SMILES IDX 9 12 8 13 7 14 6 15 5 16 4 17 3 18 2 19 1 20
REMARK H PARENT
REMARK Flexibility Score: inf
ROOT
ATOM      1  C   UNL     1      -4.342 104.474  62.757  1.00  0.00     0.027 C 
ENDROOT
BRANCH   1   2
ATOM      2  C   UNL     1      -4.945 103.123  62.356  1.00  0.00     0.004 C 
BRANCH   2   3
ATOM      3  C   UNL     1      -3.849 102.056  62.216  1.00  0.00     0.000 C 
BRANCH   3   4
ATOM      4  C   UNL     1      -3.511 101.371  63.550  1.00  0.00     0.000 C 
BRANCH   4   5
ATOM      5  C   UNL     1      -2.014 101.043  63.680  1.00  0.00     0.000 C 
BRANCH   5   6
ATOM      6  C   UNL     1      -1.172 101.684  62.564  1.00  0.00     0.006 C 
BRANCH   6   7
ATOM      7  C   UNL     1       0.228 102.096  63.042  1.00  0.00     0.053 C 
BRANCH   7   8
ATOM      8  C   UNL     1       0.984 102.749  61.929  1.00  0.00     0.041 C 
ATOM      9  O   UNL     1       1.580 102.044  61.073  1.00  0.00    -0.550 OA
ATOM     10  O   UNL     1       1.099 104.134  61.885  1.00  0.00    -0.550 OA
ENDBRANCH   7   8
ENDBRANCH   6   7
ENDBRANCH   5   6
ENDBRANCH   4   5
ENDBRANCH   3   4
ENDBRANCH   2   3
ENDBRANCH   1   2
BRANCH   1  11
ATOM     11  C   UNL     1      -4.533 104.737  64.227  1.00  0.00    -0.031 C 
ATOM     12  C   UNL     1      -5.154 103.852  65.026  1.00  0.00    -0.027 C 
BRANCH  12  13
ATOM     13  C   UNL     1      -5.316 104.116  66.498  1.00  0.00     0.054 C 
BRANCH  13  14
ATOM     14  C   UNL     1      -6.490 105.029  66.749  1.00  0.00    -0.027 C 
ATOM     15  C   UNL     1      -6.371 106.287  67.214  1.00  0.00    -0.031 C 
BRANCH  15  16
ATOM     16  C   UNL     1      -5.056 106.991  67.430  1.00  0.00     0.027 C 
BRANCH  16  17
ATOM     17  C   UNL     1      -4.806 108.014  66.315  1.00  0.00     0.004 C 
BRANCH  17  18
ATOM     18  C   UNL     1      -5.757 109.215  66.441  1.00  0.00     0.000 C 
BRANCH  18  19
ATOM     19  C   UNL     1      -7.233 108.818  66.276  1.00  0.00    -0.003 C 
ATOM     20  C   UNL     1      -8.123 109.365  67.394  1.00  0.00     0.004 C 
ENDBRANCH  18  19
ENDBRANCH  17  18
ENDBRANCH  16  17
ENDBRANCH  15  16
ENDBRANCH  13  14
ENDBRANCH  12  13
ENDBRANCH   1  11
TORSDOF 14
ENDMDL
MODEL 4
REMARK VINA RESULT:    10.143      2.733      8.323
REMARK INTER + INTRA:          17.298
REMARK INTER:                  18.204
REMARK INTRA:                  -0.905
REMARK UNBOUND:                -1.147
REMARK SMILES CCCCCC=CCC=CCCCCCCCC(=O)[O-]
REMARK SMILES IDX 11 1 12 2 13 3 14 4 15 5 16 6 17 7 18 8 19 9 20 10 10 11
REMARK SMILES IDX 9 12 8 13 7 14 6 15 5 16 4 17 3 18 2 19 1 20
REMARK H PARENT
REMARK Flexibility Score: inf
ROOT
ATOM      1  C   UNL     1      -5.336 105.029  65.547  1.00  0.00     0.027 C 
ENDROOT
BRANCH   1   2
ATOM      2  C   UNL     1      -6.304 104.574  66.645  1.00  0.00     0.004 C 
BRANCH   2   3
ATOM      3  C   UNL     1      -6.932 105.783  67.354  1.00  0.00     0.000 C 
BRANCH   3   4
ATOM      4  C   UNL     1      -8.125 106.372  66.583  1.00  0.00     0.000 C 
BRANCH   4   5
ATOM      5  C   UNL     1      -7.949 107.869  66.281  1.00  0.00     0.000 C 
BRANCH   5   6
ATOM      6  C   UNL     1      -6.796 108.500  67.081  1.00  0.00     0.006 C 
BRANCH   6   7
ATOM      7  C   UNL     1      -5.614 108.909  66.191  1.00  0.00     0.053 C 
BRANCH   7   8
ATOM      8  C   UNL     1      -4.399 108.114  66.547  1.00  0.00     0.041 C 
ATOM      9  O   UNL     1      -3.531 107.861  65.670  1.00  0.00    -0.550 OA
ATOM     10  O   UNL     1      -4.265 107.583  67.825  1.00  0.00    -0.550 OA
ENDBRANCH   7   8
ENDBRANCH   6   7
ENDBRANCH   5   6
ENDBRANCH   4   5
ENDBRANCH   3   4
ENDBRANCH   2   3
ENDBRANCH   1   2
BRANCH   1  11
ATOM     11  C   UNL     1      -4.823 103.855  64.757  1.00  0.00    -0.031 C 
ATOM     12  C   UNL     1      -4.547 103.955  63.446  1.00  0.00    -0.027 C 
BRANCH  12  13
ATOM     13  C   UNL     1      -4.011 102.780  62.673  1.00  0.00     0.054 C 
BRANCH  13  14
ATOM     14  C   UNL     1      -3.492 101.718  63.611  1.00  0.00    -0.027 C 
ATOM     15  C   UNL     1      -2.379 100.999  63.380  1.00  0.00    -0.031 C 
BRANCH  15  16
ATOM     16  C   UNL     1      -1.439 101.234  62.225  1.00  0.00     0.027 C 
BRANCH  16  17
ATOM     17  C   UNL     1      -0.137 101.880  62.716  1.00  0.00     0.004 C 
BRANCH  17  18
ATOM     18  C   UNL     1       0.926 101.897  61.606  1.00  0.00     0.000 C 
BRANCH  18  19
ATOM     19  C   UNL     1       1.844 103.128  61.688  1.00  0.00    -0.003 C 
ATOM     20  C   UNL     1       1.104 104.393  62.125  1.00  0.00     0.004 C 
ENDBRANCH  18  19
ENDBRANCH  17  18
ENDBRANCH  16  17
ENDBRANCH  15  16
ENDBRANCH  13  14
ENDBRANCH  12  13
ENDBRANCH   1  11
TORSDOF 14
ENDMDL
MODEL 5
REMARK VINA RESULT:    10.782      3.721      8.522
REMARK INTER + INTRA:          18.461
REMARK INTER:                  19.661
REMARK INTRA:                  -1.201
REMARK UNBOUND:                -1.147
REMARK SMILES CCCCCC=CCC=CCCCCCCCC(=O)[O-]
REMARK SMILES IDX 11 1 12 2 13 3 14 4 15 5 16 6 17 7 18 8 19 9 20 10 10 11
REMARK SMILES IDX 9 12 8 13 7 14 6 15 5 16 4 17 3 18 2 19 1 20
REMARK H PARENT
REMARK Flexibility Score: inf
ROOT
ATOM      1  C   UNL     1      -4.681 104.259  62.790  1.00  0.00     0.027 C 
ENDROOT
BRANCH   1   2
ATOM      2  C   UNL     1      -3.725 105.332  63.324  1.00  0.00     0.004 C 
BRANCH   2   3
ATOM      3  C   UNL     1      -4.501 106.438  64.055  1.00  0.00     0.000 C 
BRANCH   3   4
ATOM      4  C   UNL     1      -3.716 107.036  65.235  1.00  0.00     0.000 C 
BRANCH   4   5
ATOM      5  C   UNL     1      -4.481 108.171  65.935  1.00  0.00     0.000 C 
BRANCH   5   6
ATOM      6  C   UNL     1      -5.148 107.713  67.243  1.00  0.00     0.006 C 
BRANCH   6   7
ATOM      7  C   UNL     1      -6.590 107.230  67.034  1.00  0.00     0.053 C 
BRANCH   7   8
ATOM      8  C   UNL     1      -7.464 108.373  66.625  1.00  0.00     0.041 C 
ATOM      9  O   UNL     1      -8.123 108.311  65.554  1.00  0.00    -0.550 OA
ATOM     10  O   UNL     1      -7.485 109.538  67.384  1.00  0.00    -0.550 OA
ENDBRANCH   7   8
ENDBRANCH   6   7
ENDBRANCH   5   6
ENDBRANCH   4   5
ENDBRANCH   3   4
ENDBRANCH   2   3
ENDBRANCH   1   2
BRANCH   1  11
ATOM     11  C   UNL     1      -3.983 102.932  62.657  1.00  0.00    -0.031 C 
ATOM     12  C   UNL     1      -3.247 102.420  63.657  1.00  0.00    -0.027 C 
BRANCH  12  13
ATOM     13  C   UNL     1      -2.576 101.080  63.520  1.00  0.00     0.054 C 
BRANCH  13  14
ATOM     14  C   UNL     1      -2.165 100.835  62.089  1.00  0.00    -0.027 C 
ATOM     15  C   UNL     1      -0.954 101.153  61.595  1.00  0.00    -0.031 C 
BRANCH  15  16
ATOM     16  C   UNL     1       0.190 101.680  62.424  1.00  0.00     0.027 C 
BRANCH  16  17
ATOM     17  C   UNL     1       1.343 102.135  61.520  1.00  0.00     0.004 C 
BRANCH  17  18
ATOM     18  C   UNL     1       1.704 103.606  61.779  1.00  0.00     0.000 C 
BRANCH  18  19
ATOM     19  C   UNL     1       0.542 104.398  62.401  1.00  0.00    -0.003 C 
ATOM     20  C   UNL     1       0.860 104.915  63.805  1.00  0.00     0.004 C 
ENDBRANCH  18  19
ENDBRANCH  17  18
ENDBRANCH  16  17
ENDBRANCH  15  16
ENDBRANCH  13  14
ENDBRANCH  12  13
ENDBRANCH   1  11
TORSDOF 14
ENDMDL
MODEL 6
REMARK VINA RESULT:    10.834      2.457      2.990
REMARK INTER + INTRA:          18.554
REMARK INTER:                  19.340
REMARK INTRA:                  -0.786
REMARK UNBOUND:                -1.147
REMARK SMILES CCCCCC=CCC=CCCCCCCCC(=O)[O-]
REMARK SMILES IDX 11 1 12 2 13 3 14 4 15 5 16 6 17 7 18 8 19 9 20 10 10 11
REMARK SMILES IDX 9 12 8 13 7 14 6 15 5 16 4 17 3 18 2 19 1 20
REMARK H PARENT
REMARK Flexibility Score: inf
ROOT
ATOM      1  C   UNL     1      -3.815 105.280  63.017  1.00  0.00     0.027 C 
ENDROOT
BRANCH   1   2
ATOM      2  C   UNL     1      -4.629 103.986  63.124  1.00  0.00     0.004 C 
BRANCH   2   3
ATOM      3  C   UNL     1      -3.807 102.782  62.642  1.00  0.00     0.000 C 
BRANCH   3   4
ATOM      4  C   UNL     1      -3.548 101.753  63.755  1.00  0.00     0.000 C 
BRANCH   4   5
ATOM      5  C   UNL     1      -2.205 101.024  63.581  1.00  0.00     0.000 C 
BRANCH   5   6
ATOM      6  C   UNL     1      -1.300 101.698  62.535  1.00  0.00     0.006 C 
BRANCH   6   7
ATOM      7  C   UNL     1       0.009 102.226  63.139  1.00  0.00     0.053 C 
BRANCH   7   8
ATOM      8  C   UNL     1       0.873 102.811  62.068  1.00  0.00     0.041 C 
ATOM      9  O   UNL     1       1.476 102.056  61.260  1.00  0.00    -0.550 OA
ATOM     10  O   UNL     1       1.080 104.185  62.014  1.00  0.00    -0.550 OA
ENDBRANCH   7   8
ENDBRANCH   6   7
ENDBRANCH   5   6
ENDBRANCH   4   5
ENDBRANCH   3   4
ENDBRANCH   2   3
ENDBRANCH   1   2
BRANCH   1  11
ATOM     11  C   UNL     1      -3.621 105.910  64.370  1.00  0.00    -0.031 C 
ATOM     12  C   UNL     1      -4.044 107.159  64.631  1.00  0.00    -0.027 C 
BRANCH  12  13
ATOM     13  C   UNL     1      -3.867 107.769  65.995  1.00  0.00     0.054 C 
BRANCH  13  14
ATOM     14  C   UNL     1      -5.163 108.367  66.483  1.00  0.00    -0.027 C 
ATOM     15  C   UNL     1      -5.336 109.679  66.723  1.00  0.00    -0.031 C 
BRANCH  15  16
ATOM     16  C   UNL     1      -4.306 110.740  66.426  1.00  0.00     0.027 C 
BRANCH  16  17
ATOM     17  C   UNL     1      -4.272 111.785  67.549  1.00  0.00     0.004 C 
BRANCH  17  18
ATOM     18  C   UNL     1      -4.332 113.212  66.980  1.00  0.00     0.000 C 
BRANCH  18  19
ATOM     19  C   UNL     1      -5.623 113.949  67.371  1.00  0.00    -0.003 C 
ATOM     20  C   UNL     1      -5.360 115.339  67.953  1.00  0.00     0.004 C 
ENDBRANCH  18  19
ENDBRANCH  17  18
ENDBRANCH  16  17
ENDBRANCH  15  16
ENDBRANCH  13  14
ENDBRANCH  12  13
ENDBRANCH   1  11
TORSDOF 14
ENDMDL
MODEL 7
REMARK VINA RESULT:    10.891      3.840      5.723
REMARK INTER + INTRA:          18.657
REMARK INTER:                  18.906
REMARK INTRA:                  -0.249
REMARK UNBOUND:                -1.147
REMARK SMILES CCCCCC=CCC=CCCCCCCCC(=O)[O-]
REMARK SMILES IDX 11 1 12 2 13 3 14 4 15 5 16 6 17 7 18 8 19 9 20 10 10 11
REMARK SMILES IDX 9 12 8 13 7 14 6 15 5 16 4 17 3 18 2 19 1 20
REMARK H PARENT
REMARK Flexibility Score: inf
ROOT
ATOM      1  C   UNL     1      -5.487 108.219  66.357  1.00  0.00     0.027 C 
ENDROOT
BRANCH   1   2
ATOM      2  C   UNL     1      -5.407 107.086  67.387  1.00  0.00     0.004 C 
BRANCH   2   3
ATOM      3  C   UNL     1      -6.550 106.081  67.181  1.00  0.00     0.000 C 
BRANCH   3   4
ATOM      4  C   UNL     1      -6.062 104.728  66.634  1.00  0.00     0.000 C 
BRANCH   4   5
ATOM      5  C   UNL     1      -4.956 104.887  65.577  1.00  0.00     0.000 C 
BRANCH   5   6
ATOM      6  C   UNL     1      -4.772 103.621  64.723  1.00  0.00     0.006 C 
BRANCH   6   7
ATOM      7  C   UNL     1      -4.434 103.939  63.260  1.00  0.00     0.053 C 
BRANCH   7   8
ATOM      8  C   UNL     1      -4.354 102.678  62.461  1.00  0.00     0.041 C 
ATOM      9  O   UNL     1      -3.501 101.799  62.753  1.00  0.00    -0.550 OA
ATOM     10  O   UNL     1      -5.164 102.509  61.343  1.00  0.00    -0.550 OA
ENDBRANCH   7   8
ENDBRANCH   6   7
ENDBRANCH   5   6
ENDBRANCH   4   5
ENDBRANCH   3   4
ENDBRANCH   2   3
ENDBRANCH   1   2
BRANCH   1  11
ATOM     11  C   UNL     1      -4.113 108.654  65.924  1.00  0.00    -0.031 C 
ATOM     12  C   UNL     1      -3.933 109.691  65.088  1.00  0.00    -0.027 C 
BRANCH  12  13
ATOM     13  C   UNL     1      -2.553 110.131  64.683  1.00  0.00     0.054 C 
BRANCH  13  14
ATOM     14  C   UNL     1      -2.521 111.619  64.436  1.00  0.00    -0.027 C 
ATOM     15  C   UNL     1      -3.052 112.527  65.276  1.00  0.00    -0.031 C 
BRANCH  15  16
ATOM     16  C   UNL     1      -3.638 112.195  66.625  1.00  0.00     0.027 C 
BRANCH  16  17
ATOM     17  C   UNL     1      -4.017 113.478  67.375  1.00  0.00     0.004 C 
BRANCH  17  18
ATOM     18  C   UNL     1      -5.529 113.741  67.295  1.00  0.00     0.000 C 
BRANCH  18  19
ATOM     19  C   UNL     1      -5.882 115.224  67.491  1.00  0.00    -0.003 C 
ATOM     20  C   UNL     1      -5.524 115.740  68.887  1.00  0.00     0.004 C 
ENDBRANCH  18  19
ENDBRANCH  17  18
ENDBRANCH  16  17
ENDBRANCH  15  16
ENDBRANCH  13  14
ENDBRANCH  12  13
ENDBRANCH   1  11
TORSDOF 14
ENDMDL
MODEL 8
REMARK VINA RESULT:    11.051      5.439      9.684
REMARK INTER + INTRA:          18.950
REMARK INTER:                  19.934
REMARK INTRA:                  -0.984
REMARK UNBOUND:                -1.147
REMARK SMILES CCCCCC=CCC=CCCCCCCCC(=O)[O-]
REMARK SMILES IDX 11 1 12 2 13 3 14 4 15 5 16 6 17 7 18 8 19 9 20 10 10 11
REMARK SMILES IDX 9 12 8 13 7 14 6 15 5 16 4 17 3 18 2 19 1 20
REMARK H PARENT
REMARK Flexibility Score: inf
ROOT
ATOM      1  C   UNL     1      -2.884 109.070  65.438  1.00  0.00     0.027 C 
ENDROOT
BRANCH   1   2
ATOM      2  C   UNL     1      -3.498 110.240  64.661  1.00  0.00     0.004 C 
BRANCH   2   3
ATOM      3  C   UNL     1      -2.466 111.358  64.453  1.00  0.00     0.000 C 
BRANCH   3   4
ATOM      4  C   UNL     1      -2.698 112.563  65.380  1.00  0.00     0.000 C 
BRANCH   4   5
ATOM      5  C   UNL     1      -3.740 112.272  66.473  1.00  0.00     0.000 C 
BRANCH   5   6
ATOM      6  C   UNL     1      -4.085 113.518  67.305  1.00  0.00     0.006 C 
BRANCH   6   7
ATOM      7  C   UNL     1      -5.594 113.796  67.356  1.00  0.00     0.053 C 
BRANCH   7   8
ATOM      8  C   UNL     1      -5.845 115.243  67.640  1.00  0.00     0.041 C 
ATOM      9  O   UNL     1      -5.814 115.667  68.825  1.00  0.00    -0.550 OA
ATOM     10  O   UNL     1      -6.194 116.104  66.606  1.00  0.00    -0.550 OA
ENDBRANCH   7   8
ENDBRANCH   6   7
ENDBRANCH   5   6
ENDBRANCH   4   5
ENDBRANCH   3   4
ENDBRANCH   2   3
ENDBRANCH   1   2
BRANCH   1  11
ATOM     11  C   UNL     1      -3.954 108.171  65.996  1.00  0.00    -0.031 C 
ATOM     12  C   UNL     1      -5.243 108.549  66.033  1.00  0.00    -0.027 C 
BRANCH  12  13
ATOM     13  C   UNL     1      -6.307 107.631  66.570  1.00  0.00     0.054 C 
BRANCH  13  14
ATOM     14  C   UNL     1      -5.691 106.525  67.390  1.00  0.00    -0.027 C 
ATOM     15  C   UNL     1      -5.548 105.261  66.951  1.00  0.00    -0.031 C 
BRANCH  15  16
ATOM     16  C   UNL     1      -5.869 104.807  65.549  1.00  0.00     0.027 C 
BRANCH  16  17
ATOM     17  C   UNL     1      -4.826 103.794  65.061  1.00  0.00     0.004 C 
BRANCH  17  18
ATOM     18  C   UNL     1      -4.422 104.074  63.604  1.00  0.00     0.000 C 
BRANCH  18  19
ATOM     19  C   UNL     1      -4.136 102.786  62.814  1.00  0.00    -0.003 C 
ATOM     20  C   UNL     1      -3.352 101.753  63.626  1.00  0.00     0.004 C 
ENDBRANCH  18  19
ENDBRANCH  17  18
ENDBRANCH  16  17
ENDBRANCH  15  16
ENDBRANCH  13  14
ENDBRANCH  12  13
ENDBRANCH   1  11
TORSDOF 14
ENDMDL
MODEL 9
REMARK VINA RESULT:    11.422      1.237      2.154
REMARK INTER + INTRA:          19.624
REMARK INTER:                  20.618
REMARK INTRA:                  -0.994
REMARK UNBOUND:                -1.147
REMARK SMILES CCCCCC=CCC=CCCCCCCCC(=O)[O-]
REMARK SMILES IDX 11 1 12 2 13 3 14 4 15 5 16 6 17 7 18 8 19 9 20 10 10 11
REMARK SMILES IDX 9 12 8 13 7 14 6 15 5 16 4 17 3 18 2 19 1 20
REMARK H PARENT
REMARK Flexibility Score: inf
ROOT
ATOM      1  C   UNL     1      -3.453 104.538  63.250  1.00  0.00     0.027 C 
ENDROOT
BRANCH   1   2
ATOM      2  C   UNL     1      -4.585 103.575  62.875  1.00  0.00     0.004 C 
BRANCH   2   3
ATOM      3  C   UNL     1      -4.024 102.196  62.498  1.00  0.00     0.000 C 
BRANCH   3   4
ATOM      4  C   UNL     1      -2.871 101.751  63.414  1.00  0.00     0.000 C 
BRANCH   4   5
ATOM      5  C   UNL     1      -1.577 101.468  62.633  1.00  0.00     0.000 C 
BRANCH   5   6
ATOM      6  C   UNL     1      -0.344 102.125  63.277  1.00  0.00     0.006 C 
BRANCH   6   7
ATOM      7  C   UNL     1       0.392 103.069  62.316  1.00  0.00     0.053 C 
BRANCH   7   8
ATOM      8  C   UNL     1       1.456 102.326  61.573  1.00  0.00     0.041 C 
ATOM      9  O   UNL     1       2.668 102.614  61.752  1.00  0.00    -0.550 OA
ATOM     10  O   UNL     1       1.104 101.373  60.623  1.00  0.00    -0.550 OA
ENDBRANCH   7   8
ENDBRANCH   6   7
ENDBRANCH   5   6
ENDBRANCH   4   5
ENDBRANCH   3   4
ENDBRANCH   2   3
ENDBRANCH   1   2
BRANCH   1  11
ATOM     11  C   UNL     1      -3.967 105.945  63.400  1.00  0.00    -0.031 C 
ATOM     12  C   UNL     1      -3.883 106.604  64.568  1.00  0.00    -0.027 C 
BRANCH  12  13
ATOM     13  C   UNL     1      -4.378 108.019  64.699  1.00  0.00     0.054 C 
BRANCH  13  14
ATOM     14  C   UNL     1      -4.346 108.463  66.141  1.00  0.00    -0.027 C 
ATOM     15  C   UNL     1      -5.430 108.888  66.815  1.00  0.00    -0.031 C 
BRANCH  15  16
ATOM     16  C   UNL     1      -6.835 108.864  66.267  1.00  0.00     0.027 C 
BRANCH  16  17
ATOM     17  C   UNL     1      -7.525 107.540  66.618  1.00  0.00     0.004 C 
BRANCH  17  18
ATOM     18  C   UNL     1      -6.569 106.599  67.369  1.00  0.00     0.000 C 
BRANCH  18  19
ATOM     19  C   UNL     1      -6.659 105.147  66.871  1.00  0.00    -0.003 C 
ATOM     20  C   UNL     1      -7.560 104.274  67.747  1.00  0.00     0.004 C 
ENDBRANCH  18  19
ENDBRANCH  17  18
ENDBRANCH  16  17
ENDBRANCH  15  16
ENDBRANCH  13  14
ENDBRANCH  12  13
ENDBRANCH   1  11
TORSDOF 14
ENDMDL
