MODEL 1
REMARK VINA RESULT:    -2.415      0.000      0.000
REMARK INTER + INTRA:          -2.415
REMARK INTER:                  -2.415
REMARK INTRA:                   0.000
REMARK UNBOUND:                 0.000
REMARK SMILES CC(=O)[O-]
REMARK SMILES IDX 1 1 2 2 3 3 4 4
REMARK H PARENT
REMARK Flexibility Score: inf
ROOT
ATOM      1  C   UNL     1     -11.659  -7.875 -10.687  1.00  0.00     0.063 C 
ATOM      2  C   UNL     1     -10.707  -9.022 -10.629  1.00  0.00     0.038 C 
ATOM      3  O   UNL     1      -9.513  -8.871 -10.998  1.00  0.00    -0.550 OA
ATOM      4  O   UNL     1     -11.121 -10.244 -10.118  1.00  0.00    -0.550 OA
ENDROOT
TORSDOF 0
ENDMDL
MODEL 2
REMARK VINA RESULT:    -2.032     19.553     19.972
REMARK INTER + INTRA:          -2.032
REMARK INTER:                  -2.032
REMARK INTRA:                   0.000
REMARK UNBOUND:                 0.000
REMARK SMILES CC(=O)[O-]
REMARK SMILES IDX 1 1 2 2 3 3 4 4
REMARK H PARENT
REMARK Flexibility Score: inf
ROOT
ATOM      1  C   UNL     1     -21.714 -20.765  -1.350  1.00  0.00     0.063 C 
ATOM      2  C   UNL     1     -22.117 -21.834  -0.391  1.00  0.00     0.038 C 
ATOM      3  O   UNL     1     -22.619 -22.907  -0.816  1.00  0.00    -0.550 OA
ATOM      4  O   UNL     1     -21.891 -21.670   0.969  1.00  0.00    -0.550 OA
ENDROOT
TORSDOF 0
ENDMDL
MODEL 3
REMARK VINA RESULT:    -2.017     19.456     19.894
REMARK INTER + INTRA:          -2.017
REMARK INTER:                  -2.017
REMARK INTRA:                   0.000
REMARK UNBOUND:                 0.000
REMARK SMILES CC(=O)[O-]
REMARK SMILES IDX 1 1 2 2 3 3 4 4
REMARK H PARENT
REMARK Flexibility Score: inf
ROOT
ATOM      1  C   UNL     1     -21.687 -20.687  -1.352  1.00  0.00     0.063 C 
ATOM      2  C   UNL     1     -22.062 -21.749  -0.374  1.00  0.00     0.038 C 
ATOM      3  O   UNL     1     -21.894 -21.561   0.859  1.00  0.00    -0.550 OA
ATOM      4  O   UNL     1     -22.648 -22.927  -0.818  1.00  0.00    -0.550 OA
ENDROOT
TORSDOF 0
ENDMDL
MODEL 4
REMARK VINA RESULT:    -1.991     17.945     18.531
REMARK INTER + INTRA:          -1.991
REMARK INTER:                  -1.991
REMARK INTRA:                   0.000
REMARK UNBOUND:                 0.000
REMARK SMILES CC(=O)[O-]
REMARK SMILES IDX 1 1 2 2 3 3 4 4
REMARK H PARENT
REMARK Flexibility Score: inf
ROOT
ATOM      1  C   UNL     1     -16.517 -19.955   1.784  1.00  0.00     0.063 C 
ATOM      2  C   UNL     1     -16.017 -20.200   3.168  1.00  0.00     0.038 C 
ATOM      3  O   UNL     1     -14.793 -20.068   3.429  1.00  0.00    -0.550 OA
ATOM      4  O   UNL     1     -16.908 -20.520   4.183  1.00  0.00    -0.550 OA
ENDROOT
TORSDOF 0
ENDMDL
MODEL 5
REMARK VINA RESULT:    -1.920     17.808     18.368
REMARK INTER + INTRA:          -1.920
REMARK INTER:                  -1.920
REMARK INTRA:                   0.000
REMARK UNBOUND:                 0.000
REMARK SMILES CC(=O)[O-]
REMARK SMILES IDX 1 1 2 2 3 3 4 4
REMARK H PARENT
REMARK Flexibility Score: inf
ROOT
ATOM      1  C   UNL     1     -17.402 -20.658   3.489  1.00  0.00     0.063 C 
ATOM      2  C   UNL     1     -16.205 -20.253   2.697  1.00  0.00     0.038 C 
ATOM      3  O   UNL     1     -16.318 -19.983   1.473  1.00  0.00    -0.550 OA
ATOM      4  O   UNL     1     -14.971 -20.120   3.320  1.00  0.00    -0.550 OA
ENDROOT
TORSDOF 0
ENDMDL
MODEL 6
REMARK VINA RESULT:    -1.892     11.590     11.740
REMARK INTER + INTRA:          -1.892
REMARK INTER:                  -1.892
REMARK INTRA:                   0.000
REMARK UNBOUND:                 0.000
REMARK SMILES CC(=O)[O-]
REMARK SMILES IDX 1 1 2 2 3 3 4 4
REMARK H PARENT
REMARK Flexibility Score: inf
ROOT
ATOM      1  C   UNL     1     -17.032 -14.755  -2.590  1.00  0.00     0.063 C 
ATOM      2  C   UNL     1     -18.070 -13.838  -3.144  1.00  0.00     0.038 C 
ATOM      3  O   UNL     1     -18.860 -14.245  -4.036  1.00  0.00    -0.550 OA
ATOM      4  O   UNL     1     -18.203 -12.552  -2.640  1.00  0.00    -0.550 OA
ENDROOT
TORSDOF 0
ENDMDL
MODEL 7
REMARK VINA RESULT:    -1.858     17.407     17.829
REMARK INTER + INTRA:          -1.858
REMARK INTER:                  -1.858
REMARK INTRA:                   0.000
REMARK UNBOUND:                 0.000
REMARK SMILES CC(=O)[O-]
REMARK SMILES IDX 1 1 2 2 3 3 4 4
REMARK H PARENT
REMARK Flexibility Score: inf
ROOT
ATOM      1  C   UNL     1      -8.642 -16.091   5.080  1.00  0.00     0.063 C 
ATOM      2  C   UNL     1      -7.755 -17.274   4.882  1.00  0.00     0.038 C 
ATOM      3  O   UNL     1      -6.743 -17.187   4.139  1.00  0.00    -0.550 OA
ATOM      4  O   UNL     1      -8.013 -18.458   5.559  1.00  0.00    -0.550 OA
ENDROOT
TORSDOF 0
ENDMDL
MODEL 8
REMARK VINA RESULT:    -1.793     11.372     11.463
REMARK INTER + INTRA:          -1.793
REMARK INTER:                  -1.793
REMARK INTRA:                   0.000
REMARK UNBOUND:                 0.000
REMARK SMILES CC(=O)[O-]
REMARK SMILES IDX 1 1 2 2 3 3 4 4
REMARK H PARENT
REMARK Flexibility Score: inf
ROOT
ATOM      1  C   UNL     1     -17.283 -12.661  -2.521  1.00  0.00     0.063 C 
ATOM      2  C   UNL     1     -17.626 -14.013  -3.048  1.00  0.00     0.038 C 
ATOM      3  O   UNL     1     -16.952 -15.017  -2.699  1.00  0.00    -0.550 OA
ATOM      4  O   UNL     1     -18.724 -14.177  -3.882  1.00  0.00    -0.550 OA
ENDROOT
TORSDOF 0
ENDMDL
MODEL 9
REMARK VINA RESULT:    -1.785     19.385     20.021
REMARK INTER + INTRA:          -1.785
REMARK INTER:                  -1.785
REMARK INTRA:                   0.000
REMARK UNBOUND:                 0.000
REMARK SMILES CC(=O)[O-]
REMARK SMILES IDX 1 1 2 2 3 3 4 4
REMARK H PARENT
REMARK Flexibility Score: inf
ROOT
ATOM      1  C   UNL     1     -22.170 -25.926  -7.305  1.00  0.00     0.063 C 
ATOM      2  C   UNL     1     -22.714 -24.537  -7.268  1.00  0.00     0.038 C 
ATOM      3  O   UNL     1     -23.512 -24.195  -6.357  1.00  0.00    -0.550 OA
ATOM      4  O   UNL     1     -22.300 -23.603  -8.208  1.00  0.00    -0.550 OA
ENDROOT
TORSDOF 0
ENDMDL
