MODEL 1
REMARK VINA RESULT:    -4.732      0.000      0.000
REMARK INTER + INTRA:         -10.437
REMARK INTER:                  -8.881
REMARK INTRA:                  -1.556
REMARK UNBOUND:                -1.556
REMARK SMILES CCCCCCCCC=CCCCCCCCC(=O)[O-]
REMARK SMILES IDX 10 1 9 2 11 3 12 4 13 5 14 6 15 7 16 8 17 9 18 10 19 11
REMARK SMILES IDX 20 12 8 13 7 14 6 15 5 16 4 17 3 18 2 19 1 20
REMARK H PARENT
REMARK Flexibility Score: inf
ROOT
ATOM      1  C   UNL     1    -141.890  57.654   4.263  1.00  0.00    -0.031 C 
ATOM      2  C   UNL     1    -141.429  58.915   4.369  1.00  0.00    -0.031 C 
ENDROOT
BRANCH   1   3
ATOM      3  C   UNL     1    -141.058  56.467   3.847  1.00  0.00     0.027 C 
BRANCH   3   4
ATOM      4  C   UNL     1    -141.456  55.977   2.446  1.00  0.00     0.004 C 
BRANCH   4   5
ATOM      5  C   UNL     1    -141.118  56.996   1.346  1.00  0.00     0.000 C 
BRANCH   5   6
ATOM      6  C   UNL     1    -142.208  57.078   0.264  1.00  0.00     0.000 C 
BRANCH   6   7
ATOM      7  C   UNL     1    -143.562  56.532   0.746  1.00  0.00     0.000 C 
BRANCH   7   8
ATOM      8  C   UNL     1    -144.752  57.380   0.263  1.00  0.00     0.006 C 
BRANCH   8   9
ATOM      9  C   UNL     1    -144.302  58.574  -0.589  1.00  0.00     0.053 C 
BRANCH   9  10
ATOM     10  C   UNL     1    -144.577  58.354  -2.045  1.00  0.00     0.041 C 
ATOM     11  O   UNL     1    -144.006  59.065  -2.913  1.00  0.00    -0.550 OA
ATOM     12  O   UNL     1    -145.445  57.345  -2.443  1.00  0.00    -0.550 OA
ENDBRANCH   9  10
ENDBRANCH   8   9
ENDBRANCH   7   8
ENDBRANCH   6   7
ENDBRANCH   5   6
ENDBRANCH   4   5
ENDBRANCH   3   4
ENDBRANCH   1   3
BRANCH   2  13
ATOM     13  C   UNL     1    -139.998  59.339   4.133  1.00  0.00     0.027 C 
BRANCH  13  14
ATOM     14  C   UNL     1    -139.244  59.531   5.456  1.00  0.00     0.004 C 
BRANCH  14  15
ATOM     15  C   UNL     1    -140.039  60.389   6.453  1.00  0.00     0.000 C 
BRANCH  15  16
ATOM     16  C   UNL     1    -139.383  61.756   6.706  1.00  0.00     0.000 C 
BRANCH  16  17
ATOM     17  C   UNL     1    -140.391  62.820   7.171  1.00  0.00    -0.000 C 
BRANCH  17  18
ATOM     18  C   UNL     1    -141.833  62.508   6.732  1.00  0.00    -0.000 C 
BRANCH  18  19
ATOM     19  C   UNL     1    -142.395  63.445   5.648  1.00  0.00    -0.003 C 
ATOM     20  C   UNL     1    -141.589  63.408   4.350  1.00  0.00     0.004 C 
ENDBRANCH  18  19
ENDBRANCH  17  18
ENDBRANCH  16  17
ENDBRANCH  15  16
ENDBRANCH  14  15
ENDBRANCH  13  14
ENDBRANCH   2  13
TORSDOF 15
ENDMDL
MODEL 2
REMARK VINA RESULT:    -4.717      3.391      7.716
REMARK INTER + INTRA:         -10.409
REMARK INTER:                  -9.140
REMARK INTRA:                  -1.269
REMARK UNBOUND:                -1.556
REMARK SMILES CCCCCCCCC=CCCCCCCCC(=O)[O-]
REMARK SMILES IDX 10 1 9 2 11 3 12 4 13 5 14 6 15 7 16 8 17 9 18 10 19 11
REMARK SMILES IDX 20 12 8 13 7 14 6 15 5 16 4 17 3 18 2 19 1 20
REMARK H PARENT
REMARK Flexibility Score: inf
ROOT
ATOM      1  C   UNL     1    -141.347  58.991   4.530  1.00  0.00    -0.031 C 
ATOM      2  C   UNL     1    -142.072  57.890   4.256  1.00  0.00    -0.031 C 
ENDROOT
BRANCH   1   3
ATOM      3  C   UNL     1    -139.850  59.013   4.707  1.00  0.00     0.027 C 
BRANCH   3   4
ATOM      4  C   UNL     1    -139.433  60.042   5.768  1.00  0.00     0.004 C 
BRANCH   4   5
ATOM      5  C   UNL     1    -140.638  60.656   6.500  1.00  0.00     0.000 C 
BRANCH   5   6
ATOM      6  C   UNL     1    -140.565  62.190   6.572  1.00  0.00     0.000 C 
BRANCH   6   7
ATOM      7  C   UNL     1    -139.963  62.814   5.301  1.00  0.00     0.000 C 
BRANCH   7   8
ATOM      8  C   UNL     1    -141.022  63.491   4.413  1.00  0.00     0.006 C 
BRANCH   8   9
ATOM      9  C   UNL     1    -142.421  63.442   5.042  1.00  0.00     0.053 C 
BRANCH   9  10
ATOM     10  C   UNL     1    -143.038  64.804   5.132  1.00  0.00     0.041 C 
ATOM     11  O   UNL     1    -143.256  65.472   4.088  1.00  0.00    -0.550 OA
ATOM     12  O   UNL     1    -143.400  65.322   6.369  1.00  0.00    -0.550 OA
ENDBRANCH   9  10
ENDBRANCH   8   9
ENDBRANCH   7   8
ENDBRANCH   6   7
ENDBRANCH   5   6
ENDBRANCH   4   5
ENDBRANCH   3   4
ENDBRANCH   1   3
BRANCH   2  13
ATOM     13  C   UNL     1    -141.502  56.508   4.037  1.00  0.00     0.027 C 
BRANCH  13  14
ATOM     14  C   UNL     1    -141.423  56.164   2.543  1.00  0.00     0.004 C 
BRANCH  14  15
ATOM     15  C   UNL     1    -142.285  57.107   1.688  1.00  0.00     0.000 C 
BRANCH  15  16
ATOM     16  C   UNL     1    -143.381  56.359   0.911  1.00  0.00     0.000 C 
BRANCH  16  17
ATOM     17  C   UNL     1    -144.532  57.281   0.476  1.00  0.00    -0.000 C 
BRANCH  17  18
ATOM     18  C   UNL     1    -145.145  56.872  -0.875  1.00  0.00    -0.000 C 
BRANCH  18  19
ATOM     19  C   UNL     1    -144.684  57.718  -2.076  1.00  0.00    -0.003 C 
ATOM     20  C   UNL     1    -144.428  59.181  -1.713  1.00  0.00     0.004 C 
ENDBRANCH  18  19
ENDBRANCH  17  18
ENDBRANCH  16  17
ENDBRANCH  15  16
ENDBRANCH  14  15
ENDBRANCH  13  14
ENDBRANCH   2  13
TORSDOF 15
ENDMDL
MODEL 3
REMARK VINA RESULT:    -4.586      1.575      2.405
REMARK INTER + INTRA:         -10.163
REMARK INTER:                  -9.059
REMARK INTRA:                  -1.104
REMARK UNBOUND:                -1.556
REMARK SMILES CCCCCCCCC=CCCCCCCCC(=O)[O-]
REMARK SMILES IDX 10 1 9 2 11 3 12 4 13 5 14 6 15 7 16 8 17 9 18 10 19 11
REMARK SMILES IDX 20 12 8 13 7 14 6 15 5 16 4 17 3 18 2 19 1 20
REMARK H PARENT
REMARK Flexibility Score: inf
ROOT
ATOM      1  C   UNL     1    -142.433  57.331   2.921  1.00  0.00    -0.031 C 
ATOM      2  C   UNL     1    -141.759  57.968   3.897  1.00  0.00    -0.031 C 
ENDROOT
BRANCH   1   3
ATOM      3  C   UNL     1    -141.817  56.360   1.944  1.00  0.00     0.027 C 
BRANCH   3   4
ATOM      4  C   UNL     1    -142.816  55.976   0.843  1.00  0.00     0.004 C 
BRANCH   4   5
ATOM      5  C   UNL     1    -144.041  56.905   0.806  1.00  0.00     0.000 C 
BRANCH   5   6
ATOM      6  C   UNL     1    -144.216  57.596  -0.556  1.00  0.00     0.000 C 
BRANCH   6   7
ATOM      7  C   UNL     1    -142.947  58.337  -1.011  1.00  0.00     0.000 C 
BRANCH   7   8
ATOM      8  C   UNL     1    -143.257  59.568  -1.879  1.00  0.00     0.006 C 
BRANCH   8   9
ATOM      9  C   UNL     1    -144.636  60.163  -1.569  1.00  0.00     0.053 C 
BRANCH   9  10
ATOM     10  C   UNL     1    -145.118  61.058  -2.668  1.00  0.00     0.041 C 
ATOM     11  O   UNL     1    -146.060  60.690  -3.419  1.00  0.00    -0.550 OA
ATOM     12  O   UNL     1    -144.545  62.310  -2.846  1.00  0.00    -0.550 OA
ENDBRANCH   9  10
ENDBRANCH   8   9
ENDBRANCH   7   8
ENDBRANCH   6   7
ENDBRANCH   5   6
ENDBRANCH   4   5
ENDBRANCH   3   4
ENDBRANCH   1   3
BRANCH   2  13
ATOM     13  C   UNL     1    -140.291  57.781   4.203  1.00  0.00     0.027 C 
BRANCH  13  14
ATOM     14  C   UNL     1    -139.578  59.130   4.374  1.00  0.00     0.004 C 
BRANCH  14  15
ATOM     15  C   UNL     1    -140.562  60.265   4.703  1.00  0.00     0.000 C 
BRANCH  15  16
ATOM     16  C   UNL     1    -140.597  60.595   6.204  1.00  0.00     0.000 C 
BRANCH  16  17
ATOM     17  C   UNL     1    -139.390  61.434   6.655  1.00  0.00    -0.000 C 
BRANCH  17  18
ATOM     18  C   UNL     1    -139.797  62.794   7.248  1.00  0.00    -0.000 C 
BRANCH  18  19
ATOM     19  C   UNL     1    -141.206  63.274   6.855  1.00  0.00    -0.003 C 
ATOM     20  C   UNL     1    -141.238  64.739   6.419  1.00  0.00     0.004 C 
ENDBRANCH  18  19
ENDBRANCH  17  18
ENDBRANCH  16  17
ENDBRANCH  15  16
ENDBRANCH  14  15
ENDBRANCH  13  14
ENDBRANCH   2  13
TORSDOF 15
ENDMDL
MODEL 4
REMARK VINA RESULT:    -4.573      1.090      2.518
REMARK INTER + INTRA:         -10.139
REMARK INTER:                  -8.798
REMARK INTRA:                  -1.341
REMARK UNBOUND:                -1.556
REMARK SMILES CCCCCCCCC=CCCCCCCCC(=O)[O-]
REMARK SMILES IDX 10 1 9 2 11 3 12 4 13 5 14 6 15 7 16 8 17 9 18 10 19 11
REMARK SMILES IDX 20 12 8 13 7 14 6 15 5 16 4 17 3 18 2 19 1 20
REMARK H PARENT
REMARK Flexibility Score: inf
ROOT
ATOM      1  C   UNL     1    -140.027  59.046   4.344  1.00  0.00    -0.031 C 
ATOM      2  C   UNL     1    -139.312  59.649   5.312  1.00  0.00    -0.031 C 
ENDROOT
BRANCH   1   3
ATOM      3  C   UNL     1    -141.533  58.974   4.306  1.00  0.00     0.027 C 
BRANCH   3   4
ATOM      4  C   UNL     1    -142.017  57.516   4.304  1.00  0.00     0.004 C 
BRANCH   4   5
ATOM      5  C   UNL     1    -140.931  56.534   3.834  1.00  0.00     0.000 C 
BRANCH   5   6
ATOM      6  C   UNL     1    -141.389  55.672   2.646  1.00  0.00     0.000 C 
BRANCH   6   7
ATOM      7  C   UNL     1    -141.821  56.517   1.435  1.00  0.00     0.000 C 
BRANCH   7   8
ATOM      8  C   UNL     1    -143.240  56.175   0.949  1.00  0.00     0.006 C 
BRANCH   8   9
ATOM      9  C   UNL     1    -143.324  56.100  -0.581  1.00  0.00     0.053 C 
BRANCH   9  10
ATOM     10  C   UNL     1    -144.106  57.242  -1.153  1.00  0.00     0.041 C 
ATOM     11  O   UNL     1    -145.261  57.051  -1.616  1.00  0.00    -0.550 OA
ATOM     12  O   UNL     1    -143.569  58.522  -1.149  1.00  0.00    -0.550 OA
ENDBRANCH   9  10
ENDBRANCH   8   9
ENDBRANCH   7   8
ENDBRANCH   6   7
ENDBRANCH   5   6
ENDBRANCH   4   5
ENDBRANCH   3   4
ENDBRANCH   1   3
BRANCH   2  13
ATOM     13  C   UNL     1    -139.899  60.389   6.492  1.00  0.00     0.027 C 
BRANCH  13  14
ATOM     14  C   UNL     1    -139.347  61.818   6.589  1.00  0.00     0.004 C 
BRANCH  14  15
ATOM     15  C   UNL     1    -140.401  62.809   7.108  1.00  0.00     0.000 C 
BRANCH  15  16
ATOM     16  C   UNL     1    -141.817  62.477   6.612  1.00  0.00     0.000 C 
BRANCH  16  17
ATOM     17  C   UNL     1    -142.039  62.878   5.144  1.00  0.00    -0.000 C 
BRANCH  17  18
ATOM     18  C   UNL     1    -142.170  64.399   4.954  1.00  0.00    -0.000 C 
BRANCH  18  19
ATOM     19  C   UNL     1    -142.981  65.119   6.048  1.00  0.00    -0.003 C 
ATOM     20  C   UNL     1    -144.368  65.552   5.574  1.00  0.00     0.004 C 
ENDBRANCH  18  19
ENDBRANCH  17  18
ENDBRANCH  16  17
ENDBRANCH  15  16
ENDBRANCH  14  15
ENDBRANCH  13  14
ENDBRANCH   2  13
TORSDOF 15
ENDMDL
MODEL 5
REMARK VINA RESULT:    -4.529      1.432      2.385
REMARK INTER + INTRA:         -10.056
REMARK INTER:                  -8.186
REMARK INTRA:                  -1.870
REMARK UNBOUND:                -1.556
REMARK SMILES CCCCCCCCC=CCCCCCCCC(=O)[O-]
REMARK SMILES IDX 10 1 9 2 11 3 12 4 13 5 14 6 15 7 16 8 17 9 18 10 19 11
REMARK SMILES IDX 20 12 8 13 7 14 6 15 5 16 4 17 3 18 2 19 1 20
REMARK H PARENT
REMARK Flexibility Score: inf
ROOT
ATOM      1  C   UNL     1    -141.070  59.530   4.477  1.00  0.00    -0.031 C 
ATOM      2  C   UNL     1    -140.811  60.694   5.103  1.00  0.00    -0.031 C 
ENDROOT
BRANCH   1   3
ATOM      3  C   UNL     1    -140.249  58.274   4.626  1.00  0.00     0.027 C 
BRANCH   3   4
ATOM      4  C   UNL     1    -140.492  57.313   3.452  1.00  0.00     0.004 C 
BRANCH   4   5
ATOM      5  C   UNL     1    -140.235  57.971   2.087  1.00  0.00     0.000 C 
BRANCH   5   6
ATOM      6  C   UNL     1    -141.288  57.582   1.037  1.00  0.00     0.000 C 
BRANCH   6   7
ATOM      7  C   UNL     1    -142.671  57.320   1.656  1.00  0.00     0.000 C 
BRANCH   7   8
ATOM      8  C   UNL     1    -143.596  56.514   0.727  1.00  0.00     0.006 C 
BRANCH   8   9
ATOM      9  C   UNL     1    -144.782  57.348   0.226  1.00  0.00     0.053 C 
BRANCH   9  10
ATOM     10  C   UNL     1    -144.487  58.004  -1.088  1.00  0.00     0.041 C 
ATOM     11  O   UNL     1    -144.284  57.304  -2.114  1.00  0.00    -0.550 OA
ATOM     12  O   UNL     1    -144.466  59.389  -1.183  1.00  0.00    -0.550 OA
ENDBRANCH   9  10
ENDBRANCH   8   9
ENDBRANCH   7   8
ENDBRANCH   6   7
ENDBRANCH   5   6
ENDBRANCH   4   5
ENDBRANCH   3   4
ENDBRANCH   1   3
BRANCH   2  13
ATOM     13  C   UNL     1    -139.687  60.919   6.088  1.00  0.00     0.027 C 
BRANCH  13  14
ATOM     14  C   UNL     1    -139.931  62.172   6.939  1.00  0.00     0.004 C 
BRANCH  14  15
ATOM     15  C   UNL     1    -141.337  62.754   6.721  1.00  0.00     0.000 C 
BRANCH  15  16
ATOM     16  C   UNL     1    -141.328  64.287   6.606  1.00  0.00     0.000 C 
BRANCH  16  17
ATOM     17  C   UNL     1    -140.418  64.790   5.474  1.00  0.00    -0.000 C 
BRANCH  17  18
ATOM     18  C   UNL     1    -140.887  64.330   4.082  1.00  0.00    -0.000 C 
BRANCH  18  19
ATOM     19  C   UNL     1    -139.801  63.656   3.225  1.00  0.00    -0.003 C 
ATOM     20  C   UNL     1    -138.414  63.710   3.867  1.00  0.00     0.004 C 
ENDBRANCH  18  19
ENDBRANCH  17  18
ENDBRANCH  16  17
ENDBRANCH  15  16
ENDBRANCH  14  15
ENDBRANCH  13  14
ENDBRANCH   2  13
TORSDOF 15
ENDMDL
MODEL 6
REMARK VINA RESULT:    -4.504      3.417      7.933
REMARK INTER + INTRA:         -10.010
REMARK INTER:                  -8.698
REMARK INTRA:                  -1.312
REMARK UNBOUND:                -1.556
REMARK SMILES CCCCCCCCC=CCCCCCCCC(=O)[O-]
REMARK SMILES IDX 10 1 9 2 11 3 12 4 13 5 14 6 15 7 16 8 17 9 18 10 19 11
REMARK SMILES IDX 20 12 8 13 7 14 6 15 5 16 4 17 3 18 2 19 1 20
REMARK H PARENT
REMARK Flexibility Score: inf
ROOT
ATOM      1  C   UNL     1    -140.788  58.060   2.540  1.00  0.00    -0.031 C 
ATOM      2  C   UNL     1    -141.109  57.136   1.614  1.00  0.00    -0.031 C 
ENDROOT
BRANCH   1   3
ATOM      3  C   UNL     1    -141.268  58.046   3.970  1.00  0.00     0.027 C 
BRANCH   3   4
ATOM      4  C   UNL     1    -141.101  59.427   4.622  1.00  0.00     0.004 C 
BRANCH   4   5
ATOM      5  C   UNL     1    -139.951  60.237   4.002  1.00  0.00     0.000 C 
BRANCH   5   6
ATOM      6  C   UNL     1    -139.047  60.885   5.065  1.00  0.00     0.000 C 
BRANCH   6   7
ATOM      7  C   UNL     1    -139.721  60.965   6.445  1.00  0.00     0.000 C 
BRANCH   7   8
ATOM      8  C   UNL     1    -139.714  62.389   7.028  1.00  0.00     0.006 C 
BRANCH   8   9
ATOM      9  C   UNL     1    -140.016  63.451   5.963  1.00  0.00     0.053 C 
BRANCH   9  10
ATOM     10  C   UNL     1    -141.477  63.772   5.893  1.00  0.00     0.041 C 
ATOM     11  O   UNL     1    -141.935  64.776   6.499  1.00  0.00    -0.550 OA
ATOM     12  O   UNL     1    -142.327  62.977   5.136  1.00  0.00    -0.550 OA
ENDBRANCH   9  10
ENDBRANCH   8   9
ENDBRANCH   7   8
ENDBRANCH   6   7
ENDBRANCH   5   6
ENDBRANCH   4   5
ENDBRANCH   3   4
ENDBRANCH   1   3
BRANCH   2  13
ATOM     13  C   UNL     1    -141.963  55.915   1.866  1.00  0.00     0.027 C 
BRANCH  13  14
ATOM     14  C   UNL     1    -143.138  55.840   0.882  1.00  0.00     0.004 C 
BRANCH  14  15
ATOM     15  C   UNL     1    -143.866  57.187   0.749  1.00  0.00     0.000 C 
BRANCH  15  16
ATOM     16  C   UNL     1    -145.028  57.131  -0.257  1.00  0.00     0.000 C 
BRANCH  16  17
ATOM     17  C   UNL     1    -144.684  57.800  -1.598  1.00  0.00    -0.000 C 
BRANCH  17  18
ATOM     18  C   UNL     1    -143.571  58.855  -1.470  1.00  0.00    -0.000 C 
BRANCH  18  19
ATOM     19  C   UNL     1    -143.932  60.245  -2.025  1.00  0.00    -0.003 C 
ATOM     20  C   UNL     1    -143.994  60.280  -3.552  1.00  0.00     0.004 C 
ENDBRANCH  18  19
ENDBRANCH  17  18
ENDBRANCH  16  17
ENDBRANCH  15  16
ENDBRANCH  14  15
ENDBRANCH  13  14
ENDBRANCH   2  13
TORSDOF 15
ENDMDL
MODEL 7
REMARK VINA RESULT:    -4.493      3.652      7.997
REMARK INTER + INTRA:          -9.989
REMARK INTER:                  -8.403
REMARK INTRA:                  -1.586
REMARK UNBOUND:                -1.556
REMARK SMILES CCCCCCCCC=CCCCCCCCC(=O)[O-]
REMARK SMILES IDX 10 1 9 2 11 3 12 4 13 5 14 6 15 7 16 8 17 9 18 10 19 11
REMARK SMILES IDX 20 12 8 13 7 14 6 15 5 16 4 17 3 18 2 19 1 20
REMARK H PARENT
REMARK Flexibility Score: inf
ROOT
ATOM      1  C   UNL     1    -142.443  56.535   1.877  1.00  0.00    -0.031 C 
ATOM      2  C   UNL     1    -143.242  56.352   0.809  1.00  0.00    -0.031 C 
ENDROOT
BRANCH   1   3
ATOM      3  C   UNL     1    -142.565  57.676   2.856  1.00  0.00     0.027 C 
BRANCH   3   4
ATOM      4  C   UNL     1    -141.796  57.376   4.152  1.00  0.00     0.004 C 
BRANCH   4   5
ATOM      5  C   UNL     1    -140.455  58.124   4.229  1.00  0.00     0.000 C 
BRANCH   5   6
ATOM      6  C   UNL     1    -140.634  59.642   4.392  1.00  0.00     0.000 C 
BRANCH   6   7
ATOM      7  C   UNL     1    -140.028  60.171   5.703  1.00  0.00     0.000 C 
BRANCH   7   8
ATOM      8  C   UNL     1    -140.899  61.253   6.366  1.00  0.00     0.006 C 
BRANCH   8   9
ATOM      9  C   UNL     1    -141.521  62.205   5.336  1.00  0.00     0.053 C 
BRANCH   9  10
ATOM     10  C   UNL     1    -142.210  63.362   5.992  1.00  0.00     0.041 C 
ATOM     11  O   UNL     1    -143.466  63.442   5.979  1.00  0.00    -0.550 OA
ATOM     12  O   UNL     1    -141.464  64.337   6.642  1.00  0.00    -0.550 OA
ENDBRANCH   9  10
ENDBRANCH   8   9
ENDBRANCH   7   8
ENDBRANCH   6   7
ENDBRANCH   5   6
ENDBRANCH   4   5
ENDBRANCH   3   4
ENDBRANCH   1   3
BRANCH   2  13
ATOM     13  C   UNL     1    -144.415  57.232   0.441  1.00  0.00     0.027 C 
BRANCH  13  14
ATOM     14  C   UNL     1    -145.019  56.824  -0.909  1.00  0.00     0.004 C 
BRANCH  14  15
ATOM     15  C   UNL     1    -144.994  57.978  -1.925  1.00  0.00     0.000 C 
BRANCH  15  16
ATOM     16  C   UNL     1    -144.434  59.277  -1.324  1.00  0.00     0.000 C 
BRANCH  16  17
ATOM     17  C   UNL     1    -143.144  59.744  -2.021  1.00  0.00    -0.000 C 
BRANCH  17  18
ATOM     18  C   UNL     1    -141.900  58.966  -1.556  1.00  0.00    -0.000 C 
BRANCH  18  19
ATOM     19  C   UNL     1    -141.284  58.039  -2.620  1.00  0.00    -0.003 C 
ATOM     20  C   UNL     1    -141.590  56.561  -2.373  1.00  0.00     0.004 C 
ENDBRANCH  18  19
ENDBRANCH  17  18
ENDBRANCH  16  17
ENDBRANCH  15  16
ENDBRANCH  14  15
ENDBRANCH  13  14
ENDBRANCH   2  13
TORSDOF 15
ENDMDL
MODEL 8
REMARK VINA RESULT:    -4.478      1.353      2.619
REMARK INTER + INTRA:          -9.960
REMARK INTER:                  -8.097
REMARK INTRA:                  -1.863
REMARK UNBOUND:                -1.556
REMARK SMILES CCCCCCCCC=CCCCCCCCC(=O)[O-]
REMARK SMILES IDX 10 1 9 2 11 3 12 4 13 5 14 6 15 7 16 8 17 9 18 10 19 11
REMARK SMILES IDX 20 12 8 13 7 14 6 15 5 16 4 17 3 18 2 19 1 20
REMARK H PARENT
REMARK Flexibility Score: inf
ROOT
ATOM      1  C   UNL     1    -140.021  58.966   5.124  1.00  0.00    -0.031 C 
ATOM      2  C   UNL     1    -138.863  59.544   4.755  1.00  0.00    -0.031 C 
ENDROOT
BRANCH   1   3
ATOM      3  C   UNL     1    -141.315  59.066   4.356  1.00  0.00     0.027 C 
BRANCH   3   4
ATOM      4  C   UNL     1    -142.053  57.720   4.340  1.00  0.00     0.004 C 
BRANCH   4   5
ATOM      5  C   UNL     1    -141.105  56.528   4.126  1.00  0.00     0.000 C 
BRANCH   5   6
ATOM      6  C   UNL     1    -141.338  55.824   2.779  1.00  0.00     0.000 C 
BRANCH   6   7
ATOM      7  C   UNL     1    -141.941  56.761   1.719  1.00  0.00     0.000 C 
BRANCH   7   8
ATOM      8  C   UNL     1    -143.243  56.209   1.111  1.00  0.00     0.006 C 
BRANCH   8   9
ATOM      9  C   UNL     1    -143.387  56.573  -0.373  1.00  0.00     0.053 C 
BRANCH   9  10
ATOM     10  C   UNL     1    -144.672  57.291  -0.648  1.00  0.00     0.041 C 
ATOM     11  O   UNL     1    -144.707  58.549  -0.653  1.00  0.00    -0.550 OA
ATOM     12  O   UNL     1    -145.825  56.569  -0.928  1.00  0.00    -0.550 OA
ENDBRANCH   9  10
ENDBRANCH   8   9
ENDBRANCH   7   8
ENDBRANCH   6   7
ENDBRANCH   5   6
ENDBRANCH   4   5
ENDBRANCH   3   4
ENDBRANCH   1   3
BRANCH   2  13
ATOM     13  C   UNL     1    -138.657  60.348   3.491  1.00  0.00     0.027 C 
BRANCH  13  14
ATOM     14  C   UNL     1    -138.435  61.834   3.801  1.00  0.00     0.004 C 
BRANCH  14  15
ATOM     15  C   UNL     1    -139.410  62.737   3.028  1.00  0.00     0.000 C 
BRANCH  15  16
ATOM     16  C   UNL     1    -140.366  63.502   3.957  1.00  0.00     0.000 C 
BRANCH  16  17
ATOM     17  C   UNL     1    -141.372  62.577   4.663  1.00  0.00    -0.000 C 
BRANCH  17  18
ATOM     18  C   UNL     1    -141.705  63.038   6.093  1.00  0.00    -0.000 C 
BRANCH  18  19
ATOM     19  C   UNL     1    -140.481  63.403   6.954  1.00  0.00    -0.003 C 
ATOM     20  C   UNL     1    -139.601  62.197   7.282  1.00  0.00     0.004 C 
ENDBRANCH  18  19
ENDBRANCH  17  18
ENDBRANCH  16  17
ENDBRANCH  15  16
ENDBRANCH  14  15
ENDBRANCH  13  14
ENDBRANCH   2  13
TORSDOF 15
ENDMDL
MODEL 9
REMARK VINA RESULT:    -4.418      1.348      1.954
REMARK INTER + INTRA:          -9.848
REMARK INTER:                  -8.061
REMARK INTRA:                  -1.787
REMARK UNBOUND:                -1.556
REMARK SMILES CCCCCCCCC=CCCCCCCCC(=O)[O-]
REMARK SMILES IDX 10 1 9 2 11 3 12 4 13 5 14 6 15 7 16 8 17 9 18 10 19 11
REMARK SMILES IDX 20 12 8 13 7 14 6 15 5 16 4 17 3 18 2 19 1 20
REMARK H PARENT
REMARK Flexibility Score: inf
ROOT
ATOM      1  C   UNL     1    -141.765  57.300   4.264  1.00  0.00    -0.031 C 
ATOM      2  C   UNL     1    -141.279  58.552   4.161  1.00  0.00    -0.031 C 
ENDROOT
BRANCH   1   3
ATOM      3  C   UNL     1    -140.923  56.067   4.480  1.00  0.00     0.027 C 
BRANCH   3   4
ATOM      4  C   UNL     1    -140.999  55.128   3.267  1.00  0.00     0.004 C 
BRANCH   4   5
ATOM      5  C   UNL     1    -139.897  55.409   2.233  1.00  0.00     0.000 C 
BRANCH   5   6
ATOM      6  C   UNL     1    -140.465  55.798   0.858  1.00  0.00     0.000 C 
BRANCH   6   7
ATOM      7  C   UNL     1    -140.562  57.321   0.667  1.00  0.00     0.000 C 
BRANCH   7   8
ATOM      8  C   UNL     1    -141.949  57.772   0.177  1.00  0.00     0.006 C 
BRANCH   8   9
ATOM      9  C   UNL     1    -143.076  56.909   0.758  1.00  0.00     0.053 C 
BRANCH   9  10
ATOM     10  C   UNL     1    -144.218  56.763  -0.200  1.00  0.00     0.041 C 
ATOM     11  O   UNL     1    -145.368  57.163   0.118  1.00  0.00    -0.550 OA
ATOM     12  O   UNL     1    -144.004  56.211  -1.456  1.00  0.00    -0.550 OA
ENDBRANCH   9  10
ENDBRANCH   8   9
ENDBRANCH   7   8
ENDBRANCH   6   7
ENDBRANCH   5   6
ENDBRANCH   4   5
ENDBRANCH   3   4
ENDBRANCH   1   3
BRANCH   2  13
ATOM     13  C   UNL     1    -139.822  58.931   4.288  1.00  0.00     0.027 C 
BRANCH  13  14
ATOM     14  C   UNL     1    -139.529  59.579   5.648  1.00  0.00     0.004 C 
BRANCH  14  15
ATOM     15  C   UNL     1    -139.747  61.101   5.622  1.00  0.00     0.000 C 
BRANCH  15  16
ATOM     16  C   UNL     1    -140.969  61.534   6.448  1.00  0.00     0.000 C 
BRANCH  16  17
ATOM     17  C   UNL     1    -140.739  62.858   7.196  1.00  0.00    -0.000 C 
BRANCH  17  18
ATOM     18  C   UNL     1    -141.041  64.093   6.329  1.00  0.00    -0.000 C 
BRANCH  18  19
ATOM     19  C   UNL     1    -142.209  63.918   5.342  1.00  0.00    -0.003 C 
ATOM     20  C   UNL     1    -143.570  64.228   5.966  1.00  0.00     0.004 C 
ENDBRANCH  18  19
ENDBRANCH  17  18
ENDBRANCH  16  17
ENDBRANCH  15  16
ENDBRANCH  14  15
ENDBRANCH  13  14
ENDBRANCH   2  13
TORSDOF 15
ENDMDL
