MODEL 1
REMARK VINA RESULT:     7.386      0.000      0.000
REMARK INTER + INTRA:          14.966
REMARK INTER:                  16.021
REMARK INTRA:                  -1.056
REMARK UNBOUND:                -1.056
REMARK SMILES CCCCCCCCCCCCCCCCCCCCCC(=O)[O-]
REMARK SMILES IDX 12 1 11 2 10 3 9 4 8 5 7 6 6 7 5 8 4 9 3 10 2 11 1 12 13 13
REMARK SMILES IDX 14 14 15 15 16 16 17 17 18 18 19 19 20 20 21 21 22 22 23 23
REMARK SMILES IDX 24 24
REMARK H PARENT
REMARK Flexibility Score: inf
ROOT
ATOM      1  C   UNL     1       5.921   8.514  -2.134  1.00  0.00     0.000 C 
ENDROOT
BRANCH   1   2
ATOM      2  C   UNL     1       6.239   7.723  -3.421  1.00  0.00     0.000 C 
BRANCH   2   3
ATOM      3  C   UNL     1       7.527   6.890  -3.293  1.00  0.00     0.000 C 
BRANCH   3   4
ATOM      4  C   UNL     1       7.785   6.022  -4.543  1.00  0.00    -0.000 C 
BRANCH   4   5
ATOM      5  C   UNL     1       8.985   6.494  -5.381  1.00  0.00    -0.000 C 
BRANCH   5   6
ATOM      6  C   UNL     1       8.573   7.054  -6.749  1.00  0.00    -0.000 C 
BRANCH   6   7
ATOM      7  C   UNL     1       9.786   7.185  -7.679  1.00  0.00    -0.000 C 
BRANCH   7   8
ATOM      8  C   UNL     1      10.123   8.661  -7.938  1.00  0.00    -0.000 C 
BRANCH   8   9
ATOM      9  C   UNL     1       9.842   9.078  -9.399  1.00  0.00    -0.000 C 
BRANCH   9  10
ATOM     10  C   UNL     1       8.712  10.115  -9.540  1.00  0.00    -0.000 C 
BRANCH  10  11
ATOM     11  C   UNL     1       7.369   9.689  -8.924  1.00  0.00    -0.003 C 
ATOM     12  C   UNL     1       6.690   8.563  -9.704  1.00  0.00     0.004 C 
ENDBRANCH  10  11
ENDBRANCH   9  10
ENDBRANCH   8   9
ENDBRANCH   7   8
ENDBRANCH   6   7
ENDBRANCH   5   6
ENDBRANCH   4   5
ENDBRANCH   3   4
ENDBRANCH   2   3
ENDBRANCH   1   2
BRANCH   1  13
ATOM     13  C   UNL     1       4.480   9.048  -2.074  1.00  0.00     0.000 C 
BRANCH  13  14
ATOM     14  C   UNL     1       3.453   7.958  -1.735  1.00  0.00     0.000 C 
BRANCH  14  15
ATOM     15  C   UNL     1       2.024   8.511  -1.794  1.00  0.00     0.000 C 
BRANCH  15  16
ATOM     16  C   UNL     1       1.056   7.469  -2.378  1.00  0.00     0.000 C 
BRANCH  16  17
ATOM     17  C   UNL     1      -0.208   7.288  -1.523  1.00  0.00     0.000 C 
BRANCH  17  18
ATOM     18  C   UNL     1      -0.949   8.614  -1.274  1.00  0.00     0.000 C 
BRANCH  18  19
ATOM     19  C   UNL     1      -2.008   8.496  -0.165  1.00  0.00     0.000 C 
BRANCH  19  20
ATOM     20  C   UNL     1      -3.369   9.074  -0.581  1.00  0.00     0.006 C 
BRANCH  20  21
ATOM     21  C   UNL     1      -3.811   8.513  -1.937  1.00  0.00     0.053 C 
BRANCH  21  22
ATOM     22  C   UNL     1      -5.108   9.128  -2.361  1.00  0.00     0.041 C 
ATOM     23  O   UNL     1      -5.286   9.466  -3.560  1.00  0.00    -0.550 OA
ATOM     24  O   UNL     1      -6.137   9.286  -1.441  1.00  0.00    -0.550 OA
ENDBRANCH  21  22
ENDBRANCH  20  21
ENDBRANCH  19  20
ENDBRANCH  18  19
ENDBRANCH  17  18
ENDBRANCH  16  17
ENDBRANCH  15  16
ENDBRANCH  14  15
ENDBRANCH  13  14
ENDBRANCH   1  13
TORSDOF 20
ENDMDL
MODEL 2
REMARK VINA RESULT:     8.083      6.344      9.926
REMARK INTER + INTRA:          16.477
REMARK INTER:                  16.807
REMARK INTRA:                  -0.330
REMARK UNBOUND:                -1.056
REMARK SMILES CCCCCCCCCCCCCCCCCCCCCC(=O)[O-]
REMARK SMILES IDX 12 1 11 2 10 3 9 4 8 5 7 6 6 7 5 8 4 9 3 10 2 11 1 12 13 13
REMARK SMILES IDX 14 14 15 15 16 16 17 17 18 18 19 19 20 20 21 21 22 22 23 23
REMARK SMILES IDX 24 24
REMARK H PARENT
REMARK Flexibility Score: inf
ROOT
ATOM      1  C   UNL     1       2.911   3.977  -0.394  1.00  0.00     0.000 C 
ENDROOT
BRANCH   1   2
ATOM      2  C   UNL     1       3.721   2.858  -1.083  1.00  0.00     0.000 C 
BRANCH   2   3
ATOM      3  C   UNL     1       3.482   1.481  -0.439  1.00  0.00     0.000 C 
BRANCH   3   4
ATOM      4  C   UNL     1       2.549   0.593  -1.291  1.00  0.00    -0.000 C 
BRANCH   4   5
ATOM      5  C   UNL     1       2.681  -0.908  -0.985  1.00  0.00    -0.000 C 
BRANCH   5   6
ATOM      6  C   UNL     1       1.910  -1.789  -1.977  1.00  0.00    -0.000 C 
BRANCH   6   7
ATOM      7  C   UNL     1       1.723  -3.208  -1.424  1.00  0.00    -0.000 C 
BRANCH   7   8
ATOM      8  C   UNL     1       0.310  -3.393  -0.853  1.00  0.00    -0.000 C 
BRANCH   8   9
ATOM      9  C   UNL     1       0.100  -2.603   0.458  1.00  0.00    -0.000 C 
BRANCH   9  10
ATOM     10  C   UNL     1      -0.833  -3.306   1.462  1.00  0.00    -0.000 C 
BRANCH  10  11
ATOM     11  C   UNL     1      -2.181  -2.602   1.687  1.00  0.00    -0.003 C 
ATOM     12  C   UNL     1      -2.101  -1.089   1.491  1.00  0.00     0.004 C 
ENDBRANCH  10  11
ENDBRANCH   9  10
ENDBRANCH   8   9
ENDBRANCH   7   8
ENDBRANCH   6   7
ENDBRANCH   5   6
ENDBRANCH   4   5
ENDBRANCH   3   4
ENDBRANCH   2   3
ENDBRANCH   1   2
BRANCH   1  13
ATOM     13  C   UNL     1       3.187   5.381  -0.961  1.00  0.00     0.000 C 
BRANCH  13  14
ATOM     14  C   UNL     1       1.919   6.239  -1.072  1.00  0.00     0.000 C 
BRANCH  14  15
ATOM     15  C   UNL     1       2.263   7.678  -1.476  1.00  0.00     0.000 C 
BRANCH  15  16
ATOM     16  C   UNL     1       0.988   8.511  -1.676  1.00  0.00     0.000 C 
BRANCH  16  17
ATOM     17  C   UNL     1      -0.252   7.645  -1.953  1.00  0.00     0.000 C 
BRANCH  17  18
ATOM     18  C   UNL     1      -1.569   8.410  -1.732  1.00  0.00     0.000 C 
BRANCH  18  19
ATOM     19  C   UNL     1      -1.957   8.495  -0.247  1.00  0.00     0.000 C 
BRANCH  19  20
ATOM     20  C   UNL     1      -3.454   8.245  -0.010  1.00  0.00     0.006 C 
BRANCH  20  21
ATOM     21  C   UNL     1      -4.274   9.504  -0.311  1.00  0.00     0.053 C 
BRANCH  21  22
ATOM     22  C   UNL     1      -4.982   9.367  -1.623  1.00  0.00     0.041 C 
ATOM     23  O   UNL     1      -6.214   9.610  -1.707  1.00  0.00    -0.550 OA
ATOM     24  O   UNL     1      -4.271   9.016  -2.763  1.00  0.00    -0.550 OA
ENDBRANCH  21  22
ENDBRANCH  20  21
ENDBRANCH  19  20
ENDBRANCH  18  19
ENDBRANCH  17  18
ENDBRANCH  16  17
ENDBRANCH  15  16
ENDBRANCH  14  15
ENDBRANCH  13  14
ENDBRANCH   1  13
TORSDOF 20
ENDMDL
MODEL 3
REMARK VINA RESULT:     8.655      6.981     11.548
REMARK INTER + INTRA:          17.718
REMARK INTER:                  18.806
REMARK INTRA:                  -1.088
REMARK UNBOUND:                -1.056
REMARK SMILES CCCCCCCCCCCCCCCCCCCCCC(=O)[O-]
REMARK SMILES IDX 12 1 11 2 10 3 9 4 8 5 7 6 6 7 5 8 4 9 3 10 2 11 1 12 13 13
REMARK SMILES IDX 14 14 15 15 16 16 17 17 18 18 19 19 20 20 21 21 22 22 23 23
REMARK SMILES IDX 24 24
REMARK H PARENT
REMARK Flexibility Score: inf
ROOT
ATOM      1  C   UNL     1      -4.056   7.845   2.835  1.00  0.00     0.000 C 
ENDROOT
BRANCH   1   2
ATOM      2  C   UNL     1      -3.990   9.187   2.075  1.00  0.00     0.000 C 
BRANCH   2   3
ATOM      3  C   UNL     1      -3.359   9.038   0.679  1.00  0.00     0.000 C 
BRANCH   3   4
ATOM      4  C   UNL     1      -4.398   9.205  -0.451  1.00  0.00    -0.000 C 
BRANCH   4   5
ATOM      5  C   UNL     1      -3.991   8.519  -1.766  1.00  0.00    -0.000 C 
BRANCH   5   6
ATOM      6  C   UNL     1      -2.623   8.985  -2.283  1.00  0.00    -0.000 C 
BRANCH   6   7
ATOM      7  C   UNL     1      -1.583   7.863  -2.178  1.00  0.00    -0.000 C 
BRANCH   7   8
ATOM      8  C   UNL     1      -0.546   8.176  -1.088  1.00  0.00    -0.000 C 
BRANCH   8   9
ATOM      9  C   UNL     1       0.885   7.773  -1.509  1.00  0.00    -0.000 C 
BRANCH   9  10
ATOM     10  C   UNL     1       1.865   8.959  -1.584  1.00  0.00    -0.000 C 
BRANCH  10  11
ATOM     11  C   UNL     1       3.176   8.662  -2.330  1.00  0.00    -0.003 C 
ATOM     12  C   UNL     1       4.404   9.235  -1.623  1.00  0.00     0.004 C 
ENDBRANCH  10  11
ENDBRANCH   9  10
ENDBRANCH   8   9
ENDBRANCH   7   8
ENDBRANCH   6   7
ENDBRANCH   5   6
ENDBRANCH   4   5
ENDBRANCH   3   4
ENDBRANCH   2   3
ENDBRANCH   1   2
BRANCH   1  13
ATOM     13  C   UNL     1      -4.588   7.973   4.273  1.00  0.00     0.000 C 
BRANCH  13  14
ATOM     14  C   UNL     1      -4.513   6.655   5.057  1.00  0.00     0.000 C 
BRANCH  14  15
ATOM     15  C   UNL     1      -3.307   6.648   6.004  1.00  0.00     0.000 C 
BRANCH  15  16
ATOM     16  C   UNL     1      -3.295   5.376   6.867  1.00  0.00     0.000 C 
BRANCH  16  17
ATOM     17  C   UNL     1      -2.790   5.631   8.296  1.00  0.00     0.000 C 
BRANCH  17  18
ATOM     18  C   UNL     1      -3.802   6.416   9.150  1.00  0.00     0.000 C 
BRANCH  18  19
ATOM     19  C   UNL     1      -4.575   5.513  10.125  1.00  0.00     0.000 C 
BRANCH  19  20
ATOM     20  C   UNL     1      -5.847   4.919   9.502  1.00  0.00     0.006 C 
BRANCH  20  21
ATOM     21  C   UNL     1      -5.906   3.403   9.716  1.00  0.00     0.053 C 
BRANCH  21  22
ATOM     22  C   UNL     1      -5.002   2.702   8.751  1.00  0.00     0.041 C 
ATOM     23  O   UNL     1      -5.356   2.539   7.555  1.00  0.00    -0.550 OA
ATOM     24  O   UNL     1      -3.747   2.271   9.162  1.00  0.00    -0.550 OA
ENDBRANCH  21  22
ENDBRANCH  20  21
ENDBRANCH  19  20
ENDBRANCH  18  19
ENDBRANCH  17  18
ENDBRANCH  16  17
ENDBRANCH  15  16
ENDBRANCH  14  15
ENDBRANCH  13  14
ENDBRANCH   1  13
TORSDOF 20
ENDMDL
MODEL 4
REMARK VINA RESULT:     8.662      7.028     14.785
REMARK INTER + INTRA:          17.734
REMARK INTER:                  16.648
REMARK INTRA:                   1.086
REMARK UNBOUND:                -1.056
REMARK SMILES CCCCCCCCCCCCCCCCCCCCCC(=O)[O-]
REMARK SMILES IDX 12 1 11 2 10 3 9 4 8 5 7 6 6 7 5 8 4 9 3 10 2 11 1 12 13 13
REMARK SMILES IDX 14 14 15 15 16 16 17 17 18 18 19 19 20 20 21 21 22 22 23 23
REMARK SMILES IDX 24 24
REMARK H PARENT
REMARK Flexibility Score: inf
ROOT
ATOM      1  C   UNL     1      -4.144   7.284   3.233  1.00  0.00     0.000 C 
ENDROOT
BRANCH   1   2
ATOM      2  C   UNL     1      -4.515   7.325   4.731  1.00  0.00     0.000 C 
BRANCH   2   3
ATOM      3  C   UNL     1      -3.402   6.751   5.626  1.00  0.00     0.000 C 
BRANCH   3   4
ATOM      4  C   UNL     1      -3.966   6.064   6.888  1.00  0.00    -0.000 C 
BRANCH   4   5
ATOM      5  C   UNL     1      -2.920   5.864   7.997  1.00  0.00    -0.000 C 
BRANCH   5   6
ATOM      6  C   UNL     1      -3.534   5.370   9.315  1.00  0.00    -0.000 C 
BRANCH   6   7
ATOM      7  C   UNL     1      -4.828   6.127   9.638  1.00  0.00    -0.000 C 
BRANCH   7   8
ATOM      8  C   UNL     1      -5.985   5.152   9.902  1.00  0.00    -0.000 C 
BRANCH   8   9
ATOM      9  C   UNL     1      -5.492   3.705  10.125  1.00  0.00    -0.000 C 
BRANCH   9  10
ATOM     10  C   UNL     1      -5.610   2.811   8.876  1.00  0.00    -0.000 C 
BRANCH  10  11
ATOM     11  C   UNL     1      -4.268   2.334   8.298  1.00  0.00    -0.003 C 
ATOM     12  C   UNL     1      -4.060   2.764   6.846  1.00  0.00     0.004 C 
ENDBRANCH  10  11
ENDBRANCH   9  10
ENDBRANCH   8   9
ENDBRANCH   7   8
ENDBRANCH   6   7
ENDBRANCH   5   6
ENDBRANCH   4   5
ENDBRANCH   3   4
ENDBRANCH   2   3
ENDBRANCH   1   2
BRANCH   1  13
ATOM     13  C   UNL     1      -4.179   8.661   2.548  1.00  0.00     0.000 C 
BRANCH  13  14
ATOM     14  C   UNL     1      -3.704   8.615   1.089  1.00  0.00     0.000 C 
BRANCH  14  15
ATOM     15  C   UNL     1      -4.026   9.926   0.364  1.00  0.00     0.000 C 
BRANCH  15  16
ATOM     16  C   UNL     1      -5.034   9.692  -0.773  1.00  0.00     0.000 C 
BRANCH  16  17
ATOM     17  C   UNL     1      -4.457   8.835  -1.912  1.00  0.00     0.000 C 
BRANCH  17  18
ATOM     18  C   UNL     1      -2.928   8.962  -2.031  1.00  0.00     0.000 C 
BRANCH  18  19
ATOM     19  C   UNL     1      -2.185   8.134  -0.970  1.00  0.00     0.000 C 
BRANCH  19  20
ATOM     20  C   UNL     1      -0.675   8.415  -0.949  1.00  0.00     0.006 C 
BRANCH  20  21
ATOM     21  C   UNL     1       0.067   7.495  -1.924  1.00  0.00     0.053 C 
BRANCH  21  22
ATOM     22  C   UNL     1       1.494   7.327  -1.504  1.00  0.00     0.041 C 
ATOM     23  O   UNL     1       2.284   8.307  -1.541  1.00  0.00    -0.550 OA
ATOM     24  O   UNL     1       1.939   6.101  -1.026  1.00  0.00    -0.550 OA
ENDBRANCH  21  22
ENDBRANCH  20  21
ENDBRANCH  19  20
ENDBRANCH  18  19
ENDBRANCH  17  18
ENDBRANCH  16  17
ENDBRANCH  15  16
ENDBRANCH  14  15
ENDBRANCH  13  14
ENDBRANCH   1  13
TORSDOF 20
ENDMDL
MODEL 5
REMARK VINA RESULT:     8.711      1.215      2.414
REMARK INTER + INTRA:          17.841
REMARK INTER:                  17.854
REMARK INTRA:                  -0.014
REMARK UNBOUND:                -1.056
REMARK SMILES CCCCCCCCCCCCCCCCCCCCCC(=O)[O-]
REMARK SMILES IDX 12 1 11 2 10 3 9 4 8 5 7 6 6 7 5 8 4 9 3 10 2 11 1 12 13 13
REMARK SMILES IDX 14 14 15 15 16 16 17 17 18 18 19 19 20 20 21 21 22 22 23 23
REMARK SMILES IDX 24 24
REMARK H PARENT
REMARK Flexibility Score: inf
ROOT
ATOM      1  C   UNL     1       3.737   9.229  -1.964  1.00  0.00     0.000 C 
ENDROOT
BRANCH   1   2
ATOM      2  C   UNL     1       5.243   9.018  -1.698  1.00  0.00     0.000 C 
BRANCH   2   3
ATOM      3  C   UNL     1       6.009   8.604  -2.968  1.00  0.00     0.000 C 
BRANCH   3   4
ATOM      4  C   UNL     1       6.950   7.407  -2.716  1.00  0.00    -0.000 C 
BRANCH   4   5
ATOM      5  C   UNL     1       7.177   6.531  -3.960  1.00  0.00    -0.000 C 
BRANCH   5   6
ATOM      6  C   UNL     1       8.600   5.963  -4.039  1.00  0.00    -0.000 C 
BRANCH   6   7
ATOM      7  C   UNL     1       8.785   5.113  -5.302  1.00  0.00    -0.000 C 
BRANCH   7   8
ATOM      8  C   UNL     1      10.123   5.429  -5.987  1.00  0.00    -0.000 C 
BRANCH   8   9
ATOM      9  C   UNL     1       9.942   6.295  -7.254  1.00  0.00    -0.000 C 
BRANCH   9  10
ATOM     10  C   UNL     1       9.162   7.600  -7.005  1.00  0.00    -0.000 C 
BRANCH  10  11
ATOM     11  C   UNL     1       9.127   8.565  -8.202  1.00  0.00    -0.003 C 
ATOM     12  C   UNL     1      10.125   8.189  -9.297  1.00  0.00     0.004 C 
ENDBRANCH  10  11
ENDBRANCH   9  10
ENDBRANCH   8   9
ENDBRANCH   7   8
ENDBRANCH   6   7
ENDBRANCH   5   6
ENDBRANCH   4   5
ENDBRANCH   3   4
ENDBRANCH   2   3
ENDBRANCH   1   2
BRANCH   1  13
ATOM     13  C   UNL     1       2.941   7.920  -2.097  1.00  0.00     0.000 C 
BRANCH  13  14
ATOM     14  C   UNL     1       1.787   7.817  -1.091  1.00  0.00     0.000 C 
BRANCH  14  15
ATOM     15  C   UNL     1       0.533   7.231  -1.750  1.00  0.00     0.000 C 
BRANCH  15  16
ATOM     16  C   UNL     1      -0.512   8.328  -2.011  1.00  0.00     0.000 C 
BRANCH  16  17
ATOM     17  C   UNL     1      -1.744   8.204  -1.100  1.00  0.00     0.000 C 
BRANCH  17  18
ATOM     18  C   UNL     1      -1.468   8.678   0.337  1.00  0.00     0.000 C 
BRANCH  18  19
ATOM     19  C   UNL     1      -2.629   9.502   0.918  1.00  0.00     0.000 C 
BRANCH  19  20
ATOM     20  C   UNL     1      -3.970   9.202   0.232  1.00  0.00     0.006 C 
BRANCH  20  21
ATOM     21  C   UNL     1      -3.985   9.744  -1.201  1.00  0.00     0.053 C 
BRANCH  21  22
ATOM     22  C   UNL     1      -5.250   9.351  -1.897  1.00  0.00     0.041 C 
ATOM     23  O   UNL     1      -6.367   9.613  -1.379  1.00  0.00    -0.550 OA
ATOM     24  O   UNL     1      -5.197   8.735  -3.142  1.00  0.00    -0.550 OA
ENDBRANCH  21  22
ENDBRANCH  20  21
ENDBRANCH  19  20
ENDBRANCH  18  19
ENDBRANCH  17  18
ENDBRANCH  16  17
ENDBRANCH  15  16
ENDBRANCH  14  15
ENDBRANCH  13  14
ENDBRANCH   1  13
TORSDOF 20
ENDMDL
MODEL 6
REMARK VINA RESULT:     8.957      6.990     11.707
REMARK INTER + INTRA:          18.373
REMARK INTER:                  19.221
REMARK INTRA:                  -0.848
REMARK UNBOUND:                -1.056
REMARK SMILES CCCCCCCCCCCCCCCCCCCCCC(=O)[O-]
REMARK SMILES IDX 12 1 11 2 10 3 9 4 8 5 7 6 6 7 5 8 4 9 3 10 2 11 1 12 13 13
REMARK SMILES IDX 14 14 15 15 16 16 17 17 18 18 19 19 20 20 21 21 22 22 23 23
REMARK SMILES IDX 24 24
REMARK H PARENT
REMARK Flexibility Score: inf
ROOT
ATOM      1  C   UNL     1      -3.928   8.094   2.940  1.00  0.00     0.000 C 
ENDROOT
BRANCH   1   2
ATOM      2  C   UNL     1      -4.086   9.520   2.371  1.00  0.00     0.000 C 
BRANCH   2   3
ATOM      3  C   UNL     1      -3.646   9.616   0.899  1.00  0.00     0.000 C 
BRANCH   3   4
ATOM      4  C   UNL     1      -4.257   8.492   0.034  1.00  0.00    -0.000 C 
BRANCH   4   5
ATOM      5  C   UNL     1      -4.158   8.757  -1.477  1.00  0.00    -0.000 C 
BRANCH   5   6
ATOM      6  C   UNL     1      -2.710   8.924  -1.960  1.00  0.00    -0.000 C 
BRANCH   6   7
ATOM      7  C   UNL     1      -1.853   7.716  -1.561  1.00  0.00    -0.000 C 
BRANCH   7   8
ATOM      8  C   UNL     1      -0.455   8.161  -1.106  1.00  0.00    -0.000 C 
BRANCH   8   9
ATOM      9  C   UNL     1       0.627   7.870  -2.169  1.00  0.00    -0.000 C 
BRANCH   9  10
ATOM     10  C   UNL     1       2.064   7.900  -1.614  1.00  0.00    -0.000 C 
BRANCH  10  11
ATOM     11  C   UNL     1       2.924   9.069  -2.123  1.00  0.00    -0.003 C 
ATOM     12  C   UNL     1       4.027   9.465  -1.142  1.00  0.00     0.004 C 
ENDBRANCH  10  11
ENDBRANCH   9  10
ENDBRANCH   8   9
ENDBRANCH   7   8
ENDBRANCH   6   7
ENDBRANCH   5   6
ENDBRANCH   4   5
ENDBRANCH   3   4
ENDBRANCH   2   3
ENDBRANCH   1   2
BRANCH   1  13
ATOM     13  C   UNL     1      -4.078   8.016   4.469  1.00  0.00     0.000 C 
BRANCH  13  14
ATOM     14  C   UNL     1      -4.012   6.579   5.003  1.00  0.00     0.000 C 
BRANCH  14  15
ATOM     15  C   UNL     1      -3.733   6.564   6.510  1.00  0.00     0.000 C 
BRANCH  15  16
ATOM     16  C   UNL     1      -3.417   5.141   6.996  1.00  0.00     0.000 C 
BRANCH  16  17
ATOM     17  C   UNL     1      -3.118   5.079   8.503  1.00  0.00     0.000 C 
BRANCH  17  18
ATOM     18  C   UNL     1      -3.264   6.448   9.192  1.00  0.00     0.000 C 
BRANCH  18  19
ATOM     19  C   UNL     1      -1.993   6.864   9.950  1.00  0.00     0.000 C 
BRANCH  19  20
ATOM     20  C   UNL     1      -1.878   8.386  10.125  1.00  0.00     0.006 C 
BRANCH  20  21
ATOM     21  C   UNL     1      -0.824   8.968   9.178  1.00  0.00     0.053 C 
BRANCH  21  22
ATOM     22  C   UNL     1       0.533   8.910   9.806  1.00  0.00     0.041 C 
ATOM     23  O   UNL     1       1.146   9.973  10.088  1.00  0.00    -0.550 OA
ATOM     24  O   UNL     1       1.102   7.683  10.123  1.00  0.00    -0.550 OA
ENDBRANCH  21  22
ENDBRANCH  20  21
ENDBRANCH  19  20
ENDBRANCH  18  19
ENDBRANCH  17  18
ENDBRANCH  16  17
ENDBRANCH  15  16
ENDBRANCH  14  15
ENDBRANCH  13  14
ENDBRANCH   1  13
TORSDOF 20
ENDMDL
MODEL 7
REMARK VINA RESULT:     9.042      7.416     12.595
REMARK INTER + INTRA:          18.557
REMARK INTER:                  18.713
REMARK INTRA:                  -0.156
REMARK UNBOUND:                -1.056
REMARK SMILES CCCCCCCCCCCCCCCCCCCCCC(=O)[O-]
REMARK SMILES IDX 12 1 11 2 10 3 9 4 8 5 7 6 6 7 5 8 4 9 3 10 2 11 1 12 13 13
REMARK SMILES IDX 14 14 15 15 16 16 17 17 18 18 19 19 20 20 21 21 22 22 23 23
REMARK SMILES IDX 24 24
REMARK H PARENT
REMARK Flexibility Score: inf
ROOT
ATOM      1  C   UNL     1      -4.562   7.521   4.747  1.00  0.00     0.000 C 
ENDROOT
BRANCH   1   2
ATOM      2  C   UNL     1      -3.762   7.746   3.446  1.00  0.00     0.000 C 
BRANCH   2   3
ATOM      3  C   UNL     1      -4.189   9.029   2.711  1.00  0.00     0.000 C 
BRANCH   3   4
ATOM      4  C   UNL     1      -3.203   9.411   1.586  1.00  0.00    -0.000 C 
BRANCH   4   5
ATOM      5  C   UNL     1      -3.493   8.708   0.250  1.00  0.00    -0.000 C 
BRANCH   5   6
ATOM      6  C   UNL     1      -4.607   9.391  -0.555  1.00  0.00    -0.000 C 
BRANCH   6   7
ATOM      7  C   UNL     1      -4.838   8.678  -1.893  1.00  0.00    -0.000 C 
BRANCH   7   8
ATOM      8  C   UNL     1      -3.698   8.977  -2.878  1.00  0.00    -0.000 C 
BRANCH   8   9
ATOM      9  C   UNL     1      -2.335   9.132  -2.167  1.00  0.00    -0.000 C 
BRANCH   9  10
ATOM     10  C   UNL     1      -1.498   7.838  -2.147  1.00  0.00    -0.000 C 
BRANCH  10  11
ATOM     11  C   UNL     1      -0.309   7.858  -1.172  1.00  0.00    -0.003 C 
ATOM     12  C   UNL     1       1.010   7.461  -1.836  1.00  0.00     0.004 C 
ENDBRANCH  10  11
ENDBRANCH   9  10
ENDBRANCH   8   9
ENDBRANCH   7   8
ENDBRANCH   6   7
ENDBRANCH   5   6
ENDBRANCH   4   5
ENDBRANCH   3   4
ENDBRANCH   2   3
ENDBRANCH   1   2
BRANCH   1  13
ATOM     13  C   UNL     1      -4.126   6.274   5.535  1.00  0.00     0.000 C 
BRANCH  13  14
ATOM     14  C   UNL     1      -3.167   6.601   6.689  1.00  0.00     0.000 C 
BRANCH  14  15
ATOM     15  C   UNL     1      -2.935   5.372   7.576  1.00  0.00     0.000 C 
BRANCH  15  16
ATOM     16  C   UNL     1      -2.755   5.783   9.046  1.00  0.00     0.000 C 
BRANCH  16  17
ATOM     17  C   UNL     1      -4.049   6.325   9.675  1.00  0.00     0.000 C 
BRANCH  17  18
ATOM     18  C   UNL     1      -5.306   5.604   9.158  1.00  0.00     0.000 C 
BRANCH  18  19
ATOM     19  C   UNL     1      -5.798   4.514  10.125  1.00  0.00     0.000 C 
BRANCH  19  20
ATOM     20  C   UNL     1      -5.180   3.138   9.831  1.00  0.00     0.006 C 
BRANCH  20  21
ATOM     21  C   UNL     1      -5.440   2.720   8.379  1.00  0.00     0.053 C 
BRANCH  21  22
ATOM     22  C   UNL     1      -4.168   2.279   7.726  1.00  0.00     0.041 C 
ATOM     23  O   UNL     1      -4.061   2.296   6.472  1.00  0.00    -0.550 OA
ATOM     24  O   UNL     1      -3.083   1.894   8.504  1.00  0.00    -0.550 OA
ENDBRANCH  21  22
ENDBRANCH  20  21
ENDBRANCH  19  20
ENDBRANCH  18  19
ENDBRANCH  17  18
ENDBRANCH  16  17
ENDBRANCH  15  16
ENDBRANCH  14  15
ENDBRANCH  13  14
ENDBRANCH   1  13
TORSDOF 20
ENDMDL
MODEL 8
REMARK VINA RESULT:     9.480      5.981     10.210
REMARK INTER + INTRA:          19.508
REMARK INTER:                  20.072
REMARK INTRA:                  -0.564
REMARK UNBOUND:                -1.056
REMARK SMILES CCCCCCCCCCCCCCCCCCCCCC(=O)[O-]
REMARK SMILES IDX 12 1 11 2 10 3 9 4 8 5 7 6 6 7 5 8 4 9 3 10 2 11 1 12 13 13
REMARK SMILES IDX 14 14 15 15 16 16 17 17 18 18 19 19 20 20 21 21 22 22 23 23
REMARK SMILES IDX 24 24
REMARK H PARENT
REMARK Flexibility Score: inf
ROOT
ATOM      1  C   UNL     1       3.056   3.842  -0.219  1.00  0.00     0.000 C 
ENDROOT
BRANCH   1   2
ATOM      2  C   UNL     1       3.437   2.771  -1.263  1.00  0.00     0.000 C 
BRANCH   2   3
ATOM      3  C   UNL     1       3.621   1.378  -0.633  1.00  0.00     0.000 C 
BRANCH   3   4
ATOM      4  C   UNL     1       2.395   0.468  -0.865  1.00  0.00    -0.000 C 
BRANCH   4   5
ATOM      5  C   UNL     1       1.506   0.307   0.379  1.00  0.00    -0.000 C 
BRANCH   5   6
ATOM      6  C   UNL     1       0.578   1.509   0.609  1.00  0.00    -0.000 C 
BRANCH   6   7
ATOM      7  C   UNL     1      -0.612   1.124   1.497  1.00  0.00    -0.000 C 
BRANCH   7   8
ATOM      8  C   UNL     1      -0.724  -0.402   1.635  1.00  0.00    -0.000 C 
BRANCH   8   9
ATOM      9  C   UNL     1      -2.113  -0.928   1.212  1.00  0.00    -0.000 C 
BRANCH   9  10
ATOM     10  C   UNL     1      -2.325  -2.425   1.509  1.00  0.00    -0.000 C 
BRANCH  10  11
ATOM     11  C   UNL     1      -1.035  -3.260   1.548  1.00  0.00    -0.003 C 
ATOM     12  C   UNL     1      -0.538  -3.519   2.971  1.00  0.00     0.004 C 
ENDBRANCH  10  11
ENDBRANCH   9  10
ENDBRANCH   8   9
ENDBRANCH   7   8
ENDBRANCH   6   7
ENDBRANCH   5   6
ENDBRANCH   4   5
ENDBRANCH   3   4
ENDBRANCH   2   3
ENDBRANCH   1   2
BRANCH   1  13
ATOM     13  C   UNL     1       3.181   5.285  -0.738  1.00  0.00     0.000 C 
BRANCH  13  14
ATOM     14  C   UNL     1       1.829   5.901  -1.123  1.00  0.00     0.000 C 
BRANCH  14  15
ATOM     15  C   UNL     1       2.015   7.288  -1.749  1.00  0.00     0.000 C 
BRANCH  15  16
ATOM     16  C   UNL     1       0.841   8.213  -1.389  1.00  0.00     0.000 C 
BRANCH  16  17
ATOM     17  C   UNL     1      -0.520   7.644  -1.822  1.00  0.00     0.000 C 
BRANCH  17  18
ATOM     18  C   UNL     1      -1.688   8.592  -1.497  1.00  0.00     0.000 C 
BRANCH  18  19
ATOM     19  C   UNL     1      -2.094   8.538  -0.015  1.00  0.00     0.000 C 
BRANCH  19  20
ATOM     20  C   UNL     1      -3.615   8.442   0.179  1.00  0.00     0.006 C 
BRANCH  20  21
ATOM     21  C   UNL     1      -4.316   9.693  -0.360  1.00  0.00     0.053 C 
BRANCH  21  22
ATOM     22  C   UNL     1      -5.041   9.381  -1.631  1.00  0.00     0.041 C 
ATOM     23  O   UNL     1      -6.300   9.359  -1.653  1.00  0.00    -0.550 OA
ATOM     24  O   UNL     1      -4.328   9.160  -2.803  1.00  0.00    -0.550 OA
ENDBRANCH  21  22
ENDBRANCH  20  21
ENDBRANCH  19  20
ENDBRANCH  18  19
ENDBRANCH  17  18
ENDBRANCH  16  17
ENDBRANCH  15  16
ENDBRANCH  14  15
ENDBRANCH  13  14
ENDBRANCH   1  13
TORSDOF 20
ENDMDL
MODEL 9
REMARK VINA RESULT:     9.685      7.014     11.187
REMARK INTER + INTRA:          19.953
REMARK INTER:                  20.829
REMARK INTRA:                  -0.876
REMARK UNBOUND:                -1.056
REMARK SMILES CCCCCCCCCCCCCCCCCCCCCC(=O)[O-]
REMARK SMILES IDX 12 1 11 2 10 3 9 4 8 5 7 6 6 7 5 8 4 9 3 10 2 11 1 12 13 13
REMARK SMILES IDX 14 14 15 15 16 16 17 17 18 18 19 19 20 20 21 21 22 22 23 23
REMARK SMILES IDX 24 24
REMARK H PARENT
REMARK Flexibility Score: inf
ROOT
ATOM      1  C   UNL     1       3.380   4.036  -0.606  1.00  0.00     0.000 C 
ENDROOT
BRANCH   1   2
ATOM      2  C   UNL     1       2.278   5.016  -1.061  1.00  0.00     0.000 C 
BRANCH   2   3
ATOM      3  C   UNL     1       2.640   6.482  -0.767  1.00  0.00     0.000 C 
BRANCH   3   4
ATOM      4  C   UNL     1       1.827   7.468  -1.634  1.00  0.00    -0.000 C 
BRANCH   4   5
ATOM      5  C   UNL     1       0.305   7.297  -1.495  1.00  0.00    -0.000 C 
BRANCH   5   6
ATOM      6  C   UNL     1      -0.484   8.108  -2.531  1.00  0.00    -0.000 C 
BRANCH   6   7
ATOM      7  C   UNL     1      -1.840   8.551  -1.968  1.00  0.00    -0.000 C 
BRANCH   7   8
ATOM      8  C   UNL     1      -1.942   8.234  -0.468  1.00  0.00    -0.000 C 
BRANCH   8   9
ATOM      9  C   UNL     1      -3.400   8.273   0.041  1.00  0.00    -0.000 C 
BRANCH   9  10
ATOM     10  C   UNL     1      -4.084   9.641  -0.143  1.00  0.00    -0.000 C 
BRANCH  10  11
ATOM     11  C   UNL     1      -5.290   9.633  -1.097  1.00  0.00    -0.003 C 
ATOM     12  C   UNL     1      -4.912   9.249  -2.528  1.00  0.00     0.004 C 
ENDBRANCH  10  11
ENDBRANCH   9  10
ENDBRANCH   8   9
ENDBRANCH   7   8
ENDBRANCH   6   7
ENDBRANCH   5   6
ENDBRANCH   4   5
ENDBRANCH   3   4
ENDBRANCH   2   3
ENDBRANCH   1   2
BRANCH   1  13
ATOM     13  C   UNL     1       3.383   2.704  -1.377  1.00  0.00     0.000 C 
BRANCH  13  14
ATOM     14  C   UNL     1       3.634   1.491  -0.471  1.00  0.00     0.000 C 
BRANCH  14  15
ATOM     15  C   UNL     1       2.618   0.377  -0.751  1.00  0.00     0.000 C 
BRANCH  15  16
ATOM     16  C   UNL     1       2.271   0.314  -2.247  1.00  0.00     0.000 C 
BRANCH  16  17
ATOM     17  C   UNL     1       2.144  -1.127  -2.768  1.00  0.00     0.000 C 
BRANCH  17  18
ATOM     18  C   UNL     1       2.233  -2.173  -1.643  1.00  0.00     0.000 C 
BRANCH  18  19
ATOM     19  C   UNL     1       0.925  -2.962  -1.469  1.00  0.00     0.000 C 
BRANCH  19  20
ATOM     20  C   UNL     1       0.535  -3.147   0.006  1.00  0.00     0.006 C 
BRANCH  20  21
ATOM     21  C   UNL     1      -0.987  -3.146   0.174  1.00  0.00     0.053 C 
BRANCH  21  22
ATOM     22  C   UNL     1      -1.369  -2.529   1.483  1.00  0.00     0.041 C 
ATOM     23  O   UNL     1      -1.159  -3.147   2.560  1.00  0.00    -0.550 OA
ATOM     24  O   UNL     1      -1.914  -1.252   1.518  1.00  0.00    -0.550 OA
ENDBRANCH  21  22
ENDBRANCH  20  21
ENDBRANCH  19  20
ENDBRANCH  18  19
ENDBRANCH  17  18
ENDBRANCH  16  17
ENDBRANCH  15  16
ENDBRANCH  14  15
ENDBRANCH  13  14
ENDBRANCH   1  13
TORSDOF 20
ENDMDL
