MODEL 1
REMARK VINA RESULT:     0.713      0.000      0.000
REMARK INTER + INTRA:           0.799
REMARK INTER:                   0.838
REMARK INTRA:                  -0.038
REMARK UNBOUND:                -0.038
REMARK SMILES O=C([O-])CCC(=O)[O-]
REMARK SMILES IDX 4 1 2 2 1 3 3 4 5 5 6 6 7 7 8 8
REMARK H PARENT
REMARK Flexibility Score: inf
ROOT
ATOM      1  C   UNL     1       6.008   6.402  -2.587  1.00  0.00     0.059 C 
ENDROOT
BRANCH   1   2
ATOM      2  C   UNL     1       5.233   7.658  -2.329  1.00  0.00     0.042 C 
ATOM      3  O   UNL     1       4.020   7.733  -2.656  1.00  0.00    -0.550 OA
ATOM      4  O   UNL     1       5.864   8.761  -1.766  1.00  0.00    -0.550 OA
ENDBRANCH   1   2
BRANCH   1   5
ATOM      5  C   UNL     1       5.161   5.357  -3.322  1.00  0.00     0.059 C 
BRANCH   5   6
ATOM      6  C   UNL     1       5.998   4.507  -4.227  1.00  0.00     0.042 C 
ATOM      7  O   UNL     1       5.982   4.698  -5.472  1.00  0.00    -0.550 OA
ATOM      8  O   UNL     1       6.827   3.528  -3.692  1.00  0.00    -0.550 OA
ENDBRANCH   5   6
ENDBRANCH   1   5
TORSDOF 3
ENDMDL
MODEL 2
REMARK VINA RESULT:     0.721      0.049      4.178
REMARK INTER + INTRA:           0.809
REMARK INTER:                   0.846
REMARK INTRA:                  -0.037
REMARK UNBOUND:                -0.038
REMARK SMILES O=C([O-])CCC(=O)[O-]
REMARK SMILES IDX 4 1 2 2 1 3 3 4 5 5 6 6 7 7 8 8
REMARK H PARENT
REMARK Flexibility Score: inf
ROOT
ATOM      1  C   UNL     1       5.192   5.349  -3.353  1.00  0.00     0.059 C 
ENDROOT
BRANCH   1   2
ATOM      2  C   UNL     1       6.056   4.499  -4.235  1.00  0.00     0.042 C 
ATOM      3  O   UNL     1       6.048   4.668  -5.482  1.00  0.00    -0.550 OA
ATOM      4  O   UNL     1       6.838   3.493  -3.681  1.00  0.00    -0.550 OA
ENDBRANCH   1   2
BRANCH   1   5
ATOM      5  C   UNL     1       6.019   6.382  -2.580  1.00  0.00     0.059 C 
BRANCH   5   6
ATOM      6  C   UNL     1       5.238   7.635  -2.327  1.00  0.00     0.042 C 
ATOM      7  O   UNL     1       4.012   7.687  -2.611  1.00  0.00    -0.550 OA
ATOM      8  O   UNL     1       5.856   8.733  -1.741  1.00  0.00    -0.550 OA
ENDBRANCH   5   6
ENDBRANCH   1   5
TORSDOF 3
ENDMDL
MODEL 3
REMARK VINA RESULT:     1.730      5.580      6.801
REMARK INTER + INTRA:           1.995
REMARK INTER:                   2.037
REMARK INTRA:                  -0.043
REMARK UNBOUND:                -0.038
REMARK SMILES O=C([O-])CCC(=O)[O-]
REMARK SMILES IDX 4 1 2 2 1 3 3 4 5 5 6 6 7 7 8 8
REMARK H PARENT
REMARK Flexibility Score: inf
ROOT
ATOM      1  C   UNL     1       1.928   8.723  -6.331  1.00  0.00     0.059 C 
ENDROOT
BRANCH   1   2
ATOM      2  C   UNL     1       1.932   8.646  -7.828  1.00  0.00     0.042 C 
ATOM      3  O   UNL     1       0.964   8.125  -8.439  1.00  0.00    -0.550 OA
ATOM      4  O   UNL     1       3.027   9.113  -8.544  1.00  0.00    -0.550 OA
ENDBRANCH   1   2
BRANCH   1   5
ATOM      5  C   UNL     1       0.504   8.667  -5.768  1.00  0.00     0.059 C 
BRANCH   5   6
ATOM      6  C   UNL     1       0.497   8.260  -4.326  1.00  0.00     0.042 C 
ATOM      7  O   UNL     1       1.186   7.280  -3.940  1.00  0.00    -0.550 OA
ATOM      8  O   UNL     1      -0.240   8.991  -3.401  1.00  0.00    -0.550 OA
ENDBRANCH   5   6
ENDBRANCH   1   5
TORSDOF 3
ENDMDL
MODEL 4
REMARK VINA RESULT:     1.745      5.659      6.300
REMARK INTER + INTRA:           2.012
REMARK INTER:                   2.056
REMARK INTRA:                  -0.044
REMARK UNBOUND:                -0.038
REMARK SMILES O=C([O-])CCC(=O)[O-]
REMARK SMILES IDX 4 1 2 2 1 3 3 4 5 5 6 6 7 7 8 8
REMARK H PARENT
REMARK Flexibility Score: inf
ROOT
ATOM      1  C   UNL     1       0.476   8.722  -5.790  1.00  0.00     0.059 C 
ENDROOT
BRANCH   1   2
ATOM      2  C   UNL     1       0.449   8.323  -4.346  1.00  0.00     0.042 C 
ATOM      3  O   UNL     1       1.062   7.294  -3.962  1.00  0.00    -0.550 OA
ATOM      4  O   UNL     1      -0.288   9.067  -3.432  1.00  0.00    -0.550 OA
ENDBRANCH   1   2
BRANCH   1   5
ATOM      5  C   UNL     1       1.908   8.789  -6.331  1.00  0.00     0.059 C 
BRANCH   5   6
ATOM      6  C   UNL     1       1.942   8.639  -7.821  1.00  0.00     0.042 C 
ATOM      7  O   UNL     1       0.973   8.113  -8.428  1.00  0.00    -0.550 OA
ATOM      8  O   UNL     1       3.029   9.118  -8.543  1.00  0.00    -0.550 OA
ENDBRANCH   5   6
ENDBRANCH   1   5
TORSDOF 3
ENDMDL
MODEL 5
REMARK VINA RESULT:     2.543      2.695      3.957
REMARK INTER + INTRA:           2.951
REMARK INTER:                   2.984
REMARK INTRA:                  -0.033
REMARK UNBOUND:                -0.038
REMARK SMILES O=C([O-])CCC(=O)[O-]
REMARK SMILES IDX 4 1 2 2 1 3 3 4 5 5 6 6 7 7 8 8
REMARK H PARENT
REMARK Flexibility Score: inf
ROOT
ATOM      1  C   UNL     1       3.099   7.928  -3.873  1.00  0.00     0.059 C 
ENDROOT
BRANCH   1   2
ATOM      2  C   UNL     1       1.616   7.817  -4.060  1.00  0.00     0.042 C 
ATOM      3  O   UNL     1       0.975   6.892  -3.499  1.00  0.00    -0.550 OA
ATOM      4  O   UNL     1       0.950   8.712  -4.888  1.00  0.00    -0.550 OA
ENDBRANCH   1   2
BRANCH   1   5
ATOM      5  C   UNL     1       3.557   7.254  -2.575  1.00  0.00     0.059 C 
BRANCH   5   6
ATOM      6  C   UNL     1       5.050   7.158  -2.502  1.00  0.00     0.042 C 
ATOM      7  O   UNL     1       5.643   6.140  -2.946  1.00  0.00    -0.550 OA
ATOM      8  O   UNL     1       5.789   8.212  -1.977  1.00  0.00    -0.550 OA
ENDBRANCH   5   6
ENDBRANCH   1   5
TORSDOF 3
ENDMDL
MODEL 6
REMARK VINA RESULT:     2.605      2.712      4.349
REMARK INTER + INTRA:           3.024
REMARK INTER:                   3.056
REMARK INTRA:                  -0.033
REMARK UNBOUND:                -0.038
REMARK SMILES O=C([O-])CCC(=O)[O-]
REMARK SMILES IDX 4 1 2 2 1 3 3 4 5 5 6 6 7 7 8 8
REMARK H PARENT
REMARK Flexibility Score: inf
ROOT
ATOM      1  C   UNL     1       3.547   7.318  -2.617  1.00  0.00     0.059 C 
ENDROOT
BRANCH   1   2
ATOM      2  C   UNL     1       5.039   7.211  -2.539  1.00  0.00     0.042 C 
ATOM      3  O   UNL     1       5.621   6.167  -2.931  1.00  0.00    -0.550 OA
ATOM      4  O   UNL     1       5.783   8.251  -1.994  1.00  0.00    -0.550 OA
ENDBRANCH   1   2
BRANCH   1   5
ATOM      5  C   UNL     1       3.092   7.913  -3.954  1.00  0.00     0.059 C 
BRANCH   5   6
ATOM      6  C   UNL     1       1.608   7.813  -4.125  1.00  0.00     0.042 C 
ATOM      7  O   UNL     1       0.959   6.914  -3.529  1.00  0.00    -0.550 OA
ATOM      8  O   UNL     1       0.935   8.739  -4.914  1.00  0.00    -0.550 OA
ENDBRANCH   5   6
ENDBRANCH   1   5
TORSDOF 3
ENDMDL
