MODEL 1
REMARK VINA RESULT:    -7.665      0.000      0.000
REMARK INTER + INTRA:         -12.285
REMARK INTER:                 -10.578
REMARK INTRA:                  -1.707
REMARK UNBOUND:                -1.707
REMARK SMILES O=C([O-])[C@@H]1O[C@H](Oc2cc3oc(-c4ccccc4)cc(=O)c3c(O)c2O)[C@H](O)[C@@H](O)[C@@H]1O
REMARK SMILES IDX 7 1 6 2 4 3 31 4 5 5 29 6 27 7 2 8 1 9 3 10 32 11 30 13
REMARK SMILES IDX 28 15 8 17 25 18 9 19 23 20 10 21 22 22 11 23 20 24 12 25
REMARK SMILES IDX 19 26 21 27 26 28 24 30 13 32 14 33 18 34 15 35 17 36 16 37
REMARK H PARENT 32 12 30 14 28 16 26 29 24 31
REMARK Flexibility Score: inf
ROOT
ATOM      1  O   UNL     1     -15.455  61.706  -0.768  1.00  0.00    -0.458 OA
ENDROOT
BRANCH   1   2
ATOM      2  C   UNL     1     -14.549  61.301   0.255  1.00  0.00     0.339 C 
ATOM      3  C   UNL     1     -13.530  63.420   0.723  1.00  0.00     0.199 C 
ATOM      4  C   UNL     1     -14.205  63.449   2.115  1.00  0.00     0.180 C 
ATOM      5  O   UNL     1     -13.368  62.079   0.246  1.00  0.00    -0.328 OA
ATOM      6  C   UNL     1     -15.523  62.657   2.194  1.00  0.00     0.181 C 
ATOM      7  C   UNL     1     -15.272  61.236   1.630  1.00  0.00     0.214 C 
BRANCH   3   8
ATOM      8  C   UNL     1     -14.029  64.362  -0.336  1.00  0.00     0.073 C 
ATOM      9  O   UNL     1     -13.514  64.392  -1.499  1.00  0.00    -0.547 OA
ATOM     10  O   UNL     1     -15.120  65.185  -0.104  1.00  0.00    -0.547 OA
ENDBRANCH   3   8
BRANCH   4  11
ATOM     11  O   UNL     1     -14.378  64.784   2.541  1.00  0.00    -0.387 OA
ATOM     12  H   UNL     1     -14.408  64.752   3.531  1.00  0.00     0.211 HD
ENDBRANCH   4  11
BRANCH   6  13
ATOM     13  O   UNL     1     -15.870  62.577   3.551  1.00  0.00    -0.387 OA
ATOM     14  H   UNL     1     -16.292  63.452   3.773  1.00  0.00     0.211 HD
ENDBRANCH   6  13
BRANCH   7  15
ATOM     15  O   UNL     1     -16.491  60.535   1.510  1.00  0.00    -0.384 OA
ATOM     16  H   UNL     1     -16.652  60.435   0.538  1.00  0.00     0.211 HD
ENDBRANCH   7  15
ENDBRANCH   1   2
BRANCH   1  17
ATOM     17  C   UNL     1     -15.632  61.073  -2.008  1.00  0.00     0.172 A 
ATOM     18  C   UNL     1     -14.717  61.146  -3.067  1.00  0.00     0.201 A 
ATOM     19  C   UNL     1     -16.822  60.378  -2.174  1.00  0.00     0.098 A 
ATOM     20  C   UNL     1     -14.987  60.518  -4.299  1.00  0.00     0.176 A 
ATOM     21  C   UNL     1     -17.129  59.767  -3.380  1.00  0.00     0.146 A 
ATOM     22  C   UNL     1     -16.215  59.789  -4.464  1.00  0.00     0.111 A 
ATOM     23  O   UNL     1     -18.315  59.170  -3.497  1.00  0.00    -0.456 OA
ATOM     24  C   UNL     1     -16.580  59.076  -5.632  1.00  0.00     0.197 A 
ATOM     25  C   UNL     1     -18.680  58.515  -4.592  1.00  0.00     0.138 A 
ATOM     26  C   UNL     1     -17.806  58.424  -5.677  1.00  0.00     0.100 A 
ATOM     27  O   UNL     1     -15.890  59.066  -6.684  1.00  0.00    -0.289 OA
BRANCH  18  28
ATOM     28  O   UNL     1     -13.494  61.790  -2.875  1.00  0.00    -0.502 OA
ATOM     29  H   UNL     1     -12.749  61.754  -3.557  1.00  0.00     0.293 HD
ENDBRANCH  18  28
BRANCH  20  30
ATOM     30  O   UNL     1     -14.091  60.731  -5.347  1.00  0.00    -0.504 OA
ATOM     31  H   UNL     1     -14.270  61.347  -6.120  1.00  0.00     0.293 HD
ENDBRANCH  20  30
BRANCH  25  32
ATOM     32  C   UNL     1     -20.002  57.858  -4.635  1.00  0.00     0.017 A 
ATOM     33  C   UNL     1     -21.107  58.542  -5.184  1.00  0.00     0.012 A 
ATOM     34  C   UNL     1     -20.164  56.546  -4.162  1.00  0.00     0.012 A 
ATOM     35  C   UNL     1     -22.357  57.907  -5.245  1.00  0.00     0.001 A 
ATOM     36  C   UNL     1     -21.415  55.923  -4.208  1.00  0.00     0.001 A 
ATOM     37  C   UNL     1     -22.509  56.599  -4.760  1.00  0.00     0.000 A 
ENDBRANCH  25  32
ENDBRANCH   1  17
TORSDOF 9
ENDMDL
MODEL 2
REMARK VINA RESULT:    -7.579      0.930      2.319
REMARK INTER + INTRA:         -12.166
REMARK INTER:                 -10.752
REMARK INTRA:                  -1.414
REMARK UNBOUND:                -1.707
REMARK SMILES O=C([O-])[C@@H]1O[C@H](Oc2cc3oc(-c4ccccc4)cc(=O)c3c(O)c2O)[C@H](O)[C@@H](O)[C@@H]1O
REMARK SMILES IDX 7 1 6 2 4 3 31 4 5 5 29 6 27 7 2 8 1 9 3 10 32 11 30 13
REMARK SMILES IDX 28 15 8 17 25 18 9 19 23 20 10 21 22 22 11 23 20 24 12 25
REMARK SMILES IDX 19 26 21 27 26 28 24 30 13 32 14 33 18 34 15 35 17 36 16 37
REMARK H PARENT 32 12 30 14 28 16 26 29 24 31
REMARK Flexibility Score: inf
ROOT
ATOM      1  O   UNL     1     -15.351  61.842  -0.918  1.00  0.00    -0.458 OA
ENDROOT
BRANCH   1   2
ATOM      2  C   UNL     1     -16.156  62.901  -0.406  1.00  0.00     0.339 C 
ATOM      3  C   UNL     1     -16.072  62.352   1.926  1.00  0.00     0.199 C 
ATOM      4  C   UNL     1     -15.227  63.617   2.204  1.00  0.00     0.180 C 
ATOM      5  O   UNL     1     -16.872  62.504   0.747  1.00  0.00    -0.328 OA
ATOM      6  C   UNL     1     -14.385  64.089   1.006  1.00  0.00     0.181 C 
ATOM      7  C   UNL     1     -15.311  64.194  -0.231  1.00  0.00     0.214 C 
BRANCH   3   8
ATOM      8  C   UNL     1     -15.404  61.009   2.011  1.00  0.00     0.073 C 
ATOM      9  O   UNL     1     -14.226  60.879   2.474  1.00  0.00    -0.547 OA
ATOM     10  O   UNL     1     -16.077  59.851   1.655  1.00  0.00    -0.547 OA
ENDBRANCH   3   8
BRANCH   4  11
ATOM     11  O   UNL     1     -14.429  63.423   3.353  1.00  0.00    -0.387 OA
ATOM     12  H   UNL     1     -14.495  64.261   3.876  1.00  0.00     0.211 HD
ENDBRANCH   4  11
BRANCH   6  13
ATOM     13  O   UNL     1     -13.882  65.357   1.334  1.00  0.00    -0.387 OA
ATOM     14  H   UNL     1     -12.890  65.269   1.308  1.00  0.00     0.211 HD
ENDBRANCH   6  13
BRANCH   7  15
ATOM     15  O   UNL     1     -14.551  64.444  -1.394  1.00  0.00    -0.384 OA
ATOM     16  H   UNL     1     -15.197  64.744  -2.081  1.00  0.00     0.211 HD
ENDBRANCH   7  15
ENDBRANCH   1   2
BRANCH   1  17
ATOM     17  C   UNL     1     -15.541  61.182  -2.141  1.00  0.00     0.172 A 
ATOM     18  C   UNL     1     -14.643  61.243  -3.216  1.00  0.00     0.201 A 
ATOM     19  C   UNL     1     -16.727  60.474  -2.275  1.00  0.00     0.098 A 
ATOM     20  C   UNL     1     -14.926  60.587  -4.431  1.00  0.00     0.176 A 
ATOM     21  C   UNL     1     -17.047  59.836  -3.464  1.00  0.00     0.146 A 
ATOM     22  C   UNL     1     -16.150  59.844  -4.562  1.00  0.00     0.111 A 
ATOM     23  O   UNL     1     -18.229  59.227  -3.551  1.00  0.00    -0.456 OA
ATOM     24  C   UNL     1     -16.526  59.104  -5.710  1.00  0.00     0.197 A 
ATOM     25  C   UNL     1     -18.605  58.546  -4.626  1.00  0.00     0.138 A 
ATOM     26  C   UNL     1     -17.746  58.441  -5.723  1.00  0.00     0.100 A 
ATOM     27  O   UNL     1     -15.853  59.080  -6.772  1.00  0.00    -0.289 OA
BRANCH  18  28
ATOM     28  O   UNL     1     -13.424  61.900  -3.056  1.00  0.00    -0.502 OA
ATOM     29  H   UNL     1     -13.323  62.898  -3.187  1.00  0.00     0.293 HD
ENDBRANCH  18  28
BRANCH  20  30
ATOM     30  O   UNL     1     -14.048  60.787  -5.497  1.00  0.00    -0.504 OA
ATOM     31  H   UNL     1     -13.671  61.683  -5.751  1.00  0.00     0.293 HD
ENDBRANCH  20  30
BRANCH  25  32
ATOM     32  C   UNL     1     -19.921  57.877  -4.636  1.00  0.00     0.017 A 
ATOM     33  C   UNL     1     -21.043  58.544  -5.173  1.00  0.00     0.012 A 
ATOM     34  C   UNL     1     -20.062  56.570  -4.143  1.00  0.00     0.012 A 
ATOM     35  C   UNL     1     -22.288  57.897  -5.202  1.00  0.00     0.001 A 
ATOM     36  C   UNL     1     -21.308  55.935  -4.157  1.00  0.00     0.001 A 
ATOM     37  C   UNL     1     -22.419  56.594  -4.698  1.00  0.00     0.000 A 
ENDBRANCH  25  32
ENDBRANCH   1  17
TORSDOF 9
ENDMDL
MODEL 3
REMARK VINA RESULT:    -7.110      2.499      4.364
REMARK INTER + INTRA:         -11.520
REMARK INTER:                  -9.833
REMARK INTRA:                  -1.686
REMARK UNBOUND:                -1.707
REMARK SMILES O=C([O-])[C@@H]1O[C@H](Oc2cc3oc(-c4ccccc4)cc(=O)c3c(O)c2O)[C@H](O)[C@@H](O)[C@@H]1O
REMARK SMILES IDX 7 1 6 2 4 3 31 4 5 5 29 6 27 7 2 8 1 9 3 10 32 11 30 13
REMARK SMILES IDX 28 15 8 17 25 18 9 19 23 20 10 21 22 22 11 23 20 24 12 25
REMARK SMILES IDX 19 26 21 27 26 28 24 30 13 32 14 33 18 34 15 35 17 36 16 37
REMARK H PARENT 32 12 30 14 28 16 26 29 24 31
REMARK Flexibility Score: inf
ROOT
ATOM      1  O   UNL     1     -16.569  60.283   2.250  1.00  0.00    -0.458 OA
ENDROOT
BRANCH   1   2
ATOM      2  C   UNL     1     -16.742  58.948   2.719  1.00  0.00     0.339 C 
ATOM      3  C   UNL     1     -15.055  58.922   4.424  1.00  0.00     0.199 C 
ATOM      4  C   UNL     1     -16.147  58.847   5.517  1.00  0.00     0.180 C 
ATOM      5  O   UNL     1     -15.524  58.393   3.177  1.00  0.00    -0.328 OA
ATOM      6  C   UNL     1     -17.494  59.470   5.108  1.00  0.00     0.181 C 
ATOM      7  C   UNL     1     -17.912  58.875   3.741  1.00  0.00     0.214 C 
BRANCH   3   8
ATOM      8  C   UNL     1     -14.286  60.202   4.264  1.00  0.00     0.073 C 
ATOM      9  O   UNL     1     -13.187  60.245   3.624  1.00  0.00    -0.547 OA
ATOM     10  O   UNL     1     -14.785  61.401   4.749  1.00  0.00    -0.547 OA
ENDBRANCH   3   8
BRANCH   4  11
ATOM     11  O   UNL     1     -15.664  59.403   6.721  1.00  0.00    -0.387 OA
ATOM     12  H   UNL     1     -16.240  59.040   7.440  1.00  0.00     0.211 HD
ENDBRANCH   4  11
BRANCH   6  13
ATOM     13  O   UNL     1     -18.427  59.108   6.092  1.00  0.00    -0.387 OA
ATOM     14  H   UNL     1     -19.308  59.080   5.629  1.00  0.00     0.211 HD
ENDBRANCH   6  13
BRANCH   7  15
ATOM     15  O   UNL     1     -19.044  59.551   3.238  1.00  0.00    -0.384 OA
ATOM     16  H   UNL     1     -19.720  59.523   3.961  1.00  0.00     0.211 HD
ENDBRANCH   7  15
ENDBRANCH   1   2
BRANCH   1  17
ATOM     17  C   UNL     1     -16.161  60.654   0.960  1.00  0.00     0.172 A 
ATOM     18  C   UNL     1     -15.217  61.655   0.690  1.00  0.00     0.201 A 
ATOM     19  C   UNL     1     -16.789  60.000  -0.091  1.00  0.00     0.098 A 
ATOM     20  C   UNL     1     -14.891  62.002  -0.636  1.00  0.00     0.176 A 
ATOM     21  C   UNL     1     -16.509  60.332  -1.407  1.00  0.00     0.146 A 
ATOM     22  C   UNL     1     -15.535  61.314  -1.722  1.00  0.00     0.111 A 
ATOM     23  O   UNL     1     -17.192  59.713  -2.370  1.00  0.00    -0.456 OA
ATOM     24  C   UNL     1     -15.260  61.536  -3.094  1.00  0.00     0.197 A 
ATOM     25  C   UNL     1     -16.961  59.924  -3.659  1.00  0.00     0.138 A 
ATOM     26  C   UNL     1     -15.964  60.819  -4.054  1.00  0.00     0.100 A 
ATOM     27  O   UNL     1     -14.467  62.419  -3.510  1.00  0.00    -0.289 OA
BRANCH  18  28
ATOM     28  O   UNL     1     -14.541  62.264   1.747  1.00  0.00    -0.502 OA
ATOM     29  H   UNL     1     -15.013  62.828   2.441  1.00  0.00     0.293 HD
ENDBRANCH  18  28
BRANCH  20  30
ATOM     30  O   UNL     1     -14.035  63.085  -0.833  1.00  0.00    -0.504 OA
ATOM     31  H   UNL     1     -13.352  63.388  -0.161  1.00  0.00     0.293 HD
ENDBRANCH  20  30
BRANCH  25  32
ATOM     32  C   UNL     1     -17.743  59.179  -4.666  1.00  0.00     0.017 A 
ATOM     33  C   UNL     1     -17.336  59.189  -6.018  1.00  0.00     0.012 A 
ATOM     34  C   UNL     1     -18.872  58.435  -4.287  1.00  0.00     0.012 A 
ATOM     35  C   UNL     1     -18.067  58.461  -6.968  1.00  0.00     0.001 A 
ATOM     36  C   UNL     1     -19.609  57.726  -5.240  1.00  0.00     0.001 A 
ATOM     37  C   UNL     1     -19.200  57.729  -6.580  1.00  0.00     0.000 A 
ENDBRANCH  25  32
ENDBRANCH   1  17
TORSDOF 9
ENDMDL
MODEL 4
REMARK VINA RESULT:    -6.889      1.584      2.873
REMARK INTER + INTRA:         -11.214
REMARK INTER:                  -9.572
REMARK INTRA:                  -1.642
REMARK UNBOUND:                -1.707
REMARK SMILES O=C([O-])[C@@H]1O[C@H](Oc2cc3oc(-c4ccccc4)cc(=O)c3c(O)c2O)[C@H](O)[C@@H](O)[C@@H]1O
REMARK SMILES IDX 7 1 6 2 4 3 31 4 5 5 29 6 27 7 2 8 1 9 3 10 32 11 30 13
REMARK SMILES IDX 28 15 8 17 25 18 9 19 23 20 10 21 22 22 11 23 20 24 12 25
REMARK SMILES IDX 19 26 21 27 26 28 24 30 13 32 14 33 18 34 15 35 17 36 16 37
REMARK H PARENT 32 12 30 14 28 16 26 29 24 31
REMARK Flexibility Score: inf
ROOT
ATOM      1  O   UNL     1     -15.270  61.299   1.350  1.00  0.00    -0.458 OA
ENDROOT
BRANCH   1   2
ATOM      2  C   UNL     1     -14.451  60.651   2.320  1.00  0.00     0.339 C 
ATOM      3  C   UNL     1     -14.240  62.443   3.898  1.00  0.00     0.199 C 
ATOM      4  C   UNL     1     -15.094  61.657   4.920  1.00  0.00     0.180 C 
ATOM      5  O   UNL     1     -13.590  61.565   2.972  1.00  0.00    -0.328 OA
ATOM      6  C   UNL     1     -16.089  60.669   4.285  1.00  0.00     0.181 C 
ATOM      7  C   UNL     1     -15.318  59.783   3.275  1.00  0.00     0.214 C 
BRANCH   3   8
ATOM      8  C   UNL     1     -14.842  63.650   3.238  1.00  0.00     0.073 C 
ATOM      9  O   UNL     1     -15.930  64.165   3.653  1.00  0.00    -0.547 OA
ATOM     10  O   UNL     1     -14.195  64.291   2.193  1.00  0.00    -0.547 OA
ENDBRANCH   3   8
BRANCH   4  11
ATOM     11  O   UNL     1     -15.744  62.552   5.798  1.00  0.00    -0.387 OA
ATOM     12  H   UNL     1     -15.034  63.133   6.170  1.00  0.00     0.211 HD
ENDBRANCH   4  11
BRANCH   6  13
ATOM     13  O   UNL     1     -16.597  59.875   5.324  1.00  0.00    -0.387 OA
ATOM     14  H   UNL     1     -15.802  59.484   5.778  1.00  0.00     0.211 HD
ENDBRANCH   6  13
BRANCH   7  15
ATOM     15  O   UNL     1     -16.218  58.989   2.533  1.00  0.00    -0.384 OA
ATOM     16  H   UNL     1     -17.100  59.098   2.970  1.00  0.00     0.211 HD
ENDBRANCH   7  15
ENDBRANCH   1   2
BRANCH   1  17
ATOM     17  C   UNL     1     -15.093  61.248  -0.042  1.00  0.00     0.172 A 
ATOM     18  C   UNL     1     -14.047  61.880  -0.726  1.00  0.00     0.201 A 
ATOM     19  C   UNL     1     -16.064  60.558  -0.755  1.00  0.00     0.098 A 
ATOM     20  C   UNL     1     -13.962  61.818  -2.132  1.00  0.00     0.176 A 
ATOM     21  C   UNL     1     -16.024  60.496  -2.139  1.00  0.00     0.146 A 
ATOM     22  C   UNL     1     -14.962  61.093  -2.866  1.00  0.00     0.111 A 
ATOM     23  O   UNL     1     -17.019  59.873  -2.769  1.00  0.00    -0.456 OA
ATOM     24  C   UNL     1     -14.962  60.917  -4.272  1.00  0.00     0.197 A 
ATOM     25  C   UNL     1     -17.045  59.717  -4.087  1.00  0.00     0.138 A 
ATOM     26  C   UNL     1     -15.997  60.209  -4.870  1.00  0.00     0.100 A 
ATOM     27  O   UNL     1     -14.116  61.445  -5.039  1.00  0.00    -0.289 OA
BRANCH  18  28
ATOM     28  O   UNL     1     -13.039  62.517  -0.003  1.00  0.00    -0.502 OA
ATOM     29  H   UNL     1     -12.659  63.414  -0.273  1.00  0.00     0.293 HD
ENDBRANCH  18  28
BRANCH  20  30
ATOM     30  O   UNL     1     -12.965  62.568  -2.756  1.00  0.00    -0.504 OA
ATOM     31  H   UNL     1     -13.126  63.168  -3.545  1.00  0.00     0.293 HD
ENDBRANCH  20  30
BRANCH  25  32
ATOM     32  C   UNL     1     -18.171  58.992  -4.708  1.00  0.00     0.017 A 
ATOM     33  C   UNL     1     -18.272  58.927  -6.115  1.00  0.00     0.012 A 
ATOM     34  C   UNL     1     -19.127  58.340  -3.913  1.00  0.00     0.012 A 
ATOM     35  C   UNL     1     -19.330  58.217  -6.703  1.00  0.00     0.001 A 
ATOM     36  C   UNL     1     -20.190  57.649  -4.503  1.00  0.00     0.001 A 
ATOM     37  C   UNL     1     -20.285  57.578  -5.898  1.00  0.00     0.000 A 
ENDBRANCH  25  32
ENDBRANCH   1  17
TORSDOF 9
ENDMDL
MODEL 5
REMARK VINA RESULT:    -6.675      4.109      6.578
REMARK INTER + INTRA:         -10.918
REMARK INTER:                  -9.612
REMARK INTRA:                  -1.307
REMARK UNBOUND:                -1.707
REMARK SMILES O=C([O-])[C@@H]1O[C@H](Oc2cc3oc(-c4ccccc4)cc(=O)c3c(O)c2O)[C@H](O)[C@@H](O)[C@@H]1O
REMARK SMILES IDX 7 1 6 2 4 3 31 4 5 5 29 6 27 7 2 8 1 9 3 10 32 11 30 13
REMARK SMILES IDX 28 15 8 17 25 18 9 19 23 20 10 21 22 22 11 23 20 24 12 25
REMARK SMILES IDX 19 26 21 27 26 28 24 30 13 32 14 33 18 34 15 35 17 36 16 37
REMARK H PARENT 32 12 30 14 28 16 26 29 24 31
REMARK Flexibility Score: inf
ROOT
ATOM      1  O   UNL     1     -15.787  62.128  -0.848  1.00  0.00    -0.458 OA
ENDROOT
BRANCH   1   2
ATOM      2  C   UNL     1     -14.858  63.197  -1.010  1.00  0.00     0.339 C 
ATOM      3  C   UNL     1     -13.425  62.209  -2.659  1.00  0.00     0.199 C 
ATOM      4  C   UNL     1     -13.920  63.228  -3.713  1.00  0.00     0.180 C 
ATOM      5  O   UNL     1     -13.564  62.722  -1.329  1.00  0.00    -0.328 OA
ATOM      6  C   UNL     1     -15.341  63.761  -3.458  1.00  0.00     0.181 C 
ATOM      7  C   UNL     1     -15.418  64.262  -1.995  1.00  0.00     0.214 C 
BRANCH   3   8
ATOM      8  C   UNL     1     -13.863  60.778  -2.785  1.00  0.00     0.073 C 
ATOM      9  O   UNL     1     -14.405  60.336  -3.848  1.00  0.00    -0.547 OA
ATOM     10  O   UNL     1     -13.626  59.866  -1.768  1.00  0.00    -0.547 OA
ENDBRANCH   3   8
BRANCH   4  11
ATOM     11  O   UNL     1     -13.797  62.681  -5.009  1.00  0.00    -0.387 OA
ATOM     12  H   UNL     1     -13.669  61.707  -4.883  1.00  0.00     0.211 HD
ENDBRANCH   4  11
BRANCH   6  13
ATOM     13  O   UNL     1     -15.539  64.834  -4.341  1.00  0.00    -0.387 OA
ATOM     14  H   UNL     1     -16.349  65.309  -4.009  1.00  0.00     0.211 HD
ENDBRANCH   6  13
BRANCH   7  15
ATOM     15  O   UNL     1     -16.750  64.588  -1.658  1.00  0.00    -0.384 OA
ATOM     16  H   UNL     1     -17.223  64.717  -2.518  1.00  0.00     0.211 HD
ENDBRANCH   7  15
ENDBRANCH   1   2
BRANCH   1  17
ATOM     17  C   UNL     1     -16.035  61.428   0.343  1.00  0.00     0.172 A 
ATOM     18  C   UNL     1     -15.035  60.983   1.218  1.00  0.00     0.201 A 
ATOM     19  C   UNL     1     -17.365  61.135   0.614  1.00  0.00     0.098 A 
ATOM     20  C   UNL     1     -15.362  60.247   2.375  1.00  0.00     0.176 A 
ATOM     21  C   UNL     1     -17.720  60.394   1.730  1.00  0.00     0.146 A 
ATOM     22  C   UNL     1     -16.741  59.956   2.658  1.00  0.00     0.111 A 
ATOM     23  O   UNL     1     -19.006  60.091   1.899  1.00  0.00    -0.456 OA
ATOM     24  C   UNL     1     -17.201  59.268   3.808  1.00  0.00     0.197 A 
ATOM     25  C   UNL     1     -19.452  59.431   2.961  1.00  0.00     0.138 A 
ATOM     26  C   UNL     1     -18.561  59.031   3.960  1.00  0.00     0.100 A 
ATOM     27  O   UNL     1     -16.435  58.774   4.674  1.00  0.00    -0.289 OA
BRANCH  18  28
ATOM     28  O   UNL     1     -13.707  61.335   0.978  1.00  0.00    -0.502 OA
ATOM     29  H   UNL     1     -12.938  60.950   1.510  1.00  0.00     0.293 HD
ENDBRANCH  18  28
BRANCH  20  30
ATOM     30  O   UNL     1     -14.312  59.734   3.136  1.00  0.00    -0.504 OA
ATOM     31  H   UNL     1     -13.531  60.280   3.454  1.00  0.00     0.293 HD
ENDBRANCH  20  30
BRANCH  25  32
ATOM     32  C   UNL     1     -20.897  59.156   3.089  1.00  0.00     0.017 A 
ATOM     33  C   UNL     1     -21.810  59.787   2.217  1.00  0.00     0.012 A 
ATOM     34  C   UNL     1     -21.370  58.248   4.050  1.00  0.00     0.012 A 
ATOM     35  C   UNL     1     -23.181  59.506   2.325  1.00  0.00     0.001 A 
ATOM     36  C   UNL     1     -22.738  57.985   4.167  1.00  0.00     0.001 A 
ATOM     37  C   UNL     1     -23.643  58.605   3.297  1.00  0.00     0.000 A 
ENDBRANCH  25  32
ENDBRANCH   1  17
TORSDOF 9
ENDMDL
MODEL 6
REMARK VINA RESULT:    -6.652      4.985      8.068
REMARK INTER + INTRA:         -10.887
REMARK INTER:                  -9.442
REMARK INTRA:                  -1.445
REMARK UNBOUND:                -1.707
REMARK SMILES O=C([O-])[C@@H]1O[C@H](Oc2cc3oc(-c4ccccc4)cc(=O)c3c(O)c2O)[C@H](O)[C@@H](O)[C@@H]1O
REMARK SMILES IDX 7 1 6 2 4 3 31 4 5 5 29 6 27 7 2 8 1 9 3 10 32 11 30 13
REMARK SMILES IDX 28 15 8 17 25 18 9 19 23 20 10 21 22 22 11 23 20 24 12 25
REMARK SMILES IDX 19 26 21 27 26 28 24 30 13 32 14 33 18 34 15 35 17 36 16 37
REMARK H PARENT 32 12 30 14 28 16 26 29 24 31
REMARK Flexibility Score: inf
ROOT
ATOM      1  O   UNL     1     -16.532  60.135   0.808  1.00  0.00    -0.458 OA
ENDROOT
BRANCH   1   2
ATOM      2  C   UNL     1     -17.189  61.104  -0.007  1.00  0.00     0.339 C 
ATOM      3  C   UNL     1     -15.369  61.677  -1.459  1.00  0.00     0.199 C 
ATOM      4  C   UNL     1     -16.096  61.009  -2.650  1.00  0.00     0.180 C 
ATOM      5  O   UNL     1     -16.294  62.105  -0.452  1.00  0.00    -0.328 OA
ATOM      6  C   UNL     1     -17.059  59.878  -2.248  1.00  0.00     0.181 C 
ATOM      7  C   UNL     1     -17.998  60.408  -1.137  1.00  0.00     0.214 C 
BRANCH   3   8
ATOM      8  C   UNL     1     -14.155  60.999  -0.889  1.00  0.00     0.073 C 
ATOM      9  O   UNL     1     -13.620  61.391   0.198  1.00  0.00    -0.547 OA
ATOM     10  O   UNL     1     -13.617  59.872  -1.490  1.00  0.00    -0.547 OA
ENDBRANCH   3   8
BRANCH   4  11
ATOM     11  O   UNL     1     -15.155  60.573  -3.608  1.00  0.00    -0.387 OA
ATOM     12  H   UNL     1     -15.205  61.221  -4.354  1.00  0.00     0.211 HD
ENDBRANCH   4  11
BRANCH   6  13
ATOM     13  O   UNL     1     -17.806  59.553  -3.391  1.00  0.00    -0.387 OA
ATOM     14  H   UNL     1     -18.427  60.319  -3.533  1.00  0.00     0.211 HD
ENDBRANCH   6  13
BRANCH   7  15
ATOM     15  O   UNL     1     -18.774  59.355  -0.607  1.00  0.00    -0.384 OA
ATOM     16  H   UNL     1     -19.474  59.785  -0.054  1.00  0.00     0.211 HD
ENDBRANCH   7  15
ENDBRANCH   1   2
BRANCH   1  17
ATOM     17  C   UNL     1     -16.735  59.944   2.183  1.00  0.00     0.172 A 
ATOM     18  C   UNL     1     -15.767  60.195   3.164  1.00  0.00     0.201 A 
ATOM     19  C   UNL     1     -17.970  59.427   2.552  1.00  0.00     0.098 A 
ATOM     20  C   UNL     1     -16.032  59.936   4.524  1.00  0.00     0.176 A 
ATOM     21  C   UNL     1     -18.256  59.139   3.877  1.00  0.00     0.146 A 
ATOM     22  C   UNL     1     -17.316  59.412   4.903  1.00  0.00     0.111 A 
ATOM     23  O   UNL     1     -19.434  58.585   4.159  1.00  0.00    -0.456 OA
ATOM     24  C   UNL     1     -17.721  59.155   6.237  1.00  0.00     0.197 A 
ATOM     25  C   UNL     1     -19.821  58.319   5.400  1.00  0.00     0.138 A 
ATOM     26  C   UNL     1     -18.984  58.629   6.475  1.00  0.00     0.100 A 
ATOM     27  O   UNL     1     -16.964  59.293   7.232  1.00  0.00    -0.289 OA
BRANCH  18  28
ATOM     28  O   UNL     1     -14.552  60.775   2.798  1.00  0.00    -0.502 OA
ATOM     29  H   UNL     1     -14.030  61.380   3.417  1.00  0.00     0.293 HD
ENDBRANCH  18  28
BRANCH  20  30
ATOM     30  O   UNL     1     -14.985  60.095   5.432  1.00  0.00    -0.504 OA
ATOM     31  H   UNL     1     -14.852  60.915   5.996  1.00  0.00     0.293 HD
ENDBRANCH  20  30
BRANCH  25  32
ATOM     32  C   UNL     1     -21.154  57.728   5.633  1.00  0.00     0.017 A 
ATOM     33  C   UNL     1     -22.050  57.572   4.553  1.00  0.00     0.012 A 
ATOM     34  C   UNL     1     -21.528  57.289   6.913  1.00  0.00     0.012 A 
ATOM     35  C   UNL     1     -23.306  56.988   4.772  1.00  0.00     0.001 A 
ATOM     36  C   UNL     1     -22.788  56.724   7.131  1.00  0.00     0.001 A 
ATOM     37  C   UNL     1     -23.674  56.563   6.058  1.00  0.00     0.000 A 
ENDBRANCH  25  32
ENDBRANCH   1  17
TORSDOF 9
ENDMDL
MODEL 7
REMARK VINA RESULT:    -6.589      1.756      3.579
REMARK INTER + INTRA:         -10.800
REMARK INTER:                  -9.441
REMARK INTRA:                  -1.358
REMARK UNBOUND:                -1.707
REMARK SMILES O=C([O-])[C@@H]1O[C@H](Oc2cc3oc(-c4ccccc4)cc(=O)c3c(O)c2O)[C@H](O)[C@@H](O)[C@@H]1O
REMARK SMILES IDX 7 1 6 2 4 3 31 4 5 5 29 6 27 7 2 8 1 9 3 10 32 11 30 13
REMARK SMILES IDX 28 15 8 17 25 18 9 19 23 20 10 21 22 22 11 23 20 24 12 25
REMARK SMILES IDX 19 26 21 27 26 28 24 30 13 32 14 33 18 34 15 35 17 36 16 37
REMARK H PARENT 32 12 30 14 28 16 26 29 24 31
REMARK Flexibility Score: inf
ROOT
ATOM      1  O   UNL     1     -15.049  60.964   1.382  1.00  0.00    -0.458 OA
ENDROOT
BRANCH   1   2
ATOM      2  C   UNL     1     -16.099  61.545   2.151  1.00  0.00     0.339 C 
ATOM      3  C   UNL     1     -15.802  60.316   4.189  1.00  0.00     0.199 C 
ATOM      4  C   UNL     1     -15.328  61.602   4.907  1.00  0.00     0.180 C 
ATOM      5  O   UNL     1     -16.646  60.621   3.072  1.00  0.00    -0.328 OA
ATOM      6  C   UNL     1     -14.681  62.643   3.976  1.00  0.00     0.181 C 
ATOM      7  C   UNL     1     -15.635  62.889   2.781  1.00  0.00     0.214 C 
BRANCH   3   8
ATOM      8  C   UNL     1     -14.790  59.249   3.885  1.00  0.00     0.073 C 
ATOM      9  O   UNL     1     -15.127  58.139   3.361  1.00  0.00    -0.547 OA
ATOM     10  O   UNL     1     -13.437  59.465   4.098  1.00  0.00    -0.547 OA
ENDBRANCH   3   8
BRANCH   4  11
ATOM     11  O   UNL     1     -14.475  61.269   5.982  1.00  0.00    -0.387 OA
ATOM     12  H   UNL     1     -14.712  60.342   6.240  1.00  0.00     0.211 HD
ENDBRANCH   4  11
BRANCH   6  13
ATOM     13  O   UNL     1     -14.535  63.823   4.721  1.00  0.00    -0.387 OA
ATOM     14  H   UNL     1     -14.387  63.530   5.662  1.00  0.00     0.211 HD
ENDBRANCH   6  13
BRANCH   7  15
ATOM     15  O   UNL     1     -15.005  63.694   1.808  1.00  0.00    -0.384 OA
ATOM     16  H   UNL     1     -15.693  63.874   1.119  1.00  0.00     0.211 HD
ENDBRANCH   7  15
ENDBRANCH   1   2
BRANCH   1  17
ATOM     17  C   UNL     1     -14.935  61.007  -0.016  1.00  0.00     0.172 A 
ATOM     18  C   UNL     1     -13.920  61.687  -0.703  1.00  0.00     0.201 A 
ATOM     19  C   UNL     1     -15.936  60.363  -0.731  1.00  0.00     0.098 A 
ATOM     20  C   UNL     1     -13.897  61.720  -2.112  1.00  0.00     0.176 A 
ATOM     21  C   UNL     1     -15.957  60.395  -2.116  1.00  0.00     0.146 A 
ATOM     22  C   UNL     1     -14.929  61.042  -2.848  1.00  0.00     0.111 A 
ATOM     23  O   UNL     1     -16.979  59.812  -2.742  1.00  0.00    -0.456 OA
ATOM     24  C   UNL     1     -14.992  60.961  -4.261  1.00  0.00     0.197 A 
ATOM     25  C   UNL     1     -17.063  59.744  -4.065  1.00  0.00     0.138 A 
ATOM     26  C   UNL     1     -16.051  60.291  -4.858  1.00  0.00     0.100 A 
ATOM     27  O   UNL     1     -14.180  61.541  -5.027  1.00  0.00    -0.289 OA
BRANCH  18  28
ATOM     28  O   UNL     1     -12.881  62.277   0.017  1.00  0.00    -0.502 OA
ATOM     29  H   UNL     1     -12.646  63.256  -0.073  1.00  0.00     0.293 HD
ENDBRANCH  18  28
BRANCH  20  30
ATOM     30  O   UNL     1     -12.929  62.513  -2.727  1.00  0.00    -0.504 OA
ATOM     31  H   UNL     1     -12.844  62.622  -3.722  1.00  0.00     0.293 HD
ENDBRANCH  20  30
BRANCH  25  32
ATOM     32  C   UNL     1     -18.215  59.059  -4.683  1.00  0.00     0.017 A 
ATOM     33  C   UNL     1     -18.309  58.974  -6.089  1.00  0.00     0.012 A 
ATOM     34  C   UNL     1     -19.205  58.463  -3.885  1.00  0.00     0.012 A 
ATOM     35  C   UNL     1     -19.393  58.301  -6.673  1.00  0.00     0.001 A 
ATOM     36  C   UNL     1     -20.293  57.809  -4.471  1.00  0.00     0.001 A 
ATOM     37  C   UNL     1     -20.381  57.718  -5.866  1.00  0.00     0.000 A 
ENDBRANCH  25  32
ENDBRANCH   1  17
TORSDOF 9
ENDMDL
MODEL 8
REMARK VINA RESULT:    -6.556      4.482      7.564
REMARK INTER + INTRA:         -10.754
REMARK INTER:                  -9.568
REMARK INTRA:                  -1.186
REMARK UNBOUND:                -1.707
REMARK SMILES O=C([O-])[C@@H]1O[C@H](Oc2cc3oc(-c4ccccc4)cc(=O)c3c(O)c2O)[C@H](O)[C@@H](O)[C@@H]1O
REMARK SMILES IDX 7 1 6 2 4 3 31 4 5 5 29 6 27 7 2 8 1 9 3 10 32 11 30 13
REMARK SMILES IDX 28 15 8 17 25 18 9 19 23 20 10 21 22 22 11 23 20 24 12 25
REMARK SMILES IDX 19 26 21 27 26 28 24 30 13 32 14 33 18 34 15 35 17 36 16 37
REMARK H PARENT 32 12 30 14 28 16 26 29 24 31
REMARK Flexibility Score: inf
ROOT
ATOM      1  O   UNL     1     -16.201  58.334   4.754  1.00  0.00    -0.458 OA
ENDROOT
BRANCH   1   2
ATOM      2  C   UNL     1     -14.779  58.423   4.805  1.00  0.00     0.339 C 
ATOM      3  C   UNL     1     -14.484  58.449   7.184  1.00  0.00     0.199 C 
ATOM      4  C   UNL     1     -13.831  57.048   7.129  1.00  0.00     0.180 C 
ATOM      5  O   UNL     1     -14.340  59.145   5.940  1.00  0.00    -0.328 OA
ATOM      6  C   UNL     1     -14.290  56.184   5.941  1.00  0.00     0.181 C 
ATOM      7  C   UNL     1     -14.138  57.015   4.644  1.00  0.00     0.214 C 
BRANCH   3   8
ATOM      8  C   UNL     1     -15.861  58.576   7.771  1.00  0.00     0.073 C 
ATOM      9  O   UNL     1     -16.523  57.556   8.145  1.00  0.00    -0.547 OA
ATOM     10  O   UNL     1     -16.432  59.820   7.993  1.00  0.00    -0.547 OA
ENDBRANCH   3   8
BRANCH   4  11
ATOM     11  O   UNL     1     -14.016  56.379   8.358  1.00  0.00    -0.387 OA
ATOM     12  H   UNL     1     -14.329  57.067   8.998  1.00  0.00     0.211 HD
ENDBRANCH   4  11
BRANCH   6  13
ATOM     13  O   UNL     1     -13.441  55.068   5.896  1.00  0.00    -0.387 OA
ATOM     14  H   UNL     1     -12.887  55.184   5.076  1.00  0.00     0.211 HD
ENDBRANCH   6  13
BRANCH   7  15
ATOM     15  O   UNL     1     -14.719  56.334   3.553  1.00  0.00    -0.384 OA
ATOM     16  H   UNL     1     -14.307  55.434   3.546  1.00  0.00     0.211 HD
ENDBRANCH   7  15
ENDBRANCH   1   2
BRANCH   1  17
ATOM     17  C   UNL     1     -17.018  58.813   3.719  1.00  0.00     0.172 A 
ATOM     18  C   UNL     1     -18.404  58.994   3.829  1.00  0.00     0.201 A 
ATOM     19  C   UNL     1     -16.386  59.068   2.510  1.00  0.00     0.098 A 
ATOM     20  C   UNL     1     -19.164  59.439   2.729  1.00  0.00     0.176 A 
ATOM     21  C   UNL     1     -17.106  59.485   1.401  1.00  0.00     0.146 A 
ATOM     22  C   UNL     1     -18.504  59.713   1.482  1.00  0.00     0.111 A 
ATOM     23  O   UNL     1     -16.451  59.651   0.253  1.00  0.00    -0.456 OA
ATOM     24  C   UNL     1     -19.146  60.209   0.320  1.00  0.00     0.197 A 
ATOM     25  C   UNL     1     -17.042  60.095  -0.849  1.00  0.00     0.138 A 
ATOM     26  C   UNL     1     -18.401  60.417  -0.833  1.00  0.00     0.100 A 
ATOM     27  O   UNL     1     -20.387  60.395   0.239  1.00  0.00    -0.289 OA
BRANCH  18  28
ATOM     28  O   UNL     1     -19.025  58.800   5.063  1.00  0.00    -0.502 OA
ATOM     29  H   UNL     1     -18.513  58.536   5.894  1.00  0.00     0.293 HD
ENDBRANCH  18  28
BRANCH  20  30
ATOM     30  O   UNL     1     -20.551  59.483   2.873  1.00  0.00    -0.504 OA
ATOM     31  H   UNL     1     -21.189  58.936   2.322  1.00  0.00     0.293 HD
ENDBRANCH  20  30
BRANCH  25  32
ATOM     32  C   UNL     1     -16.241  60.277  -2.076  1.00  0.00     0.017 A 
ATOM     33  C   UNL     1     -16.831  60.050  -3.338  1.00  0.00     0.012 A 
ATOM     34  C   UNL     1     -14.905  60.703  -2.002  1.00  0.00     0.012 A 
ATOM     35  C   UNL     1     -16.075  60.246  -4.504  1.00  0.00     0.001 A 
ATOM     36  C   UNL     1     -14.149  60.880  -3.165  1.00  0.00     0.001 A 
ATOM     37  C   UNL     1     -14.738  60.663  -4.417  1.00  0.00     0.000 A 
ENDBRANCH  25  32
ENDBRANCH   1  17
TORSDOF 9
ENDMDL
MODEL 9
REMARK VINA RESULT:    -6.392     12.624     14.780
REMARK INTER + INTRA:         -10.528
REMARK INTER:                  -8.999
REMARK INTRA:                  -1.529
REMARK UNBOUND:                -1.707
REMARK SMILES O=C([O-])[C@@H]1O[C@H](Oc2cc3oc(-c4ccccc4)cc(=O)c3c(O)c2O)[C@H](O)[C@@H](O)[C@@H]1O
REMARK SMILES IDX 7 1 6 2 4 3 31 4 5 5 29 6 27 7 2 8 1 9 3 10 32 11 30 13
REMARK SMILES IDX 28 15 8 17 25 18 9 19 23 20 10 21 22 22 11 23 20 24 12 25
REMARK SMILES IDX 19 26 21 27 26 28 24 30 13 32 14 33 18 34 15 35 17 36 16 37
REMARK H PARENT 32 12 30 14 28 16 26 29 24 31
REMARK Flexibility Score: inf
ROOT
ATOM      1  O   UNL     1     -16.955  54.302   9.031  1.00  0.00    -0.458 OA
ENDROOT
BRANCH   1   2
ATOM      2  C   UNL     1     -16.982  55.006  10.271  1.00  0.00     0.339 C 
ATOM      3  C   UNL     1     -15.168  56.525   9.885  1.00  0.00     0.199 C 
ATOM      4  C   UNL     1     -16.159  57.712   9.835  1.00  0.00     0.180 C 
ATOM      5  O   UNL     1     -15.691  55.437  10.656  1.00  0.00    -0.328 OA
ATOM      6  C   UNL     1     -17.579  57.330   9.383  1.00  0.00     0.181 C 
ATOM      7  C   UNL     1     -18.057  56.130  10.237  1.00  0.00     0.214 C 
BRANCH   3   8
ATOM      8  C   UNL     1     -14.519  56.079   8.606  1.00  0.00     0.073 C 
ATOM      9  O   UNL     1     -13.780  55.043   8.558  1.00  0.00    -0.547 OA
ATOM     10  O   UNL     1     -14.762  56.740   7.412  1.00  0.00    -0.547 OA
ENDBRANCH   3   8
BRANCH   4  11
ATOM     11  O   UNL     1     -15.626  58.754   9.045  1.00  0.00    -0.387 OA
ATOM     12  H   UNL     1     -15.981  58.611   8.131  1.00  0.00     0.211 HD
ENDBRANCH   4  11
BRANCH   6  13
ATOM     13  O   UNL     1     -18.398  58.444   9.625  1.00  0.00    -0.387 OA
ATOM     14  H   UNL     1     -18.324  59.015   8.812  1.00  0.00     0.211 HD
ENDBRANCH   6  13
BRANCH   7  15
ATOM     15  O   UNL     1     -19.277  55.626   9.736  1.00  0.00    -0.384 OA
ATOM     16  H   UNL     1     -19.679  55.106  10.476  1.00  0.00     0.211 HD
ENDBRANCH   7  15
ENDBRANCH   1   2
BRANCH   1  17
ATOM     17  C   UNL     1     -17.094  52.915   8.871  1.00  0.00     0.172 A 
ATOM     18  C   UNL     1     -16.258  52.128   8.068  1.00  0.00     0.201 A 
ATOM     19  C   UNL     1     -18.167  52.329   9.528  1.00  0.00     0.098 A 
ATOM     20  C   UNL     1     -16.488  50.745   7.922  1.00  0.00     0.176 A 
ATOM     21  C   UNL     1     -18.436  50.976   9.389  1.00  0.00     0.146 A 
ATOM     22  C   UNL     1     -17.593  50.139   8.614  1.00  0.00     0.111 A 
ATOM     23  O   UNL     1     -19.518  50.486   9.993  1.00  0.00    -0.456 OA
ATOM     24  C   UNL     1     -17.902  48.757   8.588  1.00  0.00     0.197 A 
ATOM     25  C   UNL     1     -19.832  49.197   9.962  1.00  0.00     0.138 A 
ATOM     26  C   UNL     1     -19.011  48.293   9.283  1.00  0.00     0.100 A 
ATOM     27  O   UNL     1     -17.274  47.918   7.892  1.00  0.00    -0.289 OA
BRANCH  18  28
ATOM     28  O   UNL     1     -15.143  52.708   7.462  1.00  0.00    -0.502 OA
ATOM     29  H   UNL     1     -15.216  53.312   6.655  1.00  0.00     0.293 HD
ENDBRANCH  18  28
BRANCH  20  30
ATOM     30  O   UNL     1     -15.692  50.046   7.016  1.00  0.00    -0.504 OA
ATOM     31  H   UNL     1     -15.450  50.388   6.103  1.00  0.00     0.293 HD
ENDBRANCH  20  30
BRANCH  25  32
ATOM     32  C   UNL     1     -21.035  48.727  10.678  1.00  0.00     0.017 A 
ATOM     33  C   UNL     1     -20.944  48.369  12.041  1.00  0.00     0.012 A 
ATOM     34  C   UNL     1     -22.276  48.662  10.025  1.00  0.00     0.012 A 
ATOM     35  C   UNL     1     -22.093  47.945  12.725  1.00  0.00     0.001 A 
ATOM     36  C   UNL     1     -23.416  48.223  10.706  1.00  0.00     0.001 A 
ATOM     37  C   UNL     1     -23.327  47.875  12.059  1.00  0.00     0.000 A 
ENDBRANCH  25  32
ENDBRANCH   1  17
TORSDOF 9
ENDMDL
