MODEL 1
REMARK VINA RESULT:    -4.742      0.000      0.000
REMARK INTER + INTRA:         -11.137
REMARK INTER:                  -9.177
REMARK INTRA:                  -1.960
REMARK UNBOUND:                -1.960
REMARK SMILES CCCCCC=CCC=CCCCCCCCCOC(C)=O
REMARK SMILES IDX 12 1 11 2 10 3 9 4 8 5 7 6 6 7 5 8 4 9 3 10 2 11 1 12 13 13
REMARK SMILES IDX 14 14 15 15 16 16 17 17 18 18 19 19 20 20 22 21 21 22
REMARK H PARENT
REMARK Flexibility Score: inf
ROOT
ATOM      1  C   UNL     1     -10.101   6.067  -2.103  1.00  0.00     0.004 C 
ENDROOT
BRANCH   1   2
ATOM      2  C   UNL     1      -9.905   6.813  -0.775  1.00  0.00     0.027 C 
BRANCH   2   3
ATOM      3  C   UNL     1     -10.838   6.310   0.299  1.00  0.00    -0.031 C 
ATOM      4  C   UNL     1     -10.598   5.236   1.074  1.00  0.00    -0.027 C 
BRANCH   4   5
ATOM      5  C   UNL     1      -9.327   4.425   1.008  1.00  0.00     0.054 C 
BRANCH   5   6
ATOM      6  C   UNL     1      -8.362   4.845   2.079  1.00  0.00    -0.027 C 
ATOM      7  C   UNL     1      -7.523   5.875   1.901  1.00  0.00    -0.031 C 
BRANCH   7   8
ATOM      8  C   UNL     1      -6.583   6.303   2.997  1.00  0.00     0.027 C 
BRANCH   8   9
ATOM      9  C   UNL     1      -7.239   6.258   4.390  1.00  0.00     0.004 C 
BRANCH   9  10
ATOM     10  C   UNL     1      -6.240   6.016   5.536  1.00  0.00     0.000 C 
BRANCH  10  11
ATOM     11  C   UNL     1      -6.495   6.911   6.758  1.00  0.00    -0.003 C 
ATOM     12  C   UNL     1      -7.975   6.929   7.129  1.00  0.00     0.004 C 
ENDBRANCH  10  11
ENDBRANCH   9  10
ENDBRANCH   8   9
ENDBRANCH   7   8
ENDBRANCH   5   6
ENDBRANCH   4   5
ENDBRANCH   2   3
ENDBRANCH   1   2
BRANCH   1  13
ATOM     13  C   UNL     1      -8.766   5.627  -2.722  1.00  0.00     0.000 C 
BRANCH  13  14
ATOM     14  C   UNL     1      -7.591   5.944  -1.785  1.00  0.00     0.000 C 
BRANCH  14  15
ATOM     15  C   UNL     1      -6.467   6.730  -2.483  1.00  0.00     0.000 C 
BRANCH  15  16
ATOM     16  C   UNL     1      -6.480   8.251  -2.231  1.00  0.00     0.003 C 
BRANCH  16  17
ATOM     17  C   UNL     1      -7.630   9.014  -2.914  1.00  0.00     0.042 C 
BRANCH  17  18
ATOM     18  C   UNL     1      -7.528   9.041  -4.446  1.00  0.00     0.233 C 
BRANCH  18  19
ATOM     19  O   UNL     1      -8.514   8.203  -5.047  1.00  0.00    -0.466 OA
BRANCH  19  20
ATOM     20  C   UNL     1      -8.298   7.479  -6.224  1.00  0.00     0.302 C 
ATOM     21  O   UNL     1      -7.847   6.302  -6.184  1.00  0.00    -0.253 OA
ATOM     22  C   UNL     1      -8.566   8.120  -7.543  1.00  0.00     0.139 C 
ENDBRANCH  19  20
ENDBRANCH  18  19
ENDBRANCH  17  18
ENDBRANCH  16  17
ENDBRANCH  15  16
ENDBRANCH  14  15
ENDBRANCH  13  14
ENDBRANCH   1  13
TORSDOF 16
ENDMDL
MODEL 2
REMARK VINA RESULT:    -4.717      3.307      7.271
REMARK INTER + INTRA:         -11.089
REMARK INTER:                  -8.199
REMARK INTRA:                  -2.889
REMARK UNBOUND:                -1.960
REMARK SMILES CCCCCC=CCC=CCCCCCCCCOC(C)=O
REMARK SMILES IDX 12 1 11 2 10 3 9 4 8 5 7 6 6 7 5 8 4 9 3 10 2 11 1 12 13 13
REMARK SMILES IDX 14 14 15 15 16 16 17 17 18 18 19 19 20 20 22 21 21 22
REMARK H PARENT
REMARK Flexibility Score: inf
ROOT
ATOM      1  C   UNL     1      -7.091   8.107  -1.220  1.00  0.00     0.004 C 
ENDROOT
BRANCH   1   2
ATOM      2  C   UNL     1      -6.393   7.329  -2.345  1.00  0.00     0.027 C 
BRANCH   2   3
ATOM      3  C   UNL     1      -7.089   7.507  -3.672  1.00  0.00    -0.031 C 
ATOM      4  C   UNL     1      -8.085   6.721  -4.121  1.00  0.00    -0.027 C 
BRANCH   4   5
ATOM      5  C   UNL     1      -8.680   5.587  -3.322  1.00  0.00     0.054 C 
BRANCH   5   6
ATOM      6  C   UNL     1     -10.084   5.905  -2.895  1.00  0.00    -0.027 C 
ATOM      7  C   UNL     1     -10.364   6.297  -1.644  1.00  0.00    -0.031 C 
BRANCH   7   8
ATOM      8  C   UNL     1     -11.774   6.642  -1.242  1.00  0.00     0.027 C 
BRANCH   8   9
ATOM      9  C   UNL     1     -11.889   8.054  -0.639  1.00  0.00     0.004 C 
BRANCH   9  10
ATOM     10  C   UNL     1     -10.672   8.466   0.209  1.00  0.00     0.000 C 
BRANCH  10  11
ATOM     11  C   UNL     1     -10.125   9.854  -0.155  1.00  0.00    -0.003 C 
ATOM     12  C   UNL     1     -10.148  10.078  -1.665  1.00  0.00     0.004 C 
ENDBRANCH  10  11
ENDBRANCH   9  10
ENDBRANCH   8   9
ENDBRANCH   7   8
ENDBRANCH   5   6
ENDBRANCH   4   5
ENDBRANCH   2   3
ENDBRANCH   1   2
BRANCH   1  13
ATOM     13  C   UNL     1      -7.138   7.310   0.092  1.00  0.00     0.000 C 
BRANCH  13  14
ATOM     14  C   UNL     1      -6.547   5.905  -0.093  1.00  0.00     0.000 C 
BRANCH  14  15
ATOM     15  C   UNL     1      -7.562   4.787   0.206  1.00  0.00     0.000 C 
BRANCH  15  16
ATOM     16  C   UNL     1      -8.710   5.184   1.155  1.00  0.00     0.003 C 
BRANCH  16  17
ATOM     17  C   UNL     1      -8.384   5.062   2.656  1.00  0.00     0.042 C 
BRANCH  17  18
ATOM     18  C   UNL     1      -9.054   6.139   3.521  1.00  0.00     0.233 C 
BRANCH  18  19
ATOM     19  O   UNL     1      -8.287   6.416   4.692  1.00  0.00    -0.466 OA
BRANCH  19  20
ATOM     20  C   UNL     1      -6.900   6.599   4.681  1.00  0.00     0.302 C 
ATOM     21  O   UNL     1      -6.337   7.210   3.733  1.00  0.00    -0.253 OA
ATOM     22  C   UNL     1      -6.074   6.029   5.784  1.00  0.00     0.139 C 
ENDBRANCH  19  20
ENDBRANCH  18  19
ENDBRANCH  17  18
ENDBRANCH  16  17
ENDBRANCH  15  16
ENDBRANCH  14  15
ENDBRANCH  13  14
ENDBRANCH   1  13
TORSDOF 16
ENDMDL
MODEL 3
REMARK VINA RESULT:    -4.632      1.485      2.157
REMARK INTER + INTRA:         -10.925
REMARK INTER:                  -8.220
REMARK INTRA:                  -2.705
REMARK UNBOUND:                -1.960
REMARK SMILES CCCCCC=CCC=CCCCCCCCCOC(C)=O
REMARK SMILES IDX 12 1 11 2 10 3 9 4 8 5 7 6 6 7 5 8 4 9 3 10 2 11 1 12 13 13
REMARK SMILES IDX 14 14 15 15 16 16 17 17 18 18 19 19 20 20 22 21 21 22
REMARK H PARENT
REMARK Flexibility Score: inf
ROOT
ATOM      1  C   UNL     1     -11.479   8.158  -1.055  1.00  0.00     0.004 C 
ENDROOT
BRANCH   1   2
ATOM      2  C   UNL     1     -11.618   6.636  -0.922  1.00  0.00     0.027 C 
BRANCH   2   3
ATOM      3  C   UNL     1     -11.450   6.175   0.506  1.00  0.00    -0.031 C 
ATOM      4  C   UNL     1     -10.452   5.380   0.936  1.00  0.00    -0.027 C 
BRANCH   4   5
ATOM      5  C   UNL     1      -9.330   4.892   0.051  1.00  0.00     0.054 C 
BRANCH   5   6
ATOM      6  C   UNL     1      -7.991   5.246   0.632  1.00  0.00    -0.027 C 
ATOM      7  C   UNL     1      -7.874   6.125   1.636  1.00  0.00    -0.031 C 
BRANCH   7   8
ATOM      8  C   UNL     1      -6.527   6.446   2.227  1.00  0.00     0.027 C 
BRANCH   8   9
ATOM      9  C   UNL     1      -6.406   6.006   3.698  1.00  0.00     0.004 C 
BRANCH   9  10
ATOM     10  C   UNL     1      -7.757   5.915   4.430  1.00  0.00     0.000 C 
BRANCH  10  11
ATOM     11  C   UNL     1      -7.695   6.420   5.879  1.00  0.00    -0.003 C 
ATOM     12  C   UNL     1      -6.267   6.789   6.273  1.00  0.00     0.004 C 
ENDBRANCH  10  11
ENDBRANCH   9  10
ENDBRANCH   8   9
ENDBRANCH   7   8
ENDBRANCH   5   6
ENDBRANCH   4   5
ENDBRANCH   2   3
ENDBRANCH   1   2
BRANCH   1  13
ATOM     13  C   UNL     1     -10.063   8.575  -1.485  1.00  0.00     0.000 C 
BRANCH  13  14
ATOM     14  C   UNL     1      -9.330   9.296  -0.344  1.00  0.00     0.000 C 
BRANCH  14  15
ATOM     15  C   UNL     1      -7.799   9.190  -0.461  1.00  0.00     0.000 C 
BRANCH  15  16
ATOM     16  C   UNL     1      -7.292   8.205  -1.532  1.00  0.00     0.003 C 
BRANCH  16  17
ATOM     17  C   UNL     1      -6.577   8.857  -2.730  1.00  0.00     0.042 C 
BRANCH  17  18
ATOM     18  C   UNL     1      -7.033   8.313  -4.092  1.00  0.00     0.233 C 
BRANCH  18  19
ATOM     19  O   UNL     1      -7.310   6.914  -4.026  1.00  0.00    -0.466 OA
BRANCH  19  20
ATOM     20  C   UNL     1      -8.497   6.340  -4.490  1.00  0.00     0.302 C 
ATOM     21  O   UNL     1      -8.853   6.475  -5.692  1.00  0.00    -0.253 OA
ATOM     22  C   UNL     1      -9.372   5.591  -3.543  1.00  0.00     0.139 C 
ENDBRANCH  19  20
ENDBRANCH  18  19
ENDBRANCH  17  18
ENDBRANCH  16  17
ENDBRANCH  15  16
ENDBRANCH  14  15
ENDBRANCH  13  14
ENDBRANCH   1  13
TORSDOF 16
ENDMDL
MODEL 4
REMARK VINA RESULT:    -4.591      1.473      2.716
REMARK INTER + INTRA:         -10.844
REMARK INTER:                  -8.774
REMARK INTRA:                  -2.071
REMARK UNBOUND:                -1.960
REMARK SMILES CCCCCC=CCC=CCCCCCCCCOC(C)=O
REMARK SMILES IDX 12 1 11 2 10 3 9 4 8 5 7 6 6 7 5 8 4 9 3 10 2 11 1 12 13 13
REMARK SMILES IDX 14 14 15 15 16 16 17 17 18 18 19 19 20 20 22 21 21 22
REMARK H PARENT
REMARK Flexibility Score: inf
ROOT
ATOM      1  C   UNL     1      -6.792   6.991  -0.701  1.00  0.00     0.004 C 
ENDROOT
BRANCH   1   2
ATOM      2  C   UNL     1      -6.611   5.821   0.276  1.00  0.00     0.027 C 
BRANCH   2   3
ATOM      3  C   UNL     1      -7.770   4.855   0.223  1.00  0.00    -0.031 C 
ATOM      4  C   UNL     1      -8.743   4.784   1.149  1.00  0.00    -0.027 C 
BRANCH   4   5
ATOM      5  C   UNL     1      -8.835   5.708   2.339  1.00  0.00     0.054 C 
BRANCH   5   6
ATOM      6  C   UNL     1      -7.842   5.325   3.399  1.00  0.00    -0.027 C 
ATOM      7  C   UNL     1      -7.311   6.238   4.223  1.00  0.00    -0.031 C 
BRANCH   7   8
ATOM      8  C   UNL     1      -6.339   5.833   5.300  1.00  0.00     0.027 C 
BRANCH   8   9
ATOM      9  C   UNL     1      -6.192   6.901   6.398  1.00  0.00     0.004 C 
BRANCH   9  10
ATOM     10  C   UNL     1      -6.991   6.589   7.676  1.00  0.00     0.000 C 
BRANCH  10  11
ATOM     11  C   UNL     1      -8.104   7.609   7.957  1.00  0.00    -0.003 C 
ATOM     12  C   UNL     1      -9.365   7.282   7.160  1.00  0.00     0.004 C 
ENDBRANCH  10  11
ENDBRANCH   9  10
ENDBRANCH   8   9
ENDBRANCH   7   8
ENDBRANCH   5   6
ENDBRANCH   4   5
ENDBRANCH   2   3
ENDBRANCH   1   2
BRANCH   1  13
ATOM     13  C   UNL     1      -7.475   8.197  -0.040  1.00  0.00     0.000 C 
BRANCH  13  14
ATOM     14  C   UNL     1      -8.963   8.264  -0.414  1.00  0.00     0.000 C 
BRANCH  14  15
ATOM     15  C   UNL     1      -9.224   7.887  -1.884  1.00  0.00     0.000 C 
BRANCH  15  16
ATOM     16  C   UNL     1     -10.124   6.653  -2.091  1.00  0.00     0.003 C 
BRANCH  16  17
ATOM     17  C   UNL     1      -9.545   5.575  -3.026  1.00  0.00     0.042 C 
BRANCH  17  18
ATOM     18  C   UNL     1      -8.309   6.038  -3.810  1.00  0.00     0.233 C 
BRANCH  18  19
ATOM     19  O   UNL     1      -8.540   5.996  -5.217  1.00  0.00    -0.466 OA
BRANCH  19  20
ATOM     20  C   UNL     1      -7.947   6.881  -6.123  1.00  0.00     0.302 C 
ATOM     21  O   UNL     1      -7.510   6.472  -7.233  1.00  0.00    -0.253 OA
ATOM     22  C   UNL     1      -7.795   8.318  -5.757  1.00  0.00     0.139 C 
ENDBRANCH  19  20
ENDBRANCH  18  19
ENDBRANCH  17  18
ENDBRANCH  16  17
ENDBRANCH  15  16
ENDBRANCH  14  15
ENDBRANCH  13  14
ENDBRANCH   1  13
TORSDOF 16
ENDMDL
MODEL 5
REMARK VINA RESULT:    -4.566      3.262      7.308
REMARK INTER + INTRA:         -10.797
REMARK INTER:                  -8.432
REMARK INTRA:                  -2.365
REMARK UNBOUND:                -1.960
REMARK SMILES CCCCCC=CCC=CCCCCCCCCOC(C)=O
REMARK SMILES IDX 12 1 11 2 10 3 9 4 8 5 7 6 6 7 5 8 4 9 3 10 2 11 1 12 13 13
REMARK SMILES IDX 14 14 15 15 16 16 17 17 18 18 19 19 20 20 22 21 21 22
REMARK H PARENT
REMARK Flexibility Score: inf
ROOT
ATOM      1  C   UNL     1     -10.139   5.529   1.420  1.00  0.00     0.004 C 
ENDROOT
BRANCH   1   2
ATOM      2  C   UNL     1     -11.572   5.680   0.892  1.00  0.00     0.027 C 
BRANCH   2   3
ATOM      3  C   UNL     1     -11.775   6.993   0.177  1.00  0.00    -0.031 C 
ATOM      4  C   UNL     1     -11.473   7.210  -1.117  1.00  0.00    -0.027 C 
BRANCH   4   5
ATOM      5  C   UNL     1     -10.942   6.142  -2.042  1.00  0.00     0.054 C 
BRANCH   5   6
ATOM      6  C   UNL     1      -9.650   6.570  -2.677  1.00  0.00    -0.027 C 
ATOM      7  C   UNL     1      -9.359   6.263  -3.949  1.00  0.00    -0.031 C 
BRANCH   7   8
ATOM      8  C   UNL     1      -8.072   6.726  -4.579  1.00  0.00     0.027 C 
BRANCH   8   9
ATOM      9  C   UNL     1      -7.607   8.092  -4.040  1.00  0.00     0.004 C 
BRANCH   9  10
ATOM     10  C   UNL     1      -6.455   7.996  -3.024  1.00  0.00     0.000 C 
BRANCH  10  11
ATOM     11  C   UNL     1      -6.419   9.174  -2.040  1.00  0.00    -0.003 C 
ATOM     12  C   UNL     1      -7.698   9.239  -1.210  1.00  0.00     0.004 C 
ENDBRANCH  10  11
ENDBRANCH   9  10
ENDBRANCH   8   9
ENDBRANCH   7   8
ENDBRANCH   5   6
ENDBRANCH   4   5
ENDBRANCH   2   3
ENDBRANCH   1   2
BRANCH   1  13
ATOM     13  C   UNL     1      -9.518   4.177   1.035  1.00  0.00     0.000 C 
BRANCH  13  14
ATOM     14  C   UNL     1      -8.410   4.357  -0.013  1.00  0.00     0.000 C 
BRANCH  14  15
ATOM     15  C   UNL     1      -7.714   5.726   0.087  1.00  0.00     0.000 C 
BRANCH  15  16
ATOM     16  C   UNL     1      -6.189   5.669   0.309  1.00  0.00     0.003 C 
BRANCH  16  17
ATOM     17  C   UNL     1      -5.734   5.923   1.758  1.00  0.00     0.042 C 
BRANCH  17  18
ATOM     18  C   UNL     1      -6.875   6.327   2.702  1.00  0.00     0.233 C 
BRANCH  18  19
ATOM     19  O   UNL     1      -6.374   6.877   3.919  1.00  0.00    -0.466 OA
BRANCH  19  20
ATOM     20  C   UNL     1      -6.861   6.527   5.182  1.00  0.00     0.302 C 
ATOM     21  O   UNL     1      -8.092   6.611   5.445  1.00  0.00    -0.253 OA
ATOM     22  C   UNL     1      -5.910   6.089   6.243  1.00  0.00     0.139 C 
ENDBRANCH  19  20
ENDBRANCH  18  19
ENDBRANCH  17  18
ENDBRANCH  16  17
ENDBRANCH  15  16
ENDBRANCH  14  15
ENDBRANCH  13  14
ENDBRANCH   1  13
TORSDOF 16
ENDMDL
MODEL 6
REMARK VINA RESULT:    -4.553      1.181      1.714
REMARK INTER + INTRA:         -10.772
REMARK INTER:                  -8.549
REMARK INTRA:                  -2.223
REMARK UNBOUND:                -1.960
REMARK SMILES CCCCCC=CCC=CCCCCCCCCOC(C)=O
REMARK SMILES IDX 12 1 11 2 10 3 9 4 8 5 7 6 6 7 5 8 4 9 3 10 2 11 1 12 13 13
REMARK SMILES IDX 14 14 15 15 16 16 17 17 18 18 19 19 20 20 22 21 21 22
REMARK H PARENT
REMARK Flexibility Score: inf
ROOT
ATOM      1  C   UNL     1      -9.623   7.447  -2.152  1.00  0.00     0.004 C 
ENDROOT
BRANCH   1   2
ATOM      2  C   UNL     1     -10.111   6.011  -1.910  1.00  0.00     0.027 C 
BRANCH   2   3
ATOM      3  C   UNL     1      -8.964   5.043  -1.755  1.00  0.00    -0.031 C 
ATOM      4  C   UNL     1      -8.618   4.452  -0.597  1.00  0.00    -0.027 C 
BRANCH   4   5
ATOM      5  C   UNL     1      -9.375   4.638   0.696  1.00  0.00     0.054 C 
BRANCH   5   6
ATOM      6  C   UNL     1      -8.665   5.599   1.605  1.00  0.00    -0.027 C 
ATOM      7  C   UNL     1      -7.328   5.626   1.688  1.00  0.00    -0.031 C 
BRANCH   7   8
ATOM      8  C   UNL     1      -6.630   6.617   2.582  1.00  0.00     0.027 C 
BRANCH   8   9
ATOM      9  C   UNL     1      -6.514   6.124   4.036  1.00  0.00     0.004 C 
BRANCH   9  10
ATOM     10  C   UNL     1      -7.860   6.072   4.781  1.00  0.00     0.000 C 
BRANCH  10  11
ATOM     11  C   UNL     1      -7.733   6.378   6.280  1.00  0.00    -0.003 C 
ATOM     12  C   UNL     1      -6.350   6.929   6.615  1.00  0.00     0.004 C 
ENDBRANCH  10  11
ENDBRANCH   9  10
ENDBRANCH   8   9
ENDBRANCH   7   8
ENDBRANCH   5   6
ENDBRANCH   4   5
ENDBRANCH   2   3
ENDBRANCH   1   2
BRANCH   1  13
ATOM     13  C   UNL     1      -9.534   8.256  -0.848  1.00  0.00     0.000 C 
BRANCH  13  14
ATOM     14  C   UNL     1      -8.080   8.635  -0.533  1.00  0.00     0.000 C 
BRANCH  14  15
ATOM     15  C   UNL     1      -7.086   8.110  -1.585  1.00  0.00     0.000 C 
BRANCH  15  16
ATOM     16  C   UNL     1      -6.376   9.200  -2.413  1.00  0.00     0.003 C 
BRANCH  16  17
ATOM     17  C   UNL     1      -7.282   9.961  -3.399  1.00  0.00     0.042 C 
BRANCH  17  18
ATOM     18  C   UNL     1      -7.211   9.429  -4.837  1.00  0.00     0.233 C 
BRANCH  18  19
ATOM     19  O   UNL     1      -8.235   8.466  -5.086  1.00  0.00    -0.466 OA
BRANCH  19  20
ATOM     20  C   UNL     1      -7.990   7.206  -5.642  1.00  0.00     0.302 C 
ATOM     21  O   UNL     1      -8.781   6.246  -5.437  1.00  0.00    -0.253 OA
ATOM     22  C   UNL     1      -6.759   6.986  -6.453  1.00  0.00     0.139 C 
ENDBRANCH  19  20
ENDBRANCH  18  19
ENDBRANCH  17  18
ENDBRANCH  16  17
ENDBRANCH  15  16
ENDBRANCH  14  15
ENDBRANCH  13  14
ENDBRANCH   1  13
TORSDOF 16
ENDMDL
MODEL 7
REMARK VINA RESULT:    -4.525      3.108      6.601
REMARK INTER + INTRA:         -10.717
REMARK INTER:                  -7.373
REMARK INTRA:                  -3.344
REMARK UNBOUND:                -1.960
REMARK SMILES CCCCCC=CCC=CCCCCCCCCOC(C)=O
REMARK SMILES IDX 12 1 11 2 10 3 9 4 8 5 7 6 6 7 5 8 4 9 3 10 2 11 1 12 13 13
REMARK SMILES IDX 14 14 15 15 16 16 17 17 18 18 19 19 20 20 22 21 21 22
REMARK H PARENT
REMARK Flexibility Score: inf
ROOT
ATOM      1  C   UNL     1      -8.364   6.618  -4.628  1.00  0.00     0.004 C 
ENDROOT
BRANCH   1   2
ATOM      2  C   UNL     1      -7.129   7.362  -4.102  1.00  0.00     0.027 C 
BRANCH   2   3
ATOM      3  C   UNL     1      -7.349   8.853  -4.044  1.00  0.00    -0.031 C 
ATOM      4  C   UNL     1      -7.460   9.562  -2.905  1.00  0.00    -0.027 C 
BRANCH   4   5
ATOM      5  C   UNL     1      -7.317   8.960  -1.528  1.00  0.00     0.054 C 
BRANCH   5   6
ATOM      6  C   UNL     1      -8.649   8.860  -0.841  1.00  0.00    -0.027 C 
ATOM      7  C   UNL     1      -9.798   8.963  -1.525  1.00  0.00    -0.031 C 
BRANCH   7   8
ATOM      8  C   UNL     1     -11.125   8.831  -0.825  1.00  0.00     0.027 C 
BRANCH   8   9
ATOM      9  C   UNL     1     -11.801   7.473  -1.090  1.00  0.00     0.004 C 
BRANCH   9  10
ATOM     10  C   UNL     1     -11.952   6.601   0.170  1.00  0.00     0.000 C 
BRANCH  10  11
ATOM     11  C   UNL     1     -11.558   7.332   1.461  1.00  0.00    -0.003 C 
ATOM     12  C   UNL     1     -10.882   6.384   2.447  1.00  0.00     0.004 C 
ENDBRANCH  10  11
ENDBRANCH   9  10
ENDBRANCH   8   9
ENDBRANCH   7   8
ENDBRANCH   5   6
ENDBRANCH   4   5
ENDBRANCH   2   3
ENDBRANCH   1   2
BRANCH   1  13
ATOM     13  C   UNL     1      -9.167   5.957  -3.496  1.00  0.00     0.000 C 
BRANCH  13  14
ATOM     14  C   UNL     1      -8.245   5.509  -2.353  1.00  0.00     0.000 C 
BRANCH  14  15
ATOM     15  C   UNL     1      -9.020   4.948  -1.148  1.00  0.00     0.000 C 
BRANCH  15  16
ATOM     16  C   UNL     1      -8.257   4.981   0.192  1.00  0.00     0.003 C 
BRANCH  16  17
ATOM     17  C   UNL     1      -6.861   5.627   0.129  1.00  0.00     0.042 C 
BRANCH  17  18
ATOM     18  C   UNL     1      -6.586   6.612   1.274  1.00  0.00     0.233 C 
BRANCH  18  19
ATOM     19  O   UNL     1      -6.227   5.928   2.474  1.00  0.00    -0.466 OA
BRANCH  19  20
ATOM     20  C   UNL     1      -6.826   6.177   3.712  1.00  0.00     0.302 C 
ATOM     21  O   UNL     1      -6.446   7.141   4.431  1.00  0.00    -0.253 OA
ATOM     22  C   UNL     1      -7.899   5.268   4.207  1.00  0.00     0.139 C 
ENDBRANCH  19  20
ENDBRANCH  18  19
ENDBRANCH  17  18
ENDBRANCH  16  17
ENDBRANCH  15  16
ENDBRANCH  14  15
ENDBRANCH  13  14
ENDBRANCH   1  13
TORSDOF 16
ENDMDL
MODEL 8
REMARK VINA RESULT:    -4.521      3.347      7.704
REMARK INTER + INTRA:         -10.709
REMARK INTER:                  -7.925
REMARK INTRA:                  -2.784
REMARK UNBOUND:                -1.960
REMARK SMILES CCCCCC=CCC=CCCCCCCCCOC(C)=O
REMARK SMILES IDX 12 1 11 2 10 3 9 4 8 5 7 6 6 7 5 8 4 9 3 10 2 11 1 12 13 13
REMARK SMILES IDX 14 14 15 15 16 16 17 17 18 18 19 19 20 20 22 21 21 22
REMARK H PARENT
REMARK Flexibility Score: inf
ROOT
ATOM      1  C   UNL     1      -9.526   5.839  -2.379  1.00  0.00     0.004 C 
ENDROOT
BRANCH   1   2
ATOM      2  C   UNL     1     -10.856   6.277  -1.750  1.00  0.00     0.027 C 
BRANCH   2   3
ATOM      3  C   UNL     1     -10.802   6.257  -0.242  1.00  0.00    -0.031 C 
ATOM      4  C   UNL     1     -10.553   7.335   0.525  1.00  0.00    -0.027 C 
BRANCH   4   5
ATOM      5  C   UNL     1     -10.354   8.726  -0.027  1.00  0.00     0.054 C 
BRANCH   5   6
ATOM      6  C   UNL     1      -8.923   8.949  -0.424  1.00  0.00    -0.027 C 
ATOM      7  C   UNL     1      -8.603   9.571  -1.568  1.00  0.00    -0.031 C 
BRANCH   7   8
ATOM      8  C   UNL     1      -7.163   9.814  -1.936  1.00  0.00     0.027 C 
BRANCH   8   9
ATOM      9  C   UNL     1      -6.634   8.794  -2.961  1.00  0.00     0.004 C 
BRANCH   9  10
ATOM     10  C   UNL     1      -7.377   8.827  -4.308  1.00  0.00     0.000 C 
BRANCH  10  11
ATOM     11  C   UNL     1      -7.023   7.646  -5.223  1.00  0.00    -0.003 C 
ATOM     12  C   UNL     1      -8.261   6.818  -5.560  1.00  0.00     0.004 C 
ENDBRANCH  10  11
ENDBRANCH   9  10
ENDBRANCH   8   9
ENDBRANCH   7   8
ENDBRANCH   5   6
ENDBRANCH   4   5
ENDBRANCH   2   3
ENDBRANCH   1   2
BRANCH   1  13
ATOM     13  C   UNL     1      -8.619   5.117  -1.371  1.00  0.00     0.000 C 
BRANCH  13  14
ATOM     14  C   UNL     1      -7.278   5.849  -1.212  1.00  0.00     0.000 C 
BRANCH  14  15
ATOM     15  C   UNL     1      -6.578   5.525   0.120  1.00  0.00     0.000 C 
BRANCH  15  16
ATOM     16  C   UNL     1      -7.208   6.180   1.365  1.00  0.00     0.003 C 
BRANCH  16  17
ATOM     17  C   UNL     1      -7.980   5.217   2.287  1.00  0.00     0.042 C 
BRANCH  17  18
ATOM     18  C   UNL     1      -8.418   5.852   3.614  1.00  0.00     0.233 C 
BRANCH  18  19
ATOM     19  O   UNL     1      -7.400   6.698   4.147  1.00  0.00    -0.466 OA
BRANCH  19  20
ATOM     20  C   UNL     1      -6.752   6.455   5.362  1.00  0.00     0.302 C 
ATOM     21  O   UNL     1      -5.747   7.134   5.705  1.00  0.00    -0.253 OA
ATOM     22  C   UNL     1      -7.232   5.354   6.245  1.00  0.00     0.139 C 
ENDBRANCH  19  20
ENDBRANCH  18  19
ENDBRANCH  17  18
ENDBRANCH  16  17
ENDBRANCH  15  16
ENDBRANCH  14  15
ENDBRANCH  13  14
ENDBRANCH   1  13
TORSDOF 16
ENDMDL
MODEL 9
REMARK VINA RESULT:    -4.501      4.250      8.385
REMARK INTER + INTRA:         -10.671
REMARK INTER:                  -7.990
REMARK INTRA:                  -2.682
REMARK UNBOUND:                -1.960
REMARK SMILES CCCCCC=CCC=CCCCCCCCCOC(C)=O
REMARK SMILES IDX 12 1 11 2 10 3 9 4 8 5 7 6 6 7 5 8 4 9 3 10 2 11 1 12 13 13
REMARK SMILES IDX 14 14 15 15 16 16 17 17 18 18 19 19 20 20 22 21 21 22
REMARK H PARENT
REMARK Flexibility Score: inf
ROOT
ATOM      1  C   UNL     1      -7.153   5.713  -0.495  1.00  0.00     0.004 C 
ENDROOT
BRANCH   1   2
ATOM      2  C   UNL     1      -8.420   4.905  -0.808  1.00  0.00     0.027 C 
BRANCH   2   3
ATOM      3  C   UNL     1      -8.916   5.151  -2.211  1.00  0.00    -0.031 C 
ATOM      4  C   UNL     1      -9.972   5.928  -2.520  1.00  0.00    -0.027 C 
BRANCH   4   5
ATOM      5  C   UNL     1     -10.765   6.706  -1.498  1.00  0.00     0.054 C 
BRANCH   5   6
ATOM      6  C   UNL     1     -10.334   8.144  -1.461  1.00  0.00    -0.027 C 
ATOM      7  C   UNL     1      -9.505   8.602  -0.513  1.00  0.00    -0.031 C 
BRANCH   7   8
ATOM      8  C   UNL     1      -9.059  10.040  -0.508  1.00  0.00     0.027 C 
BRANCH   8   9
ATOM      9  C   UNL     1      -8.084  10.361  -1.655  1.00  0.00     0.004 C 
BRANCH   9  10
ATOM     10  C   UNL     1      -6.766   9.568  -1.587  1.00  0.00     0.000 C 
BRANCH  10  11
ATOM     11  C   UNL     1      -6.599   8.574  -2.746  1.00  0.00    -0.003 C 
ATOM     12  C   UNL     1      -7.623   8.834  -3.847  1.00  0.00     0.004 C 
ENDBRANCH  10  11
ENDBRANCH   9  10
ENDBRANCH   8   9
ENDBRANCH   7   8
ENDBRANCH   5   6
ENDBRANCH   4   5
ENDBRANCH   2   3
ENDBRANCH   1   2
BRANCH   1  13
ATOM     13  C   UNL     1      -7.100   6.163   0.973  1.00  0.00     0.000 C 
BRANCH  13  14
ATOM     14  C   UNL     1      -8.346   5.694   1.739  1.00  0.00     0.000 C 
BRANCH  14  15
ATOM     15  C   UNL     1      -8.045   5.347   3.208  1.00  0.00     0.000 C 
BRANCH  15  16
ATOM     16  C   UNL     1      -6.725   5.923   3.758  1.00  0.00     0.003 C 
BRANCH  16  17
ATOM     17  C   UNL     1      -6.842   6.632   5.120  1.00  0.00     0.042 C 
BRANCH  17  18
ATOM     18  C   UNL     1      -5.939   6.032   6.207  1.00  0.00     0.233 C 
BRANCH  18  19
ATOM     19  O   UNL     1      -6.690   5.668   7.364  1.00  0.00    -0.466 OA
BRANCH  19  20
ATOM     20  C   UNL     1      -7.797   4.815   7.329  1.00  0.00     0.302 C 
ATOM     21  O   UNL     1      -7.676   3.614   6.963  1.00  0.00    -0.253 OA
ATOM     22  C   UNL     1      -9.144   5.341   7.690  1.00  0.00     0.139 C 
ENDBRANCH  19  20
ENDBRANCH  18  19
ENDBRANCH  17  18
ENDBRANCH  16  17
ENDBRANCH  15  16
ENDBRANCH  14  15
ENDBRANCH  13  14
ENDBRANCH   1  13
TORSDOF 16
ENDMDL
