MODEL 1
REMARK VINA RESULT:    -3.154      0.000      0.000
REMARK INTER + INTRA:          -8.954
REMARK INTER:                  -6.105
REMARK INTRA:                  -2.849
REMARK UNBOUND:                -2.849
REMARK SMILES CCCCCCCCCCCCCCCCCC(=O)[O-]
REMARK SMILES IDX 10 1 11 2 12 3 13 4 14 5 15 6 16 7 17 8 18 9 19 10 20 11
REMARK SMILES IDX 9 12 8 13 7 14 6 15 5 16 4 17 3 18 2 19 1 20
REMARK H PARENT
REMARK Flexibility Score: inf
ROOT
ATOM      1  C   UNL     1      70.503   8.605 365.962  1.00  0.00     0.000 C 
ENDROOT
BRANCH   1   2
ATOM      2  C   UNL     1      69.541   9.608 366.628  1.00  0.00     0.000 C 
BRANCH   2   3
ATOM      3  C   UNL     1      69.708  11.072 366.177  1.00  0.00     0.000 C 
BRANCH   3   4
ATOM      4  C   UNL     1      70.399  11.997 367.200  1.00  0.00     0.000 C 
BRANCH   4   5
ATOM      5  C   UNL     1      71.894  12.260 366.941  1.00  0.00     0.000 C 
BRANCH   5   6
ATOM      6  C   UNL     1      72.812  11.286 367.697  1.00  0.00     0.000 C 
BRANCH   6   7
ATOM      7  C   UNL     1      73.749  10.496 366.762  1.00  0.00     0.006 C 
BRANCH   7   8
ATOM      8  C   UNL     1      73.403  10.632 365.269  1.00  0.00     0.053 C 
BRANCH   8   9
ATOM      9  C   UNL     1      74.560  10.302 364.377  1.00  0.00     0.041 C 
ATOM     10  O   UNL     1      74.686  10.876 363.263  1.00  0.00    -0.550 OA
ATOM     11  O   UNL     1      75.514   9.376 364.784  1.00  0.00    -0.550 OA
ENDBRANCH   8   9
ENDBRANCH   7   8
ENDBRANCH   6   7
ENDBRANCH   5   6
ENDBRANCH   4   5
ENDBRANCH   3   4
ENDBRANCH   2   3
ENDBRANCH   1   2
BRANCH   1  12
ATOM     12  C   UNL     1      70.233   7.125 366.288  1.00  0.00     0.000 C 
BRANCH  12  13
ATOM     13  C   UNL     1      70.000   6.270 365.030  1.00  0.00    -0.000 C 
BRANCH  13  14
ATOM     14  C   UNL     1      68.509   6.026 364.749  1.00  0.00    -0.000 C 
BRANCH  14  15
ATOM     15  C   UNL     1      68.024   6.725 363.469  1.00  0.00    -0.000 C 
BRANCH  15  16
ATOM     16  C   UNL     1      67.456   8.117 363.784  1.00  0.00    -0.000 C 
BRANCH  16  17
ATOM     17  C   UNL     1      68.217   9.241 363.048  1.00  0.00    -0.000 C 
BRANCH  17  18
ATOM     18  C   UNL     1      69.371   8.731 362.163  1.00  0.00    -0.000 C 
BRANCH  18  19
ATOM     19  C   UNL     1      70.750   9.320 362.501  1.00  0.00    -0.003 C 
ATOM     20  C   UNL     1      70.713  10.835 362.710  1.00  0.00     0.004 C 
ENDBRANCH  18  19
ENDBRANCH  17  18
ENDBRANCH  16  17
ENDBRANCH  15  16
ENDBRANCH  14  15
ENDBRANCH  13  14
ENDBRANCH  12  13
ENDBRANCH   1  12
TORSDOF 16
ENDMDL
MODEL 2
REMARK VINA RESULT:    -3.074      2.010      4.747
REMARK INTER + INTRA:          -8.798
REMARK INTER:                  -6.097
REMARK INTRA:                  -2.701
REMARK UNBOUND:                -2.849
REMARK SMILES CCCCCCCCCCCCCCCCCC(=O)[O-]
REMARK SMILES IDX 10 1 11 2 12 3 13 4 14 5 15 6 16 7 17 8 18 9 19 10 20 11
REMARK SMILES IDX 9 12 8 13 7 14 6 15 5 16 4 17 3 18 2 19 1 20
REMARK H PARENT
REMARK Flexibility Score: inf
ROOT
ATOM      1  C   UNL     1      67.870   6.277 362.970  1.00  0.00     0.000 C 
ENDROOT
BRANCH   1   2
ATOM      2  C   UNL     1      67.244   7.616 362.533  1.00  0.00     0.000 C 
BRANCH   2   3
ATOM      3  C   UNL     1      68.205   8.822 362.549  1.00  0.00     0.000 C 
BRANCH   3   4
ATOM      4  C   UNL     1      69.639   8.521 362.067  1.00  0.00     0.000 C 
BRANCH   4   5
ATOM      5  C   UNL     1      70.757   9.247 362.838  1.00  0.00     0.000 C 
BRANCH   5   6
ATOM      6  C   UNL     1      70.543  10.768 362.911  1.00  0.00     0.000 C 
BRANCH   6   7
ATOM      7  C   UNL     1      71.519  11.555 362.014  1.00  0.00     0.006 C 
BRANCH   7   8
ATOM      8  C   UNL     1      70.984  11.831 360.598  1.00  0.00     0.053 C 
BRANCH   8   9
ATOM      9  C   UNL     1      71.824  11.200 359.531  1.00  0.00     0.041 C 
ATOM     10  O   UNL     1      73.081  11.244 359.604  1.00  0.00    -0.550 OA
ATOM     11  O   UNL     1      71.220  10.541 358.465  1.00  0.00    -0.550 OA
ENDBRANCH   8   9
ENDBRANCH   7   8
ENDBRANCH   6   7
ENDBRANCH   5   6
ENDBRANCH   4   5
ENDBRANCH   3   4
ENDBRANCH   2   3
ENDBRANCH   1   2
BRANCH   1  12
ATOM     12  C   UNL     1      68.122   6.137 364.483  1.00  0.00     0.000 C 
BRANCH  12  13
ATOM     13  C   UNL     1      69.618   6.065 364.834  1.00  0.00    -0.000 C 
BRANCH  13  14
ATOM     14  C   UNL     1      70.031   7.116 365.877  1.00  0.00    -0.000 C 
BRANCH  14  15
ATOM     15  C   UNL     1      68.980   8.223 366.052  1.00  0.00    -0.000 C 
BRANCH  15  16
ATOM     16  C   UNL     1      69.637   9.544 366.481  1.00  0.00    -0.000 C 
BRANCH  16  17
ATOM     17  C   UNL     1      71.171   9.516 366.315  1.00  0.00    -0.000 C 
BRANCH  17  18
ATOM     18  C   UNL     1      71.858  10.850 366.669  1.00  0.00    -0.000 C 
BRANCH  18  19
ATOM     19  C   UNL     1      72.967  11.280 365.697  1.00  0.00    -0.003 C 
ATOM     20  C   UNL     1      73.787  10.101 365.171  1.00  0.00     0.004 C 
ENDBRANCH  18  19
ENDBRANCH  17  18
ENDBRANCH  16  17
ENDBRANCH  15  16
ENDBRANCH  14  15
ENDBRANCH  13  14
ENDBRANCH  12  13
ENDBRANCH   1  12
TORSDOF 16
ENDMDL
MODEL 3
REMARK VINA RESULT:    -3.072      1.361      2.350
REMARK INTER + INTRA:          -8.794
REMARK INTER:                  -5.822
REMARK INTRA:                  -2.972
REMARK UNBOUND:                -2.849
REMARK SMILES CCCCCCCCCCCCCCCCCC(=O)[O-]
REMARK SMILES IDX 10 1 11 2 12 3 13 4 14 5 15 6 16 7 17 8 18 9 19 10 20 11
REMARK SMILES IDX 9 12 8 13 7 14 6 15 5 16 4 17 3 18 2 19 1 20
REMARK H PARENT
REMARK Flexibility Score: inf
ROOT
ATOM      1  C   UNL     1      68.939   9.175 366.860  1.00  0.00     0.000 C 
ENDROOT
BRANCH   1   2
ATOM      2  C   UNL     1      69.220  10.683 366.713  1.00  0.00     0.000 C 
BRANCH   2   3
ATOM      3  C   UNL     1      70.654  11.041 366.276  1.00  0.00     0.000 C 
BRANCH   3   4
ATOM      4  C   UNL     1      71.537  11.660 367.379  1.00  0.00     0.000 C 
BRANCH   4   5
ATOM      5  C   UNL     1      73.006  11.196 367.382  1.00  0.00     0.000 C 
BRANCH   5   6
ATOM      6  C   UNL     1      73.227   9.910 366.570  1.00  0.00     0.000 C 
BRANCH   6   7
ATOM      7  C   UNL     1      74.554   9.916 365.784  1.00  0.00     0.006 C 
BRANCH   7   8
ATOM      8  C   UNL     1      74.377   9.981 364.257  1.00  0.00     0.053 C 
BRANCH   8   9
ATOM      9  C   UNL     1      73.763  11.269 363.802  1.00  0.00     0.041 C 
ATOM     10  O   UNL     1      74.243  12.370 364.183  1.00  0.00    -0.550 OA
ATOM     11  O   UNL     1      72.673  11.256 362.939  1.00  0.00    -0.550 OA
ENDBRANCH   8   9
ENDBRANCH   7   8
ENDBRANCH   6   7
ENDBRANCH   5   6
ENDBRANCH   4   5
ENDBRANCH   3   4
ENDBRANCH   2   3
ENDBRANCH   1   2
BRANCH   1  12
ATOM     12  C   UNL     1      70.056   8.249 366.345  1.00  0.00     0.000 C 
BRANCH  12  13
ATOM     13  C   UNL     1      69.514   7.015 365.602  1.00  0.00    -0.000 C 
BRANCH  13  14
ATOM     14  C   UNL     1      69.798   7.062 364.093  1.00  0.00    -0.000 C 
BRANCH  14  15
ATOM     15  C   UNL     1      70.523   8.348 363.665  1.00  0.00    -0.000 C 
BRANCH  15  16
ATOM     16  C   UNL     1      69.742   9.079 362.562  1.00  0.00    -0.000 C 
BRANCH  16  17
ATOM     17  C   UNL     1      69.196  10.443 363.036  1.00  0.00    -0.000 C 
BRANCH  17  18
ATOM     18  C   UNL     1      67.661  10.482 363.173  1.00  0.00    -0.000 C 
BRANCH  18  19
ATOM     19  C   UNL     1      66.964   9.125 362.989  1.00  0.00    -0.003 C 
ATOM     20  C   UNL     1      66.325   8.606 364.278  1.00  0.00     0.004 C 
ENDBRANCH  18  19
ENDBRANCH  17  18
ENDBRANCH  16  17
ENDBRANCH  15  16
ENDBRANCH  14  15
ENDBRANCH  13  14
ENDBRANCH  12  13
ENDBRANCH   1  12
TORSDOF 16
ENDMDL
MODEL 4
REMARK VINA RESULT:    -3.054      2.873      5.766
REMARK INTER + INTRA:          -8.760
REMARK INTER:                  -5.793
REMARK INTRA:                  -2.967
REMARK UNBOUND:                -2.849
REMARK SMILES CCCCCCCCCCCCCCCCCC(=O)[O-]
REMARK SMILES IDX 10 1 11 2 12 3 13 4 14 5 15 6 16 7 17 8 18 9 19 10 20 11
REMARK SMILES IDX 9 12 8 13 7 14 6 15 5 16 4 17 3 18 2 19 1 20
REMARK H PARENT
REMARK Flexibility Score: inf
ROOT
ATOM      1  C   UNL     1      69.888   9.863 362.640  1.00  0.00     0.000 C 
ENDROOT
BRANCH   1   2
ATOM      2  C   UNL     1      69.298  11.127 363.296  1.00  0.00     0.000 C 
BRANCH   2   3
ATOM      3  C   UNL     1      68.158  10.870 364.300  1.00  0.00     0.000 C 
BRANCH   3   4
ATOM      4  C   UNL     1      67.879   9.384 364.605  1.00  0.00     0.000 C 
BRANCH   4   5
ATOM      5  C   UNL     1      68.189   8.941 366.048  1.00  0.00     0.000 C 
BRANCH   5   6
ATOM      6  C   UNL     1      69.681   8.652 366.277  1.00  0.00     0.000 C 
BRANCH   6   7
ATOM      7  C   UNL     1      70.018   7.149 366.215  1.00  0.00     0.006 C 
BRANCH   7   8
ATOM      8  C   UNL     1      70.007   6.564 364.792  1.00  0.00     0.053 C 
BRANCH   8   9
ATOM      9  C   UNL     1      69.039   5.430 364.643  1.00  0.00     0.041 C 
ATOM     10  O   UNL     1      69.444   4.239 364.707  1.00  0.00    -0.550 OA
ATOM     11  O   UNL     1      67.686   5.687 364.455  1.00  0.00    -0.550 OA
ENDBRANCH   8   9
ENDBRANCH   7   8
ENDBRANCH   6   7
ENDBRANCH   5   6
ENDBRANCH   4   5
ENDBRANCH   3   4
ENDBRANCH   2   3
ENDBRANCH   1   2
BRANCH   1  12
ATOM     12  C   UNL     1      71.337   9.533 363.045  1.00  0.00     0.000 C 
BRANCH  12  13
ATOM     13  C   UNL     1      71.921  10.544 364.048  1.00  0.00    -0.000 C 
BRANCH  13  14
ATOM     14  C   UNL     1      73.193  10.026 364.735  1.00  0.00    -0.000 C 
BRANCH  14  15
ATOM     15  C   UNL     1      73.005   9.806 366.244  1.00  0.00    -0.000 C 
BRANCH  15  16
ATOM     16  C   UNL     1      73.669  10.932 367.052  1.00  0.00    -0.000 C 
BRANCH  16  17
ATOM     17  C   UNL     1      72.679  12.064 367.401  1.00  0.00    -0.000 C 
BRANCH  17  18
ATOM     18  C   UNL     1      71.212  11.600 367.490  1.00  0.00    -0.000 C 
BRANCH  18  19
ATOM     19  C   UNL     1      70.187  12.594 366.920  1.00  0.00    -0.003 C 
ATOM     20  C   UNL     1      70.769  13.480 365.819  1.00  0.00     0.004 C 
ENDBRANCH  18  19
ENDBRANCH  17  18
ENDBRANCH  16  17
ENDBRANCH  15  16
ENDBRANCH  14  15
ENDBRANCH  13  14
ENDBRANCH  12  13
ENDBRANCH   1  12
TORSDOF 16
ENDMDL
MODEL 5
REMARK VINA RESULT:    -3.034      2.946      6.025
REMARK INTER + INTRA:          -8.722
REMARK INTER:                  -5.759
REMARK INTRA:                  -2.962
REMARK UNBOUND:                -2.849
REMARK SMILES CCCCCCCCCCCCCCCCCC(=O)[O-]
REMARK SMILES IDX 10 1 11 2 12 3 13 4 14 5 15 6 16 7 17 8 18 9 19 10 20 11
REMARK SMILES IDX 9 12 8 13 7 14 6 15 5 16 4 17 3 18 2 19 1 20
REMARK H PARENT
REMARK Flexibility Score: inf
ROOT
ATOM      1  C   UNL     1      72.298   9.746 363.597  1.00  0.00     0.000 C 
ENDROOT
BRANCH   1   2
ATOM      2  C   UNL     1      70.836  10.184 363.373  1.00  0.00     0.000 C 
BRANCH   2   3
ATOM      3  C   UNL     1      70.362  11.354 364.256  1.00  0.00     0.000 C 
BRANCH   3   4
ATOM      4  C   UNL     1      69.450  10.955 365.434  1.00  0.00     0.000 C 
BRANCH   4   5
ATOM      5  C   UNL     1      68.923   9.508 365.396  1.00  0.00     0.000 C 
BRANCH   5   6
ATOM      6  C   UNL     1      69.253   8.718 366.672  1.00  0.00     0.000 C 
BRANCH   6   7
ATOM      7  C   UNL     1      70.089   7.453 366.397  1.00  0.00     0.006 C 
BRANCH   7   8
ATOM      8  C   UNL     1      70.028   6.968 364.937  1.00  0.00     0.053 C 
BRANCH   8   9
ATOM      9  C   UNL     1      69.107   5.801 364.756  1.00  0.00     0.041 C 
ATOM     10  O   UNL     1      67.866   5.984 364.644  1.00  0.00    -0.550 OA
ATOM     11  O   UNL     1      69.621   4.511 364.687  1.00  0.00    -0.550 OA
ENDBRANCH   8   9
ENDBRANCH   7   8
ENDBRANCH   6   7
ENDBRANCH   5   6
ENDBRANCH   4   5
ENDBRANCH   3   4
ENDBRANCH   2   3
ENDBRANCH   1   2
BRANCH   1  12
ATOM     12  C   UNL     1      73.220  10.828 364.190  1.00  0.00     0.000 C 
BRANCH  12  13
ATOM     13  C   UNL     1      73.985  10.343 365.434  1.00  0.00    -0.000 C 
BRANCH  13  14
ATOM     14  C   UNL     1      73.051   9.805 366.529  1.00  0.00    -0.000 C 
BRANCH  14  15
ATOM     15  C   UNL     1      72.464  10.920 367.409  1.00  0.00    -0.000 C 
BRANCH  15  16
ATOM     16  C   UNL     1      73.566  11.873 367.897  1.00  0.00    -0.000 C 
BRANCH  16  17
ATOM     17  C   UNL     1      73.080  13.335 367.985  1.00  0.00    -0.000 C 
BRANCH  17  18
ATOM     18  C   UNL     1      73.958  14.329 367.199  1.00  0.00    -0.000 C 
BRANCH  18  19
ATOM     19  C   UNL     1      73.861  14.203 365.670  1.00  0.00    -0.003 C 
ATOM     20  C   UNL     1      72.428  14.335 365.153  1.00  0.00     0.004 C 
ENDBRANCH  18  19
ENDBRANCH  17  18
ENDBRANCH  16  17
ENDBRANCH  15  16
ENDBRANCH  14  15
ENDBRANCH  13  14
ENDBRANCH  12  13
ENDBRANCH   1  12
TORSDOF 16
ENDMDL
MODEL 6
REMARK VINA RESULT:    -3.023      3.050      5.714
REMARK INTER + INTRA:          -8.700
REMARK INTER:                  -5.922
REMARK INTRA:                  -2.777
REMARK UNBOUND:                -2.849
REMARK SMILES CCCCCCCCCCCCCCCCCC(=O)[O-]
REMARK SMILES IDX 10 1 11 2 12 3 13 4 14 5 15 6 16 7 17 8 18 9 19 10 20 11
REMARK SMILES IDX 9 12 8 13 7 14 6 15 5 16 4 17 3 18 2 19 1 20
REMARK H PARENT
REMARK Flexibility Score: inf
ROOT
ATOM      1  C   UNL     1      72.228  11.352 367.393  1.00  0.00     0.000 C 
ENDROOT
BRANCH   1   2
ATOM      2  C   UNL     1      70.985  11.515 366.494  1.00  0.00     0.000 C 
BRANCH   2   3
ATOM      3  C   UNL     1      69.923  10.408 366.643  1.00  0.00     0.000 C 
BRANCH   3   4
ATOM      4  C   UNL     1      70.438   8.973 366.406  1.00  0.00     0.000 C 
BRANCH   4   5
ATOM      5  C   UNL     1      69.345   7.914 366.171  1.00  0.00     0.000 C 
BRANCH   5   6
ATOM      6  C   UNL     1      69.838   6.719 365.339  1.00  0.00     0.000 C 
BRANCH   6   7
ATOM      7  C   UNL     1      68.692   5.950 364.654  1.00  0.00     0.006 C 
BRANCH   7   8
ATOM      8  C   UNL     1      68.395   6.417 363.218  1.00  0.00     0.053 C 
BRANCH   8   9
ATOM      9  C   UNL     1      67.004   6.949 363.061  1.00  0.00     0.041 C 
ATOM     10  O   UNL     1      66.241   6.478 362.177  1.00  0.00    -0.550 OA
ATOM     11  O   UNL     1      66.540   7.952 363.906  1.00  0.00    -0.550 OA
ENDBRANCH   8   9
ENDBRANCH   7   8
ENDBRANCH   6   7
ENDBRANCH   5   6
ENDBRANCH   4   5
ENDBRANCH   3   4
ENDBRANCH   2   3
ENDBRANCH   1   2
BRANCH   1  12
ATOM     12  C   UNL     1      73.578  11.403 366.655  1.00  0.00     0.000 C 
BRANCH  12  13
ATOM     13  C   UNL     1      73.991  10.039 366.073  1.00  0.00    -0.000 C 
BRANCH  13  14
ATOM     14  C   UNL     1      74.179  10.080 364.549  1.00  0.00    -0.000 C 
BRANCH  14  15
ATOM     15  C   UNL     1      73.607  11.358 363.915  1.00  0.00    -0.000 C 
BRANCH  15  16
ATOM     16  C   UNL     1      72.398  11.036 363.023  1.00  0.00    -0.000 C 
BRANCH  16  17
ATOM     17  C   UNL     1      71.871   9.602 363.244  1.00  0.00    -0.000 C 
BRANCH  17  18
ATOM     18  C   UNL     1      70.426   9.390 362.752  1.00  0.00    -0.000 C 
BRANCH  18  19
ATOM     19  C   UNL     1      69.649  10.683 362.462  1.00  0.00    -0.003 C 
ATOM     20  C   UNL     1      68.418  10.850 363.353  1.00  0.00     0.004 C 
ENDBRANCH  18  19
ENDBRANCH  17  18
ENDBRANCH  16  17
ENDBRANCH  15  16
ENDBRANCH  14  15
ENDBRANCH  13  14
ENDBRANCH  12  13
ENDBRANCH   1  12
TORSDOF 16
ENDMDL
MODEL 7
REMARK VINA RESULT:    -3.019      2.886      5.225
REMARK INTER + INTRA:          -8.692
REMARK INTER:                  -5.707
REMARK INTRA:                  -2.985
REMARK UNBOUND:                -2.849
REMARK SMILES CCCCCCCCCCCCCCCCCC(=O)[O-]
REMARK SMILES IDX 10 1 11 2 12 3 13 4 14 5 15 6 16 7 17 8 18 9 19 10 20 11
REMARK SMILES IDX 9 12 8 13 7 14 6 15 5 16 4 17 3 18 2 19 1 20
REMARK H PARENT
REMARK Flexibility Score: inf
ROOT
ATOM      1  C   UNL     1      72.396  12.930 367.779  1.00  0.00     0.000 C 
ENDROOT
BRANCH   1   2
ATOM      2  C   UNL     1      70.946  12.409 367.715  1.00  0.00     0.000 C 
BRANCH   2   3
ATOM      3  C   UNL     1      70.346  12.318 366.299  1.00  0.00     0.000 C 
BRANCH   3   4
ATOM      4  C   UNL     1      69.594  11.007 365.991  1.00  0.00     0.000 C 
BRANCH   4   5
ATOM      5  C   UNL     1      69.879   9.844 366.960  1.00  0.00     0.000 C 
BRANCH   5   6
ATOM      6  C   UNL     1      69.163   8.544 366.560  1.00  0.00     0.000 C 
BRANCH   6   7
ATOM      7  C   UNL     1      70.121   7.482 365.985  1.00  0.00     0.006 C 
BRANCH   7   8
ATOM      8  C   UNL     1      69.732   6.983 364.582  1.00  0.00     0.053 C 
BRANCH   8   9
ATOM      9  C   UNL     1      69.037   5.657 364.615  1.00  0.00     0.041 C 
ATOM     10  O   UNL     1      67.797   5.585 364.403  1.00  0.00    -0.550 OA
ATOM     11  O   UNL     1      69.761   4.495 364.858  1.00  0.00    -0.550 OA
ENDBRANCH   8   9
ENDBRANCH   7   8
ENDBRANCH   6   7
ENDBRANCH   5   6
ENDBRANCH   4   5
ENDBRANCH   3   4
ENDBRANCH   2   3
ENDBRANCH   1   2
BRANCH   1  12
ATOM     12  C   UNL     1      73.389  12.211 366.847  1.00  0.00     0.000 C 
BRANCH  12  13
ATOM     13  C   UNL     1      73.648  10.752 367.263  1.00  0.00    -0.000 C 
BRANCH  13  14
ATOM     14  C   UNL     1      73.419   9.760 366.112  1.00  0.00    -0.000 C 
BRANCH  14  15
ATOM     15  C   UNL     1      73.301  10.455 364.746  1.00  0.00    -0.000 C 
BRANCH  15  16
ATOM     16  C   UNL     1      72.247   9.764 363.867  1.00  0.00    -0.000 C 
BRANCH  16  17
ATOM     17  C   UNL     1      71.704  10.696 362.763  1.00  0.00    -0.000 C 
BRANCH  17  18
ATOM     18  C   UNL     1      72.020  12.186 362.997  1.00  0.00    -0.000 C 
BRANCH  18  19
ATOM     19  C   UNL     1      70.893  13.153 362.601  1.00  0.00    -0.003 C 
ATOM     20  C   UNL     1      69.517  12.486 362.584  1.00  0.00     0.004 C 
ENDBRANCH  18  19
ENDBRANCH  17  18
ENDBRANCH  16  17
ENDBRANCH  15  16
ENDBRANCH  14  15
ENDBRANCH  13  14
ENDBRANCH  12  13
ENDBRANCH   1  12
TORSDOF 16
ENDMDL
MODEL 8
REMARK VINA RESULT:    -3.003      1.780      3.941
REMARK INTER + INTRA:          -8.661
REMARK INTER:                  -6.365
REMARK INTRA:                  -2.296
REMARK UNBOUND:                -2.849
REMARK SMILES CCCCCCCCCCCCCCCCCC(=O)[O-]
REMARK SMILES IDX 10 1 11 2 12 3 13 4 14 5 15 6 16 7 17 8 18 9 19 10 20 11
REMARK SMILES IDX 9 12 8 13 7 14 6 15 5 16 4 17 3 18 2 19 1 20
REMARK H PARENT
REMARK Flexibility Score: inf
ROOT
ATOM      1  C   UNL     1      67.912   6.465 363.119  1.00  0.00     0.000 C 
ENDROOT
BRANCH   1   2
ATOM      2  C   UNL     1      68.241   5.968 364.541  1.00  0.00     0.000 C 
BRANCH   2   3
ATOM      3  C   UNL     1      69.743   5.926 364.886  1.00  0.00     0.000 C 
BRANCH   3   4
ATOM      4  C   UNL     1      70.183   6.890 366.007  1.00  0.00     0.000 C 
BRANCH   4   5
ATOM      5  C   UNL     1      69.267   8.110 366.220  1.00  0.00     0.000 C 
BRANCH   5   6
ATOM      6  C   UNL     1      70.034   9.442 366.215  1.00  0.00     0.000 C 
BRANCH   6   7
ATOM      7  C   UNL     1      71.564   9.254 366.181  1.00  0.00     0.006 C 
BRANCH   7   8
ATOM      8  C   UNL     1      72.334  10.482 365.665  1.00  0.00     0.053 C 
BRANCH   8   9
ATOM      9  C   UNL     1      73.799  10.217 365.502  1.00  0.00     0.041 C 
ATOM     10  O   UNL     1      74.531  10.056 366.514  1.00  0.00    -0.550 OA
ATOM     11  O   UNL     1      74.354  10.126 364.230  1.00  0.00    -0.550 OA
ENDBRANCH   8   9
ENDBRANCH   7   8
ENDBRANCH   6   7
ENDBRANCH   5   6
ENDBRANCH   4   5
ENDBRANCH   3   4
ENDBRANCH   2   3
ENDBRANCH   1   2
BRANCH   1  12
ATOM     12  C   UNL     1      67.223   7.840 363.050  1.00  0.00     0.000 C 
BRANCH  12  13
ATOM     13  C   UNL     1      68.211   8.990 362.788  1.00  0.00    -0.000 C 
BRANCH  13  14
ATOM     14  C   UNL     1      69.471   8.526 362.042  1.00  0.00    -0.000 C 
BRANCH  14  15
ATOM     15  C   UNL     1      70.765   9.074 362.665  1.00  0.00    -0.000 C 
BRANCH  15  16
ATOM     16  C   UNL     1      71.158  10.415 362.026  1.00  0.00    -0.000 C 
BRANCH  16  17
ATOM     17  C   UNL     1      70.708  10.517 360.553  1.00  0.00    -0.000 C 
BRANCH  17  18
ATOM     18  C   UNL     1      71.842  10.902 359.583  1.00  0.00    -0.000 C 
BRANCH  18  19
ATOM     19  C   UNL     1      72.929  11.804 360.189  1.00  0.00    -0.003 C 
ATOM     20  C   UNL     1      73.051  13.150 359.474  1.00  0.00     0.004 C 
ENDBRANCH  18  19
ENDBRANCH  17  18
ENDBRANCH  16  17
ENDBRANCH  15  16
ENDBRANCH  14  15
ENDBRANCH  13  14
ENDBRANCH  12  13
ENDBRANCH   1  12
TORSDOF 16
ENDMDL
MODEL 9
REMARK VINA RESULT:    -2.984      2.230      5.324
REMARK INTER + INTRA:          -8.624
REMARK INTER:                  -6.572
REMARK INTRA:                  -2.052
REMARK UNBOUND:                -2.849
REMARK SMILES CCCCCCCCCCCCCCCCCC(=O)[O-]
REMARK SMILES IDX 10 1 11 2 12 3 13 4 14 5 15 6 16 7 17 8 18 9 19 10 20 11
REMARK SMILES IDX 9 12 8 13 7 14 6 15 5 16 4 17 3 18 2 19 1 20
REMARK H PARENT
REMARK Flexibility Score: inf
ROOT
ATOM      1  C   UNL     1      69.731   6.115 365.210  1.00  0.00     0.000 C 
ENDROOT
BRANCH   1   2
ATOM      2  C   UNL     1      68.363   6.559 364.654  1.00  0.00     0.000 C 
BRANCH   2   3
ATOM      3  C   UNL     1      68.270   6.613 363.117  1.00  0.00     0.000 C 
BRANCH   3   4
ATOM      4  C   UNL     1      68.869   7.878 362.470  1.00  0.00     0.000 C 
BRANCH   4   5
ATOM      5  C   UNL     1      68.189   9.202 362.866  1.00  0.00     0.000 C 
BRANCH   5   6
ATOM      6  C   UNL     1      68.849  10.431 362.220  1.00  0.00     0.000 C 
BRANCH   6   7
ATOM      7  C   UNL     1      69.699  10.075 360.983  1.00  0.00     0.006 C 
BRANCH   7   8
ATOM      8  C   UNL     1      71.153  10.574 361.059  1.00  0.00     0.053 C 
BRANCH   8   9
ATOM      9  C   UNL     1      71.749  10.817 359.707  1.00  0.00     0.041 C 
ATOM     10  O   UNL     1      72.709  11.622 359.573  1.00  0.00    -0.550 OA
ATOM     11  O   UNL     1      71.259  10.140 358.595  1.00  0.00    -0.550 OA
ENDBRANCH   8   9
ENDBRANCH   7   8
ENDBRANCH   6   7
ENDBRANCH   5   6
ENDBRANCH   4   5
ENDBRANCH   3   4
ENDBRANCH   2   3
ENDBRANCH   1   2
BRANCH   1  12
ATOM     12  C   UNL     1      70.395   7.110 366.180  1.00  0.00     0.000 C 
BRANCH  12  13
ATOM     13  C   UNL     1      69.499   8.319 366.500  1.00  0.00    -0.000 C 
BRANCH  13  14
ATOM     14  C   UNL     1      70.110   9.648 366.030  1.00  0.00    -0.000 C 
BRANCH  14  15
ATOM     15  C   UNL     1      71.228   9.454 364.994  1.00  0.00    -0.000 C 
BRANCH  15  16
ATOM     16  C   UNL     1      72.279  10.570 365.101  1.00  0.00    -0.000 C 
BRANCH  16  17
ATOM     17  C   UNL     1      73.204  10.624 363.867  1.00  0.00    -0.000 C 
BRANCH  17  18
ATOM     18  C   UNL     1      74.700  10.471 364.207  1.00  0.00    -0.000 C 
BRANCH  18  19
ATOM     19  C   UNL     1      74.989   9.702 365.506  1.00  0.00    -0.003 C 
ATOM     20  C   UNL     1      76.343   8.992 365.487  1.00  0.00     0.004 C 
ENDBRANCH  18  19
ENDBRANCH  17  18
ENDBRANCH  16  17
ENDBRANCH  15  16
ENDBRANCH  14  15
ENDBRANCH  13  14
ENDBRANCH  12  13
ENDBRANCH   1  12
TORSDOF 16
ENDMDL
