MODEL 1
REMARK VINA RESULT:    19.989      0.000      0.000
REMARK INTER + INTRA:          22.842
REMARK INTER:                  21.742
REMARK INTRA:                   1.101
REMARK UNBOUND:                 1.101
REMARK SMILES C[C@@H]1[C@H]2C3=CC[C@@H]4[C@]5(C)CC[C@@H](O)C(C)(C)[C@@H]5CC[C@]4(C)[C@]3(C)CC[C@@]2(C(=O)[O-])CC[C@@H]1C
REMARK SMILES IDX 26 1 30 2 25 3 3 4 31 5 24 6 4 7 2 8 32 9 22 10 5 11 1 12
REMARK SMILES IDX 33 13 23 14 20 15 6 16 7 17 19 18 21 19 8 20 18 21 17 22
REMARK SMILES IDX 10 23 9 24 14 25 11 26 12 27 15 28 16 29 27 30 28 31 29 32
REMARK SMILES IDX 13 33
REMARK H PARENT 13 34
REMARK Flexibility Score: inf
ROOT
ATOM      1  C   UNL     1       5.950   6.695  -8.732  1.00  0.00     0.017 C 
ATOM      2  C   UNL     1       6.738   7.332  -9.924  1.00  0.00     0.014 C 
ATOM      3  C   UNL     1       4.724   5.854  -9.292  1.00  0.00     0.014 C 
ATOM      4  C   UNL     1       5.507   7.777  -7.654  1.00  0.00     0.030 C 
ATOM      5  C   UNL     1       7.678   8.514  -9.604  1.00  0.00     0.004 C 
ATOM      6  C   UNL     1       3.334   6.572  -9.459  1.00  0.00     0.013 C 
ATOM      7  C   UNL     1       4.002   8.074  -7.659  1.00  0.00    -0.063 C 
ATOM      8  C   UNL     1       6.336   9.108  -7.555  1.00  0.00    -0.003 C 
ATOM      9  C   UNL     1       7.752   8.967  -8.135  1.00  0.00    -0.011 C 
ATOM     10  C   UNL     1       3.218   8.047  -8.978  1.00  0.00    -0.006 C 
ATOM     11  C   UNL     1       3.358   7.797  -6.505  1.00  0.00    -0.027 C 
ATOM     12  C   UNL     1       6.364   9.667  -6.117  1.00  0.00     0.008 C 
ATOM     13  C   UNL     1       8.713   8.116  -7.265  1.00  0.00     0.008 C 
ATOM     14  C   UNL     1       3.869   8.902 -10.124  1.00  0.00     0.017 C 
ATOM     15  C   UNL     1       1.700   8.576  -8.710  1.00  0.00    -0.020 C 
ATOM     16  C   UNL     1       2.000   7.186  -6.504  1.00  0.00     0.032 C 
ATOM     17  C   UNL     1       1.010   7.967  -7.403  1.00  0.00     0.006 C 
ATOM     18  C   UNL     1       0.776   8.390  -9.953  1.00  0.00     0.008 C 
ATOM     19  C   UNL     1       1.770  10.124  -8.413  1.00  0.00     0.012 C 
ATOM     20  C   UNL     1      -0.463   7.355  -7.578  1.00  0.00    -0.025 C 
ATOM     21  C   UNL     1       0.157   6.996 -10.125  1.00  0.00     0.005 C 
ATOM     22  C   UNL     1      -0.651   6.488  -8.899  1.00  0.00     0.003 C 
ATOM     23  C   UNL     1      -0.868   6.520  -6.333  1.00  0.00     0.010 C 
ATOM     24  C   UNL     1      -1.487   8.569  -7.660  1.00  0.00     0.012 C 
ATOM     25  C   UNL     1      -0.756   4.893  -8.764  1.00  0.00    -0.006 C 
ATOM     26  C   UNL     1      -2.075   5.622  -6.622  1.00  0.00     0.033 C 
ATOM     27  C   UNL     1      -1.652   4.454  -7.516  1.00  0.00     0.120 C 
ATOM     28  C   UNL     1      -1.364   4.332 -10.080  1.00  0.00     0.014 C 
ATOM     29  C   UNL     1       0.616   4.195  -8.613  1.00  0.00     0.014 C 
ENDROOT
BRANCH   1  30
ATOM     30  C   UNL     1       6.858   5.650  -8.067  1.00  0.00     0.048 C 
ATOM     31  O   UNL     1       7.656   5.945  -7.128  1.00  0.00    -0.550 OA
ATOM     32  O   UNL     1       6.873   4.327  -8.538  1.00  0.00    -0.550 OA
ENDBRANCH   1  30
BRANCH  27  33
ATOM     33  O   UNL     1      -2.834   3.772  -7.893  1.00  0.00    -0.393 OA
ATOM     34  H   UNL     1      -2.794   2.878  -7.467  1.00  0.00     0.210 HD
ENDBRANCH  27  33
TORSDOF 2
ENDMDL
