MODEL 1
REMARK VINA RESULT:     0.246      0.000      0.000
REMARK INTER + INTRA:           0.177
REMARK INTER:                   0.260
REMARK INTRA:                  -0.083
REMARK UNBOUND:                -0.083
REMARK SMILES CC1=C[C@H]2C(=C(C)CC[C@@H]2C(C)C)CC1
REMARK SMILES IDX 1 1 2 2 3 3 4 4 10 5 9 6 8 7 6 8 5 9 14 10 15 11 7 12 11 13
REMARK SMILES IDX 12 14 13 15
REMARK H PARENT
REMARK Flexibility Score: inf
ROOT
ATOM      1  C   UNL     1       3.622  11.304  13.354  1.00  0.00     0.039 C 
ATOM      2  C   UNL     1       3.915   9.850  13.601  1.00  0.00    -0.076 C 
ATOM      3  C   UNL     1       5.173   9.389  13.487  1.00  0.00    -0.020 C 
ATOM      4  C   UNL     1       5.499   7.918  13.705  1.00  0.00     0.041 C 
ATOM      5  C   UNL     1       6.932   7.580  13.133  1.00  0.00     0.003 C 
ATOM      6  C   UNL     1       7.008   6.215  12.395  1.00  0.00     0.009 C 
ATOM      7  C   UNL     1       6.000   5.207  12.933  1.00  0.00     0.031 C 
ATOM      8  C   UNL     1       4.610   5.759  12.778  1.00  0.00    -0.073 C 
ATOM      9  C   UNL     1       4.365   7.042  13.147  1.00  0.00    -0.064 C 
ATOM     10  C   UNL     1       2.948   7.606  13.103  1.00  0.00     0.036 C 
ATOM     11  C   UNL     1       2.810   8.883  13.937  1.00  0.00     0.035 C 
ATOM     12  C   UNL     1       3.531   4.875  12.191  1.00  0.00     0.039 C 
ENDROOT
BRANCH   5  13
ATOM     13  C   UNL     1       8.091   7.732  14.178  1.00  0.00    -0.013 C 
ATOM     14  C   UNL     1       7.739   8.613  15.391  1.00  0.00     0.007 C 
ATOM     15  C   UNL     1       9.401   8.214  13.538  1.00  0.00     0.007 C 
ENDBRANCH   5  13
TORSDOF 1
ENDMDL
MODEL 2
REMARK VINA RESULT:     0.747      1.027      4.136
REMARK INTER + INTRA:           0.708
REMARK INTER:                   1.011
REMARK INTRA:                  -0.304
REMARK UNBOUND:                -0.083
REMARK SMILES CC1=C[C@H]2C(=C(C)CC[C@@H]2C(C)C)CC1
REMARK SMILES IDX 1 1 2 2 3 3 4 4 10 5 9 6 8 7 6 8 5 9 14 10 15 11 7 12 11 13
REMARK SMILES IDX 12 14 13 15
REMARK H PARENT
REMARK Flexibility Score: inf
ROOT
ATOM      1  C   UNL     1       9.335   8.256  14.697  1.00  0.00     0.039 C 
ATOM      2  C   UNL     1       8.087   8.015  13.894  1.00  0.00    -0.076 C 
ATOM      3  C   UNL     1       6.936   8.618  14.242  1.00  0.00    -0.020 C 
ATOM      4  C   UNL     1       5.650   8.375  13.466  1.00  0.00     0.041 C 
ATOM      5  C   UNL     1       4.402   8.869  14.298  1.00  0.00     0.003 C 
ATOM      6  C   UNL     1       3.176   7.918  14.217  1.00  0.00     0.009 C 
ATOM      7  C   UNL     1       3.125   7.147  12.903  1.00  0.00     0.031 C 
ATOM      8  C   UNL     1       4.378   6.328  12.757  1.00  0.00    -0.073 C 
ATOM      9  C   UNL     1       5.578   6.906  13.017  1.00  0.00    -0.064 C 
ATOM     10  C   UNL     1       6.876   6.140  12.780  1.00  0.00     0.036 C 
ATOM     11  C   UNL     1       8.091   7.072  12.720  1.00  0.00     0.035 C 
ATOM     12  C   UNL     1       4.260   4.876  12.348  1.00  0.00     0.039 C 
ENDROOT
BRANCH   5  13
ATOM     13  C   UNL     1       3.994  10.357  14.019  1.00  0.00    -0.013 C 
ATOM     14  C   UNL     1       2.809  10.859  14.863  1.00  0.00     0.007 C 
ATOM     15  C   UNL     1       3.732  10.626  12.529  1.00  0.00     0.007 C 
ENDBRANCH   5  13
TORSDOF 1
ENDMDL
MODEL 3
REMARK VINA RESULT:     0.873      1.868      3.595
REMARK INTER + INTRA:           0.841
REMARK INTER:                   1.149
REMARK INTRA:                  -0.307
REMARK UNBOUND:                -0.083
REMARK SMILES CC1=C[C@H]2C(=C(C)CC[C@@H]2C(C)C)CC1
REMARK SMILES IDX 1 1 2 2 3 3 4 4 10 5 9 6 8 7 6 8 5 9 14 10 15 11 7 12 11 13
REMARK SMILES IDX 12 14 13 15
REMARK H PARENT
REMARK Flexibility Score: inf
ROOT
ATOM      1  C   UNL     1       3.732   9.314  17.262  1.00  0.00     0.039 C 
ATOM      2  C   UNL     1       3.542   9.066  15.792  1.00  0.00    -0.076 C 
ATOM      3  C   UNL     1       4.329   8.185  15.150  1.00  0.00    -0.020 C 
ATOM      4  C   UNL     1       4.179   7.931  13.657  1.00  0.00     0.041 C 
ATOM      5  C   UNL     1       5.449   7.178  13.095  1.00  0.00     0.003 C 
ATOM      6  C   UNL     1       5.922   7.692  11.707  1.00  0.00     0.009 C 
ATOM      7  C   UNL     1       4.775   8.254  10.875  1.00  0.00     0.031 C 
ATOM      8  C   UNL     1       4.133   9.395  11.615  1.00  0.00    -0.073 C 
ATOM      9  C   UNL     1       3.844   9.246  12.933  1.00  0.00    -0.064 C 
ATOM     10  C   UNL     1       3.099  10.339  13.693  1.00  0.00     0.036 C 
ATOM     11  C   UNL     1       2.504   9.824  15.007  1.00  0.00     0.035 C 
ATOM     12  C   UNL     1       3.853  10.684  10.875  1.00  0.00     0.039 C 
ENDROOT
BRANCH   5  13
ATOM     13  C   UNL     1       5.329   5.615  13.118  1.00  0.00    -0.013 C 
ATOM     14  C   UNL     1       6.577   4.876  12.605  1.00  0.00     0.007 C 
ATOM     15  C   UNL     1       4.077   5.110  12.385  1.00  0.00     0.007 C 
ENDBRANCH   5  13
TORSDOF 1
ENDMDL
MODEL 4
REMARK VINA RESULT:     1.218      1.966      5.082
REMARK INTER + INTRA:           1.207
REMARK INTER:                   1.495
REMARK INTRA:                  -0.288
REMARK UNBOUND:                -0.083
REMARK SMILES CC1=C[C@H]2C(=C(C)CC[C@@H]2C(C)C)CC1
REMARK SMILES IDX 1 1 2 2 3 3 4 4 10 5 9 6 8 7 6 8 5 9 14 10 15 11 7 12 11 13
REMARK SMILES IDX 12 14 13 15
REMARK H PARENT
REMARK Flexibility Score: inf
ROOT
ATOM      1  C   UNL     1       7.153   6.568  11.213  1.00  0.00     0.039 C 
ATOM      2  C   UNL     1       5.940   7.046  11.962  1.00  0.00    -0.076 C 
ATOM      3  C   UNL     1       5.447   8.275  11.729  1.00  0.00    -0.020 C 
ATOM      4  C   UNL     1       4.237   8.799  12.488  1.00  0.00     0.041 C 
ATOM      5  C   UNL     1       4.116  10.365  12.321  1.00  0.00     0.003 C 
ATOM      6  C   UNL     1       3.708  11.107  13.624  1.00  0.00     0.009 C 
ATOM      7  C   UNL     1       2.859  10.238  14.544  1.00  0.00     0.031 C 
ATOM      8  C   UNL     1       3.632   9.003  14.918  1.00  0.00    -0.073 C 
ATOM      9  C   UNL     1       4.283   8.314  13.946  1.00  0.00    -0.064 C 
ATOM     10  C   UNL     1       4.989   7.000  14.267  1.00  0.00     0.036 C 
ATOM     11  C   UNL     1       5.283   6.182  13.006  1.00  0.00     0.035 C 
ATOM     12  C   UNL     1       3.681   8.580  16.369  1.00  0.00     0.039 C 
ENDROOT
BRANCH   5  13
ATOM     13  C   UNL     1       3.233  10.813  11.105  1.00  0.00    -0.013 C 
ATOM     14  C   UNL     1       3.192  12.335  10.878  1.00  0.00     0.007 C 
ATOM     15  C   UNL     1       1.805  10.251  11.175  1.00  0.00     0.007 C 
ENDBRANCH   5  13
TORSDOF 1
ENDMDL
