MODEL 1
REMARK VINA RESULT:    -3.196      0.000      0.000
REMARK INTER + INTRA:          -5.650
REMARK INTER:                  -5.158
REMARK INTRA:                  -0.492
REMARK UNBOUND:                -0.492
REMARK SMILES CCCCCCCCCCCCO
REMARK SMILES IDX 7 1 6 2 5 3 4 4 3 5 2 6 1 7 8 8 9 9 10 10 11 11 12 12 13 13
REMARK H PARENT 13 14
REMARK Flexibility Score: inf
ROOT
ATOM      1  C   UNL     1     142.926 139.029 143.348  1.00  0.00     0.000 C 
ENDROOT
BRANCH   1   2
ATOM      2  C   UNL     1     141.555 138.329 143.438  1.00  0.00    -0.000 C 
BRANCH   2   3
ATOM      3  C   UNL     1     141.098 137.974 144.865  1.00  0.00    -0.000 C 
BRANCH   3   4
ATOM      4  C   UNL     1     140.331 136.642 144.932  1.00  0.00    -0.000 C 
BRANCH   4   5
ATOM      5  C   UNL     1     139.544 136.358 143.636  1.00  0.00    -0.000 C 
BRANCH   5   6
ATOM      6  C   UNL     1     139.948 135.042 142.949  1.00  0.00    -0.003 C 
ATOM      7  C   UNL     1     138.873 134.504 142.007  1.00  0.00     0.004 C 
ENDBRANCH   5   6
ENDBRANCH   4   5
ENDBRANCH   3   4
ENDBRANCH   2   3
ENDBRANCH   1   2
BRANCH   1   8
ATOM      8  C   UNL     1     143.797 138.937 144.614  1.00  0.00     0.000 C 
BRANCH   8   9
ATOM      9  C   UNL     1     145.276 139.264 144.348  1.00  0.00     0.000 C 
BRANCH   9  10
ATOM     10  C   UNL     1     145.507 139.857 142.949  1.00  0.00     0.002 C 
BRANCH  10  11
ATOM     11  C   UNL     1     146.991 140.113 142.650  1.00  0.00     0.028 C 
BRANCH  11  12
ATOM     12  C   UNL     1     147.479 139.231 141.498  1.00  0.00     0.156 C 
BRANCH  12  13
ATOM     13  O   UNL     1     147.560 137.894 141.910  1.00  0.00    -0.396 OA
ATOM     14  H   UNL     1     147.277 137.872 142.862  1.00  0.00     0.210 HD
ENDBRANCH  12  13
ENDBRANCH  11  12
ENDBRANCH  10  11
ENDBRANCH   9  10
ENDBRANCH   8   9
ENDBRANCH   1   8
TORSDOF 11
ENDMDL
MODEL 2
REMARK VINA RESULT:    -3.168      2.489      4.916
REMARK INTER + INTRA:          -5.604
REMARK INTER:                  -4.727
REMARK INTRA:                  -0.877
REMARK UNBOUND:                -0.492
REMARK SMILES CCCCCCCCCCCCO
REMARK SMILES IDX 7 1 6 2 5 3 4 4 3 5 2 6 1 7 8 8 9 9 10 10 11 11 12 12 13 13
REMARK H PARENT 13 14
REMARK Flexibility Score: inf
ROOT
ATOM      1  C   UNL     1     146.187 141.171 140.853  1.00  0.00     0.000 C 
ENDROOT
BRANCH   1   2
ATOM      2  C   UNL     1     145.582 140.134 141.822  1.00  0.00    -0.000 C 
BRANCH   2   3
ATOM      3  C   UNL     1     146.401 139.883 143.101  1.00  0.00    -0.000 C 
BRANCH   3   4
ATOM      4  C   UNL     1     145.533 139.867 144.372  1.00  0.00    -0.000 C 
BRANCH   4   5
ATOM      5  C   UNL     1     144.044 139.623 144.056  1.00  0.00    -0.000 C 
BRANCH   5   6
ATOM      6  C   UNL     1     143.323 138.774 145.117  1.00  0.00    -0.003 C 
ATOM      7  C   UNL     1     141.868 138.476 144.759  1.00  0.00     0.004 C 
ENDBRANCH   5   6
ENDBRANCH   4   5
ENDBRANCH   3   4
ENDBRANCH   2   3
ENDBRANCH   1   2
BRANCH   1   8
ATOM      8  C   UNL     1     147.685 141.463 141.054  1.00  0.00     0.000 C 
BRANCH   8   9
ATOM      9  C   UNL     1     148.572 140.789 139.994  1.00  0.00     0.000 C 
BRANCH   9  10
ATOM     10  C   UNL     1     149.642 139.876 140.613  1.00  0.00     0.002 C 
BRANCH  10  11
ATOM     11  C   UNL     1     149.075 138.527 141.078  1.00  0.00     0.028 C 
BRANCH  11  12
ATOM     12  C   UNL     1     148.111 137.949 140.039  1.00  0.00     0.156 C 
BRANCH  12  13
ATOM     13  O   UNL     1     147.069 137.260 140.674  1.00  0.00    -0.396 OA
ATOM     14  H   UNL     1     146.934 136.417 140.165  1.00  0.00     0.210 HD
ENDBRANCH  12  13
ENDBRANCH  11  12
ENDBRANCH  10  11
ENDBRANCH   9  10
ENDBRANCH   8   9
ENDBRANCH   1   8
TORSDOF 11
ENDMDL
MODEL 3
REMARK VINA RESULT:    -3.135      6.751      8.840
REMARK INTER + INTRA:          -5.551
REMARK INTER:                  -4.326
REMARK INTRA:                  -1.225
REMARK UNBOUND:                -0.492
REMARK SMILES CCCCCCCCCCCCO
REMARK SMILES IDX 7 1 6 2 5 3 4 4 3 5 2 6 1 7 8 8 9 9 10 10 11 11 12 12 13 13
REMARK H PARENT 13 14
REMARK Flexibility Score: inf
ROOT
ATOM      1  C   UNL     1     137.948 142.607 145.017  1.00  0.00     0.000 C 
ENDROOT
BRANCH   1   2
ATOM      2  C   UNL     1     138.840 142.705 143.763  1.00  0.00    -0.000 C 
BRANCH   2   3
ATOM      3  C   UNL     1     139.883 141.581 143.616  1.00  0.00    -0.000 C 
BRANCH   3   4
ATOM      4  C   UNL     1     139.413 140.248 144.222  1.00  0.00    -0.000 C 
BRANCH   4   5
ATOM      5  C   UNL     1     138.605 139.404 143.215  1.00  0.00    -0.000 C 
BRANCH   5   6
ATOM      6  C   UNL     1     139.038 139.611 141.754  1.00  0.00    -0.003 C 
ATOM      7  C   UNL     1     137.883 140.010 140.838  1.00  0.00     0.004 C 
ENDBRANCH   5   6
ENDBRANCH   4   5
ENDBRANCH   3   4
ENDBRANCH   2   3
ENDBRANCH   1   2
BRANCH   1   8
ATOM      8  C   UNL     1     136.447 142.400 144.741  1.00  0.00     0.000 C 
BRANCH   8   9
ATOM      9  C   UNL     1     136.137 142.196 143.248  1.00  0.00     0.000 C 
BRANCH   9  10
ATOM     10  C   UNL     1     134.851 141.387 143.018  1.00  0.00     0.002 C 
BRANCH  10  11
ATOM     11  C   UNL     1     134.354 141.462 141.567  1.00  0.00     0.028 C 
BRANCH  11  12
ATOM     12  C   UNL     1     133.687 140.150 141.146  1.00  0.00     0.156 C 
BRANCH  12  13
ATOM     13  O   UNL     1     132.734 139.762 142.097  1.00  0.00    -0.396 OA
ATOM     14  H   UNL     1     132.070 139.197 141.621  1.00  0.00     0.210 HD
ENDBRANCH  12  13
ENDBRANCH  11  12
ENDBRANCH  10  11
ENDBRANCH   9  10
ENDBRANCH   8   9
ENDBRANCH   1   8
TORSDOF 11
ENDMDL
MODEL 4
REMARK VINA RESULT:    -3.111      8.186      9.335
REMARK INTER + INTRA:          -5.512
REMARK INTER:                  -4.552
REMARK INTRA:                  -0.960
REMARK UNBOUND:                -0.492
REMARK SMILES CCCCCCCCCCCCO
REMARK SMILES IDX 7 1 6 2 5 3 4 4 3 5 2 6 1 7 8 8 9 9 10 10 11 11 12 12 13 13
REMARK H PARENT 13 14
REMARK Flexibility Score: inf
ROOT
ATOM      1  C   UNL     1     140.400 146.669 140.958  1.00  0.00     0.000 C 
ENDROOT
BRANCH   1   2
ATOM      2  C   UNL     1     141.282 145.745 141.822  1.00  0.00    -0.000 C 
BRANCH   2   3
ATOM      3  C   UNL     1     141.905 146.412 143.062  1.00  0.00    -0.000 C 
BRANCH   3   4
ATOM      4  C   UNL     1     141.601 145.652 144.365  1.00  0.00    -0.000 C 
BRANCH   4   5
ATOM      5  C   UNL     1     142.482 144.396 144.525  1.00  0.00    -0.000 C 
BRANCH   5   6
ATOM      6  C   UNL     1     141.688 143.134 144.905  1.00  0.00    -0.003 C 
ATOM      7  C   UNL     1     140.228 143.190 144.460  1.00  0.00     0.004 C 
ENDBRANCH   5   6
ENDBRANCH   4   5
ENDBRANCH   3   4
ENDBRANCH   2   3
ENDBRANCH   1   2
BRANCH   1   8
ATOM      8  C   UNL     1     140.351 148.141 141.409  1.00  0.00     0.000 C 
BRANCH   8   9
ATOM      9  C   UNL     1     141.093 149.085 140.447  1.00  0.00     0.000 C 
BRANCH   9  10
ATOM     10  C   UNL     1     142.588 149.212 140.780  1.00  0.00     0.002 C 
BRANCH  10  11
ATOM     11  C   UNL     1     143.491 148.961 139.564  1.00  0.00     0.028 C 
BRANCH  11  12
ATOM     12  C   UNL     1     143.830 147.474 139.428  1.00  0.00     0.156 C 
BRANCH  12  13
ATOM     13  O   UNL     1     144.386 146.992 140.620  1.00  0.00    -0.396 OA
ATOM     14  H   UNL     1     144.452 146.005 140.525  1.00  0.00     0.210 HD
ENDBRANCH  12  13
ENDBRANCH  11  12
ENDBRANCH  10  11
ENDBRANCH   9  10
ENDBRANCH   8   9
ENDBRANCH   1   8
TORSDOF 11
ENDMDL
MODEL 5
REMARK VINA RESULT:    -3.109      6.621      7.192
REMARK INTER + INTRA:          -5.510
REMARK INTER:                  -4.842
REMARK INTRA:                  -0.668
REMARK UNBOUND:                -0.492
REMARK SMILES CCCCCCCCCCCCO
REMARK SMILES IDX 7 1 6 2 5 3 4 4 3 5 2 6 1 7 8 8 9 9 10 10 11 11 12 12 13 13
REMARK H PARENT 13 14
REMARK Flexibility Score: inf
ROOT
ATOM      1  C   UNL     1     139.799 143.012 142.166  1.00  0.00     0.000 C 
ENDROOT
BRANCH   1   2
ATOM      2  C   UNL     1     139.110 142.797 143.529  1.00  0.00    -0.000 C 
BRANCH   2   3
ATOM      3  C   UNL     1     138.834 141.327 143.895  1.00  0.00    -0.000 C 
BRANCH   3   4
ATOM      4  C   UNL     1     137.473 141.129 144.586  1.00  0.00    -0.000 C 
BRANCH   4   5
ATOM      5  C   UNL     1     136.483 142.265 144.257  1.00  0.00    -0.000 C 
BRANCH   5   6
ATOM      6  C   UNL     1     135.435 141.878 143.200  1.00  0.00    -0.003 C 
ATOM      7  C   UNL     1     135.830 142.295 141.785  1.00  0.00     0.004 C 
ENDBRANCH   5   6
ENDBRANCH   4   5
ENDBRANCH   3   4
ENDBRANCH   2   3
ENDBRANCH   1   2
BRANCH   1   8
ATOM      8  C   UNL     1     140.787 144.191 142.108  1.00  0.00     0.000 C 
BRANCH   8   9
ATOM      9  C   UNL     1     141.315 144.597 143.495  1.00  0.00     0.000 C 
BRANCH   9  10
ATOM     10  C   UNL     1     142.206 145.849 143.444  1.00  0.00     0.002 C 
BRANCH  10  11
ATOM     11  C   UNL     1     141.916 146.735 142.224  1.00  0.00     0.028 C 
BRANCH  11  12
ATOM     12  C   UNL     1     143.095 147.665 141.927  1.00  0.00     0.156 C 
BRANCH  12  13
ATOM     13  O   UNL     1     144.014 147.028 141.083  1.00  0.00    -0.396 OA
ATOM     14  H   UNL     1     144.040 147.555 140.241  1.00  0.00     0.210 HD
ENDBRANCH  12  13
ENDBRANCH  11  12
ENDBRANCH  10  11
ENDBRANCH   9  10
ENDBRANCH   8   9
ENDBRANCH   1   8
TORSDOF 11
ENDMDL
MODEL 6
REMARK VINA RESULT:    -3.104      4.808      6.961
REMARK INTER + INTRA:          -5.501
REMARK INTER:                  -4.130
REMARK INTRA:                  -1.371
REMARK UNBOUND:                -0.492
REMARK SMILES CCCCCCCCCCCCO
REMARK SMILES IDX 7 1 6 2 5 3 4 4 3 5 2 6 1 7 8 8 9 9 10 10 11 11 12 12 13 13
REMARK H PARENT 13 14
REMARK Flexibility Score: inf
ROOT
ATOM      1  C   UNL     1     138.325 133.692 141.785  1.00  0.00     0.000 C 
ENDROOT
BRANCH   1   2
ATOM      2  C   UNL     1     138.548 132.453 140.894  1.00  0.00    -0.000 C 
BRANCH   2   3
ATOM      3  C   UNL     1     139.907 132.407 140.170  1.00  0.00    -0.000 C 
BRANCH   3   4
ATOM      4  C   UNL     1     141.100 132.538 141.132  1.00  0.00    -0.000 C 
BRANCH   4   5
ATOM      5  C   UNL     1     141.993 133.749 140.791  1.00  0.00    -0.000 C 
BRANCH   5   6
ATOM      6  C   UNL     1     141.746 134.315 139.382  1.00  0.00    -0.003 C 
ATOM      7  C   UNL     1     141.902 135.833 139.310  1.00  0.00     0.004 C 
ENDBRANCH   5   6
ENDBRANCH   4   5
ENDBRANCH   3   4
ENDBRANCH   2   3
ENDBRANCH   1   2
BRANCH   1   8
ATOM      8  C   UNL     1     138.496 135.050 141.078  1.00  0.00     0.000 C 
BRANCH   8   9
ATOM      9  C   UNL     1     139.305 136.059 141.911  1.00  0.00     0.000 C 
BRANCH   9  10
ATOM     10  C   UNL     1     139.793 135.469 143.243  1.00  0.00     0.002 C 
BRANCH  10  11
ATOM     11  C   UNL     1     139.595 136.428 144.425  1.00  0.00     0.028 C 
BRANCH  11  12
ATOM     12  C   UNL     1     139.713 137.886 143.976  1.00  0.00     0.156 C 
BRANCH  12  13
ATOM     13  O   UNL     1     138.650 138.640 144.491  1.00  0.00    -0.396 OA
ATOM     14  H   UNL     1     138.974 139.048 145.337  1.00  0.00     0.210 HD
ENDBRANCH  12  13
ENDBRANCH  11  12
ENDBRANCH  10  11
ENDBRANCH   9  10
ENDBRANCH   8   9
ENDBRANCH   1   8
TORSDOF 11
ENDMDL
MODEL 7
REMARK VINA RESULT:    -3.070      4.943      7.010
REMARK INTER + INTRA:          -5.446
REMARK INTER:                  -4.916
REMARK INTRA:                  -0.531
REMARK UNBOUND:                -0.492
REMARK SMILES CCCCCCCCCCCCO
REMARK SMILES IDX 7 1 6 2 5 3 4 4 3 5 2 6 1 7 8 8 9 9 10 10 11 11 12 12 13 13
REMARK H PARENT 13 14
REMARK Flexibility Score: inf
ROOT
ATOM      1  C   UNL     1     142.837 142.392 143.670  1.00  0.00     0.000 C 
ENDROOT
BRANCH   1   2
ATOM      2  C   UNL     1     143.155 140.937 144.072  1.00  0.00    -0.000 C 
BRANCH   2   3
ATOM      3  C   UNL     1     144.279 140.780 145.113  1.00  0.00    -0.000 C 
BRANCH   3   4
ATOM      4  C   UNL     1     145.431 139.889 144.618  1.00  0.00    -0.000 C 
BRANCH   4   5
ATOM      5  C   UNL     1     145.483 139.807 143.078  1.00  0.00    -0.000 C 
BRANCH   5   6
ATOM      6  C   UNL     1     146.914 139.774 142.513  1.00  0.00    -0.003 C 
ATOM      7  C   UNL     1     147.159 140.834 141.441  1.00  0.00     0.004 C 
ENDBRANCH   5   6
ENDBRANCH   4   5
ENDBRANCH   3   4
ENDBRANCH   2   3
ENDBRANCH   1   2
BRANCH   1   8
ATOM      8  C   UNL     1     142.860 143.412 144.823  1.00  0.00     0.000 C 
BRANCH   8   9
ATOM      9  C   UNL     1     141.836 144.545 144.637  1.00  0.00     0.000 C 
BRANCH   9  10
ATOM     10  C   UNL     1     141.713 144.995 143.173  1.00  0.00     0.002 C 
BRANCH  10  11
ATOM     11  C   UNL     1     142.407 146.338 142.904  1.00  0.00     0.028 C 
BRANCH  11  12
ATOM     12  C   UNL     1     142.701 146.516 141.412  1.00  0.00     0.156 C 
BRANCH  12  13
ATOM     13  O   UNL     1     143.964 147.094 141.231  1.00  0.00    -0.396 OA
ATOM     14  H   UNL     1     144.365 146.658 140.433  1.00  0.00     0.210 HD
ENDBRANCH  12  13
ENDBRANCH  11  12
ENDBRANCH  10  11
ENDBRANCH   9  10
ENDBRANCH   8   9
ENDBRANCH   1   8
TORSDOF 11
ENDMDL
MODEL 8
REMARK VINA RESULT:    -3.069      8.290     10.654
REMARK INTER + INTRA:          -5.444
REMARK INTER:                  -4.534
REMARK INTRA:                  -0.910
REMARK UNBOUND:                -0.492
REMARK SMILES CCCCCCCCCCCCO
REMARK SMILES IDX 7 1 6 2 5 3 4 4 3 5 2 6 1 7 8 8 9 9 10 10 11 11 12 12 13 13
REMARK H PARENT 13 14
REMARK Flexibility Score: inf
ROOT
ATOM      1  C   UNL     1     135.241 141.003 141.760  1.00  0.00     0.000 C 
ENDROOT
BRANCH   1   2
ATOM      2  C   UNL     1     135.115 142.016 142.916  1.00  0.00    -0.000 C 
BRANCH   2   3
ATOM      3  C   UNL     1     135.997 141.717 144.143  1.00  0.00    -0.000 C 
BRANCH   3   4
ATOM      4  C   UNL     1     137.443 141.353 143.764  1.00  0.00    -0.000 C 
BRANCH   4   5
ATOM      5  C   UNL     1     138.426 142.509 144.041  1.00  0.00    -0.000 C 
BRANCH   5   6
ATOM      6  C   UNL     1     139.252 142.920 142.811  1.00  0.00    -0.003 C 
ATOM      7  C   UNL     1     138.720 142.329 141.507  1.00  0.00     0.004 C 
ENDBRANCH   5   6
ENDBRANCH   4   5
ENDBRANCH   3   4
ENDBRANCH   2   3
ENDBRANCH   1   2
BRANCH   1   8
ATOM      8  C   UNL     1     133.923 140.342 141.318  1.00  0.00     0.000 C 
BRANCH   8   9
ATOM      9  C   UNL     1     133.240 141.087 140.158  1.00  0.00     0.000 C 
BRANCH   9  10
ATOM     10  C   UNL     1     132.077 141.974 140.629  1.00  0.00     0.002 C 
BRANCH  10  11
ATOM     11  C   UNL     1     132.424 143.469 140.608  1.00  0.00     0.028 C 
BRANCH  11  12
ATOM     12  C   UNL     1     133.682 143.730 139.776  1.00  0.00     0.156 C 
BRANCH  12  13
ATOM     13  O   UNL     1     134.635 144.419 140.538  1.00  0.00    -0.396 OA
ATOM     14  H   UNL     1     135.521 144.041 140.297  1.00  0.00     0.210 HD
ENDBRANCH  12  13
ENDBRANCH  11  12
ENDBRANCH  10  11
ENDBRANCH   9  10
ENDBRANCH   8   9
ENDBRANCH   1   8
TORSDOF 11
ENDMDL
MODEL 9
REMARK VINA RESULT:    -3.068      3.062      7.008
REMARK INTER + INTRA:          -5.443
REMARK INTER:                  -5.042
REMARK INTRA:                  -0.401
REMARK UNBOUND:                -0.492
REMARK SMILES CCCCCCCCCCCCO
REMARK SMILES IDX 7 1 6 2 5 3 4 4 3 5 2 6 1 7 8 8 9 9 10 10 11 11 12 12 13 13
REMARK H PARENT 13 14
REMARK Flexibility Score: inf
ROOT
ATOM      1  C   UNL     1     141.561 138.356 144.087  1.00  0.00     0.000 C 
ENDROOT
BRANCH   1   2
ATOM      2  C   UNL     1     142.735 138.714 145.020  1.00  0.00    -0.000 C 
BRANCH   2   3
ATOM      3  C   UNL     1     143.075 140.214 145.095  1.00  0.00    -0.000 C 
BRANCH   3   4
ATOM      4  C   UNL     1     144.589 140.485 145.069  1.00  0.00    -0.000 C 
BRANCH   4   5
ATOM      5  C   UNL     1     145.365 139.382 144.322  1.00  0.00    -0.000 C 
BRANCH   5   6
ATOM      6  C   UNL     1     145.680 139.736 142.858  1.00  0.00    -0.003 C 
ATOM      7  C   UNL     1     146.980 139.111 142.357  1.00  0.00     0.004 C 
ENDBRANCH   5   6
ENDBRANCH   4   5
ENDBRANCH   3   4
ENDBRANCH   2   3
ENDBRANCH   1   2
BRANCH   1   8
ATOM      8  C   UNL     1     140.528 137.378 144.675  1.00  0.00     0.000 C 
BRANCH   8   9
ATOM      9  C   UNL     1     139.595 136.781 143.607  1.00  0.00     0.000 C 
BRANCH   9  10
ATOM     10  C   UNL     1     139.806 135.271 143.417  1.00  0.00     0.002 C 
BRANCH  10  11
ATOM     11  C   UNL     1     139.791 134.851 141.940  1.00  0.00     0.028 C 
BRANCH  11  12
ATOM     12  C   UNL     1     138.611 133.922 141.645  1.00  0.00     0.156 C 
BRANCH  12  13
ATOM     13  O   UNL     1     137.543 134.650 141.103  1.00  0.00    -0.396 OA
ATOM     14  H   UNL     1     136.772 134.026 141.047  1.00  0.00     0.210 HD
ENDBRANCH  12  13
ENDBRANCH  11  12
ENDBRANCH  10  11
ENDBRANCH   9  10
ENDBRANCH   8   9
ENDBRANCH   1   8
TORSDOF 11
ENDMDL
