MODEL 1
REMARK VINA RESULT:    -3.237      0.000      0.000
REMARK INTER + INTRA:          -8.286
REMARK INTER:                  -5.509
REMARK INTRA:                  -2.778
REMARK UNBOUND:                -2.778
REMARK SMILES CC(=O)CCC[C@@H](C)CCC[C@@H](C)CCCC(C)C
REMARK SMILES IDX 10 1 11 2 12 3 13 4 14 5 15 6 16 7 17 8 18 9 19 10 9 11 7 12
REMARK SMILES IDX 8 13 6 14 5 15 4 16 2 17 3 18 1 19
REMARK H PARENT
REMARK Flexibility Score: inf
ROOT
ATOM      1  C   UNL     1     138.484 142.135 142.422  1.00  0.00     0.001 C 
ENDROOT
BRANCH   1   2
ATOM      2  C   UNL     1     139.857 142.078 143.115  1.00  0.00     0.003 C 
BRANCH   2   3
ATOM      3  C   UNL     1     141.056 142.094 142.120  1.00  0.00    -0.014 C 
ATOM      4  C   UNL     1     141.429 143.543 141.752  1.00  0.00     0.007 C 
BRANCH   3   5
ATOM      5  C   UNL     1     142.267 141.334 142.718  1.00  0.00     0.003 C 
BRANCH   5   6
ATOM      6  C   UNL     1     142.048 139.812 142.792  1.00  0.00     0.001 C 
BRANCH   6   7
ATOM      7  C   UNL     1     141.499 139.217 141.481  1.00  0.00     0.003 C 
BRANCH   7   8
ATOM      8  C   UNL     1     140.480 138.063 141.649  1.00  0.00    -0.017 C 
ATOM      9  C   UNL     1     139.416 138.377 142.713  1.00  0.00     0.007 C 
ATOM     10  C   UNL     1     139.799 137.773 140.305  1.00  0.00     0.007 C 
ENDBRANCH   7   8
ENDBRANCH   6   7
ENDBRANCH   5   6
ENDBRANCH   3   5
ENDBRANCH   2   3
ENDBRANCH   1   2
BRANCH   1  11
ATOM     11  C   UNL     1     138.361 141.142 141.253  1.00  0.00     0.003 C 
BRANCH  11  12
ATOM     12  C   UNL     1     138.017 141.825 139.907  1.00  0.00    -0.014 C 
ATOM     13  C   UNL     1     136.501 142.053 139.770  1.00  0.00     0.007 C 
BRANCH  12  14
ATOM     14  C   UNL     1     138.566 140.958 138.742  1.00  0.00     0.004 C 
BRANCH  14  15
ATOM     15  C   UNL     1     140.089 141.030 138.520  1.00  0.00     0.008 C 
BRANCH  15  16
ATOM     16  C   UNL     1     140.594 142.457 138.269  1.00  0.00     0.075 C 
BRANCH  16  17
ATOM     17  C   UNL     1     142.090 142.527 138.412  1.00  0.00     0.129 C 
ATOM     18  O   UNL     1     142.665 143.595 138.266  1.00  0.00    -0.300 OA
ATOM     19  C   UNL     1     142.884 141.289 138.705  1.00  0.00     0.087 C 
ENDBRANCH  16  17
ENDBRANCH  15  16
ENDBRANCH  14  15
ENDBRANCH  12  14
ENDBRANCH  11  12
ENDBRANCH   1  11
TORSDOF 12
ENDMDL
MODEL 2
REMARK VINA RESULT:    -3.202      1.974      4.544
REMARK INTER + INTRA:          -8.226
REMARK INTER:                  -5.393
REMARK INTRA:                  -2.833
REMARK UNBOUND:                -2.778
REMARK SMILES CC(=O)CCC[C@@H](C)CCC[C@@H](C)CCCC(C)C
REMARK SMILES IDX 10 1 11 2 12 3 13 4 14 5 15 6 16 7 17 8 18 9 19 10 9 11 7 12
REMARK SMILES IDX 8 13 6 14 5 15 4 16 2 17 3 18 1 19
REMARK H PARENT
REMARK Flexibility Score: inf
ROOT
ATOM      1  C   UNL     1     142.457 142.136 142.265  1.00  0.00     0.001 C 
ENDROOT
BRANCH   1   2
ATOM      2  C   UNL     1     141.468 143.260 141.907  1.00  0.00     0.003 C 
BRANCH   2   3
ATOM      3  C   UNL     1     141.296 143.471 140.373  1.00  0.00    -0.014 C 
ATOM      4  C   UNL     1     141.826 144.856 139.958  1.00  0.00     0.007 C 
BRANCH   3   5
ATOM      5  C   UNL     1     142.004 142.337 139.589  1.00  0.00     0.003 C 
BRANCH   5   6
ATOM      6  C   UNL     1     141.274 141.956 138.287  1.00  0.00     0.001 C 
BRANCH   6   7
ATOM      7  C   UNL     1     141.943 140.784 137.542  1.00  0.00     0.003 C 
BRANCH   7   8
ATOM      8  C   UNL     1     142.250 139.536 138.403  1.00  0.00    -0.017 C 
ATOM      9  C   UNL     1     141.362 138.339 138.031  1.00  0.00     0.007 C 
ATOM     10  C   UNL     1     143.728 139.152 138.251  1.00  0.00     0.007 C 
ENDBRANCH   7   8
ENDBRANCH   6   7
ENDBRANCH   5   6
ENDBRANCH   3   5
ENDBRANCH   2   3
ENDBRANCH   1   2
BRANCH   1  11
ATOM     11  C   UNL     1     141.821 141.029 143.125  1.00  0.00     0.003 C 
BRANCH  11  12
ATOM     12  C   UNL     1     142.159 139.602 142.628  1.00  0.00    -0.014 C 
ATOM     13  C   UNL     1     143.546 139.559 141.963  1.00  0.00     0.007 C 
BRANCH  12  14
ATOM     14  C   UNL     1     141.049 139.128 141.652  1.00  0.00     0.004 C 
BRANCH  14  15
ATOM     15  C   UNL     1     139.663 139.772 141.857  1.00  0.00     0.008 C 
BRANCH  15  16
ATOM     16  C   UNL     1     138.979 140.158 140.539  1.00  0.00     0.075 C 
BRANCH  16  17
ATOM     17  C   UNL     1     138.040 141.316 140.745  1.00  0.00     0.129 C 
ATOM     18  O   UNL     1     137.280 141.647 139.849  1.00  0.00    -0.300 OA
ATOM     19  C   UNL     1     138.051 142.084 142.033  1.00  0.00     0.087 C 
ENDBRANCH  16  17
ENDBRANCH  15  16
ENDBRANCH  14  15
ENDBRANCH  12  14
ENDBRANCH  11  12
ENDBRANCH   1  11
TORSDOF 12
ENDMDL
MODEL 3
REMARK VINA RESULT:    -3.184      2.795      4.526
REMARK INTER + INTRA:          -8.196
REMARK INTER:                  -6.280
REMARK INTRA:                  -1.916
REMARK UNBOUND:                -2.778
REMARK SMILES CC(=O)CCC[C@@H](C)CCC[C@@H](C)CCCC(C)C
REMARK SMILES IDX 10 1 11 2 12 3 13 4 14 5 15 6 16 7 17 8 18 9 19 10 9 11 7 12
REMARK SMILES IDX 8 13 6 14 5 15 4 16 2 17 3 18 1 19
REMARK H PARENT
REMARK Flexibility Score: inf
ROOT
ATOM      1  C   UNL     1     141.956 142.741 142.141  1.00  0.00     0.001 C 
ENDROOT
BRANCH   1   2
ATOM      2  C   UNL     1     142.120 141.423 142.918  1.00  0.00     0.003 C 
BRANCH   2   3
ATOM      3  C   UNL     1     142.175 140.164 142.001  1.00  0.00    -0.014 C 
ATOM      4  C   UNL     1     143.599 139.578 141.978  1.00  0.00     0.007 C 
BRANCH   3   5
ATOM      5  C   UNL     1     141.138 139.111 142.467  1.00  0.00     0.003 C 
BRANCH   5   6
ATOM      6  C   UNL     1     139.698 139.657 142.508  1.00  0.00     0.001 C 
BRANCH   6   7
ATOM      7  C   UNL     1     139.172 140.077 141.122  1.00  0.00     0.003 C 
BRANCH   7   8
ATOM      8  C   UNL     1     138.106 141.200 141.127  1.00  0.00    -0.017 C 
ATOM      9  C   UNL     1     138.297 142.179 142.295  1.00  0.00     0.007 C 
ATOM     10  C   UNL     1     138.153 141.964 139.797  1.00  0.00     0.007 C 
ENDBRANCH   7   8
ENDBRANCH   6   7
ENDBRANCH   5   6
ENDBRANCH   3   5
ENDBRANCH   2   3
ENDBRANCH   1   2
BRANCH   1  11
ATOM     11  C   UNL     1     142.045 142.553 140.616  1.00  0.00     0.003 C 
BRANCH  11  12
ATOM     12  C   UNL     1     141.264 143.630 139.823  1.00  0.00    -0.014 C 
ATOM     13  C   UNL     1     141.357 143.379 138.307  1.00  0.00     0.007 C 
BRANCH  12  14
ATOM     14  C   UNL     1     141.810 145.033 140.199  1.00  0.00     0.004 C 
BRANCH  14  15
ATOM     15  C   UNL     1     142.016 146.005 139.020  1.00  0.00     0.008 C 
BRANCH  15  16
ATOM     16  C   UNL     1     142.609 147.354 139.450  1.00  0.00     0.075 C 
BRANCH  16  17
ATOM     17  C   UNL     1     141.603 148.459 139.270  1.00  0.00     0.129 C 
ATOM     18  O   UNL     1     141.772 149.297 138.397  1.00  0.00    -0.300 OA
ATOM     19  C   UNL     1     140.410 148.556 140.172  1.00  0.00     0.087 C 
ENDBRANCH  16  17
ENDBRANCH  15  16
ENDBRANCH  14  15
ENDBRANCH  12  14
ENDBRANCH  11  12
ENDBRANCH   1  11
TORSDOF 12
ENDMDL
MODEL 4
REMARK VINA RESULT:    -3.079      2.543      4.863
REMARK INTER + INTRA:          -8.016
REMARK INTER:                  -5.948
REMARK INTRA:                  -2.069
REMARK UNBOUND:                -2.778
REMARK SMILES CC(=O)CCC[C@@H](C)CCC[C@@H](C)CCCC(C)C
REMARK SMILES IDX 10 1 11 2 12 3 13 4 14 5 15 6 16 7 17 8 18 9 19 10 9 11 7 12
REMARK SMILES IDX 8 13 6 14 5 15 4 16 2 17 3 18 1 19
REMARK H PARENT
REMARK Flexibility Score: inf
ROOT
ATOM      1  C   UNL     1     139.743 139.495 141.551  1.00  0.00     0.001 C 
ENDROOT
BRANCH   1   2
ATOM      2  C   UNL     1     141.220 139.238 141.199  1.00  0.00     0.003 C 
BRANCH   2   3
ATOM      3  C   UNL     1     142.202 139.574 142.361  1.00  0.00    -0.014 C 
ATOM      4  C   UNL     1     143.658 139.534 141.861  1.00  0.00     0.007 C 
BRANCH   3   5
ATOM      5  C   UNL     1     141.855 140.952 142.981  1.00  0.00     0.003 C 
BRANCH   5   6
ATOM      6  C   UNL     1     142.516 142.130 142.242  1.00  0.00     0.001 C 
BRANCH   6   7
ATOM      7  C   UNL     1     141.527 143.265 141.911  1.00  0.00     0.003 C 
BRANCH   7   8
ATOM      8  C   UNL     1     141.339 143.565 140.404  1.00  0.00    -0.017 C 
ATOM      9  C   UNL     1     141.890 144.944 140.011  1.00  0.00     0.007 C 
ATOM     10  C   UNL     1     142.026 142.475 139.570  1.00  0.00     0.007 C 
ENDBRANCH   7   8
ENDBRANCH   6   7
ENDBRANCH   5   6
ENDBRANCH   3   5
ENDBRANCH   2   3
ENDBRANCH   1   2
BRANCH   1  11
ATOM     11  C   UNL     1     139.002 140.303 140.471  1.00  0.00     0.003 C 
BRANCH  11  12
ATOM     12  C   UNL     1     138.368 141.607 141.013  1.00  0.00    -0.014 C 
ATOM     13  C   UNL     1     138.333 141.610 142.552  1.00  0.00     0.007 C 
BRANCH  12  14
ATOM     14  C   UNL     1     136.944 141.767 140.415  1.00  0.00     0.004 C 
BRANCH  14  15
ATOM     15  C   UNL     1     136.888 142.161 138.926  1.00  0.00     0.008 C 
BRANCH  15  16
ATOM     16  C   UNL     1     135.484 142.030 138.322  1.00  0.00     0.075 C 
BRANCH  16  17
ATOM     17  C   UNL     1     134.830 143.380 138.197  1.00  0.00     0.129 C 
ATOM     18  O   UNL     1     133.706 143.553 138.643  1.00  0.00    -0.300 OA
ATOM     19  C   UNL     1     135.536 144.506 137.504  1.00  0.00     0.087 C 
ENDBRANCH  16  17
ENDBRANCH  15  16
ENDBRANCH  14  15
ENDBRANCH  12  14
ENDBRANCH  11  12
ENDBRANCH   1  11
TORSDOF 12
ENDMDL
MODEL 5
REMARK VINA RESULT:    -3.045      1.938      4.143
REMARK INTER + INTRA:          -7.959
REMARK INTER:                  -5.517
REMARK INTRA:                  -2.443
REMARK UNBOUND:                -2.778
REMARK SMILES CC(=O)CCC[C@@H](C)CCC[C@@H](C)CCCC(C)C
REMARK SMILES IDX 10 1 11 2 12 3 13 4 14 5 15 6 16 7 17 8 18 9 19 10 9 11 7 12
REMARK SMILES IDX 8 13 6 14 5 15 4 16 2 17 3 18 1 19
REMARK H PARENT
REMARK Flexibility Score: inf
ROOT
ATOM      1  C   UNL     1     141.384 142.448 142.677  1.00  0.00     0.001 C 
ENDROOT
BRANCH   1   2
ATOM      2  C   UNL     1     142.043 143.575 141.861  1.00  0.00     0.003 C 
BRANCH   2   3
ATOM      3  C   UNL     1     141.373 143.810 140.474  1.00  0.00    -0.014 C 
ATOM      4  C   UNL     1     141.878 145.124 139.850  1.00  0.00     0.007 C 
BRANCH   3   5
ATOM      5  C   UNL     1     141.633 142.603 139.537  1.00  0.00     0.003 C 
BRANCH   5   6
ATOM      6  C   UNL     1     140.547 142.432 138.458  1.00  0.00     0.001 C 
BRANCH   6   7
ATOM      7  C   UNL     1     139.829 141.071 138.535  1.00  0.00     0.003 C 
BRANCH   7   8
ATOM      8  C   UNL     1     139.698 140.467 139.954  1.00  0.00    -0.017 C 
ATOM      9  C   UNL     1     138.478 141.016 140.710  1.00  0.00     0.007 C 
ATOM     10  C   UNL     1     139.606 138.938 139.861  1.00  0.00     0.007 C 
ENDBRANCH   7   8
ENDBRANCH   6   7
ENDBRANCH   5   6
ENDBRANCH   3   5
ENDBRANCH   2   3
ENDBRANCH   1   2
BRANCH   1  11
ATOM     11  C   UNL     1     142.384 141.366 143.121  1.00  0.00     0.003 C 
BRANCH  11  12
ATOM     12  C   UNL     1     142.235 140.040 142.335  1.00  0.00    -0.014 C 
ATOM     13  C   UNL     1     141.400 139.016 143.125  1.00  0.00     0.007 C 
BRANCH  12  14
ATOM     14  C   UNL     1     143.646 139.485 142.003  1.00  0.00     0.004 C 
BRANCH  14  15
ATOM     15  C   UNL     1     144.208 139.878 140.623  1.00  0.00     0.008 C 
BRANCH  15  16
ATOM     16  C   UNL     1     143.303 139.450 139.460  1.00  0.00     0.075 C 
BRANCH  16  17
ATOM     17  C   UNL     1     144.117 139.172 138.225  1.00  0.00     0.129 C 
ATOM     18  O   UNL     1     145.210 139.700 138.088  1.00  0.00    -0.300 OA
ATOM     19  C   UNL     1     143.584 138.274 137.150  1.00  0.00     0.087 C 
ENDBRANCH  16  17
ENDBRANCH  15  16
ENDBRANCH  14  15
ENDBRANCH  12  14
ENDBRANCH  11  12
ENDBRANCH   1  11
TORSDOF 12
ENDMDL
MODEL 6
REMARK VINA RESULT:    -3.039      2.925      4.548
REMARK INTER + INTRA:          -7.948
REMARK INTER:                  -6.138
REMARK INTRA:                  -1.810
REMARK UNBOUND:                -2.778
REMARK SMILES CC(=O)CCC[C@@H](C)CCC[C@@H](C)CCCC(C)C
REMARK SMILES IDX 10 1 11 2 12 3 13 4 14 5 15 6 16 7 17 8 18 9 19 10 9 11 7 12
REMARK SMILES IDX 8 13 6 14 5 15 4 16 2 17 3 18 1 19
REMARK H PARENT
REMARK Flexibility Score: inf
ROOT
ATOM      1  C   UNL     1     138.562 141.814 141.995  1.00  0.00     0.001 C 
ENDROOT
BRANCH   1   2
ATOM      2  C   UNL     1     139.734 141.889 142.990  1.00  0.00     0.003 C 
BRANCH   2   3
ATOM      3  C   UNL     1     141.130 141.721 142.319  1.00  0.00    -0.014 C 
ATOM      4  C   UNL     1     141.865 143.073 142.262  1.00  0.00     0.007 C 
BRANCH   3   5
ATOM      5  C   UNL     1     141.967 140.654 143.070  1.00  0.00     0.003 C 
BRANCH   5   6
ATOM      6  C   UNL     1     142.360 139.459 142.182  1.00  0.00     0.001 C 
BRANCH   6   7
ATOM      7  C   UNL     1     141.509 139.352 140.902  1.00  0.00     0.003 C 
BRANCH   7   8
ATOM      8  C   UNL     1     140.452 138.221 140.898  1.00  0.00    -0.017 C 
ATOM      9  C   UNL     1     139.527 138.285 142.123  1.00  0.00     0.007 C 
ATOM     10  C   UNL     1     139.618 138.296 139.613  1.00  0.00     0.007 C 
ENDBRANCH   7   8
ENDBRANCH   6   7
ENDBRANCH   5   6
ENDBRANCH   3   5
ENDBRANCH   2   3
ENDBRANCH   1   2
BRANCH   1  11
ATOM     11  C   UNL     1     139.007 141.978 140.531  1.00  0.00     0.003 C 
BRANCH  11  12
ATOM     12  C   UNL     1     137.892 141.636 139.513  1.00  0.00    -0.014 C 
ATOM     13  C   UNL     1     138.142 142.328 138.161  1.00  0.00     0.007 C 
BRANCH  12  14
ATOM     14  C   UNL     1     136.517 142.040 140.110  1.00  0.00     0.004 C 
BRANCH  14  15
ATOM     15  C   UNL     1     135.288 141.679 139.254  1.00  0.00     0.008 C 
BRANCH  15  16
ATOM     16  C   UNL     1     134.161 142.716 139.352  1.00  0.00     0.075 C 
BRANCH  16  17
ATOM     17  C   UNL     1     132.952 142.128 140.029  1.00  0.00     0.129 C 
ATOM     18  O   UNL     1     132.049 142.861 140.401  1.00  0.00    -0.300 OA
ATOM     19  C   UNL     1     132.862 140.652 140.275  1.00  0.00     0.087 C 
ENDBRANCH  16  17
ENDBRANCH  15  16
ENDBRANCH  14  15
ENDBRANCH  12  14
ENDBRANCH  11  12
ENDBRANCH   1  11
TORSDOF 12
ENDMDL
MODEL 7
REMARK VINA RESULT:    -2.989      3.494      5.811
REMARK INTER + INTRA:          -7.864
REMARK INTER:                  -5.995
REMARK INTRA:                  -1.869
REMARK UNBOUND:                -2.778
REMARK SMILES CC(=O)CCC[C@@H](C)CCC[C@@H](C)CCCC(C)C
REMARK SMILES IDX 10 1 11 2 12 3 13 4 14 5 15 6 16 7 17 8 18 9 19 10 9 11 7 12
REMARK SMILES IDX 8 13 6 14 5 15 4 16 2 17 3 18 1 19
REMARK H PARENT
REMARK Flexibility Score: inf
ROOT
ATOM      1  C   UNL     1     141.361 139.518 139.068  1.00  0.00     0.001 C 
ENDROOT
BRANCH   1   2
ATOM      2  C   UNL     1     142.381 140.355 139.862  1.00  0.00     0.003 C 
BRANCH   2   3
ATOM      3  C   UNL     1     143.416 139.492 140.645  1.00  0.00    -0.014 C 
ATOM      4  C   UNL     1     144.847 139.809 140.173  1.00  0.00     0.007 C 
BRANCH   3   5
ATOM      5  C   UNL     1     143.262 139.716 142.171  1.00  0.00     0.003 C 
BRANCH   5   6
ATOM      6  C   UNL     1     142.735 141.119 142.526  1.00  0.00     0.001 C 
BRANCH   6   7
ATOM      7  C   UNL     1     141.316 141.097 143.125  1.00  0.00     0.003 C 
BRANCH   7   8
ATOM      8  C   UNL     1     140.449 142.345 142.829  1.00  0.00    -0.017 C 
ATOM      9  C   UNL     1     141.036 143.208 141.701  1.00  0.00     0.007 C 
ATOM     10  C   UNL     1     139.024 141.911 142.462  1.00  0.00     0.007 C 
ENDBRANCH   7   8
ENDBRANCH   6   7
ENDBRANCH   5   6
ENDBRANCH   3   5
ENDBRANCH   2   3
ENDBRANCH   1   2
BRANCH   1  11
ATOM     11  C   UNL     1     139.948 139.563 139.675  1.00  0.00     0.003 C 
BRANCH  11  12
ATOM     12  C   UNL     1     139.481 138.197 140.234  1.00  0.00    -0.014 C 
ATOM     13  C   UNL     1     140.090 137.927 141.622  1.00  0.00     0.007 C 
BRANCH  12  14
ATOM     14  C   UNL     1     139.857 137.080 139.224  1.00  0.00     0.004 C 
BRANCH  14  15
ATOM     15  C   UNL     1     139.537 135.641 139.674  1.00  0.00     0.008 C 
BRANCH  15  16
ATOM     16  C   UNL     1     140.148 134.574 138.757  1.00  0.00     0.075 C 
BRANCH  16  17
ATOM     17  C   UNL     1     140.158 133.230 139.434  1.00  0.00     0.129 C 
ATOM     18  O   UNL     1     139.242 132.446 139.240  1.00  0.00    -0.300 OA
ATOM     19  C   UNL     1     141.270 132.858 140.368  1.00  0.00     0.087 C 
ENDBRANCH  16  17
ENDBRANCH  15  16
ENDBRANCH  14  15
ENDBRANCH  12  14
ENDBRANCH  11  12
ENDBRANCH   1  11
TORSDOF 12
ENDMDL
MODEL 8
REMARK VINA RESULT:    -2.904      3.140      6.133
REMARK INTER + INTRA:          -7.718
REMARK INTER:                  -5.876
REMARK INTRA:                  -1.842
REMARK UNBOUND:                -2.778
REMARK SMILES CC(=O)CCC[C@@H](C)CCC[C@@H](C)CCCC(C)C
REMARK SMILES IDX 10 1 11 2 12 3 13 4 14 5 15 6 16 7 17 8 18 9 19 10 9 11 7 12
REMARK SMILES IDX 8 13 6 14 5 15 4 16 2 17 3 18 1 19
REMARK H PARENT
REMARK Flexibility Score: inf
ROOT
ATOM      1  C   UNL     1     142.052 143.339 141.544  1.00  0.00     0.001 C 
ENDROOT
BRANCH   1   2
ATOM      2  C   UNL     1     141.675 144.413 140.507  1.00  0.00     0.003 C 
BRANCH   2   3
ATOM      3  C   UNL     1     142.003 144.001 139.040  1.00  0.00    -0.014 C 
ATOM      4  C   UNL     1     140.712 143.637 138.283  1.00  0.00     0.007 C 
BRANCH   3   5
ATOM      5  C   UNL     1     142.779 145.133 138.321  1.00  0.00     0.003 C 
BRANCH   5   6
ATOM      6  C   UNL     1     142.608 146.506 138.996  1.00  0.00     0.001 C 
BRANCH   6   7
ATOM      7  C   UNL     1     142.285 147.634 137.997  1.00  0.00     0.003 C 
BRANCH   7   8
ATOM      8  C   UNL     1     140.936 148.358 138.225  1.00  0.00    -0.017 C 
ATOM      9  C   UNL     1     139.812 147.788 137.346  1.00  0.00     0.007 C 
ATOM     10  C   UNL     1     140.538 148.258 139.704  1.00  0.00     0.007 C 
ENDBRANCH   7   8
ENDBRANCH   6   7
ENDBRANCH   5   6
ENDBRANCH   3   5
ENDBRANCH   2   3
ENDBRANCH   1   2
BRANCH   1  11
ATOM     11  C   UNL     1     140.858 142.896 142.409  1.00  0.00     0.003 C 
BRANCH  11  12
ATOM     12  C   UNL     1     140.169 141.612 141.883  1.00  0.00    -0.014 C 
ATOM     13  C   UNL     1     138.637 141.752 141.914  1.00  0.00     0.007 C 
BRANCH  12  14
ATOM     14  C   UNL     1     140.644 140.399 142.727  1.00  0.00     0.004 C 
BRANCH  14  15
ATOM     15  C   UNL     1     141.573 139.406 142.001  1.00  0.00     0.008 C 
BRANCH  15  16
ATOM     16  C   UNL     1     143.053 139.801 142.077  1.00  0.00     0.075 C 
BRANCH  16  17
ATOM     17  C   UNL     1     143.644 139.926 140.699  1.00  0.00     0.129 C 
ATOM     18  O   UNL     1     144.843 139.761 140.535  1.00  0.00    -0.300 OA
ATOM     19  C   UNL     1     142.775 140.280 139.529  1.00  0.00     0.087 C 
ENDBRANCH  16  17
ENDBRANCH  15  16
ENDBRANCH  14  15
ENDBRANCH  12  14
ENDBRANCH  11  12
ENDBRANCH   1  11
TORSDOF 12
ENDMDL
MODEL 9
REMARK VINA RESULT:    -2.262      3.213      5.601
REMARK INTER + INTRA:          -6.627
REMARK INTER:                  -4.753
REMARK INTRA:                  -1.874
REMARK UNBOUND:                -2.778
REMARK SMILES CC(=O)CCC[C@@H](C)CCC[C@@H](C)CCCC(C)C
REMARK SMILES IDX 10 1 11 2 12 3 13 4 14 5 15 6 16 7 17 8 18 9 19 10 9 11 7 12
REMARK SMILES IDX 8 13 6 14 5 15 4 16 2 17 3 18 1 19
REMARK H PARENT
REMARK Flexibility Score: inf
ROOT
ATOM      1  C   UNL     1     139.249 138.784 142.401  1.00  0.00     0.001 C 
ENDROOT
BRANCH   1   2
ATOM      2  C   UNL     1     139.122 140.137 143.125  1.00  0.00     0.003 C 
BRANCH   2   3
ATOM      3  C   UNL     1     139.374 141.363 142.198  1.00  0.00    -0.014 C 
ATOM      4  C   UNL     1     138.043 141.889 141.628  1.00  0.00     0.007 C 
BRANCH   3   5
ATOM      5  C   UNL     1     140.138 142.473 142.964  1.00  0.00     0.003 C 
BRANCH   5   6
ATOM      6  C   UNL     1     141.592 142.645 142.488  1.00  0.00     0.001 C 
BRANCH   6   7
ATOM      7  C   UNL     1     141.846 142.042 141.093  1.00  0.00     0.003 C 
BRANCH   7   8
ATOM      8  C   UNL     1     141.848 143.053 139.921  1.00  0.00    -0.017 C 
ATOM      9  C   UNL     1     140.690 142.811 138.941  1.00  0.00     0.007 C 
ATOM     10  C   UNL     1     141.772 144.484 140.471  1.00  0.00     0.007 C 
ENDBRANCH   7   8
ENDBRANCH   6   7
ENDBRANCH   5   6
ENDBRANCH   3   5
ENDBRANCH   2   3
ENDBRANCH   1   2
BRANCH   1  11
ATOM     11  C   UNL     1     140.588 138.626 141.658  1.00  0.00     0.003 C 
BRANCH  11  12
ATOM     12  C   UNL     1     140.419 138.162 140.190  1.00  0.00    -0.014 C 
ATOM     13  C   UNL     1     139.475 139.100 139.416  1.00  0.00     0.007 C 
BRANCH  12  14
ATOM     14  C   UNL     1     139.899 136.700 140.176  1.00  0.00     0.004 C 
BRANCH  14  15
ATOM     15  C   UNL     1     139.342 136.204 138.828  1.00  0.00     0.008 C 
BRANCH  15  16
ATOM     16  C   UNL     1     140.004 134.908 138.343  1.00  0.00     0.075 C 
BRANCH  16  17
ATOM     17  C   UNL     1     139.818 133.805 139.350  1.00  0.00     0.129 C 
ATOM     18  O   UNL     1     138.692 133.462 139.673  1.00  0.00    -0.300 OA
ATOM     19  C   UNL     1     141.007 133.145 139.982  1.00  0.00     0.087 C 
ENDBRANCH  16  17
ENDBRANCH  15  16
ENDBRANCH  14  15
ENDBRANCH  12  14
ENDBRANCH  11  12
ENDBRANCH   1  11
TORSDOF 12
ENDMDL
