MODEL 1
REMARK VINA RESULT:    -5.106      0.000      0.000
REMARK INTER + INTRA:          -7.386
REMARK INTER:                  -7.793
REMARK INTRA:                   0.406
REMARK UNBOUND:                 0.406
REMARK SMILES CC1=CCC[C@@H](C)C(=O)C[C@H](C(C)C)C(=O)C1
REMARK SMILES IDX 8 1 9 2 6 3 7 4 5 5 4 6 3 7 2 8 1 9 10 11 11 12 15 13 16 14
REMARK SMILES IDX 17 15 12 17 13 18 14 19
REMARK H PARENT
REMARK Flexibility Score: 70.00
ROOT
ATOM      1  C   UNL     1     134.466 135.286 112.404  1.00  0.00     0.136 C 
ATOM      2  O   UNL     1     135.064 134.667 111.539  1.00  0.00    -0.299 OA
ENDROOT
BRANCH   1   3
ATOM      3  C   UNL     1     133.481 134.503 113.264  1.00  0.00     0.053 C 
ATOM      4  C   UNL     1     132.584 135.370 114.163  1.00  0.00     0.016 C 
BRANCH   3   5
ATOM      5  C   UNL     1     134.171 133.354 114.029  1.00  0.00     0.015 C 
BRANCH   5   6
ATOM      6  C   UNL     1     135.679 133.577 114.267  1.00  0.00     0.028 C 
BRANCH   6   7
ATOM      7  C   UNL     1     136.004 133.787 115.725  1.00  0.00    -0.028 C 
ATOM      8  C   UNL     1     136.599 134.897 116.230  1.00  0.00    -0.070 CG0
ATOM      9  C   UNL     1     136.838 134.996 117.715  1.00  0.00     0.039 C 
ATOM     10  G   UNL     1     137.073 136.053 115.365  1.00  0.00     0.000 G0
ENDBRANCH   6   7
ENDBRANCH   5   6
ENDBRANCH   3   5
ENDBRANCH   1   3
BRANCH   1  11
ATOM     11  C   UNL     1     134.667 136.790 112.501  1.00  0.00     0.087 C 
BRANCH  11  12
ATOM     12  C   UNL     1     135.876 137.319 113.340  1.00  0.00     0.066 C 
BRANCH  12  13
ATOM     13  C   UNL     1     135.926 136.853 114.793  1.00  0.00     0.140 C 
ATOM     14  O   UNL     1     135.033 137.214 115.548  1.00  0.00    -0.299 OA
BRANCH  13  15
ATOM     15  C   UNL     1     137.076 136.064 115.375  1.00  0.00     0.106 CG0
ATOM     16  G   UNL     1     136.612 134.898 116.232  1.00  0.00     0.000 G0
ENDBRANCH  13  15
ENDBRANCH  12  13
BRANCH  12  17
ATOM     17  C   UNL     1     137.286 137.327 112.657  1.00  0.00    -0.006 C 
ATOM     18  C   UNL     1     138.169 138.476 113.181  1.00  0.00     0.008 C 
ATOM     19  C   UNL     1     137.279 137.352 111.124  1.00  0.00     0.008 C 
ENDBRANCH  12  17
ENDBRANCH  11  12
ENDBRANCH   1  11
TORSDOF 1
ENDMDL
MODEL 2
REMARK VINA RESULT:    -4.940      5.569      8.696
REMARK INTER + INTRA:          -7.132
REMARK INTER:                  -6.974
REMARK INTRA:                  -0.159
REMARK UNBOUND:                 0.406
REMARK SMILES CC1=CCC[C@@H](C)C(=O)C[C@H](C(C)C)C(=O)C1
REMARK SMILES IDX 8 1 9 2 6 3 7 4 5 5 4 6 3 7 2 8 1 9 10 11 11 12 15 13 16 14
REMARK SMILES IDX 17 15 12 17 13 18 14 19
REMARK H PARENT
REMARK Flexibility Score: 70.00
ROOT
ATOM      1  C   UNL     1     140.362 140.411 115.937  1.00  0.00     0.136 C 
ATOM      2  O   UNL     1     139.324 140.201 116.543  1.00  0.00    -0.299 OA
ENDROOT
BRANCH   1   3
ATOM      3  C   UNL     1     141.019 141.772 116.135  1.00  0.00     0.053 C 
ATOM      4  C   UNL     1     140.786 142.403 117.518  1.00  0.00     0.016 C 
BRANCH   3   5
ATOM      5  C   UNL     1     140.706 142.737 114.971  1.00  0.00     0.015 C 
BRANCH   5   6
ATOM      6  C   UNL     1     141.960 143.313 114.282  1.00  0.00     0.028 C 
BRANCH   6   7
ATOM      7  C   UNL     1     143.165 142.422 114.447  1.00  0.00    -0.028 C 
ATOM      8  C   UNL     1     143.508 141.423 113.597  1.00  0.00    -0.070 CG0
ATOM      9  C   UNL     1     144.760 140.625 113.859  1.00  0.00     0.039 C 
ATOM     10  G   UNL     1     142.670 141.035 112.389  1.00  0.00     0.000 G0
ENDBRANCH   6   7
ENDBRANCH   5   6
ENDBRANCH   3   5
ENDBRANCH   1   3
BRANCH   1  11
ATOM     11  C   UNL     1     140.870 139.357 114.967  1.00  0.00     0.087 C 
BRANCH  11  12
ATOM     12  C   UNL     1     140.654 139.597 113.437  1.00  0.00     0.066 C 
BRANCH  12  13
ATOM     13  C   UNL     1     141.927 139.705 112.600  1.00  0.00     0.140 C 
ATOM     14  O   UNL     1     142.417 138.675 112.156  1.00  0.00    -0.299 OA
BRANCH  13  15
ATOM     15  C   UNL     1     142.673 141.001 112.384  1.00  0.00     0.106 CG0
ATOM     16  G   UNL     1     143.505 141.406 113.590  1.00  0.00     0.000 G0
ENDBRANCH  13  15
ENDBRANCH  12  13
BRANCH  12  17
ATOM     17  C   UNL     1     139.527 138.775 112.725  1.00  0.00    -0.006 C 
ATOM     18  C   UNL     1     139.265 139.283 111.295  1.00  0.00     0.008 C 
ATOM     19  C   UNL     1     138.197 138.682 113.482  1.00  0.00     0.008 C 
ENDBRANCH  12  17
ENDBRANCH  11  12
ENDBRANCH   1  11
TORSDOF 1
ENDMDL
MODEL 3
REMARK VINA RESULT:    -4.821      5.294      8.156
REMARK INTER + INTRA:          -6.952
REMARK INTER:                  -7.320
REMARK INTRA:                   0.368
REMARK UNBOUND:                 0.406
REMARK SMILES CC1=CCC[C@@H](C)C(=O)C[C@H](C(C)C)C(=O)C1
REMARK SMILES IDX 8 1 9 2 6 3 7 4 5 5 4 6 3 7 2 8 1 9 10 11 11 12 15 13 16 14
REMARK SMILES IDX 17 15 12 17 13 18 14 19
REMARK H PARENT
REMARK Flexibility Score: 70.00
ROOT
ATOM      1  C   UNL     1     141.232 143.245 114.249  1.00  0.00     0.136 C 
ATOM      2  O   UNL     1     142.179 143.963 114.529  1.00  0.00    -0.299 OA
ENDROOT
BRANCH   1   3
ATOM      3  C   UNL     1     140.041 143.262 115.199  1.00  0.00     0.053 C 
ATOM      4  C   UNL     1     139.441 144.655 115.453  1.00  0.00     0.016 C 
BRANCH   3   5
ATOM      5  C   UNL     1     140.333 142.486 116.501  1.00  0.00     0.015 C 
BRANCH   5   6
ATOM      6  C   UNL     1     140.556 140.974 116.292  1.00  0.00     0.028 C 
BRANCH   6   7
ATOM      7  C   UNL     1     139.312 140.274 115.802  1.00  0.00    -0.028 C 
ATOM      8  C   UNL     1     139.299 139.292 114.867  1.00  0.00    -0.070 CG0
ATOM      9  C   UNL     1     137.989 138.649 114.489  1.00  0.00     0.039 C 
ATOM     10  G   UNL     1     140.548 138.813 114.144  1.00  0.00     0.000 G0
ENDBRANCH   6   7
ENDBRANCH   5   6
ENDBRANCH   3   5
ENDBRANCH   1   3
BRANCH   1  11
ATOM     11  C   UNL     1     141.342 142.326 113.043  1.00  0.00     0.087 C 
BRANCH  11  12
ATOM     12  C   UNL     1     141.944 140.899 113.257  1.00  0.00     0.066 C 
BRANCH  12  13
ATOM     13  C   UNL     1     140.983 139.735 113.025  1.00  0.00     0.140 C 
ATOM     14  O   UNL     1     140.482 139.610 111.916  1.00  0.00    -0.299 OA
BRANCH  13  15
ATOM     15  C   UNL     1     140.532 138.798 114.121  1.00  0.00     0.106 CG0
ATOM     16  G   UNL     1     139.299 139.302 114.854  1.00  0.00     0.000 G0
ENDBRANCH  13  15
ENDBRANCH  12  13
BRANCH  12  17
ATOM     17  C   UNL     1     143.378 140.622 112.691  1.00  0.00    -0.006 C 
ATOM     18  C   UNL     1     143.467 139.248 112.001  1.00  0.00     0.008 C 
ATOM     19  C   UNL     1     144.525 140.759 113.700  1.00  0.00     0.008 C 
ENDBRANCH  12  17
ENDBRANCH  11  12
ENDBRANCH   1  11
TORSDOF 1
ENDMDL
MODEL 4
REMARK VINA RESULT:    -4.816      5.670      8.599
REMARK INTER + INTRA:          -6.943
REMARK INTER:                  -7.215
REMARK INTRA:                   0.272
REMARK UNBOUND:                 0.406
REMARK SMILES CC1=CCC[C@@H](C)C(=O)C[C@H](C(C)C)C(=O)C1
REMARK SMILES IDX 8 1 9 2 6 3 7 4 5 5 4 6 3 7 2 8 1 9 10 11 11 12 15 13 16 14
REMARK SMILES IDX 17 15 12 17 13 18 14 19
REMARK H PARENT
REMARK Flexibility Score: 70.00
ROOT
ATOM      1  C   UNL     1     143.279 141.080 114.173  1.00  0.00     0.136 C 
ATOM      2  O   UNL     1     144.333 140.623 113.764  1.00  0.00    -0.299 OA
ENDROOT
BRANCH   1   3
ATOM      3  C   UNL     1     142.830 142.417 113.595  1.00  0.00     0.053 C 
ATOM      4  C   UNL     1     142.430 143.469 114.644  1.00  0.00     0.016 C 
BRANCH   3   5
ATOM      5  C   UNL     1     141.771 142.239 112.486  1.00  0.00     0.015 C 
BRANCH   5   6
ATOM      6  C   UNL     1     142.030 141.032 111.562  1.00  0.00     0.028 C 
BRANCH   6   7
ATOM      7  C   UNL     1     140.758 140.312 111.190  1.00  0.00    -0.028 C 
ATOM      8  C   UNL     1     140.135 139.396 111.972  1.00  0.00    -0.070 CG0
ATOM      9  C   UNL     1     138.847 138.771 111.497  1.00  0.00     0.039 C 
ATOM     10  G   UNL     1     140.686 138.931 113.311  1.00  0.00     0.000 G0
ENDBRANCH   6   7
ENDBRANCH   5   6
ENDBRANCH   3   5
ENDBRANCH   1   3
BRANCH   1  11
ATOM     11  C   UNL     1     142.543 140.347 115.283  1.00  0.00     0.087 C 
BRANCH  11  12
ATOM     12  C   UNL     1     141.000 140.564 115.414  1.00  0.00     0.066 C 
BRANCH  12  13
ATOM     13  C   UNL     1     140.133 139.715 114.487  1.00  0.00     0.140 C 
ATOM     14  O   UNL     1     138.946 139.591 114.758  1.00  0.00    -0.299 OA
BRANCH  13  15
ATOM     15  C   UNL     1     140.684 138.931 113.319  1.00  0.00     0.106 CG0
ATOM     16  G   UNL     1     140.137 139.406 111.983  1.00  0.00     0.000 G0
ENDBRANCH  13  15
ENDBRANCH  12  13
BRANCH  12  17
ATOM     17  C   UNL     1     140.403 140.690 116.857  1.00  0.00    -0.006 C 
ATOM     18  C   UNL     1     139.607 141.996 117.035  1.00  0.00     0.008 C 
ATOM     19  C   UNL     1     141.410 140.548 118.004  1.00  0.00     0.008 C 
ENDBRANCH  12  17
ENDBRANCH  11  12
ENDBRANCH   1  11
TORSDOF 1
ENDMDL
MODEL 5
REMARK VINA RESULT:    -4.629      1.861      4.717
REMARK INTER + INTRA:          -6.658
REMARK INTER:                  -6.687
REMARK INTRA:                   0.029
REMARK UNBOUND:                 0.406
REMARK SMILES CC1=CCC[C@@H](C)C(=O)C[C@H](C(C)C)C(=O)C1
REMARK SMILES IDX 8 1 9 2 6 3 7 4 5 5 4 6 3 7 2 8 1 9 10 11 11 12 15 13 16 14
REMARK SMILES IDX 17 15 12 17 13 18 14 19
REMARK H PARENT
REMARK Flexibility Score: 70.00
ROOT
ATOM      1  C   UNL     1     136.471 136.761 114.066  1.00  0.00     0.136 C 
ATOM      2  O   UNL     1     135.618 137.611 114.262  1.00  0.00    -0.299 OA
ENDROOT
BRANCH   1   3
ATOM      3  C   UNL     1     137.274 136.867 112.775  1.00  0.00     0.053 C 
ATOM      4  C   UNL     1     138.175 138.109 112.679  1.00  0.00     0.016 C 
BRANCH   3   5
ATOM      5  C   UNL     1     136.387 136.668 111.527  1.00  0.00     0.015 C 
BRANCH   5   6
ATOM      6  C   UNL     1     135.650 135.313 111.492  1.00  0.00     0.028 C 
BRANCH   6   7
ATOM      7  C   UNL     1     134.199 135.441 111.885  1.00  0.00    -0.028 C 
ATOM      8  C   UNL     1     133.637 134.840 112.963  1.00  0.00    -0.070 CG0
ATOM      9  C   UNL     1     132.179 135.076 113.265  1.00  0.00     0.039 C 
ATOM     10  G   UNL     1     134.400 133.902 113.884  1.00  0.00     0.000 G0
ENDBRANCH   6   7
ENDBRANCH   5   6
ENDBRANCH   3   5
ENDBRANCH   1   3
BRANCH   1  11
ATOM     11  C   UNL     1     136.607 135.617 115.057  1.00  0.00     0.087 C 
BRANCH  11  12
ATOM     12  C   UNL     1     135.373 135.264 115.951  1.00  0.00     0.066 C 
BRANCH  12  13
ATOM     13  C   UNL     1     134.368 134.293 115.336  1.00  0.00     0.140 C 
ATOM     14  O   UNL     1     133.547 133.764 116.074  1.00  0.00    -0.299 OA
BRANCH  13  15
ATOM     15  C   UNL     1     134.404 133.866 113.887  1.00  0.00     0.106 CG0
ATOM     16  G   UNL     1     133.659 134.826 112.974  1.00  0.00     0.000 G0
ENDBRANCH  13  15
ENDBRANCH  12  13
BRANCH  12  17
ATOM     17  C   UNL     1     135.631 134.987 117.471  1.00  0.00    -0.006 C 
ATOM     18  C   UNL     1     134.818 135.935 118.372  1.00  0.00     0.008 C 
ATOM     19  C   UNL     1     137.101 135.010 117.907  1.00  0.00     0.008 C 
ENDBRANCH  12  17
ENDBRANCH  11  12
ENDBRANCH   1  11
TORSDOF 1
ENDMDL
MODEL 6
REMARK VINA RESULT:    -4.605      1.663      3.646
REMARK INTER + INTRA:          -6.621
REMARK INTER:                  -6.328
REMARK INTRA:                  -0.293
REMARK UNBOUND:                 0.406
REMARK SMILES CC1=CCC[C@@H](C)C(=O)C[C@H](C(C)C)C(=O)C1
REMARK SMILES IDX 8 1 9 2 6 3 7 4 5 5 4 6 3 7 2 8 1 9 10 11 11 12 15 13 16 14
REMARK SMILES IDX 17 15 12 17 13 18 14 19
REMARK H PARENT
REMARK Flexibility Score: 70.00
ROOT
ATOM      1  C   UNL     1     135.722 134.780 112.209  1.00  0.00     0.136 C 
ATOM      2  O   UNL     1     136.549 133.883 112.239  1.00  0.00    -0.299 OA
ENDROOT
BRANCH   1   3
ATOM      3  C   UNL     1     136.245 136.210 112.275  1.00  0.00     0.053 C 
ATOM      4  C   UNL     1     136.941 136.699 110.994  1.00  0.00     0.016 C 
BRANCH   3   5
ATOM      5  C   UNL     1     137.083 136.458 113.548  1.00  0.00     0.015 C 
BRANCH   5   6
ATOM      6  C   UNL     1     136.260 136.966 114.750  1.00  0.00     0.028 C 
BRANCH   6   7
ATOM      7  C   UNL     1     136.486 136.138 115.990  1.00  0.00    -0.028 C 
ATOM      8  C   UNL     1     135.560 135.321 116.550  1.00  0.00    -0.070 CG0
ATOM      9  C   UNL     1     135.925 134.519 117.774  1.00  0.00     0.039 C 
ATOM     10  G   UNL     1     134.140 135.187 116.023  1.00  0.00     0.000 G0
ENDBRANCH   6   7
ENDBRANCH   5   6
ENDBRANCH   3   5
ENDBRANCH   1   3
BRANCH   1  11
ATOM     11  C   UNL     1     134.246 134.416 112.204  1.00  0.00     0.087 C 
BRANCH  11  12
ATOM     12  C   UNL     1     133.407 134.724 113.488  1.00  0.00     0.066 C 
BRANCH  12  13
ATOM     13  C   UNL     1     134.033 134.278 114.807  1.00  0.00     0.140 C 
ATOM     14  O   UNL     1     134.388 133.112 114.915  1.00  0.00    -0.299 OA
BRANCH  13  15
ATOM     15  C   UNL     1     134.133 135.169 116.023  1.00  0.00     0.106 CG0
ATOM     16  G   UNL     1     135.560 135.312 116.529  1.00  0.00     0.000 G0
ENDBRANCH  13  15
ENDBRANCH  12  13
BRANCH  12  17
ATOM     17  C   UNL     1     132.718 136.127 113.587  1.00  0.00    -0.006 C 
ATOM     18  C   UNL     1     131.212 136.004 113.885  1.00  0.00     0.008 C 
ATOM     19  C   UNL     1     132.923 137.051 112.381  1.00  0.00     0.008 C 
ENDBRANCH  12  17
ENDBRANCH  11  12
ENDBRANCH   1  11
TORSDOF 1
ENDMDL
MODEL 7
REMARK VINA RESULT:    -4.580      5.629      8.745
REMARK INTER + INTRA:          -6.584
REMARK INTER:                  -7.083
REMARK INTRA:                   0.499
REMARK UNBOUND:                 0.406
REMARK SMILES CC1=CCC[C@@H](C)C(=O)C[C@H](C(C)C)C(=O)C1
REMARK SMILES IDX 8 1 9 2 6 3 7 4 5 5 4 6 3 7 2 8 1 9 10 11 11 12 15 13 16 14
REMARK SMILES IDX 17 15 12 17 13 18 14 19
REMARK H PARENT
REMARK Flexibility Score: 70.00
ROOT
ATOM      1  C   UNL     1     140.009 142.372 115.863  1.00  0.00     0.136 C 
ATOM      2  O   UNL     1     140.107 142.346 117.079  1.00  0.00    -0.299 OA
ENDROOT
BRANCH   1   3
ATOM      3  C   UNL     1     140.375 143.677 115.164  1.00  0.00     0.053 C 
ATOM      4  C   UNL     1     139.243 144.717 115.114  1.00  0.00     0.016 C 
BRANCH   3   5
ATOM      5  C   UNL     1     141.027 143.428 113.787  1.00  0.00     0.015 C 
BRANCH   5   6
ATOM      6  C   UNL     1     142.517 143.036 113.862  1.00  0.00     0.028 C 
BRANCH   6   7
ATOM      7  C   UNL     1     142.864 141.924 112.904  1.00  0.00    -0.028 C 
ATOM      8  C   UNL     1     143.110 140.641 113.269  1.00  0.00    -0.070 CG0
ATOM      9  C   UNL     1     143.414 139.615 112.206  1.00  0.00     0.039 C 
ATOM     10  G   UNL     1     143.125 140.176 114.716  1.00  0.00     0.000 G0
ENDBRANCH   6   7
ENDBRANCH   5   6
ENDBRANCH   3   5
ENDBRANCH   1   3
BRANCH   1  11
ATOM     11  C   UNL     1     139.448 141.155 115.147  1.00  0.00     0.087 C 
BRANCH  11  12
ATOM     12  C   UNL     1     140.455 140.157 114.489  1.00  0.00     0.066 C 
BRANCH  12  13
ATOM     13  C   UNL     1     141.739 139.901 115.275  1.00  0.00     0.140 C 
ATOM     14  O   UNL     1     141.643 139.553 116.445  1.00  0.00    -0.299 OA
BRANCH  13  15
ATOM     15  C   UNL     1     143.120 140.161 114.720  1.00  0.00     0.106 CG0
ATOM     16  G   UNL     1     143.093 140.627 113.273  1.00  0.00     0.000 G0
ENDBRANCH  13  15
ENDBRANCH  12  13
BRANCH  12  17
ATOM     17  C   UNL     1     139.871 138.855 113.841  1.00  0.00    -0.006 C 
ATOM     18  C   UNL     1     139.428 139.090 112.385  1.00  0.00     0.008 C 
ATOM     19  C   UNL     1     138.732 138.185 114.617  1.00  0.00     0.008 C 
ENDBRANCH  12  17
ENDBRANCH  11  12
ENDBRANCH   1  11
TORSDOF 1
ENDMDL
MODEL 8
REMARK VINA RESULT:    -4.493      5.890      8.267
REMARK INTER + INTRA:          -6.451
REMARK INTER:                  -6.755
REMARK INTRA:                   0.304
REMARK UNBOUND:                 0.406
REMARK SMILES CC1=CCC[C@@H](C)C(=O)C[C@H](C(C)C)C(=O)C1
REMARK SMILES IDX 8 1 9 2 6 3 7 4 5 5 4 6 3 7 2 8 1 9 10 11 11 12 15 13 16 14
REMARK SMILES IDX 17 15 12 17 13 18 14 19
REMARK H PARENT
REMARK Flexibility Score: 70.00
ROOT
ATOM      1  C   UNL     1     142.598 141.406 112.735  1.00  0.00     0.136 C 
ATOM      2  O   UNL     1     142.907 141.183 111.576  1.00  0.00    -0.299 OA
ENDROOT
BRANCH   1   3
ATOM      3  C   UNL     1     143.706 141.325 113.778  1.00  0.00     0.053 C 
ATOM      4  C   UNL     1     144.899 140.440 113.381  1.00  0.00     0.016 C 
BRANCH   3   5
ATOM      5  C   UNL     1     143.153 140.996 115.181  1.00  0.00     0.015 C 
BRANCH   5   6
ATOM      6  C   UNL     1     142.461 142.187 115.876  1.00  0.00     0.028 C 
BRANCH   6   7
ATOM      7  C   UNL     1     141.576 141.749 117.017  1.00  0.00    -0.028 C 
ATOM      8  C   UNL     1     140.247 141.503 116.910  1.00  0.00    -0.070 CG0
ATOM      9  C   UNL     1     139.482 141.037 118.123  1.00  0.00     0.039 C 
ATOM     10  G   UNL     1     139.464 141.704 115.623  1.00  0.00     0.000 G0
ENDBRANCH   6   7
ENDBRANCH   5   6
ENDBRANCH   3   5
ENDBRANCH   1   3
BRANCH   1  11
ATOM     11  C   UNL     1     141.135 141.650 113.069  1.00  0.00     0.087 C 
BRANCH  11  12
ATOM     12  C   UNL     1     140.238 140.412 113.400  1.00  0.00     0.066 C 
BRANCH  12  13
ATOM     13  C   UNL     1     139.451 140.498 114.705  1.00  0.00     0.140 C 
ATOM     14  O   UNL     1     138.704 139.572 114.993  1.00  0.00    -0.299 OA
BRANCH  13  15
ATOM     15  C   UNL     1     139.458 141.713 115.603  1.00  0.00     0.106 CG0
ATOM     16  G   UNL     1     140.234 141.486 116.891  1.00  0.00     0.000 G0
ENDBRANCH  13  15
ENDBRANCH  12  13
BRANCH  12  17
ATOM     17  C   UNL     1     139.408 139.783 112.231  1.00  0.00    -0.006 C 
ATOM     18  C   UNL     1     139.715 138.285 112.051  1.00  0.00     0.008 C 
ATOM     19  C   UNL     1     139.530 140.492 110.877  1.00  0.00     0.008 C 
ENDBRANCH  12  17
ENDBRANCH  11  12
ENDBRANCH   1  11
TORSDOF 1
ENDMDL
MODEL 9
REMARK VINA RESULT:    -4.463      2.016      3.767
REMARK INTER + INTRA:          -6.404
REMARK INTER:                  -7.028
REMARK INTRA:                   0.624
REMARK UNBOUND:                 0.406
REMARK SMILES CC1=CCC[C@@H](C)C(=O)C[C@H](C(C)C)C(=O)C1
REMARK SMILES IDX 8 1 9 2 6 3 7 4 5 5 4 6 3 7 2 8 1 9 10 11 11 12 15 13 16 14
REMARK SMILES IDX 17 15 12 17 13 18 14 19
REMARK H PARENT
REMARK Flexibility Score: 70.00
ROOT
ATOM      1  C   UNL     1     136.564 135.335 115.495  1.00  0.00     0.136 C 
ATOM      2  O   UNL     1     136.875 134.337 114.866  1.00  0.00    -0.299 OA
ENDROOT
BRANCH   1   3
ATOM      3  C   UNL     1     135.462 135.185 116.537  1.00  0.00     0.053 C 
ATOM      4  C   UNL     1     135.801 134.235 117.698  1.00  0.00     0.016 C 
BRANCH   3   5
ATOM      5  C   UNL     1     134.094 134.880 115.889  1.00  0.00     0.015 C 
BRANCH   5   6
ATOM      6  C   UNL     1     133.527 136.041 115.047  1.00  0.00     0.028 C 
BRANCH   6   7
ATOM      7  C   UNL     1     133.368 135.671 113.594  1.00  0.00    -0.028 C 
ATOM      8  C   UNL     1     134.101 136.195 112.580  1.00  0.00    -0.070 CG0
ATOM      9  C   UNL     1     133.865 135.713 111.171  1.00  0.00     0.039 C 
ATOM     10  G   UNL     1     135.145 137.281 112.783  1.00  0.00     0.000 G0
ENDBRANCH   6   7
ENDBRANCH   5   6
ENDBRANCH   3   5
ENDBRANCH   1   3
BRANCH   1  11
ATOM     11  C   UNL     1     137.216 136.660 115.137  1.00  0.00     0.087 C 
BRANCH  11  12
ATOM     12  C   UNL     1     137.662 136.886 113.655  1.00  0.00     0.066 C 
BRANCH  12  13
ATOM     13  C   UNL     1     136.566 136.729 112.604  1.00  0.00     0.140 C 
ATOM     14  O   UNL     1     136.860 136.217 111.532  1.00  0.00    -0.299 OA
BRANCH  13  15
ATOM     15  C   UNL     1     135.166 137.272 112.775  1.00  0.00     0.106 CG0
ATOM     16  G   UNL     1     134.098 136.205 112.599  1.00  0.00     0.000 G0
ENDBRANCH  13  15
ENDBRANCH  12  13
BRANCH  12  17
ATOM     17  C   UNL     1     138.617 138.092 113.359  1.00  0.00    -0.006 C 
ATOM     18  C   UNL     1     138.417 139.241 114.364  1.00  0.00     0.008 C 
ATOM     19  C   UNL     1     138.556 138.649 111.932  1.00  0.00     0.008 C 
ENDBRANCH  12  17
ENDBRANCH  11  12
ENDBRANCH   1  11
TORSDOF 1
ENDMDL
