MODEL 1
REMARK VINA RESULT:    -7.225      0.000      0.000
REMARK INTER + INTRA:          -9.118
REMARK INTER:                  -8.703
REMARK INTRA:                  -0.414
REMARK UNBOUND:                -0.414
REMARK SMILES O=c1c(O)c(-c2ccc(O)cc2O)oc2cc(O)cc(O)c12
REMARK SMILES IDX 5 1 3 2 2 3 1 4 22 5 20 6 19 7 17 8 16 9 15 10 14 11 6 12
REMARK SMILES IDX 8 13 7 14 9 15 11 16 12 17 10 18 13 20 4 22 21 24 18 26
REMARK H PARENT 10 19 13 21 4 23 21 25 18 27
REMARK Flexibility Score: inf
ROOT
ATOM      1  C   UNL     1       8.325 -24.109 -13.587  1.00  0.00     0.184 A 
ATOM      2  C   UNL     1       8.242 -25.445 -14.006  1.00  0.00     0.208 A 
ATOM      3  C   UNL     1       8.862 -26.441 -13.233  1.00  0.00     0.238 A 
ATOM      4  O   UNL     1       8.831 -27.631 -13.642  1.00  0.00    -0.285 OA
ATOM      5  C   UNL     1       9.543 -26.085 -12.043  1.00  0.00     0.111 A 
ATOM      6  C   UNL     1      10.174 -27.014 -11.162  1.00  0.00     0.134 A 
ATOM      7  C   UNL     1      10.929 -26.538 -10.083  1.00  0.00     0.093 A 
ATOM      8  C   UNL     1      11.023 -25.174  -9.815  1.00  0.00     0.123 A 
ATOM      9  C   UNL     1      10.362 -24.258 -10.636  1.00  0.00     0.094 A 
ATOM     10  C   UNL     1       9.631 -24.700 -11.742  1.00  0.00     0.146 A 
ATOM     11  O   UNL     1       9.025 -23.797 -12.504  1.00  0.00    -0.451 OA
ENDROOT
BRANCH   1  12
ATOM     12  C   UNL     1       7.680 -23.016 -14.345  1.00  0.00     0.063 A 
ATOM     13  C   UNL     1       7.744 -21.471 -16.221  1.00  0.00     0.047 A 
ATOM     14  C   UNL     1       8.323 -22.508 -15.485  1.00  0.00     0.020 A 
ATOM     15  C   UNL     1       6.522 -20.920 -15.819  1.00  0.00     0.119 A 
ATOM     16  C   UNL     1       5.886 -21.405 -14.672  1.00  0.00     0.093 A 
ATOM     17  C   UNL     1       6.463 -22.441 -13.924  1.00  0.00     0.130 A 
BRANCH  15  18
ATOM     18  O   UNL     1       5.934 -19.889 -16.548  1.00  0.00    -0.508 OA
ATOM     19  H   UNL     1       5.456 -19.122 -16.090  1.00  0.00     0.293 HD
ENDBRANCH  15  18
BRANCH  17  20
ATOM     20  O   UNL     1       5.843 -22.881 -12.755  1.00  0.00    -0.507 OA
ATOM     21  H   UNL     1       6.376 -23.260 -11.980  1.00  0.00     0.293 HD
ENDBRANCH  17  20
ENDBRANCH   1  12
BRANCH   2  22
ATOM     22  O   UNL     1       7.579 -25.767 -15.194  1.00  0.00    -0.502 OA
ATOM     23  H   UNL     1       7.756 -26.626 -15.699  1.00  0.00     0.293 HD
ENDBRANCH   2  22
BRANCH   6  24
ATOM     24  O   UNL     1      10.067 -28.402 -11.285  1.00  0.00    -0.507 OA
ATOM     25  H   UNL     1       9.506 -28.990 -10.688  1.00  0.00     0.293 HD
ENDBRANCH   6  24
BRANCH   8  26
ATOM     26  O   UNL     1      11.771 -24.737  -8.723  1.00  0.00    -0.508 OA
ATOM     27  H   UNL     1      11.847 -23.753  -8.493  1.00  0.00     0.293 HD
ENDBRANCH   8  26
TORSDOF 6
ENDMDL
MODEL 2
REMARK VINA RESULT:    -7.075     12.655     14.212
REMARK INTER + INTRA:          -8.937
REMARK INTER:                  -8.518
REMARK INTRA:                  -0.419
REMARK UNBOUND:                -0.414
REMARK SMILES O=c1c(O)c(-c2ccc(O)cc2O)oc2cc(O)cc(O)c12
REMARK SMILES IDX 5 1 3 2 2 3 1 4 22 5 20 6 19 7 17 8 16 9 15 10 14 11 6 12
REMARK SMILES IDX 8 13 7 14 9 15 11 16 12 17 10 18 13 20 4 22 21 24 18 26
REMARK H PARENT 10 19 13 21 4 23 21 25 18 27
REMARK Flexibility Score: inf
ROOT
ATOM      1  C   UNL     1      17.770 -29.588 -21.458  1.00  0.00     0.184 A 
ATOM      2  C   UNL     1      17.876 -29.430 -20.067  1.00  0.00     0.208 A 
ATOM      3  C   UNL     1      17.162 -30.300 -19.227  1.00  0.00     0.238 A 
ATOM      4  O   UNL     1      17.218 -30.120 -17.983  1.00  0.00    -0.285 OA
ATOM      5  C   UNL     1      16.364 -31.325 -19.791  1.00  0.00     0.111 A 
ATOM      6  C   UNL     1      15.630 -32.288 -19.036  1.00  0.00     0.134 A 
ATOM      7  C   UNL     1      14.772 -33.176 -19.696  1.00  0.00     0.093 A 
ATOM      8  C   UNL     1      14.671 -33.180 -21.087  1.00  0.00     0.123 A 
ATOM      9  C   UNL     1      15.430 -32.282 -21.840  1.00  0.00     0.094 A 
ATOM     10  C   UNL     1      16.267 -31.360 -21.207  1.00  0.00     0.146 A 
ATOM     11  O   UNL     1      16.964 -30.516 -21.959  1.00  0.00    -0.451 OA
ENDROOT
BRANCH   1  12
ATOM     12  C   UNL     1      18.508 -28.718 -22.396  1.00  0.00     0.063 A 
ATOM     13  C   UNL     1      18.699 -26.574 -23.529  1.00  0.00     0.047 A 
ATOM     14  C   UNL     1      18.029 -27.421 -22.642  1.00  0.00     0.020 A 
ATOM     15  C   UNL     1      19.850 -27.019 -24.191  1.00  0.00     0.119 A 
ATOM     16  C   UNL     1      20.321 -28.316 -23.970  1.00  0.00     0.093 A 
ATOM     17  C   UNL     1      19.650 -29.175 -23.087  1.00  0.00     0.130 A 
BRANCH  15  18
ATOM     18  O   UNL     1      20.528 -26.181 -25.074  1.00  0.00    -0.508 OA
ATOM     19  H   UNL     1      21.151 -25.454 -24.742  1.00  0.00     0.293 HD
ENDBRANCH  15  18
BRANCH  17  20
ATOM     20  O   UNL     1      20.103 -30.482 -22.913  1.00  0.00    -0.507 OA
ATOM     21  H   UNL     1      20.618 -30.968 -23.638  1.00  0.00     0.293 HD
ENDBRANCH  17  20
ENDBRANCH   1  12
BRANCH   2  22
ATOM     22  O   UNL     1      18.656 -28.398 -19.538  1.00  0.00    -0.502 OA
ATOM     23  H   UNL     1      19.581 -28.557 -19.158  1.00  0.00     0.293 HD
ENDBRANCH   2  22
BRANCH   6  24
ATOM     24  O   UNL     1      15.727 -32.431 -17.648  1.00  0.00    -0.507 OA
ATOM     25  H   UNL     1      15.936 -31.681 -17.007  1.00  0.00     0.293 HD
ENDBRANCH   6  24
BRANCH   8  26
ATOM     26  O   UNL     1      13.819 -34.088 -21.712  1.00  0.00    -0.508 OA
ATOM     27  H   UNL     1      13.229 -33.812 -22.489  1.00  0.00     0.293 HD
ENDBRANCH   8  26
TORSDOF 6
ENDMDL
MODEL 3
REMARK VINA RESULT:    -7.054     11.696     14.009
REMARK INTER + INTRA:          -8.911
REMARK INTER:                  -8.513
REMARK INTRA:                  -0.398
REMARK UNBOUND:                -0.414
REMARK SMILES O=c1c(O)c(-c2ccc(O)cc2O)oc2cc(O)cc(O)c12
REMARK SMILES IDX 5 1 3 2 2 3 1 4 22 5 20 6 19 7 17 8 16 9 15 10 14 11 6 12
REMARK SMILES IDX 8 13 7 14 9 15 11 16 12 17 10 18 13 20 4 22 21 24 18 26
REMARK H PARENT 10 19 13 21 4 23 21 25 18 27
REMARK Flexibility Score: inf
ROOT
ATOM      1  C   UNL     1      15.283 -32.542 -19.492  1.00  0.00     0.184 A 
ATOM      2  C   UNL     1      15.505 -31.157 -19.444  1.00  0.00     0.208 A 
ATOM      3  C   UNL     1      16.631 -30.626 -20.094  1.00  0.00     0.238 A 
ATOM      4  O   UNL     1      16.855 -29.391 -20.002  1.00  0.00    -0.285 OA
ATOM      5  C   UNL     1      17.510 -31.487 -20.795  1.00  0.00     0.111 A 
ATOM      6  C   UNL     1      18.659 -31.053 -21.523  1.00  0.00     0.134 A 
ATOM      7  C   UNL     1      19.529 -32.004 -22.070  1.00  0.00     0.093 A 
ATOM      8  C   UNL     1      19.258 -33.368 -21.973  1.00  0.00     0.123 A 
ATOM      9  C   UNL     1      18.106 -33.802 -21.315  1.00  0.00     0.094 A 
ATOM     10  C   UNL     1      17.238 -32.879 -20.727  1.00  0.00     0.146 A 
ATOM     11  O   UNL     1      16.159 -33.332 -20.101  1.00  0.00    -0.451 OA
ENDROOT
BRANCH   1  12
ATOM     12  C   UNL     1      14.109 -33.163 -18.844  1.00  0.00     0.063 A 
ATOM     13  C   UNL     1      12.961 -33.801 -16.798  1.00  0.00     0.047 A 
ATOM     14  C   UNL     1      14.054 -33.215 -17.442  1.00  0.00     0.020 A 
ATOM     15  C   UNL     1      11.916 -34.353 -17.548  1.00  0.00     0.119 A 
ATOM     16  C   UNL     1      11.974 -34.326 -18.944  1.00  0.00     0.093 A 
ATOM     17  C   UNL     1      13.070 -33.746 -19.599  1.00  0.00     0.130 A 
BRANCH  15  18
ATOM     18  O   UNL     1      10.819 -34.936 -16.915  1.00  0.00    -0.508 OA
ATOM     19  H   UNL     1      10.809 -35.919 -16.672  1.00  0.00     0.293 HD
ENDBRANCH  15  18
BRANCH  17  20
ATOM     20  O   UNL     1      13.138 -33.770 -20.992  1.00  0.00    -0.507 OA
ATOM     21  H   UNL     1      12.304 -33.733 -21.566  1.00  0.00     0.293 HD
ENDBRANCH  17  20
ENDBRANCH   1  12
BRANCH   2  22
ATOM     22  O   UNL     1      14.632 -30.333 -18.729  1.00  0.00    -0.502 OA
ATOM     23  H   UNL     1      14.960 -29.621 -18.088  1.00  0.00     0.293 HD
ENDBRANCH   2  22
BRANCH   6  24
ATOM     24  O   UNL     1      18.973 -29.712 -21.758  1.00  0.00    -0.507 OA
ATOM     25  H   UNL     1      19.552 -29.144 -21.159  1.00  0.00     0.293 HD
ENDBRANCH   6  24
BRANCH   8  26
ATOM     26  O   UNL     1      20.139 -34.287 -22.543  1.00  0.00    -0.508 OA
ATOM     27  H   UNL     1      20.873 -34.724 -21.999  1.00  0.00     0.293 HD
ENDBRANCH   8  26
TORSDOF 6
ENDMDL
MODEL 4
REMARK VINA RESULT:    -6.792     11.917     13.575
REMARK INTER + INTRA:          -8.596
REMARK INTER:                  -8.180
REMARK INTRA:                  -0.416
REMARK UNBOUND:                -0.414
REMARK SMILES O=c1c(O)c(-c2ccc(O)cc2O)oc2cc(O)cc(O)c12
REMARK SMILES IDX 5 1 3 2 2 3 1 4 22 5 20 6 19 7 17 8 16 9 15 10 14 11 6 12
REMARK SMILES IDX 8 13 7 14 9 15 11 16 12 17 10 18 13 20 4 22 21 24 18 26
REMARK H PARENT 10 19 13 21 4 23 21 25 18 27
REMARK Flexibility Score: inf
ROOT
ATOM      1  C   UNL     1      17.732 -29.346 -20.529  1.00  0.00     0.184 A 
ATOM      2  C   UNL     1      16.684 -28.560 -21.032  1.00  0.00     0.208 A 
ATOM      3  C   UNL     1      16.223 -27.472 -20.272  1.00  0.00     0.238 A 
ATOM      4  O   UNL     1      15.247 -26.804 -20.703  1.00  0.00    -0.285 OA
ATOM      5  C   UNL     1      16.829 -27.178 -19.026  1.00  0.00     0.111 A 
ATOM      6  C   UNL     1      16.470 -26.078 -18.191  1.00  0.00     0.134 A 
ATOM      7  C   UNL     1      17.047 -25.958 -16.921  1.00  0.00     0.093 A 
ATOM      8  C   UNL     1      18.016 -26.859 -16.482  1.00  0.00     0.123 A 
ATOM      9  C   UNL     1      18.418 -27.906 -17.314  1.00  0.00     0.094 A 
ATOM     10  C   UNL     1      17.834 -28.073 -18.572  1.00  0.00     0.146 A 
ATOM     11  O   UNL     1      18.236 -29.087 -19.329  1.00  0.00    -0.451 OA
ENDROOT
BRANCH   1  12
ATOM     12  C   UNL     1      18.274 -30.494 -21.285  1.00  0.00     0.063 A 
ATOM     13  C   UNL     1      18.273 -32.888 -21.712  1.00  0.00     0.047 A 
ATOM     14  C   UNL     1      17.778 -31.780 -21.019  1.00  0.00     0.020 A 
ATOM     15  C   UNL     1      19.280 -32.724 -22.671  1.00  0.00     0.119 A 
ATOM     16  C   UNL     1      19.796 -31.450 -22.926  1.00  0.00     0.093 A 
ATOM     17  C   UNL     1      19.309 -30.334 -22.230  1.00  0.00     0.130 A 
BRANCH  15  18
ATOM     18  O   UNL     1      19.778 -33.822 -23.371  1.00  0.00    -0.508 OA
ATOM     19  H   UNL     1      19.637 -33.921 -24.369  1.00  0.00     0.293 HD
ENDBRANCH  15  18
BRANCH  17  20
ATOM     20  O   UNL     1      19.866 -29.076 -22.460  1.00  0.00    -0.507 OA
ATOM     21  H   UNL     1      19.918 -28.376 -21.729  1.00  0.00     0.293 HD
ENDBRANCH  17  20
ENDBRANCH   1  12
BRANCH   2  22
ATOM     22  O   UNL     1      16.091 -28.884 -22.256  1.00  0.00    -0.502 OA
ATOM     23  H   UNL     1      15.728 -28.180 -22.887  1.00  0.00     0.293 HD
ENDBRANCH   2  22
BRANCH   6  24
ATOM     24  O   UNL     1      15.581 -25.068 -18.570  1.00  0.00    -0.507 OA
ATOM     25  H   UNL     1      15.749 -24.401 -19.308  1.00  0.00     0.293 HD
ENDBRANCH   6  24
BRANCH   8  26
ATOM     26  O   UNL     1      18.580 -26.701 -15.217  1.00  0.00    -0.508 OA
ATOM     27  H   UNL     1      19.392 -27.235 -14.929  1.00  0.00     0.293 HD
ENDBRANCH   8  26
TORSDOF 6
ENDMDL
MODEL 5
REMARK VINA RESULT:    -6.693      1.740      6.931
REMARK INTER + INTRA:          -8.476
REMARK INTER:                  -8.058
REMARK INTRA:                  -0.419
REMARK UNBOUND:                -0.414
REMARK SMILES O=c1c(O)c(-c2ccc(O)cc2O)oc2cc(O)cc(O)c12
REMARK SMILES IDX 5 1 3 2 2 3 1 4 22 5 20 6 19 7 17 8 16 9 15 10 14 11 6 12
REMARK SMILES IDX 8 13 7 14 9 15 11 16 12 17 10 18 13 20 4 22 21 24 18 26
REMARK H PARENT 10 19 13 21 4 23 21 25 18 27
REMARK Flexibility Score: inf
ROOT
ATOM      1  C   UNL     1       7.765 -23.931 -13.729  1.00  0.00     0.184 A 
ATOM      2  C   UNL     1       6.679 -23.395 -13.020  1.00  0.00     0.208 A 
ATOM      3  C   UNL     1       6.053 -22.236 -13.507  1.00  0.00     0.238 A 
ATOM      4  O   UNL     1       5.115 -21.729 -12.840  1.00  0.00    -0.285 OA
ATOM      5  C   UNL     1       6.515 -21.639 -14.706  1.00  0.00     0.111 A 
ATOM      6  C   UNL     1       5.932 -20.486 -15.313  1.00  0.00     0.134 A 
ATOM      7  C   UNL     1       6.550 -19.905 -16.428  1.00  0.00     0.093 A 
ATOM      8  C   UNL     1       7.690 -20.471 -16.995  1.00  0.00     0.123 A 
ATOM      9  C   UNL     1       8.236 -21.633 -16.445  1.00  0.00     0.094 A 
ATOM     10  C   UNL     1       7.663 -22.215 -15.311  1.00  0.00     0.146 A 
ATOM     11  O   UNL     1       8.218 -23.313 -14.813  1.00  0.00    -0.451 OA
ENDROOT
BRANCH   1  12
ATOM     12  C   UNL     1       8.457 -25.157 -13.279  1.00  0.00     0.063 A 
ATOM     13  C   UNL     1      10.012 -26.220 -11.742  1.00  0.00     0.047 A 
ATOM     14  C   UNL     1       9.337 -25.081 -12.188  1.00  0.00     0.020 A 
ATOM     15  C   UNL     1       9.824 -27.447 -12.389  1.00  0.00     0.119 A 
ATOM     16  C   UNL     1       8.967 -27.527 -13.490  1.00  0.00     0.093 A 
ATOM     17  C   UNL     1       8.291 -26.387 -13.949  1.00  0.00     0.130 A 
BRANCH  15  18
ATOM     18  O   UNL     1      10.488 -28.590 -11.949  1.00  0.00    -0.508 OA
ATOM     19  H   UNL     1      11.477 -28.576 -11.727  1.00  0.00     0.293 HD
ENDBRANCH  15  18
BRANCH  17  20
ATOM     20  O   UNL     1       7.477 -26.471 -15.078  1.00  0.00    -0.507 OA
ATOM     21  H   UNL     1       6.841 -27.248 -15.220  1.00  0.00     0.293 HD
ENDBRANCH  17  20
ENDBRANCH   1  12
BRANCH   2  22
ATOM     22  O   UNL     1       6.256 -23.994 -11.830  1.00  0.00    -0.502 OA
ATOM     23  H   UNL     1       5.332 -24.394 -11.722  1.00  0.00     0.293 HD
ENDBRANCH   2  22
BRANCH   6  24
ATOM     24  O   UNL     1       4.741 -19.895 -14.882  1.00  0.00    -0.507 OA
ATOM     25  H   UNL     1       4.483 -18.934 -15.049  1.00  0.00     0.293 HD
ENDBRANCH   6  24
BRANCH   8  26
ATOM     26  O   UNL     1       8.271 -19.875 -18.113  1.00  0.00    -0.508 OA
ATOM     27  H   UNL     1       9.261 -19.967 -18.309  1.00  0.00     0.293 HD
ENDBRANCH   8  26
TORSDOF 6
ENDMDL
MODEL 6
REMARK VINA RESULT:    -6.659     10.391     12.646
REMARK INTER + INTRA:          -8.436
REMARK INTER:                  -8.199
REMARK INTRA:                  -0.236
REMARK UNBOUND:                -0.414
REMARK SMILES O=c1c(O)c(-c2ccc(O)cc2O)oc2cc(O)cc(O)c12
REMARK SMILES IDX 5 1 3 2 2 3 1 4 22 5 20 6 19 7 17 8 16 9 15 10 14 11 6 12
REMARK SMILES IDX 8 13 7 14 9 15 11 16 12 17 10 18 13 20 4 22 21 24 18 26
REMARK H PARENT 10 19 13 21 4 23 21 25 18 27
REMARK Flexibility Score: inf
ROOT
ATOM      1  C   UNL     1      14.011 -31.890 -19.960  1.00  0.00     0.184 A 
ATOM      2  C   UNL     1      13.023 -30.894 -20.009  1.00  0.00     0.208 A 
ATOM      3  C   UNL     1      11.703 -31.226 -19.661  1.00  0.00     0.238 A 
ATOM      4  O   UNL     1      10.812 -30.343 -19.759  1.00  0.00    -0.285 OA
ATOM      5  C   UNL     1      11.395 -32.547 -19.254  1.00  0.00     0.111 A 
ATOM      6  C   UNL     1      10.101 -32.985 -18.841  1.00  0.00     0.134 A 
ATOM      7  C   UNL     1       9.882 -34.344 -18.583  1.00  0.00     0.093 A 
ATOM      8  C   UNL     1      10.922 -35.268 -18.660  1.00  0.00     0.123 A 
ATOM      9  C   UNL     1      12.206 -34.841 -19.005  1.00  0.00     0.094 A 
ATOM     10  C   UNL     1      12.447 -33.498 -19.304  1.00  0.00     0.146 A 
ATOM     11  O   UNL     1      13.680 -33.134 -19.638  1.00  0.00    -0.451 OA
ENDROOT
BRANCH   1  12
ATOM     12  C   UNL     1      15.420 -31.603 -20.297  1.00  0.00     0.063 A 
ATOM     13  C   UNL     1      17.358 -32.064 -21.691  1.00  0.00     0.047 A 
ATOM     14  C   UNL     1      16.025 -32.306 -21.350  1.00  0.00     0.020 A 
ATOM     15  C   UNL     1      18.107 -31.123 -20.974  1.00  0.00     0.119 A 
ATOM     16  C   UNL     1      17.520 -30.435 -19.909  1.00  0.00     0.093 A 
ATOM     17  C   UNL     1      16.184 -30.677 -19.556  1.00  0.00     0.130 A 
BRANCH  15  18
ATOM     18  O   UNL     1      19.436 -30.870 -21.308  1.00  0.00    -0.508 OA
ATOM     19  H   UNL     1      19.779 -29.926 -21.437  1.00  0.00     0.293 HD
ENDBRANCH  15  18
BRANCH  17  20
ATOM     20  O   UNL     1      15.626 -30.019 -18.460  1.00  0.00    -0.507 OA
ATOM     21  H   UNL     1      14.945 -30.469 -17.860  1.00  0.00     0.293 HD
ENDBRANCH  17  20
ENDBRANCH   1  12
BRANCH   2  22
ATOM     22  O   UNL     1      13.352 -29.603 -20.433  1.00  0.00    -0.502 OA
ATOM     23  H   UNL     1      13.222 -28.789 -19.844  1.00  0.00     0.293 HD
ENDBRANCH   2  22
BRANCH   6  24
ATOM     24  O   UNL     1       9.013 -32.130 -18.644  1.00  0.00    -0.507 OA
ATOM     25  H   UNL     1       8.993 -31.369 -17.982  1.00  0.00     0.293 HD
ENDBRANCH   6  24
BRANCH   8  26
ATOM     26  O   UNL     1      10.672 -36.611 -18.382  1.00  0.00    -0.508 OA
ATOM     27  H   UNL     1      10.369 -37.254 -19.105  1.00  0.00     0.293 HD
ENDBRANCH   8  26
TORSDOF 6
ENDMDL
MODEL 7
REMARK VINA RESULT:    -6.639     11.400     13.111
REMARK INTER + INTRA:          -8.412
REMARK INTER:                  -8.009
REMARK INTRA:                  -0.403
REMARK UNBOUND:                -0.414
REMARK SMILES O=c1c(O)c(-c2ccc(O)cc2O)oc2cc(O)cc(O)c12
REMARK SMILES IDX 5 1 3 2 2 3 1 4 22 5 20 6 19 7 17 8 16 9 15 10 14 11 6 12
REMARK SMILES IDX 8 13 7 14 9 15 11 16 12 17 10 18 13 20 4 22 21 24 18 26
REMARK H PARENT 10 19 13 21 4 23 21 25 18 27
REMARK Flexibility Score: inf
ROOT
ATOM      1  C   UNL     1      14.475 -32.882 -19.548  1.00  0.00     0.184 A 
ATOM      2  C   UNL     1      14.415 -33.504 -18.291  1.00  0.00     0.208 A 
ATOM      3  C   UNL     1      13.167 -33.908 -17.790  1.00  0.00     0.238 A 
ATOM      4  O   UNL     1      13.113 -34.417 -16.640  1.00  0.00    -0.285 OA
ATOM      5  C   UNL     1      11.998 -33.696 -18.561  1.00  0.00     0.111 A 
ATOM      6  C   UNL     1      10.686 -34.100 -18.170  1.00  0.00     0.134 A 
ATOM      7  C   UNL     1       9.586 -33.724 -18.951  1.00  0.00     0.093 A 
ATOM      8  C   UNL     1       9.755 -33.017 -20.140  1.00  0.00     0.123 A 
ATOM      9  C   UNL     1      11.040 -32.667 -20.563  1.00  0.00     0.094 A 
ATOM     10  C   UNL     1      12.153 -32.996 -19.787  1.00  0.00     0.146 A 
ATOM     11  O   UNL     1      13.356 -32.637 -20.219  1.00  0.00    -0.451 OA
ENDROOT
BRANCH   1  12
ATOM     12  C   UNL     1      15.757 -32.448 -20.139  1.00  0.00     0.063 A 
ATOM     13  C   UNL     1      17.767 -33.014 -21.387  1.00  0.00     0.047 A 
ATOM     14  C   UNL     1      16.545 -33.389 -20.822  1.00  0.00     0.020 A 
ATOM     15  C   UNL     1      18.222 -31.695 -21.266  1.00  0.00     0.119 A 
ATOM     16  C   UNL     1      17.455 -30.758 -20.569  1.00  0.00     0.093 A 
ATOM     17  C   UNL     1      16.231 -31.127 -19.992  1.00  0.00     0.130 A 
BRANCH  15  18
ATOM     18  O   UNL     1      19.436 -31.309 -21.830  1.00  0.00    -0.508 OA
ATOM     19  H   UNL     1      20.073 -30.691 -21.343  1.00  0.00     0.293 HD
ENDBRANCH  15  18
BRANCH  17  20
ATOM     20  O   UNL     1      15.500 -30.194 -19.258  1.00  0.00    -0.507 OA
ATOM     21  H   UNL     1      15.336 -29.256 -19.603  1.00  0.00     0.293 HD
ENDBRANCH  17  20
ENDBRANCH   1  12
BRANCH   2  22
ATOM     22  O   UNL     1      15.583 -33.684 -17.544  1.00  0.00    -0.502 OA
ATOM     23  H   UNL     1      15.713 -34.473 -16.922  1.00  0.00     0.293 HD
ENDBRANCH   2  22
BRANCH   6  24
ATOM     24  O   UNL     1      10.414 -34.889 -17.048  1.00  0.00    -0.507 OA
ATOM     25  H   UNL     1      11.075 -35.512 -16.610  1.00  0.00     0.293 HD
ENDBRANCH   6  24
BRANCH   8  26
ATOM     26  O   UNL     1       8.639 -32.672 -20.900  1.00  0.00    -0.508 OA
ATOM     27  H   UNL     1       8.002 -33.376 -21.255  1.00  0.00     0.293 HD
ENDBRANCH   8  26
TORSDOF 6
ENDMDL
MODEL 8
REMARK VINA RESULT:    -6.617     12.702     14.832
REMARK INTER + INTRA:          -8.385
REMARK INTER:                  -7.975
REMARK INTRA:                  -0.411
REMARK UNBOUND:                -0.414
REMARK SMILES O=c1c(O)c(-c2ccc(O)cc2O)oc2cc(O)cc(O)c12
REMARK SMILES IDX 5 1 3 2 2 3 1 4 22 5 20 6 19 7 17 8 16 9 15 10 14 11 6 12
REMARK SMILES IDX 8 13 7 14 9 15 11 16 12 17 10 18 13 20 4 22 21 24 18 26
REMARK H PARENT 10 19 13 21 4 23 21 25 18 27
REMARK Flexibility Score: inf
ROOT
ATOM      1  C   UNL     1      17.534 -29.763 -21.673  1.00  0.00     0.184 A 
ATOM      2  C   UNL     1      18.851 -29.860 -22.148  1.00  0.00     0.208 A 
ATOM      3  C   UNL     1      19.361 -28.833 -22.958  1.00  0.00     0.238 A 
ATOM      4  O   UNL     1      20.523 -28.951 -23.425  1.00  0.00    -0.285 OA
ATOM      5  C   UNL     1      18.549 -27.715 -23.269  1.00  0.00     0.111 A 
ATOM      6  C   UNL     1      18.974 -26.597 -24.048  1.00  0.00     0.134 A 
ATOM      7  C   UNL     1      18.047 -25.609 -24.401  1.00  0.00     0.093 A 
ATOM      8  C   UNL     1      16.729 -25.664 -23.951  1.00  0.00     0.123 A 
ATOM      9  C   UNL     1      16.316 -26.722 -23.139  1.00  0.00     0.094 A 
ATOM     10  C   UNL     1      17.209 -27.742 -22.800  1.00  0.00     0.146 A 
ATOM     11  O   UNL     1      16.775 -28.736 -22.034  1.00  0.00    -0.451 OA
ENDROOT
BRANCH   1  12
ATOM     12  C   UNL     1      16.944 -30.801 -20.803  1.00  0.00     0.063 A 
ATOM     13  C   UNL     1      16.045 -33.048 -20.565  1.00  0.00     0.047 A 
ATOM     14  C   UNL     1      16.611 -32.047 -21.358  1.00  0.00     0.020 A 
ATOM     15  C   UNL     1      15.793 -32.811 -19.208  1.00  0.00     0.119 A 
ATOM     16  C   UNL     1      16.100 -31.566 -18.652  1.00  0.00     0.093 A 
ATOM     17  C   UNL     1      16.662 -30.553 -19.443  1.00  0.00     0.130 A 
BRANCH  15  18
ATOM     18  O   UNL     1      15.233 -33.805 -18.407  1.00  0.00    -0.508 OA
ATOM     19  H   UNL     1      14.260 -33.775 -18.129  1.00  0.00     0.293 HD
ENDBRANCH  15  18
BRANCH  17  20
ATOM     20  O   UNL     1      16.918 -29.300 -18.887  1.00  0.00    -0.507 OA
ATOM     21  H   UNL     1      17.788 -28.810 -19.058  1.00  0.00     0.293 HD
ENDBRANCH  17  20
ENDBRANCH   1  12
BRANCH   2  22
ATOM     22  O   UNL     1      19.624 -30.984 -21.840  1.00  0.00    -0.502 OA
ATOM     23  H   UNL     1      20.076 -31.103 -20.941  1.00  0.00     0.293 HD
ENDBRANCH   2  22
BRANCH   6  24
ATOM     24  O   UNL     1      20.290 -26.398 -24.473  1.00  0.00    -0.507 OA
ATOM     25  H   UNL     1      20.600 -25.624 -25.041  1.00  0.00     0.293 HD
ENDBRANCH   6  24
BRANCH   8  26
ATOM     26  O   UNL     1      15.837 -24.655 -24.309  1.00  0.00    -0.508 OA
ATOM     27  H   UNL     1      14.835 -24.807 -24.305  1.00  0.00     0.293 HD
ENDBRANCH   8  26
TORSDOF 6
ENDMDL
MODEL 9
REMARK VINA RESULT:    -6.568     10.952     13.348
REMARK INTER + INTRA:          -8.326
REMARK INTER:                  -7.914
REMARK INTRA:                  -0.412
REMARK UNBOUND:                -0.414
REMARK SMILES O=c1c(O)c(-c2ccc(O)cc2O)oc2cc(O)cc(O)c12
REMARK SMILES IDX 5 1 3 2 2 3 1 4 22 5 20 6 19 7 17 8 16 9 15 10 14 11 6 12
REMARK SMILES IDX 8 13 7 14 9 15 11 16 12 17 10 18 13 20 4 22 21 24 18 26
REMARK H PARENT 10 19 13 21 4 23 21 25 18 27
REMARK Flexibility Score: inf
ROOT
ATOM      1  C   UNL     1      13.330 -36.052 -10.299  1.00  0.00     0.184 A 
ATOM      2  C   UNL     1      13.368 -37.449 -10.173  1.00  0.00     0.208 A 
ATOM      3  C   UNL     1      13.755 -38.013  -8.946  1.00  0.00     0.238 A 
ATOM      4  O   UNL     1      13.839 -39.265  -8.855  1.00  0.00    -0.285 OA
ATOM      5  C   UNL     1      14.084 -37.168  -7.858  1.00  0.00     0.111 A 
ATOM      6  C   UNL     1      14.451 -37.629  -6.558  1.00  0.00     0.134 A 
ATOM      7  C   UNL     1      14.881 -36.708  -5.595  1.00  0.00     0.093 A 
ATOM      8  C   UNL     1      14.896 -35.340  -5.862  1.00  0.00     0.123 A 
ATOM      9  C   UNL     1      14.482 -34.872  -7.112  1.00  0.00     0.094 A 
ATOM     10  C   UNL     1      14.083 -35.770  -8.105  1.00  0.00     0.146 A 
ATOM     11  O   UNL     1      13.707 -35.286  -9.283  1.00  0.00    -0.451 OA
ENDROOT
BRANCH   1  12
ATOM     12  C   UNL     1      12.916 -35.397 -11.557  1.00  0.00     0.063 A 
ATOM     13  C   UNL     1      11.150 -34.878 -13.146  1.00  0.00     0.047 A 
ATOM     14  C   UNL     1      11.574 -35.481 -11.959  1.00  0.00     0.020 A 
ATOM     15  C   UNL     1      12.067 -34.194 -13.953  1.00  0.00     0.119 A 
ATOM     16  C   UNL     1      13.410 -34.125 -13.572  1.00  0.00     0.093 A 
ATOM     17  C   UNL     1      13.845 -34.733 -12.385  1.00  0.00     0.130 A 
BRANCH  15  18
ATOM     18  O   UNL     1      11.655 -33.585 -15.136  1.00  0.00    -0.508 OA
ATOM     19  H   UNL     1      12.076 -32.724 -15.463  1.00  0.00     0.293 HD
ENDBRANCH  15  18
BRANCH  17  20
ATOM     20  O   UNL     1      15.196 -34.698 -12.042  1.00  0.00    -0.507 OA
ATOM     21  H   UNL     1      15.789 -33.915 -12.293  1.00  0.00     0.293 HD
ENDBRANCH  17  20
ENDBRANCH   1  12
BRANCH   2  22
ATOM     22  O   UNL     1      13.056 -38.259 -11.269  1.00  0.00    -0.502 OA
ATOM     23  H   UNL     1      12.713 -39.206 -11.164  1.00  0.00     0.293 HD
ENDBRANCH   2  22
BRANCH   6  24
ATOM     24  O   UNL     1      14.384 -38.966  -6.156  1.00  0.00    -0.507 OA
ATOM     25  H   UNL     1      14.055 -39.279  -5.255  1.00  0.00     0.293 HD
ENDBRANCH   6  24
BRANCH   8  26
ATOM     26  O   UNL     1      15.315 -34.450  -4.875  1.00  0.00    -0.508 OA
ATOM     27  H   UNL     1      15.194 -34.656  -3.890  1.00  0.00     0.293 HD
ENDBRANCH   8  26
TORSDOF 6
ENDMDL
