MODEL 1
REMARK VINA RESULT:    19.858      0.000      0.000
REMARK INTER + INTRA:          21.743
REMARK INTER:                  21.599
REMARK INTRA:                   0.144
REMARK UNBOUND:                 0.144
REMARK SMILES CC1(C)CC[C@@]2(C(=O)[O-])CC[C@@]3(C)C(=CC[C@@H]4[C@@]5(C)CC[C@@H](O)C(C)(C)[C@H]5CC[C@@]43C)[C@H]2C1
REMARK SMILES IDX 6 1 5 2 10 3 32 4 4 5 11 6 14 7 33 8 2 9 12 10 15 11 1 12
REMARK SMILES IDX 3 13 13 14 30 15 16 16 17 17 29 18 31 19 18 20 28 21 27 22
REMARK SMILES IDX 20 23 19 24 24 25 21 26 22 27 25 28 26 29 7 30 8 31 9 32
REMARK SMILES IDX 23 33
REMARK H PARENT 23 34
REMARK Flexibility Score: inf
ROOT
ATOM      1  C   UNL     1      45.367  26.340   4.548  1.00  0.00     0.017 C 
ATOM      2  C   UNL     1      44.695  26.213   5.956  1.00  0.00     0.014 C 
ATOM      3  C   UNL     1      44.319  25.992   3.440  1.00  0.00     0.014 C 
ATOM      4  C   UNL     1      45.956  27.795   4.349  1.00  0.00     0.028 C 
ATOM      5  C   UNL     1      45.553  26.870   7.050  1.00  0.00     0.007 C 
ATOM      6  C   UNL     1      43.514  27.215   2.949  1.00  0.00     0.013 C 
ATOM      7  C   UNL     1      45.795  28.231   2.878  1.00  0.00    -0.064 C 
ATOM      8  C   UNL     1      45.399  28.815   5.372  1.00  0.00     0.015 C 
ATOM      9  C   UNL     1      45.695  28.413   6.850  1.00  0.00    -0.035 C 
ATOM     10  C   UNL     1      44.387  28.353   2.254  1.00  0.00    -0.006 C 
ATOM     11  C   UNL     1      46.881  28.039   2.118  1.00  0.00    -0.027 C 
ATOM     12  C   UNL     1      44.689  29.141   7.769  1.00  0.00     0.011 C 
ATOM     13  C   UNL     1      47.117  28.865   7.249  1.00  0.00     0.011 C 
ATOM     14  C   UNL     1      43.800  29.742   2.683  1.00  0.00     0.017 C 
ATOM     15  C   UNL     1      44.385  28.305   0.614  1.00  0.00    -0.020 C 
ATOM     16  C   UNL     1      46.854  27.636   0.688  1.00  0.00     0.032 C 
ATOM     17  C   UNL     1      45.455  27.278   0.074  1.00  0.00     0.006 C 
ATOM     18  C   UNL     1      44.778  29.676  -0.033  1.00  0.00     0.008 C 
ATOM     19  C   UNL     1      42.924  27.973   0.160  1.00  0.00     0.012 C 
ATOM     20  C   UNL     1      45.613  27.143  -1.527  1.00  0.00    -0.025 C 
ATOM     21  C   UNL     1      44.904  29.655  -1.571  1.00  0.00     0.005 C 
ATOM     22  C   UNL     1      45.841  28.568  -2.187  1.00  0.00     0.003 C 
ATOM     23  C   UNL     1      44.396  26.425  -2.199  1.00  0.00     0.010 C 
ATOM     24  C   UNL     1      46.846  26.201  -1.771  1.00  0.00     0.012 C 
ATOM     25  C   UNL     1      45.805  28.583  -3.786  1.00  0.00    -0.006 C 
ATOM     26  C   UNL     1      44.448  26.381  -3.736  1.00  0.00     0.033 C 
ATOM     27  C   UNL     1      44.583  27.782  -4.352  1.00  0.00     0.120 C 
ATOM     28  C   UNL     1      47.123  28.002  -4.381  1.00  0.00     0.014 C 
ATOM     29  C   UNL     1      45.744  30.041  -4.335  1.00  0.00     0.014 C 
ENDROOT
BRANCH   1  30
ATOM     30  C   UNL     1      46.503  25.321   4.423  1.00  0.00     0.048 C 
ATOM     31  O   UNL     1      46.938  24.954   3.297  1.00  0.00    -0.550 OA
ATOM     32  O   UNL     1      47.114  24.816   5.566  1.00  0.00    -0.550 OA
ENDBRANCH   1  30
BRANCH  27  33
ATOM     33  O   UNL     1      43.376  28.476  -4.144  1.00  0.00    -0.393 OA
ATOM     34  H   UNL     1      43.522  29.115  -3.399  1.00  0.00     0.210 HD
ENDBRANCH  27  33
TORSDOF 2
ENDMDL
