MODEL 1
REMARK VINA RESULT:    17.585      0.000      0.000
REMARK INTER + INTRA:          39.310
REMARK INTER:                  40.201
REMARK INTRA:                  -0.891
REMARK UNBOUND:                -0.891
REMARK SMILES CCCCCCCCCCCCCCCCCCCCCCCC(=O)[O-]
REMARK SMILES IDX 13 1 14 2 15 3 16 4 17 5 18 6 19 7 20 8 21 9 22 10 23 11
REMARK SMILES IDX 24 12 25 13 26 14 12 15 11 16 10 17 9 18 8 19 7 20 6 21 5 22
REMARK SMILES IDX 4 23 3 24 2 25 1 26
REMARK H PARENT
REMARK Flexibility Score: inf
ROOT
ATOM      1  C   UNL     1      14.440  16.047  17.444  1.00  0.00     0.000 C 
ENDROOT
BRANCH   1   2
ATOM      2  C   UNL     1      13.462  16.223  16.268  1.00  0.00     0.000 C 
BRANCH   2   3
ATOM      3  C   UNL     1      13.181  17.698  15.937  1.00  0.00     0.000 C 
BRANCH   3   4
ATOM      4  C   UNL     1      14.425  18.595  16.075  1.00  0.00     0.000 C 
BRANCH   4   5
ATOM      5  C   UNL     1      14.369  19.899  15.247  1.00  0.00     0.000 C 
BRANCH   5   6
ATOM      6  C   UNL     1      15.728  20.440  14.754  1.00  0.00     0.000 C 
BRANCH   6   7
ATOM      7  C   UNL     1      16.195  21.769  15.384  1.00  0.00     0.000 C 
BRANCH   7   8
ATOM      8  C   UNL     1      15.184  22.430  16.336  1.00  0.00     0.000 C 
BRANCH   8   9
ATOM      9  C   UNL     1      15.140  21.755  17.719  1.00  0.00     0.000 C 
BRANCH   9  10
ATOM     10  C   UNL     1      16.542  21.444  18.270  1.00  0.00     0.006 C 
BRANCH  10  11
ATOM     11  C   UNL     1      16.530  21.125  19.773  1.00  0.00     0.053 C 
BRANCH  11  12
ATOM     12  C   UNL     1      16.800  19.672  20.025  1.00  0.00     0.041 C 
ATOM     13  O   UNL     1      16.581  18.817  19.125  1.00  0.00    -0.550 OA
ATOM     14  O   UNL     1      17.346  19.269  21.237  1.00  0.00    -0.550 OA
ENDBRANCH  11  12
ENDBRANCH  10  11
ENDBRANCH   9  10
ENDBRANCH   8   9
ENDBRANCH   7   8
ENDBRANCH   6   7
ENDBRANCH   5   6
ENDBRANCH   4   5
ENDBRANCH   3   4
ENDBRANCH   2   3
ENDBRANCH   1   2
BRANCH   1  15
ATOM     15  C   UNL     1      14.966  14.613  17.654  1.00  0.00     0.000 C 
BRANCH  15  16
ATOM     16  C   UNL     1      14.807  13.701  16.419  1.00  0.00     0.000 C 
BRANCH  16  17
ATOM     17  C   UNL     1      14.171  12.345  16.777  1.00  0.00     0.000 C 
BRANCH  17  18
ATOM     18  C   UNL     1      12.994  12.474  17.760  1.00  0.00    -0.000 C 
BRANCH  18  19
ATOM     19  C   UNL     1      11.612  12.581  17.089  1.00  0.00    -0.000 C 
BRANCH  19  20
ATOM     20  C   UNL     1      10.898  11.220  16.984  1.00  0.00    -0.000 C 
BRANCH  20  21
ATOM     21  C   UNL     1       9.390  11.313  17.278  1.00  0.00    -0.000 C 
BRANCH  21  22
ATOM     22  C   UNL     1       8.843  12.740  17.478  1.00  0.00    -0.000 C 
BRANCH  22  23
ATOM     23  C   UNL     1       7.948  13.264  16.340  1.00  0.00    -0.000 C 
BRANCH  23  24
ATOM     24  C   UNL     1       7.899  12.312  15.134  1.00  0.00    -0.000 C 
BRANCH  24  25
ATOM     25  C   UNL     1       9.255  12.202  14.416  1.00  0.00    -0.003 C 
ATOM     26  C   UNL     1       9.154  11.496  13.064  1.00  0.00     0.004 C 
ENDBRANCH  24  25
ENDBRANCH  23  24
ENDBRANCH  22  23
ENDBRANCH  21  22
ENDBRANCH  20  21
ENDBRANCH  19  20
ENDBRANCH  18  19
ENDBRANCH  17  18
ENDBRANCH  16  17
ENDBRANCH  15  16
ENDBRANCH   1  15
TORSDOF 22
ENDMDL
MODEL 2
REMARK VINA RESULT:    17.597      3.337     10.215
REMARK INTER + INTRA:          39.339
REMARK INTER:                  39.920
REMARK INTRA:                  -0.581
REMARK UNBOUND:                -0.891
REMARK SMILES CCCCCCCCCCCCCCCCCCCCCCCC(=O)[O-]
REMARK SMILES IDX 13 1 14 2 15 3 16 4 17 5 18 6 19 7 20 8 21 9 22 10 23 11
REMARK SMILES IDX 24 12 25 13 26 14 12 15 11 16 10 17 9 18 8 19 7 20 6 21 5 22
REMARK SMILES IDX 4 23 3 24 2 25 1 26
REMARK H PARENT
REMARK Flexibility Score: inf
ROOT
ATOM      1  C   UNL     1      14.465  16.872  17.297  1.00  0.00     0.000 C 
ENDROOT
BRANCH   1   2
ATOM      2  C   UNL     1      14.788  15.424  17.706  1.00  0.00     0.000 C 
BRANCH   2   3
ATOM      3  C   UNL     1      13.835  14.396  17.074  1.00  0.00     0.000 C 
BRANCH   3   4
ATOM      4  C   UNL     1      14.546  13.101  16.639  1.00  0.00     0.000 C 
BRANCH   4   5
ATOM      5  C   UNL     1      13.845  11.801  17.095  1.00  0.00     0.000 C 
BRANCH   5   6
ATOM      6  C   UNL     1      12.498  11.986  17.824  1.00  0.00     0.000 C 
BRANCH   6   7
ATOM      7  C   UNL     1      11.289  12.336  16.932  1.00  0.00     0.000 C 
BRANCH   7   8
ATOM      8  C   UNL     1       9.922  11.903  17.488  1.00  0.00     0.000 C 
BRANCH   8   9
ATOM      9  C   UNL     1       8.813  12.932  17.207  1.00  0.00     0.000 C 
BRANCH   9  10
ATOM     10  C   UNL     1       8.147  12.724  15.837  1.00  0.00     0.006 C 
BRANCH  10  11
ATOM     11  C   UNL     1       8.753  11.547  15.055  1.00  0.00     0.053 C 
BRANCH  11  12
ATOM     12  C   UNL     1       9.153  11.961  13.671  1.00  0.00     0.041 C 
ATOM     13  O   UNL     1       9.478  13.155  13.430  1.00  0.00    -0.550 OA
ATOM     14  O   UNL     1       9.220  11.013  12.657  1.00  0.00    -0.550 OA
ENDBRANCH  11  12
ENDBRANCH  10  11
ENDBRANCH   9  10
ENDBRANCH   8   9
ENDBRANCH   7   8
ENDBRANCH   6   7
ENDBRANCH   5   6
ENDBRANCH   4   5
ENDBRANCH   3   4
ENDBRANCH   2   3
ENDBRANCH   1   2
BRANCH   1  15
ATOM     15  C   UNL     1      13.389  17.023  16.201  1.00  0.00     0.000 C 
BRANCH  15  16
ATOM     16  C   UNL     1      13.292  18.447  15.612  1.00  0.00     0.000 C 
BRANCH  16  17
ATOM     17  C   UNL     1      14.664  19.143  15.547  1.00  0.00     0.000 C 
BRANCH  17  18
ATOM     18  C   UNL     1      14.571  20.611  15.093  1.00  0.00    -0.000 C 
BRANCH  18  19
ATOM     19  C   UNL     1      15.875  21.179  14.502  1.00  0.00    -0.000 C 
BRANCH  19  20
ATOM     20  C   UNL     1      16.728  21.916  15.551  1.00  0.00    -0.000 C 
BRANCH  20  21
ATOM     21  C   UNL     1      15.886  22.509  16.695  1.00  0.00    -0.000 C 
BRANCH  21  22
ATOM     22  C   UNL     1      15.518  21.524  17.823  1.00  0.00    -0.000 C 
BRANCH  22  23
ATOM     23  C   UNL     1      16.553  21.412  18.957  1.00  0.00    -0.000 C 
BRANCH  23  24
ATOM     24  C   UNL     1      16.882  19.955  19.320  1.00  0.00    -0.000 C 
BRANCH  24  25
ATOM     25  C   UNL     1      16.646  19.652  20.809  1.00  0.00    -0.003 C 
ATOM     26  C   UNL     1      15.166  19.670  21.191  1.00  0.00     0.004 C 
ENDBRANCH  24  25
ENDBRANCH  23  24
ENDBRANCH  22  23
ENDBRANCH  21  22
ENDBRANCH  20  21
ENDBRANCH  19  20
ENDBRANCH  18  19
ENDBRANCH  17  18
ENDBRANCH  16  17
ENDBRANCH  15  16
ENDBRANCH   1  15
TORSDOF 22
ENDMDL
MODEL 3
REMARK VINA RESULT:    18.008      1.987      3.374
REMARK INTER + INTRA:          40.278
REMARK INTER:                  41.143
REMARK INTRA:                  -0.865
REMARK UNBOUND:                -0.891
REMARK SMILES CCCCCCCCCCCCCCCCCCCCCCCC(=O)[O-]
REMARK SMILES IDX 13 1 14 2 15 3 16 4 17 5 18 6 19 7 20 8 21 9 22 10 23 11
REMARK SMILES IDX 24 12 25 13 26 14 12 15 11 16 10 17 9 18 8 19 7 20 6 21 5 22
REMARK SMILES IDX 4 23 3 24 2 25 1 26
REMARK H PARENT
REMARK Flexibility Score: inf
ROOT
ATOM      1  C   UNL     1      14.656  16.578  17.854  1.00  0.00     0.000 C 
ENDROOT
BRANCH   1   2
ATOM      2  C   UNL     1      16.172  16.420  17.638  1.00  0.00     0.000 C 
BRANCH   2   3
ATOM      3  C   UNL     1      16.998  17.473  18.394  1.00  0.00     0.000 C 
BRANCH   3   4
ATOM      4  C   UNL     1      16.128  18.537  19.091  1.00  0.00     0.000 C 
BRANCH   4   5
ATOM      5  C   UNL     1      16.923  19.568  19.923  1.00  0.00     0.000 C 
BRANCH   5   6
ATOM      6  C   UNL     1      16.547  21.047  19.694  1.00  0.00     0.000 C 
BRANCH   6   7
ATOM      7  C   UNL     1      16.265  21.455  18.233  1.00  0.00     0.000 C 
BRANCH   7   8
ATOM      8  C   UNL     1      14.915  22.152  18.000  1.00  0.00     0.000 C 
BRANCH   8   9
ATOM      9  C   UNL     1      14.538  22.235  16.510  1.00  0.00     0.000 C 
BRANCH   9  10
ATOM     10  C   UNL     1      14.324  20.851  15.876  1.00  0.00     0.006 C 
BRANCH  10  11
ATOM     11  C   UNL     1      15.548  20.367  15.081  1.00  0.00     0.053 C 
BRANCH  11  12
ATOM     12  C   UNL     1      16.193  21.496  14.335  1.00  0.00     0.041 C 
ATOM     13  O   UNL     1      15.972  21.658  13.104  1.00  0.00    -0.550 OA
ATOM     14  O   UNL     1      16.998  22.404  15.013  1.00  0.00    -0.550 OA
ENDBRANCH  11  12
ENDBRANCH  10  11
ENDBRANCH   9  10
ENDBRANCH   8   9
ENDBRANCH   7   8
ENDBRANCH   6   7
ENDBRANCH   5   6
ENDBRANCH   4   5
ENDBRANCH   3   4
ENDBRANCH   2   3
ENDBRANCH   1   2
BRANCH   1  15
ATOM     15  C   UNL     1      13.768  16.043  16.712  1.00  0.00     0.000 C 
BRANCH  15  16
ATOM     16  C   UNL     1      13.803  14.507  16.559  1.00  0.00     0.000 C 
BRANCH  16  17
ATOM     17  C   UNL     1      14.155  13.801  17.882  1.00  0.00     0.000 C 
BRANCH  17  18
ATOM     18  C   UNL     1      14.367  12.285  17.715  1.00  0.00    -0.000 C 
BRANCH  18  19
ATOM     19  C   UNL     1      13.130  11.519  17.213  1.00  0.00    -0.000 C 
BRANCH  19  20
ATOM     20  C   UNL     1      11.814  12.086  17.776  1.00  0.00    -0.000 C 
BRANCH  20  21
ATOM     21  C   UNL     1      10.643  11.981  16.781  1.00  0.00    -0.000 C 
BRANCH  21  22
ATOM     22  C   UNL     1       9.288  12.503  17.298  1.00  0.00    -0.000 C 
BRANCH  22  23
ATOM     23  C   UNL     1       8.282  12.907  16.206  1.00  0.00    -0.000 C 
BRANCH  23  24
ATOM     24  C   UNL     1       8.879  12.836  14.791  1.00  0.00    -0.000 C 
BRANCH  24  25
ATOM     25  C   UNL     1       8.567  11.505  14.087  1.00  0.00    -0.003 C 
ATOM     26  C   UNL     1       9.467  11.249  12.878  1.00  0.00     0.004 C 
ENDBRANCH  24  25
ENDBRANCH  23  24
ENDBRANCH  22  23
ENDBRANCH  21  22
ENDBRANCH  20  21
ENDBRANCH  19  20
ENDBRANCH  18  19
ENDBRANCH  17  18
ENDBRANCH  16  17
ENDBRANCH  15  16
ENDBRANCH   1  15
TORSDOF 22
ENDMDL
MODEL 4
REMARK VINA RESULT:    18.610      4.514     10.190
REMARK INTER + INTRA:          41.655
REMARK INTER:                  42.867
REMARK INTRA:                  -1.212
REMARK UNBOUND:                -0.891
REMARK SMILES CCCCCCCCCCCCCCCCCCCCCCCC(=O)[O-]
REMARK SMILES IDX 13 1 14 2 15 3 16 4 17 5 18 6 19 7 20 8 21 9 22 10 23 11
REMARK SMILES IDX 24 12 25 13 26 14 12 15 11 16 10 17 9 18 8 19 7 20 6 21 5 22
REMARK SMILES IDX 4 23 3 24 2 25 1 26
REMARK H PARENT
REMARK Flexibility Score: inf
ROOT
ATOM      1  C   UNL     1      13.174  13.041  17.268  1.00  0.00     0.000 C 
ENDROOT
BRANCH   1   2
ATOM      2  C   UNL     1      13.921  11.703  17.122  1.00  0.00     0.000 C 
BRANCH   2   3
ATOM      3  C   UNL     1      15.017  11.744  16.045  1.00  0.00     0.000 C 
BRANCH   3   4
ATOM      4  C   UNL     1      15.989  10.552  16.126  1.00  0.00     0.000 C 
BRANCH   4   5
ATOM      5  C   UNL     1      16.633  10.158  14.778  1.00  0.00     0.000 C 
BRANCH   5   6
ATOM      6  C   UNL     1      16.077   8.880  14.117  1.00  0.00     0.000 C 
BRANCH   6   7
ATOM      7  C   UNL     1      15.804   8.966  12.601  1.00  0.00     0.000 C 
BRANCH   7   8
ATOM      8  C   UNL     1      16.734   9.913  11.824  1.00  0.00     0.000 C 
BRANCH   8   9
ATOM      9  C   UNL     1      16.609   9.751  10.299  1.00  0.00     0.000 C 
BRANCH   9  10
ATOM     10  C   UNL     1      16.584  11.100   9.561  1.00  0.00     0.006 C 
BRANCH  10  11
ATOM     11  C   UNL     1      17.466  12.162  10.237  1.00  0.00     0.053 C 
BRANCH  11  12
ATOM     12  C   UNL     1      16.832  13.518  10.173  1.00  0.00     0.041 C 
ATOM     13  O   UNL     1      15.931  13.763   9.325  1.00  0.00    -0.550 OA
ATOM     14  O   UNL     1      17.198  14.499  11.088  1.00  0.00    -0.550 OA
ENDBRANCH  11  12
ENDBRANCH  10  11
ENDBRANCH   9  10
ENDBRANCH   8   9
ENDBRANCH   7   8
ENDBRANCH   6   7
ENDBRANCH   5   6
ENDBRANCH   4   5
ENDBRANCH   3   4
ENDBRANCH   2   3
ENDBRANCH   1   2
BRANCH   1  15
ATOM     15  C   UNL     1      13.894  14.267  16.670  1.00  0.00     0.000 C 
BRANCH  15  16
ATOM     16  C   UNL     1      14.571  15.170  17.723  1.00  0.00     0.000 C 
BRANCH  16  17
ATOM     17  C   UNL     1      14.447  16.664  17.373  1.00  0.00     0.000 C 
BRANCH  17  18
ATOM     18  C   UNL     1      13.523  16.923  16.169  1.00  0.00    -0.000 C 
BRANCH  18  19
ATOM     19  C   UNL     1      13.232  18.411  15.897  1.00  0.00    -0.000 C 
BRANCH  19  20
ATOM     20  C   UNL     1      14.478  19.182  15.424  1.00  0.00    -0.000 C 
BRANCH  20  21
ATOM     21  C   UNL     1      14.270  20.707  15.419  1.00  0.00    -0.000 C 
BRANCH  21  22
ATOM     22  C   UNL     1      15.472  21.539  15.912  1.00  0.00    -0.000 C 
BRANCH  22  23
ATOM     23  C   UNL     1      15.415  21.956  17.393  1.00  0.00    -0.000 C 
BRANCH  23  24
ATOM     24  C   UNL     1      16.507  21.286  18.243  1.00  0.00    -0.000 C 
BRANCH  24  25
ATOM     25  C   UNL     1      16.074  21.083  19.704  1.00  0.00    -0.003 C 
ATOM     26  C   UNL     1      16.801  19.922  20.382  1.00  0.00     0.004 C 
ENDBRANCH  24  25
ENDBRANCH  23  24
ENDBRANCH  22  23
ENDBRANCH  21  22
ENDBRANCH  20  21
ENDBRANCH  19  20
ENDBRANCH  18  19
ENDBRANCH  17  18
ENDBRANCH  16  17
ENDBRANCH  15  16
ENDBRANCH   1  15
TORSDOF 22
ENDMDL
MODEL 5
REMARK VINA RESULT:    18.675      4.572     10.240
REMARK INTER + INTRA:          41.802
REMARK INTER:                  42.858
REMARK INTRA:                  -1.056
REMARK UNBOUND:                -0.891
REMARK SMILES CCCCCCCCCCCCCCCCCCCCCCCC(=O)[O-]
REMARK SMILES IDX 13 1 14 2 15 3 16 4 17 5 18 6 19 7 20 8 21 9 22 10 23 11
REMARK SMILES IDX 24 12 25 13 26 14 12 15 11 16 10 17 9 18 8 19 7 20 6 21 5 22
REMARK SMILES IDX 4 23 3 24 2 25 1 26
REMARK H PARENT
REMARK Flexibility Score: inf
ROOT
ATOM      1  C   UNL     1      13.164  12.815  17.317  1.00  0.00     0.000 C 
ENDROOT
BRANCH   1   2
ATOM      2  C   UNL     1      14.005  11.536  17.145  1.00  0.00     0.000 C 
BRANCH   2   3
ATOM      3  C   UNL     1      15.127  11.693  16.106  1.00  0.00     0.000 C 
BRANCH   3   4
ATOM      4  C   UNL     1      16.050  10.463  16.022  1.00  0.00     0.000 C 
BRANCH   4   5
ATOM      5  C   UNL     1      16.517  10.109  14.593  1.00  0.00     0.000 C 
BRANCH   5   6
ATOM      6  C   UNL     1      15.917   8.822  13.990  1.00  0.00     0.000 C 
BRANCH   6   7
ATOM      7  C   UNL     1      15.801   8.786  12.452  1.00  0.00     0.000 C 
BRANCH   7   8
ATOM      8  C   UNL     1      16.965   9.445  11.695  1.00  0.00     0.000 C 
BRANCH   8   9
ATOM      9  C   UNL     1      16.531  10.055  10.350  1.00  0.00     0.000 C 
BRANCH   9  10
ATOM     10  C   UNL     1      17.134  11.448  10.110  1.00  0.00     0.006 C 
BRANCH  10  11
ATOM     11  C   UNL     1      16.164  12.398   9.390  1.00  0.00     0.053 C 
BRANCH  11  12
ATOM     12  C   UNL     1      16.337  13.811   9.859  1.00  0.00     0.041 C 
ATOM     13  O   UNL     1      15.396  14.643   9.745  1.00  0.00    -0.550 OA
ATOM     14  O   UNL     1      17.523  14.198  10.474  1.00  0.00    -0.550 OA
ENDBRANCH  11  12
ENDBRANCH  10  11
ENDBRANCH   9  10
ENDBRANCH   8   9
ENDBRANCH   7   8
ENDBRANCH   6   7
ENDBRANCH   5   6
ENDBRANCH   4   5
ENDBRANCH   3   4
ENDBRANCH   2   3
ENDBRANCH   1   2
BRANCH   1  15
ATOM     15  C   UNL     1      13.821  14.110  16.798  1.00  0.00     0.000 C 
BRANCH  15  16
ATOM     16  C   UNL     1      14.611  14.886  17.875  1.00  0.00     0.000 C 
BRANCH  16  17
ATOM     17  C   UNL     1      14.634  16.401  17.598  1.00  0.00     0.000 C 
BRANCH  17  18
ATOM     18  C   UNL     1      15.932  17.078  18.075  1.00  0.00    -0.000 C 
BRANCH  18  19
ATOM     19  C   UNL     1      15.718  18.372  18.881  1.00  0.00    -0.000 C 
BRANCH  19  20
ATOM     20  C   UNL     1      17.035  18.957  19.424  1.00  0.00    -0.000 C 
BRANCH  20  21
ATOM     21  C   UNL     1      16.825  20.251  20.232  1.00  0.00    -0.000 C 
BRANCH  21  22
ATOM     22  C   UNL     1      15.962  21.326  19.542  1.00  0.00    -0.000 C 
BRANCH  22  23
ATOM     23  C   UNL     1      16.339  21.631  18.081  1.00  0.00    -0.000 C 
BRANCH  23  24
ATOM     24  C   UNL     1      15.122  21.995  17.215  1.00  0.00    -0.000 C 
BRANCH  24  25
ATOM     25  C   UNL     1      15.053  21.168  15.920  1.00  0.00    -0.003 C 
ATOM     26  C   UNL     1      16.244  21.414  14.995  1.00  0.00     0.004 C 
ENDBRANCH  24  25
ENDBRANCH  23  24
ENDBRANCH  22  23
ENDBRANCH  21  22
ENDBRANCH  20  21
ENDBRANCH  19  20
ENDBRANCH  18  19
ENDBRANCH  17  18
ENDBRANCH  16  17
ENDBRANCH  15  16
ENDBRANCH   1  15
TORSDOF 22
ENDMDL
MODEL 6
REMARK VINA RESULT:    18.699      3.573      5.247
REMARK INTER + INTRA:          41.857
REMARK INTER:                  43.053
REMARK INTRA:                  -1.195
REMARK UNBOUND:                -0.891
REMARK SMILES CCCCCCCCCCCCCCCCCCCCCCCC(=O)[O-]
REMARK SMILES IDX 13 1 14 2 15 3 16 4 17 5 18 6 19 7 20 8 21 9 22 10 23 11
REMARK SMILES IDX 24 12 25 13 26 14 12 15 11 16 10 17 9 18 8 19 7 20 6 21 5 22
REMARK SMILES IDX 4 23 3 24 2 25 1 26
REMARK H PARENT
REMARK Flexibility Score: inf
ROOT
ATOM      1  C   UNL     1      14.009  14.069  16.718  1.00  0.00     0.000 C 
ENDROOT
BRANCH   1   2
ATOM      2  C   UNL     1      14.699  15.042  17.692  1.00  0.00     0.000 C 
BRANCH   2   3
ATOM      3  C   UNL     1      14.226  16.495  17.522  1.00  0.00     0.000 C 
BRANCH   3   4
ATOM      4  C   UNL     1      13.583  16.765  16.149  1.00  0.00     0.000 C 
BRANCH   4   5
ATOM      5  C   UNL     1      13.273  18.253  15.869  1.00  0.00     0.000 C 
BRANCH   5   6
ATOM      6  C   UNL     1      14.496  19.154  15.600  1.00  0.00     0.000 C 
BRANCH   6   7
ATOM      7  C   UNL     1      14.223  20.672  15.565  1.00  0.00     0.000 C 
BRANCH   7   8
ATOM      8  C   UNL     1      15.416  21.558  15.961  1.00  0.00     0.000 C 
BRANCH   8   9
ATOM      9  C   UNL     1      15.426  21.905  17.461  1.00  0.00     0.000 C 
BRANCH   9  10
ATOM     10  C   UNL     1      16.702  21.423  18.171  1.00  0.00     0.006 C 
BRANCH  10  11
ATOM     11  C   UNL     1      16.468  21.100  19.655  1.00  0.00     0.053 C 
BRANCH  11  12
ATOM     12  C   UNL     1      16.795  19.669  19.960  1.00  0.00     0.041 C 
ATOM     13  O   UNL     1      16.632  18.776  19.084  1.00  0.00    -0.550 OA
ATOM     14  O   UNL     1      17.333  19.329  21.196  1.00  0.00    -0.550 OA
ENDBRANCH  11  12
ENDBRANCH  10  11
ENDBRANCH   9  10
ENDBRANCH   8   9
ENDBRANCH   7   8
ENDBRANCH   6   7
ENDBRANCH   5   6
ENDBRANCH   4   5
ENDBRANCH   3   4
ENDBRANCH   2   3
ENDBRANCH   1   2
BRANCH   1  15
ATOM     15  C   UNL     1      13.333  12.848  17.375  1.00  0.00     0.000 C 
BRANCH  15  16
ATOM     16  C   UNL     1      14.106  11.526  17.182  1.00  0.00     0.000 C 
BRANCH  16  17
ATOM     17  C   UNL     1      15.189  11.641  16.093  1.00  0.00     0.000 C 
BRANCH  17  18
ATOM     18  C   UNL     1      15.846  10.290  15.755  1.00  0.00    -0.000 C 
BRANCH  18  19
ATOM     19  C   UNL     1      16.358  10.174  14.307  1.00  0.00    -0.000 C 
BRANCH  19  20
ATOM     20  C   UNL     1      15.962   8.841  13.645  1.00  0.00    -0.000 C 
BRANCH  20  21
ATOM     21  C   UNL     1      16.157   8.853  12.117  1.00  0.00    -0.000 C 
BRANCH  21  22
ATOM     22  C   UNL     1      16.921  10.071  11.559  1.00  0.00    -0.000 C 
BRANCH  22  23
ATOM     23  C   UNL     1      16.731  10.329  10.054  1.00  0.00    -0.000 C 
BRANCH  23  24
ATOM     24  C   UNL     1      16.336  11.783   9.744  1.00  0.00    -0.000 C 
BRANCH  24  25
ATOM     25  C   UNL     1      17.427  12.787  10.151  1.00  0.00    -0.003 C 
ATOM     26  C   UNL     1      16.935  14.234  10.137  1.00  0.00     0.004 C 
ENDBRANCH  24  25
ENDBRANCH  23  24
ENDBRANCH  22  23
ENDBRANCH  21  22
ENDBRANCH  20  21
ENDBRANCH  19  20
ENDBRANCH  18  19
ENDBRANCH  17  18
ENDBRANCH  16  17
ENDBRANCH  15  16
ENDBRANCH   1  15
TORSDOF 22
ENDMDL
MODEL 7
REMARK VINA RESULT:    18.981      4.881      8.200
REMARK INTER + INTRA:          42.503
REMARK INTER:                  42.942
REMARK INTRA:                  -0.439
REMARK UNBOUND:                -0.891
REMARK SMILES CCCCCCCCCCCCCCCCCCCCCCCC(=O)[O-]
REMARK SMILES IDX 13 1 14 2 15 3 16 4 17 5 18 6 19 7 20 8 21 9 22 10 23 11
REMARK SMILES IDX 24 12 25 13 26 14 12 15 11 16 10 17 9 18 8 19 7 20 6 21 5 22
REMARK SMILES IDX 4 23 3 24 2 25 1 26
REMARK H PARENT
REMARK Flexibility Score: inf
ROOT
ATOM      1  C   UNL     1      15.387  12.469  16.040  1.00  0.00     0.000 C 
ENDROOT
BRANCH   1   2
ATOM      2  C   UNL     1      15.463  10.939  16.188  1.00  0.00     0.000 C 
BRANCH   2   3
ATOM      3  C   UNL     1      16.345  10.276  15.118  1.00  0.00     0.000 C 
BRANCH   3   4
ATOM      4  C   UNL     1      15.753   8.962  14.575  1.00  0.00     0.000 C 
BRANCH   4   5
ATOM      5  C   UNL     1      15.822   8.815  13.038  1.00  0.00     0.000 C 
BRANCH   5   6
ATOM      6  C   UNL     1      16.845   9.723  12.323  1.00  0.00     0.000 C 
BRANCH   6   7
ATOM      7  C   UNL     1      17.185   9.342  10.868  1.00  0.00     0.000 C 
BRANCH   7   8
ATOM      8  C   UNL     1      16.351  10.059   9.794  1.00  0.00     0.000 C 
BRANCH   8   9
ATOM      9  C   UNL     1      16.706  11.551   9.663  1.00  0.00     0.000 C 
BRANCH   9  10
ATOM     10  C   UNL     1      15.489  12.419   9.301  1.00  0.00     0.006 C 
BRANCH  10  11
ATOM     11  C   UNL     1      15.789  13.924   9.381  1.00  0.00     0.053 C 
BRANCH  11  12
ATOM     12  C   UNL     1      17.017  14.192  10.199  1.00  0.00     0.041 C 
ATOM     13  O   UNL     1      18.150  14.254   9.649  1.00  0.00    -0.550 OA
ATOM     14  O   UNL     1      16.902  14.428  11.564  1.00  0.00    -0.550 OA
ENDBRANCH  11  12
ENDBRANCH  10  11
ENDBRANCH   9  10
ENDBRANCH   8   9
ENDBRANCH   7   8
ENDBRANCH   6   7
ENDBRANCH   5   6
ENDBRANCH   4   5
ENDBRANCH   3   4
ENDBRANCH   2   3
ENDBRANCH   1   2
BRANCH   1  15
ATOM     15  C   UNL     1      13.963  13.061  16.031  1.00  0.00     0.000 C 
BRANCH  15  16
ATOM     16  C   UNL     1      13.893  14.531  16.499  1.00  0.00     0.000 C 
BRANCH  16  17
ATOM     17  C   UNL     1      14.799  14.797  17.715  1.00  0.00     0.000 C 
BRANCH  17  18
ATOM     18  C   UNL     1      14.123  14.449  19.054  1.00  0.00    -0.000 C 
BRANCH  18  19
ATOM     19  C   UNL     1      13.900  12.943  19.285  1.00  0.00    -0.000 C 
BRANCH  19  20
ATOM     20  C   UNL     1      12.425  12.532  19.125  1.00  0.00    -0.000 C 
BRANCH  20  21
ATOM     21  C   UNL     1      12.126  11.906  17.750  1.00  0.00    -0.000 C 
BRANCH  21  22
ATOM     22  C   UNL     1      10.631  11.765  17.401  1.00  0.00    -0.000 C 
BRANCH  22  23
ATOM     23  C   UNL     1      10.157  12.601  16.198  1.00  0.00    -0.000 C 
BRANCH  23  24
ATOM     24  C   UNL     1       8.626  12.647  16.071  1.00  0.00    -0.000 C 
BRANCH  24  25
ATOM     25  C   UNL     1       8.150  12.477  14.619  1.00  0.00    -0.003 C 
ATOM     26  C   UNL     1       8.945  11.419  13.855  1.00  0.00     0.004 C 
ENDBRANCH  24  25
ENDBRANCH  23  24
ENDBRANCH  22  23
ENDBRANCH  21  22
ENDBRANCH  20  21
ENDBRANCH  19  20
ENDBRANCH  18  19
ENDBRANCH  17  18
ENDBRANCH  16  17
ENDBRANCH  15  16
ENDBRANCH   1  15
TORSDOF 22
ENDMDL
MODEL 8
REMARK VINA RESULT:    18.988      4.027      6.105
REMARK INTER + INTRA:          42.517
REMARK INTER:                  43.183
REMARK INTRA:                  -0.666
REMARK UNBOUND:                -0.891
REMARK SMILES CCCCCCCCCCCCCCCCCCCCCCCC(=O)[O-]
REMARK SMILES IDX 13 1 14 2 15 3 16 4 17 5 18 6 19 7 20 8 21 9 22 10 23 11
REMARK SMILES IDX 24 12 25 13 26 14 12 15 11 16 10 17 9 18 8 19 7 20 6 21 5 22
REMARK SMILES IDX 4 23 3 24 2 25 1 26
REMARK H PARENT
REMARK Flexibility Score: inf
ROOT
ATOM      1  C   UNL     1      13.294  13.305  17.142  1.00  0.00     0.000 C 
ENDROOT
BRANCH   1   2
ATOM      2  C   UNL     1      14.525  14.230  17.138  1.00  0.00     0.000 C 
BRANCH   2   3
ATOM      3  C   UNL     1      14.159  15.713  16.963  1.00  0.00     0.000 C 
BRANCH   3   4
ATOM      4  C   UNL     1      14.591  16.587  18.156  1.00  0.00     0.000 C 
BRANCH   4   5
ATOM      5  C   UNL     1      16.100  16.916  18.196  1.00  0.00     0.000 C 
BRANCH   5   6
ATOM      6  C   UNL     1      16.457  18.396  18.444  1.00  0.00     0.000 C 
BRANCH   6   7
ATOM      7  C   UNL     1      16.447  18.856  19.917  1.00  0.00     0.000 C 
BRANCH   7   8
ATOM      8  C   UNL     1      16.891  20.310  20.149  1.00  0.00     0.000 C 
BRANCH   8   9
ATOM      9  C   UNL     1      16.063  21.321  19.335  1.00  0.00     0.000 C 
BRANCH   9  10
ATOM     10  C   UNL     1      16.522  21.419  17.871  1.00  0.00     0.006 C 
BRANCH  10  11
ATOM     11  C   UNL     1      15.399  21.876  16.927  1.00  0.00     0.053 C 
BRANCH  11  12
ATOM     12  C   UNL     1      15.701  21.512  15.504  1.00  0.00     0.041 C 
ATOM     13  O   UNL     1      16.645  22.077  14.887  1.00  0.00    -0.550 OA
ATOM     14  O   UNL     1      14.975  20.507  14.876  1.00  0.00    -0.550 OA
ENDBRANCH  11  12
ENDBRANCH  10  11
ENDBRANCH   9  10
ENDBRANCH   8   9
ENDBRANCH   7   8
ENDBRANCH   6   7
ENDBRANCH   5   6
ENDBRANCH   4   5
ENDBRANCH   3   4
ENDBRANCH   2   3
ENDBRANCH   1   2
BRANCH   1  15
ATOM     15  C   UNL     1      13.604  11.794  17.118  1.00  0.00     0.000 C 
BRANCH  15  16
ATOM     16  C   UNL     1      15.093  11.466  16.872  1.00  0.00     0.000 C 
BRANCH  16  17
ATOM     17  C   UNL     1      15.379  11.143  15.394  1.00  0.00     0.000 C 
BRANCH  17  18
ATOM     18  C   UNL     1      16.523  10.129  15.211  1.00  0.00    -0.000 C 
BRANCH  18  19
ATOM     19  C   UNL     1      16.123   8.844  14.463  1.00  0.00    -0.000 C 
BRANCH  19  20
ATOM     20  C   UNL     1      15.814   9.096  12.976  1.00  0.00    -0.000 C 
BRANCH  20  21
ATOM     21  C   UNL     1      16.939   9.861  12.254  1.00  0.00    -0.000 C 
BRANCH  21  22
ATOM     22  C   UNL     1      16.949   9.724  10.718  1.00  0.00    -0.000 C 
BRANCH  22  23
ATOM     23  C   UNL     1      16.365  10.923   9.950  1.00  0.00    -0.000 C 
BRANCH  23  24
ATOM     24  C   UNL     1      17.365  12.081   9.804  1.00  0.00    -0.000 C 
BRANCH  24  25
ATOM     25  C   UNL     1      16.800  13.415  10.320  1.00  0.00    -0.003 C 
ATOM     26  C   UNL     1      17.338  14.623   9.553  1.00  0.00     0.004 C 
ENDBRANCH  24  25
ENDBRANCH  23  24
ENDBRANCH  22  23
ENDBRANCH  21  22
ENDBRANCH  20  21
ENDBRANCH  19  20
ENDBRANCH  18  19
ENDBRANCH  17  18
ENDBRANCH  16  17
ENDBRANCH  15  16
ENDBRANCH   1  15
TORSDOF 22
ENDMDL
MODEL 9
REMARK VINA RESULT:    19.088      3.370      9.864
REMARK INTER + INTRA:          42.747
REMARK INTER:                  44.296
REMARK INTRA:                  -1.549
REMARK UNBOUND:                -0.891
REMARK SMILES CCCCCCCCCCCCCCCCCCCCCCCC(=O)[O-]
REMARK SMILES IDX 13 1 14 2 15 3 16 4 17 5 18 6 19 7 20 8 21 9 22 10 23 11
REMARK SMILES IDX 24 12 25 13 26 14 12 15 11 16 10 17 9 18 8 19 7 20 6 21 5 22
REMARK SMILES IDX 4 23 3 24 2 25 1 26
REMARK H PARENT
REMARK Flexibility Score: inf
ROOT
ATOM      1  C   UNL     1      13.833  16.038  16.865  1.00  0.00     0.000 C 
ENDROOT
BRANCH   1   2
ATOM      2  C   UNL     1      13.593  14.524  16.726  1.00  0.00     0.000 C 
BRANCH   2   3
ATOM      3  C   UNL     1      14.898  13.715  16.652  1.00  0.00     0.000 C 
BRANCH   3   4
ATOM      4  C   UNL     1      14.669  12.193  16.698  1.00  0.00     0.000 C 
BRANCH   4   5
ATOM      5  C   UNL     1      13.189  11.772  16.841  1.00  0.00     0.000 C 
BRANCH   5   6
ATOM      6  C   UNL     1      12.587  11.906  18.255  1.00  0.00     0.000 C 
BRANCH   6   7
ATOM      7  C   UNL     1      11.094  12.290  18.319  1.00  0.00     0.000 C 
BRANCH   7   8
ATOM      8  C   UNL     1      10.330  12.165  16.991  1.00  0.00     0.000 C 
BRANCH   8   9
ATOM      9  C   UNL     1       9.071  13.048  16.943  1.00  0.00     0.000 C 
BRANCH   9  10
ATOM     10  C   UNL     1       8.076  12.602  15.859  1.00  0.00     0.006 C 
BRANCH  10  11
ATOM     11  C   UNL     1       8.632  11.477  14.972  1.00  0.00     0.053 C 
BRANCH  11  12
ATOM     12  C   UNL     1       9.161  12.015  13.677  1.00  0.00     0.041 C 
ATOM     13  O   UNL     1       9.387  11.241  12.707  1.00  0.00    -0.550 OA
ATOM     14  O   UNL     1       9.354  13.383  13.522  1.00  0.00    -0.550 OA
ENDBRANCH  11  12
ENDBRANCH  10  11
ENDBRANCH   9  10
ENDBRANCH   8   9
ENDBRANCH   7   8
ENDBRANCH   6   7
ENDBRANCH   5   6
ENDBRANCH   4   5
ENDBRANCH   3   4
ENDBRANCH   2   3
ENDBRANCH   1   2
BRANCH   1  15
ATOM     15  C   UNL     1      14.746  16.456  18.037  1.00  0.00     0.000 C 
BRANCH  15  16
ATOM     16  C   UNL     1      15.628  17.685  17.735  1.00  0.00     0.000 C 
BRANCH  16  17
ATOM     17  C   UNL     1      16.806  17.810  18.719  1.00  0.00     0.000 C 
BRANCH  17  18
ATOM     18  C   UNL     1      16.505  18.750  19.900  1.00  0.00    -0.000 C 
BRANCH  18  19
ATOM     19  C   UNL     1      17.274  20.084  19.866  1.00  0.00    -0.000 C 
BRANCH  19  20
ATOM     20  C   UNL     1      16.342  21.301  19.716  1.00  0.00    -0.000 C 
BRANCH  20  21
ATOM     21  C   UNL     1      16.146  21.725  18.249  1.00  0.00    -0.000 C 
BRANCH  21  22
ATOM     22  C   UNL     1      14.691  22.030  17.840  1.00  0.00    -0.000 C 
BRANCH  22  23
ATOM     23  C   UNL     1      14.445  22.136  16.324  1.00  0.00    -0.000 C 
BRANCH  23  24
ATOM     24  C   UNL     1      14.383  20.763  15.634  1.00  0.00    -0.000 C 
BRANCH  24  25
ATOM     25  C   UNL     1      15.655  20.452  14.827  1.00  0.00    -0.003 C 
ATOM     26  C   UNL     1      16.495  21.697  14.543  1.00  0.00     0.004 C 
ENDBRANCH  24  25
ENDBRANCH  23  24
ENDBRANCH  22  23
ENDBRANCH  21  22
ENDBRANCH  20  21
ENDBRANCH  19  20
ENDBRANCH  18  19
ENDBRANCH  17  18
ENDBRANCH  16  17
ENDBRANCH  15  16
ENDBRANCH   1  15
TORSDOF 22
ENDMDL
