MODEL 1
REMARK VINA RESULT:    -4.134      0.000      0.000
REMARK INTER + INTRA:          -8.140
REMARK INTER:                  -7.034
REMARK INTRA:                  -1.107
REMARK UNBOUND:                -1.107
REMARK SMILES CCCCCCCCCCCCCC(=O)[O-]
REMARK SMILES IDX 8 1 9 2 10 3 11 4 12 5 13 6 14 7 15 8 16 9 7 10 6 11 5 12
REMARK SMILES IDX 4 13 3 14 2 15 1 16
REMARK H PARENT
REMARK Flexibility Score: inf
ROOT
ATOM      1  C   UNL     1      44.820  26.093   4.075  1.00  0.00     0.000 C 
ENDROOT
BRANCH   1   2
ATOM      2  C   UNL     1      44.210  26.776   2.842  1.00  0.00     0.000 C 
BRANCH   2   3
ATOM      3  C   UNL     1      44.200  28.302   3.008  1.00  0.00     0.000 C 
BRANCH   3   4
ATOM      4  C   UNL     1      45.189  29.007   2.067  1.00  0.00     0.000 C 
BRANCH   4   5
ATOM      5  C   UNL     1      45.650  28.104   0.909  1.00  0.00     0.006 C 
BRANCH   5   6
ATOM      6  C   UNL     1      45.856  28.891  -0.392  1.00  0.00     0.053 C 
BRANCH   6   7
ATOM      7  C   UNL     1      45.802  27.999  -1.594  1.00  0.00     0.041 C 
ATOM      8  O   UNL     1      46.768  27.240  -1.865  1.00  0.00    -0.550 OA
ATOM      9  O   UNL     1      44.697  28.034  -2.435  1.00  0.00    -0.550 OA
ENDBRANCH   6   7
ENDBRANCH   5   6
ENDBRANCH   4   5
ENDBRANCH   3   4
ENDBRANCH   2   3
ENDBRANCH   1   2
BRANCH   1  10
ATOM     10  C   UNL     1      46.357  26.157   4.095  1.00  0.00     0.000 C 
BRANCH  10  11
ATOM     11  C   UNL     1      46.972  26.716   5.395  1.00  0.00    -0.000 C 
BRANCH  11  12
ATOM     12  C   UNL     1      46.489  28.122   5.797  1.00  0.00    -0.000 C 
BRANCH  12  13
ATOM     13  C   UNL     1      45.773  28.139   7.159  1.00  0.00    -0.000 C 
BRANCH  13  14
ATOM     14  C   UNL     1      45.899  26.801   7.906  1.00  0.00    -0.000 C 
BRANCH  14  15
ATOM     15  C   UNL     1      45.280  26.847   9.312  1.00  0.00    -0.003 C 
ATOM     16  C   UNL     1      44.952  28.282   9.719  1.00  0.00     0.004 C 
ENDBRANCH  14  15
ENDBRANCH  13  14
ENDBRANCH  12  13
ENDBRANCH  11  12
ENDBRANCH  10  11
ENDBRANCH   1  10
TORSDOF 12
ENDMDL
MODEL 2
REMARK VINA RESULT:    -3.900      4.073      8.145
REMARK INTER + INTRA:          -7.742
REMARK INTER:                  -6.941
REMARK INTRA:                  -0.801
REMARK UNBOUND:                -1.107
REMARK SMILES CCCCCCCCCCCCCC(=O)[O-]
REMARK SMILES IDX 8 1 9 2 10 3 11 4 12 5 13 6 14 7 15 8 16 9 7 10 6 11 5 12
REMARK SMILES IDX 4 13 3 14 2 15 1 16
REMARK H PARENT
REMARK Flexibility Score: inf
ROOT
ATOM      1  C   UNL     1      44.113  27.092   2.708  1.00  0.00     0.000 C 
ENDROOT
BRANCH   1   2
ATOM      2  C   UNL     1      44.732  26.265   3.845  1.00  0.00     0.000 C 
BRANCH   2   3
ATOM      3  C   UNL     1      46.261  26.211   3.713  1.00  0.00     0.000 C 
BRANCH   3   4
ATOM      4  C   UNL     1      46.981  26.585   5.018  1.00  0.00     0.000 C 
BRANCH   4   5
ATOM      5  C   UNL     1      46.017  27.114   6.095  1.00  0.00     0.006 C 
BRANCH   5   6
ATOM      6  C   UNL     1      46.513  26.808   7.515  1.00  0.00     0.053 C 
BRANCH   6   7
ATOM      7  C   UNL     1      45.513  27.220   8.552  1.00  0.00     0.041 C 
ATOM      8  O   UNL     1      45.029  28.382   8.540  1.00  0.00    -0.550 OA
ATOM      9  O   UNL     1      45.143  26.330   9.551  1.00  0.00    -0.550 OA
ENDBRANCH   6   7
ENDBRANCH   5   6
ENDBRANCH   4   5
ENDBRANCH   3   4
ENDBRANCH   2   3
ENDBRANCH   1   2
BRANCH   1  10
ATOM     10  C   UNL     1      44.485  28.583   2.780  1.00  0.00     0.000 C 
BRANCH  10  11
ATOM     11  C   UNL     1      45.093  29.169   1.489  1.00  0.00    -0.000 C 
BRANCH  11  12
ATOM     12  C   UNL     1      45.654  28.133   0.498  1.00  0.00    -0.000 C 
BRANCH  12  13
ATOM     13  C   UNL     1      45.732  28.667  -0.942  1.00  0.00    -0.000 C 
BRANCH  13  14
ATOM     14  C   UNL     1      45.364  27.600  -1.986  1.00  0.00    -0.000 C 
BRANCH  14  15
ATOM     15  C   UNL     1      44.472  28.153  -3.109  1.00  0.00    -0.003 C 
ATOM     16  C   UNL     1      43.671  27.035  -3.773  1.00  0.00     0.004 C 
ENDBRANCH  14  15
ENDBRANCH  13  14
ENDBRANCH  12  13
ENDBRANCH  11  12
ENDBRANCH  10  11
ENDBRANCH   1  10
TORSDOF 12
ENDMDL
MODEL 3
REMARK VINA RESULT:    -3.880      2.047      3.825
REMARK INTER + INTRA:          -7.709
REMARK INTER:                  -6.799
REMARK INTRA:                  -0.910
REMARK UNBOUND:                -1.107
REMARK SMILES CCCCCCCCCCCCCC(=O)[O-]
REMARK SMILES IDX 8 1 9 2 10 3 11 4 12 5 13 6 14 7 15 8 16 9 7 10 6 11 5 12
REMARK SMILES IDX 4 13 3 14 2 15 1 16
REMARK H PARENT
REMARK Flexibility Score: inf
ROOT
ATOM      1  C   UNL     1      45.248  29.043   1.684  1.00  0.00     0.000 C 
ENDROOT
BRANCH   1   2
ATOM      2  C   UNL     1      45.548  27.934   0.665  1.00  0.00     0.000 C 
BRANCH   2   3
ATOM      3  C   UNL     1      45.851  28.528  -0.718  1.00  0.00     0.000 C 
BRANCH   3   4
ATOM      4  C   UNL     1      45.285  27.676  -1.865  1.00  0.00     0.000 C 
BRANCH   4   5
ATOM      5  C   UNL     1      44.405  28.492  -2.830  1.00  0.00     0.006 C 
BRANCH   5   6
ATOM      6  C   UNL     1      44.227  27.790  -4.183  1.00  0.00     0.053 C 
BRANCH   6   7
ATOM      7  C   UNL     1      42.913  28.133  -4.816  1.00  0.00     0.041 C 
ATOM      8  O   UNL     1      41.861  28.150  -4.126  1.00  0.00    -0.550 OA
ATOM      9  O   UNL     1      42.848  28.399  -6.178  1.00  0.00    -0.550 OA
ENDBRANCH   6   7
ENDBRANCH   5   6
ENDBRANCH   4   5
ENDBRANCH   3   4
ENDBRANCH   2   3
ENDBRANCH   1   2
BRANCH   1  10
ATOM     10  C   UNL     1      44.662  28.503   3.001  1.00  0.00     0.000 C 
BRANCH  10  11
ATOM     11  C   UNL     1      44.151  27.049   2.943  1.00  0.00    -0.000 C 
BRANCH  11  12
ATOM     12  C   UNL     1      44.865  26.065   3.889  1.00  0.00    -0.000 C 
BRANCH  12  13
ATOM     13  C   UNL     1      46.391  26.256   3.907  1.00  0.00    -0.000 C 
BRANCH  13  14
ATOM     14  C   UNL     1      46.955  26.354   5.334  1.00  0.00    -0.000 C 
BRANCH  14  15
ATOM     15  C   UNL     1      45.928  26.899   6.340  1.00  0.00    -0.003 C 
ATOM     16  C   UNL     1      46.074  28.409   6.507  1.00  0.00     0.004 C 
ENDBRANCH  14  15
ENDBRANCH  13  14
ENDBRANCH  12  13
ENDBRANCH  11  12
ENDBRANCH  10  11
ENDBRANCH   1  10
TORSDOF 12
ENDMDL
MODEL 4
REMARK VINA RESULT:    -3.869      1.049      1.751
REMARK INTER + INTRA:          -7.689
REMARK INTER:                  -6.794
REMARK INTRA:                  -0.895
REMARK UNBOUND:                -1.107
REMARK SMILES CCCCCCCCCCCCCC(=O)[O-]
REMARK SMILES IDX 8 1 9 2 10 3 11 4 12 5 13 6 14 7 15 8 16 9 7 10 6 11 5 12
REMARK SMILES IDX 4 13 3 14 2 15 1 16
REMARK H PARENT
REMARK Flexibility Score: inf
ROOT
ATOM      1  C   UNL     1      44.220  27.013   2.952  1.00  0.00     0.000 C 
ENDROOT
BRANCH   1   2
ATOM      2  C   UNL     1      44.657  28.481   3.066  1.00  0.00     0.000 C 
BRANCH   2   3
ATOM      3  C   UNL     1      45.251  28.981   1.741  1.00  0.00     0.000 C 
BRANCH   3   4
ATOM      4  C   UNL     1      45.342  27.874   0.678  1.00  0.00     0.000 C 
BRANCH   4   5
ATOM      5  C   UNL     1      45.682  28.422  -0.720  1.00  0.00     0.006 C 
BRANCH   5   6
ATOM      6  C   UNL     1      45.226  27.476  -1.838  1.00  0.00     0.053 C 
BRANCH   6   7
ATOM      7  C   UNL     1      45.531  28.034  -3.195  1.00  0.00     0.041 C 
ATOM      8  O   UNL     1      45.683  27.264  -4.178  1.00  0.00    -0.550 OA
ATOM      9  O   UNL     1      45.682  29.404  -3.363  1.00  0.00    -0.550 OA
ENDBRANCH   6   7
ENDBRANCH   5   6
ENDBRANCH   4   5
ENDBRANCH   3   4
ENDBRANCH   2   3
ENDBRANCH   1   2
BRANCH   1  10
ATOM     10  C   UNL     1      44.887  26.107   4.001  1.00  0.00     0.000 C 
BRANCH  10  11
ATOM     11  C   UNL     1      46.424  26.208   4.072  1.00  0.00    -0.000 C 
BRANCH  11  12
ATOM     12  C   UNL     1      46.994  26.586   5.452  1.00  0.00    -0.000 C 
BRANCH  12  13
ATOM     13  C   UNL     1      45.898  26.811   6.508  1.00  0.00    -0.000 C 
BRANCH  13  14
ATOM     14  C   UNL     1      45.966  28.213   7.137  1.00  0.00    -0.000 C 
BRANCH  14  15
ATOM     15  C   UNL     1      45.246  28.288   8.492  1.00  0.00    -0.003 C 
ATOM     16  C   UNL     1      45.331  26.956   9.233  1.00  0.00     0.004 C 
ENDBRANCH  14  15
ENDBRANCH  13  14
ENDBRANCH  12  13
ENDBRANCH  11  12
ENDBRANCH  10  11
ENDBRANCH   1  10
TORSDOF 12
ENDMDL
MODEL 5
REMARK VINA RESULT:    -3.820      4.398      8.089
REMARK INTER + INTRA:          -7.607
REMARK INTER:                  -6.738
REMARK INTRA:                  -0.869
REMARK UNBOUND:                -1.107
REMARK SMILES CCCCCCCCCCCCCC(=O)[O-]
REMARK SMILES IDX 8 1 9 2 10 3 11 4 12 5 13 6 14 7 15 8 16 9 7 10 6 11 5 12
REMARK SMILES IDX 4 13 3 14 2 15 1 16
REMARK H PARENT
REMARK Flexibility Score: inf
ROOT
ATOM      1  C   UNL     1      44.558  26.350   3.744  1.00  0.00     0.000 C 
ENDROOT
BRANCH   1   2
ATOM      2  C   UNL     1      46.087  26.381   3.879  1.00  0.00     0.000 C 
BRANCH   2   3
ATOM      3  C   UNL     1      46.504  26.632   5.335  1.00  0.00     0.000 C 
BRANCH   3   4
ATOM      4  C   UNL     1      46.013  27.987   5.867  1.00  0.00     0.000 C 
BRANCH   4   5
ATOM      5  C   UNL     1      46.049  28.069   7.404  1.00  0.00     0.006 C 
BRANCH   5   6
ATOM      6  C   UNL     1      45.640  26.746   8.063  1.00  0.00     0.053 C 
BRANCH   6   7
ATOM      7  C   UNL     1      45.479  26.891   9.545  1.00  0.00     0.041 C 
ATOM      8  O   UNL     1      46.028  26.071  10.327  1.00  0.00    -0.550 OA
ATOM      9  O   UNL     1      44.693  27.913  10.061  1.00  0.00    -0.550 OA
ENDBRANCH   6   7
ENDBRANCH   5   6
ENDBRANCH   4   5
ENDBRANCH   3   4
ENDBRANCH   2   3
ENDBRANCH   1   2
BRANCH   1  10
ATOM     10  C   UNL     1      44.035  27.282   2.636  1.00  0.00     0.000 C 
BRANCH  10  11
ATOM     11  C   UNL     1      44.620  28.709   2.650  1.00  0.00    -0.000 C 
BRANCH  11  12
ATOM     12  C   UNL     1      45.214  29.188   1.313  1.00  0.00    -0.000 C 
BRANCH  12  13
ATOM     13  C   UNL     1      45.865  28.050   0.508  1.00  0.00    -0.000 C 
BRANCH  13  14
ATOM     14  C   UNL     1      46.084  28.423  -0.968  1.00  0.00    -0.000 C 
BRANCH  14  15
ATOM     15  C   UNL     1      45.231  27.576  -1.925  1.00  0.00    -0.003 C 
ATOM     16  C   UNL     1      44.508  28.457  -2.940  1.00  0.00     0.004 C 
ENDBRANCH  14  15
ENDBRANCH  13  14
ENDBRANCH  12  13
ENDBRANCH  11  12
ENDBRANCH  10  11
ENDBRANCH   1  10
TORSDOF 12
ENDMDL
MODEL 6
REMARK VINA RESULT:    -3.613      3.066      5.577
REMARK INTER + INTRA:          -7.253
REMARK INTER:                  -6.376
REMARK INTRA:                  -0.877
REMARK UNBOUND:                -1.107
REMARK SMILES CCCCCCCCCCCCCC(=O)[O-]
REMARK SMILES IDX 8 1 9 2 10 3 11 4 12 5 13 6 14 7 15 8 16 9 7 10 6 11 5 12
REMARK SMILES IDX 4 13 3 14 2 15 1 16
REMARK H PARENT
REMARK Flexibility Score: inf
ROOT
ATOM      1  C   UNL     1      45.323  29.581  -1.059  1.00  0.00     0.000 C 
ENDROOT
BRANCH   1   2
ATOM      2  C   UNL     1      44.965  29.153  -2.490  1.00  0.00     0.000 C 
BRANCH   2   3
ATOM      3  C   UNL     1      45.379  27.697  -2.748  1.00  0.00     0.000 C 
BRANCH   3   4
ATOM      4  C   UNL     1      45.159  27.268  -4.207  1.00  0.00     0.000 C 
BRANCH   4   5
ATOM      5  C   UNL     1      44.648  28.420  -5.092  1.00  0.00     0.006 C 
BRANCH   5   6
ATOM      6  C   UNL     1      43.393  28.028  -5.882  1.00  0.00     0.053 C 
BRANCH   6   7
ATOM      7  C   UNL     1      42.148  28.570  -5.249  1.00  0.00     0.041 C 
ATOM      8  O   UNL     1      41.882  28.308  -4.047  1.00  0.00    -0.550 OA
ATOM      9  O   UNL     1      41.264  29.335  -5.999  1.00  0.00    -0.550 OA
ENDBRANCH   6   7
ENDBRANCH   5   6
ENDBRANCH   4   5
ENDBRANCH   3   4
ENDBRANCH   2   3
ENDBRANCH   1   2
BRANCH   1  10
ATOM     10  C   UNL     1      46.668  29.006  -0.581  1.00  0.00     0.000 C 
BRANCH  10  11
ATOM     11  C   UNL     1      46.630  28.304   0.791  1.00  0.00    -0.000 C 
BRANCH  11  12
ATOM     12  C   UNL     1      45.243  27.798   1.232  1.00  0.00    -0.000 C 
BRANCH  12  13
ATOM     13  C   UNL     1      45.050  27.842   2.757  1.00  0.00    -0.000 C 
BRANCH  13  14
ATOM     14  C   UNL     1      44.311  26.604   3.292  1.00  0.00    -0.000 C 
BRANCH  14  15
ATOM     15  C   UNL     1      45.160  25.789   4.280  1.00  0.00    -0.003 C 
ATOM     16  C   UNL     1      46.630  25.787   3.866  1.00  0.00     0.004 C 
ENDBRANCH  14  15
ENDBRANCH  13  14
ENDBRANCH  12  13
ENDBRANCH  11  12
ENDBRANCH  10  11
ENDBRANCH   1  10
TORSDOF 12
ENDMDL
MODEL 7
REMARK VINA RESULT:    -3.139      3.529      8.506
REMARK INTER + INTRA:          -6.447
REMARK INTER:                  -5.575
REMARK INTRA:                  -0.872
REMARK UNBOUND:                -1.107
REMARK SMILES CCCCCCCCCCCCCC(=O)[O-]
REMARK SMILES IDX 8 1 9 2 10 3 11 4 12 5 13 6 14 7 15 8 16 9 7 10 6 11 5 12
REMARK SMILES IDX 4 13 3 14 2 15 1 16
REMARK H PARENT
REMARK Flexibility Score: inf
ROOT
ATOM      1  C   UNL     1      45.463  28.156  -0.050  1.00  0.00     0.000 C 
ENDROOT
BRANCH   1   2
ATOM      2  C   UNL     1      46.762  28.101   0.767  1.00  0.00     0.000 C 
BRANCH   2   3
ATOM      3  C   UNL     1      46.514  27.491   2.154  1.00  0.00     0.000 C 
BRANCH   3   4
ATOM      4  C   UNL     1      45.018  27.368   2.487  1.00  0.00     0.000 C 
BRANCH   4   5
ATOM      5  C   UNL     1      44.759  26.509   3.738  1.00  0.00     0.006 C 
BRANCH   5   6
ATOM      6  C   UNL     1      46.054  26.180   4.492  1.00  0.00     0.053 C 
BRANCH   6   7
ATOM      7  C   UNL     1      46.223  27.041   5.706  1.00  0.00     0.041 C 
ATOM      8  O   UNL     1      46.883  28.110   5.640  1.00  0.00    -0.550 OA
ATOM      9  O   UNL     1      45.678  26.642   6.920  1.00  0.00    -0.550 OA
ENDBRANCH   6   7
ENDBRANCH   5   6
ENDBRANCH   4   5
ENDBRANCH   3   4
ENDBRANCH   2   3
ENDBRANCH   1   2
BRANCH   1  10
ATOM     10  C   UNL     1      45.454  29.293  -1.086  1.00  0.00     0.000 C 
BRANCH  10  11
ATOM     11  C   UNL     1      46.256  29.013  -2.373  1.00  0.00    -0.000 C 
BRANCH  11  12
ATOM     12  C   UNL     1      46.112  27.588  -2.939  1.00  0.00    -0.000 C 
BRANCH  12  13
ATOM     13  C   UNL     1      46.151  27.550  -4.476  1.00  0.00    -0.000 C 
BRANCH  13  14
ATOM     14  C   UNL     1      44.748  27.612  -5.103  1.00  0.00    -0.000 C 
BRANCH  14  15
ATOM     15  C   UNL     1      43.645  27.173  -4.128  1.00  0.00    -0.003 C 
ATOM     16  C   UNL     1      42.475  28.153  -4.146  1.00  0.00     0.004 C 
ENDBRANCH  14  15
ENDBRANCH  13  14
ENDBRANCH  12  13
ENDBRANCH  11  12
ENDBRANCH  10  11
ENDBRANCH   1  10
TORSDOF 12
ENDMDL
MODEL 8
REMARK VINA RESULT:    -2.871      1.911      4.087
REMARK INTER + INTRA:          -5.991
REMARK INTER:                  -5.342
REMARK INTRA:                  -0.649
REMARK UNBOUND:                -1.107
REMARK SMILES CCCCCCCCCCCCCC(=O)[O-]
REMARK SMILES IDX 8 1 9 2 10 3 11 4 12 5 13 6 14 7 15 8 16 9 7 10 6 11 5 12
REMARK SMILES IDX 4 13 3 14 2 15 1 16
REMARK H PARENT
REMARK Flexibility Score: inf
ROOT
ATOM      1  C   UNL     1      45.470  28.147  -0.329  1.00  0.00     0.000 C 
ENDROOT
BRANCH   1   2
ATOM      2  C   UNL     1      46.643  28.372  -1.294  1.00  0.00     0.000 C 
BRANCH   2   3
ATOM      3  C   UNL     1      46.419  29.629  -2.146  1.00  0.00     0.000 C 
BRANCH   3   4
ATOM      4  C   UNL     1      46.593  29.364  -3.650  1.00  0.00     0.000 C 
BRANCH   4   5
ATOM      5  C   UNL     1      46.711  27.864  -3.977  1.00  0.00     0.006 C 
BRANCH   5   6
ATOM      6  C   UNL     1      45.677  27.416  -5.018  1.00  0.00     0.053 C 
BRANCH   6   7
ATOM      7  C   UNL     1      44.280  27.500  -4.484  1.00  0.00     0.041 C 
ATOM      8  O   UNL     1      43.432  28.247  -5.038  1.00  0.00    -0.550 OA
ATOM      9  O   UNL     1      43.926  26.778  -3.352  1.00  0.00    -0.550 OA
ENDBRANCH   6   7
ENDBRANCH   5   6
ENDBRANCH   4   5
ENDBRANCH   3   4
ENDBRANCH   2   3
ENDBRANCH   1   2
BRANCH   1  10
ATOM     10  C   UNL     1      45.926  27.880   1.117  1.00  0.00     0.000 C 
BRANCH  10  11
ATOM     11  C   UNL     1      44.804  27.473   2.093  1.00  0.00    -0.000 C 
BRANCH  11  12
ATOM     12  C   UNL     1      45.056  27.833   3.569  1.00  0.00    -0.000 C 
BRANCH  12  13
ATOM     13  C   UNL     1      46.258  27.083   4.169  1.00  0.00    -0.000 C 
BRANCH  13  14
ATOM     14  C   UNL     1      45.931  26.436   5.525  1.00  0.00    -0.000 C 
BRANCH  14  15
ATOM     15  C   UNL     1      46.072  27.418   6.698  1.00  0.00    -0.003 C 
ATOM     16  C   UNL     1      45.626  26.773   8.008  1.00  0.00     0.004 C 
ENDBRANCH  14  15
ENDBRANCH  13  14
ENDBRANCH  12  13
ENDBRANCH  11  12
ENDBRANCH  10  11
ENDBRANCH   1  10
TORSDOF 12
ENDMDL
MODEL 9
REMARK VINA RESULT:    -2.704      1.564      2.425
REMARK INTER + INTRA:          -5.707
REMARK INTER:                  -5.092
REMARK INTRA:                  -0.615
REMARK UNBOUND:                -1.107
REMARK SMILES CCCCCCCCCCCCCC(=O)[O-]
REMARK SMILES IDX 8 1 9 2 10 3 11 4 12 5 13 6 14 7 15 8 16 9 7 10 6 11 5 12
REMARK SMILES IDX 4 13 3 14 2 15 1 16
REMARK H PARENT
REMARK Flexibility Score: inf
ROOT
ATOM      1  C   UNL     1      46.571  28.322   5.969  1.00  0.00     0.000 C 
ENDROOT
BRANCH   1   2
ATOM      2  C   UNL     1      47.044  28.395   4.510  1.00  0.00     0.000 C 
BRANCH   2   3
ATOM      3  C   UNL     1      46.038  29.166   3.644  1.00  0.00     0.000 C 
BRANCH   3   4
ATOM      4  C   UNL     1      46.589  29.497   2.249  1.00  0.00     0.000 C 
BRANCH   4   5
ATOM      5  C   UNL     1      45.513  29.406   1.151  1.00  0.00     0.006 C 
BRANCH   5   6
ATOM      6  C   UNL     1      45.555  28.062   0.411  1.00  0.00     0.053 C 
BRANCH   6   7
ATOM      7  C   UNL     1      45.514  28.247  -1.075  1.00  0.00     0.041 C 
ATOM      8  O   UNL     1      45.264  29.377  -1.568  1.00  0.00    -0.550 OA
ATOM      9  O   UNL     1      45.719  27.160  -1.915  1.00  0.00    -0.550 OA
ENDBRANCH   6   7
ENDBRANCH   5   6
ENDBRANCH   4   5
ENDBRANCH   3   4
ENDBRANCH   2   3
ENDBRANCH   1   2
BRANCH   1  10
ATOM     10  C   UNL     1      45.996  26.946   6.345  1.00  0.00     0.000 C 
BRANCH  10  11
ATOM     11  C   UNL     1      46.059  26.596   7.846  1.00  0.00    -0.000 C 
BRANCH  11  12
ATOM     12  C   UNL     1      47.092  27.395   8.663  1.00  0.00    -0.000 C 
BRANCH  12  13
ATOM     13  C   UNL     1      46.441  28.305   9.719  1.00  0.00    -0.000 C 
BRANCH  13  14
ATOM     14  C   UNL     1      44.905  28.244   9.683  1.00  0.00    -0.000 C 
BRANCH  14  15
ATOM     15  C   UNL     1      44.250  29.227  10.666  1.00  0.00    -0.003 C 
ATOM     16  C   UNL     1      45.296  30.124  11.321  1.00  0.00     0.004 C 
ENDBRANCH  14  15
ENDBRANCH  13  14
ENDBRANCH  12  13
ENDBRANCH  11  12
ENDBRANCH  10  11
ENDBRANCH   1  10
TORSDOF 12
ENDMDL
