MODEL 1
REMARK VINA RESULT:    -3.598      0.000      0.000
REMARK INTER + INTRA:          -5.261
REMARK INTER:                  -5.071
REMARK INTRA:                  -0.191
REMARK UNBOUND:                -0.191
REMARK SMILES CC1=CCC(=C(C)C)C(=O)CC(C)=CCC1
REMARK SMILES IDX 12 1 14 2 13 3 15 4 16 5 2 6 1 7 3 8 11 10 9 11 10 12 5 13
REMARK SMILES IDX 6 14 7 15 8 16 4 17
REMARK H PARENT
REMARK Flexibility Score: 60.00
ROOT
ATOM      1  C   UNL     1     128.509 122.901  98.997  1.00  0.00    -0.070 C 
ATOM      2  C   UNL     1     128.605 124.133  98.445  1.00  0.00    -0.027 C 
ATOM      3  C   UNL     1     127.350 122.654  99.933  1.00  0.00     0.039 C 
ENDROOT
BRANCH   2   4
ATOM      4  C   UNL     1     129.644 124.593  97.456  1.00  0.00     0.032 C 
BRANCH   4   5
ATOM      5  C   UNL     1     130.957 125.125  98.077  1.00  0.00     0.034 C 
BRANCH   5   6
ATOM      6  C   UNL     1     132.241 124.625  97.428  1.00  0.00    -0.077 C 
ATOM      7  C   UNL     1     132.698 125.313  96.164  1.00  0.00     0.039 C 
ATOM      8  C   UNL     1     132.980 123.567  97.861  1.00  0.00    -0.023 CG0
ATOM      9  G   UNL     1     132.876 122.767  99.152  1.00  0.00     0.000 G0
ENDBRANCH   5   6
ENDBRANCH   4   5
ENDBRANCH   2   4
BRANCH   1  10
ATOM     10  C   UNL     1     129.448 121.736  98.705  1.00  0.00     0.111 C 
BRANCH  10  11
ATOM     11  C   UNL     1     130.632 121.573  99.630  1.00  0.00     0.163 C 
ATOM     12  O   UNL     1     130.373 121.497 100.862  1.00  0.00    -0.294 OA
BRANCH  11  13
ATOM     13  C   UNL     1     132.062 121.485  99.157  1.00  0.00    -0.002 C 
ATOM     14  C   UNL     1     132.598 120.319  98.676  1.00  0.00    -0.069 C 
ATOM     15  C   UNL     1     131.852 119.005  98.730  1.00  0.00     0.039 C 
ATOM     16  C   UNL     1     133.994 120.277  98.090  1.00  0.00     0.039 C 
BRANCH  13  17
ATOM     17  C   UNL     1     132.899 122.754  99.163  1.00  0.00     0.066 CG0
ATOM     18  G   UNL     1     132.969 123.537  97.859  1.00  0.00     0.000 G0
ENDBRANCH  13  17
ENDBRANCH  11  13
ENDBRANCH  10  11
ENDBRANCH   1  10
TORSDOF 0
ENDMDL
MODEL 2
REMARK VINA RESULT:    -3.527     15.222     17.270
REMARK INTER + INTRA:          -5.161
REMARK INTER:                  -4.986
REMARK INTRA:                  -0.174
REMARK UNBOUND:                -0.191
REMARK SMILES CC1=CCC(=C(C)C)C(=O)CC(C)=CCC1
REMARK SMILES IDX 12 1 14 2 13 3 15 4 16 5 2 6 1 7 3 8 11 10 9 11 10 12 5 13
REMARK SMILES IDX 6 14 7 15 8 16 4 17
REMARK H PARENT
REMARK Flexibility Score: 60.00
ROOT
ATOM      1  C   UNL     1     116.621 127.503 109.622  1.00  0.00    -0.070 C 
ATOM      2  C   UNL     1     115.420 127.291 109.035  1.00  0.00    -0.027 C 
ATOM      3  C   UNL     1     116.903 128.897 110.129  1.00  0.00     0.039 C 
ENDROOT
BRANCH   2   4
ATOM      4  C   UNL     1     114.905 125.980 108.497  1.00  0.00     0.032 C 
BRANCH   4   5
ATOM      5  C   UNL     1     115.393 125.613 107.075  1.00  0.00     0.034 C 
BRANCH   5   6
ATOM      6  C   UNL     1     115.824 124.165 106.883  1.00  0.00    -0.077 C 
ATOM      7  C   UNL     1     114.739 123.122 106.770  1.00  0.00     0.039 C 
ATOM      8  C   UNL     1     117.112 123.726 106.863  1.00  0.00    -0.023 CG0
ATOM      9  G   UNL     1     118.413 124.515 106.809  1.00  0.00     0.000 G0
ENDBRANCH   5   6
ENDBRANCH   4   5
ENDBRANCH   2   4
BRANCH   1  10
ATOM     10  C   UNL     1     117.683 126.433 109.853  1.00  0.00     0.111 C 
BRANCH  10  11
ATOM     11  C   UNL     1     118.694 126.232 108.748  1.00  0.00     0.163 C 
ATOM     12  O   UNL     1     119.269 127.270 108.320  1.00  0.00    -0.294 OA
BRANCH  11  13
ATOM     13  C   UNL     1     119.043 124.885 108.164  1.00  0.00    -0.002 C 
ATOM     14  C   UNL     1     119.845 123.992 108.826  1.00  0.00    -0.069 C 
ATOM     15  C   UNL     1     120.563 124.348 110.109  1.00  0.00     0.039 C 
ATOM     16  C   UNL     1     120.085 122.599 108.285  1.00  0.00     0.039 C 
BRANCH  13  17
ATOM     17  C   UNL     1     118.427 124.500 106.829  1.00  0.00     0.066 CG0
ATOM     18  G   UNL     1     117.118 123.726 106.875  1.00  0.00     0.000 G0
ENDBRANCH  13  17
ENDBRANCH  11  13
ENDBRANCH  10  11
ENDBRANCH   1  10
TORSDOF 0
ENDMDL
MODEL 3
REMARK VINA RESULT:    -3.513     13.423     15.965
REMARK INTER + INTRA:          -5.141
REMARK INTER:                  -4.922
REMARK INTRA:                  -0.218
REMARK UNBOUND:                -0.191
REMARK SMILES CC1=CCC(=C(C)C)C(=O)CC(C)=CCC1
REMARK SMILES IDX 12 1 14 2 13 3 15 4 16 5 2 6 1 7 3 8 11 10 9 11 10 12 5 13
REMARK SMILES IDX 6 14 7 15 8 16 4 17
REMARK H PARENT
REMARK Flexibility Score: 60.00
ROOT
ATOM      1  C   UNL     1     120.214 126.375 106.782  1.00  0.00    -0.070 C 
ATOM      2  C   UNL     1     121.168 125.555 106.282  1.00  0.00    -0.027 C 
ATOM      3  C   UNL     1     120.682 127.624 107.490  1.00  0.00     0.039 C 
ENDROOT
BRANCH   2   4
ATOM      4  C   UNL     1     120.939 124.284 105.505  1.00  0.00     0.032 C 
BRANCH   4   5
ATOM      5  C   UNL     1     120.650 123.029 106.363  1.00  0.00     0.034 C 
BRANCH   5   6
ATOM      6  C   UNL     1     119.487 122.165 105.892  1.00  0.00    -0.077 C 
ATOM      7  C   UNL     1     119.725 121.262 104.706  1.00  0.00     0.039 C 
ATOM      8  C   UNL     1     118.232 122.184 106.418  1.00  0.00    -0.023 CG0
ATOM      9  G   UNL     1     117.711 122.859 107.678  1.00  0.00     0.000 G0
ENDBRANCH   5   6
ENDBRANCH   4   5
ENDBRANCH   2   4
BRANCH   1  10
ATOM     10  C   UNL     1     118.711 126.158 106.641  1.00  0.00     0.111 C 
BRANCH  10  11
ATOM     11  C   UNL     1     118.024 125.426 107.770  1.00  0.00     0.163 C 
ATOM     12  O   UNL     1     118.244 125.858 108.934  1.00  0.00    -0.294 OA
BRANCH  11  13
ATOM     13  C   UNL     1     117.103 124.246 107.569  1.00  0.00    -0.002 C 
ATOM     14  C   UNL     1     115.786 124.404 107.224  1.00  0.00    -0.069 C 
ATOM     15  C   UNL     1     115.121 125.760 107.175  1.00  0.00     0.039 C 
ATOM     16  C   UNL     1     114.909 123.212 106.905  1.00  0.00     0.039 C 
BRANCH  13  17
ATOM     17  C   UNL     1     117.689 122.849 107.696  1.00  0.00     0.066 CG0
ATOM     18  G   UNL     1     118.225 122.211 106.422  1.00  0.00     0.000 G0
ENDBRANCH  13  17
ENDBRANCH  11  13
ENDBRANCH  10  11
ENDBRANCH   1  10
TORSDOF 0
ENDMDL
MODEL 4
REMARK VINA RESULT:    -3.490     12.608     15.613
REMARK INTER + INTRA:          -5.108
REMARK INTER:                  -4.808
REMARK INTRA:                  -0.301
REMARK UNBOUND:                -0.191
REMARK SMILES CC1=CCC(=C(C)C)C(=O)CC(C)=CCC1
REMARK SMILES IDX 12 1 14 2 13 3 15 4 16 5 2 6 1 7 3 8 11 10 9 11 10 12 5 13
REMARK SMILES IDX 6 14 7 15 8 16 4 17
REMARK H PARENT
REMARK Flexibility Score: 60.00
ROOT
ATOM      1  C   UNL     1     120.018 126.377 108.288  1.00  0.00    -0.070 C 
ATOM      2  C   UNL     1     118.781 126.716 108.722  1.00  0.00    -0.027 C 
ATOM      3  C   UNL     1     120.642 127.257 107.232  1.00  0.00     0.039 C 
ENDROOT
BRANCH   2   4
ATOM      4  C   UNL     1     117.986 126.016 109.794  1.00  0.00     0.032 C 
BRANCH   4   5
ATOM      5  C   UNL     1     117.004 124.933 109.286  1.00  0.00     0.034 C 
BRANCH   5   6
ATOM      6  C   UNL     1     116.786 124.900 107.779  1.00  0.00    -0.077 C 
ATOM      7  C   UNL     1     115.730 125.813 107.206  1.00  0.00     0.039 C 
ATOM      8  C   UNL     1     117.426 124.068 106.912  1.00  0.00    -0.023 CG0
ATOM      9  G   UNL     1     118.618 123.149 107.139  1.00  0.00     0.000 G0
ENDBRANCH   5   6
ENDBRANCH   4   5
ENDBRANCH   2   4
BRANCH   1  10
ATOM     10  C   UNL     1     120.843 125.210 108.820  1.00  0.00     0.111 C 
BRANCH  10  11
ATOM     11  C   UNL     1     120.937 123.988 107.935  1.00  0.00     0.163 C 
ATOM     12  O   UNL     1     121.860 123.172 108.203  1.00  0.00    -0.294 OA
BRANCH  11  13
ATOM     13  C   UNL     1     119.994 123.706 106.790  1.00  0.00    -0.002 C 
ATOM     14  C   UNL     1     120.360 123.898 105.483  1.00  0.00    -0.069 C 
ATOM     15  C   UNL     1     121.668 124.552 105.099  1.00  0.00     0.039 C 
ATOM     16  C   UNL     1     119.449 123.494 104.344  1.00  0.00     0.039 C 
BRANCH  13  17
ATOM     17  C   UNL     1     118.624 123.134 107.114  1.00  0.00     0.066 CG0
ATOM     18  G   UNL     1     117.428 124.051 106.898  1.00  0.00     0.000 G0
ENDBRANCH  13  17
ENDBRANCH  11  13
ENDBRANCH  10  11
ENDBRANCH   1  10
TORSDOF 0
ENDMDL
MODEL 5
REMARK VINA RESULT:    -3.479      1.562      3.918
REMARK INTER + INTRA:          -5.093
REMARK INTER:                  -4.845
REMARK INTRA:                  -0.248
REMARK UNBOUND:                -0.191
REMARK SMILES CC1=CCC(=C(C)C)C(=O)CC(C)=CCC1
REMARK SMILES IDX 12 1 14 2 13 3 15 4 16 5 2 6 1 7 3 8 11 10 9 11 10 12 5 13
REMARK SMILES IDX 6 14 7 15 8 16 4 17
REMARK H PARENT
REMARK Flexibility Score: 60.00
ROOT
ATOM      1  C   UNL     1     129.552 123.886  98.572  1.00  0.00    -0.070 C 
ATOM      2  C   UNL     1     128.875 122.714  98.569  1.00  0.00    -0.027 C 
ATOM      3  C   UNL     1     129.338 124.808  97.395  1.00  0.00     0.039 C 
ENDROOT
BRANCH   2   4
ATOM      4  C   UNL     1     128.897 121.664  99.650  1.00  0.00     0.032 C 
BRANCH   4   5
ATOM      5  C   UNL     1     129.705 120.388  99.313  1.00  0.00     0.034 C 
BRANCH   5   6
ATOM      6  C   UNL     1     131.045 120.253 100.024  1.00  0.00    -0.077 C 
ATOM      7  C   UNL     1     131.089 119.412 101.277  1.00  0.00     0.039 C 
ATOM      8  C   UNL     1     132.197 120.877  99.654  1.00  0.00    -0.023 CG0
ATOM      9  G   UNL     1     132.520 121.662  98.391  1.00  0.00     0.000 G0
ENDBRANCH   5   6
ENDBRANCH   4   5
ENDBRANCH   2   4
BRANCH   1  10
ATOM     10  C   UNL     1     130.471 124.363  99.691  1.00  0.00     0.111 C 
BRANCH  10  11
ATOM     11  C   UNL     1     131.885 123.830  99.680  1.00  0.00     0.163 C 
ATOM     12  O   UNL     1     132.531 123.932 100.759  1.00  0.00    -0.294 OA
BRANCH  11  13
ATOM     13  C   UNL     1     132.532 123.190  98.476  1.00  0.00    -0.002 C 
ATOM     14  C   UNL     1     133.160 123.930  97.508  1.00  0.00    -0.069 C 
ATOM     15  C   UNL     1     133.115 125.441  97.492  1.00  0.00     0.039 C 
ATOM     16  C   UNL     1     133.909 123.267  96.372  1.00  0.00     0.039 C 
BRANCH  13  17
ATOM     17  C   UNL     1     132.530 121.672  98.383  1.00  0.00     0.066 CG0
ATOM     18  G   UNL     1     132.188 120.907  99.653  1.00  0.00     0.000 G0
ENDBRANCH  13  17
ENDBRANCH  11  13
ENDBRANCH  10  11
ENDBRANCH   1  10
TORSDOF 0
ENDMDL
MODEL 6
REMARK VINA RESULT:    -3.440     12.847     15.971
REMARK INTER + INTRA:          -5.039
REMARK INTER:                  -4.785
REMARK INTRA:                  -0.254
REMARK UNBOUND:                -0.191
REMARK SMILES CC1=CCC(=C(C)C)C(=O)CC(C)=CCC1
REMARK SMILES IDX 12 1 14 2 13 3 15 4 16 5 2 6 1 7 3 8 11 10 9 11 10 12 5 13
REMARK SMILES IDX 6 14 7 15 8 16 4 17
REMARK H PARENT
REMARK Flexibility Score: 60.00
ROOT
ATOM      1  C   UNL     1     118.056 126.576 108.516  1.00  0.00    -0.070 C 
ATOM      2  C   UNL     1     119.332 127.005 108.377  1.00  0.00    -0.027 C 
ATOM      3  C   UNL     1     117.391 126.814 109.851  1.00  0.00     0.039 C 
ENDROOT
BRANCH   2   4
ATOM      4  C   UNL     1     120.176 126.916 107.132  1.00  0.00     0.032 C 
BRANCH   4   5
ATOM      5  C   UNL     1     121.227 125.780 107.126  1.00  0.00     0.034 C 
BRANCH   5   6
ATOM      6  C   UNL     1     120.838 124.530 106.349  1.00  0.00    -0.077 C 
ATOM      7  C   UNL     1     121.364 124.391 104.941  1.00  0.00     0.039 C 
ATOM      8  C   UNL     1     120.004 123.552 106.801  1.00  0.00    -0.023 CG0
ATOM      9  G   UNL     1     119.432 123.323 108.192  1.00  0.00     0.000 G0
ENDBRANCH   5   6
ENDBRANCH   4   5
ENDBRANCH   2   4
BRANCH   1  10
ATOM     10  C   UNL     1     117.228 125.920 107.416  1.00  0.00     0.111 C 
BRANCH  10  11
ATOM     11  C   UNL     1     117.231 124.409 107.376  1.00  0.00     0.163 C 
ATOM     12  O   UNL     1     116.597 123.873 106.426  1.00  0.00    -0.294 OA
BRANCH  11  13
ATOM     13  C   UNL     1     117.947 123.544 108.384  1.00  0.00    -0.002 C 
ATOM     14  C   UNL     1     117.286 122.934 109.418  1.00  0.00    -0.069 C 
ATOM     15  C   UNL     1     115.830 123.207 109.718  1.00  0.00     0.039 C 
ATOM     16  C   UNL     1     117.996 121.971 110.346  1.00  0.00     0.039 C 
BRANCH  13  17
ATOM     17  C   UNL     1     119.436 123.304 108.193  1.00  0.00     0.066 CG0
ATOM     18  G   UNL     1     119.996 123.539 106.798  1.00  0.00     0.000 G0
ENDBRANCH  13  17
ENDBRANCH  11  13
ENDBRANCH  10  11
ENDBRANCH   1  10
TORSDOF 0
ENDMDL
MODEL 7
REMARK VINA RESULT:    -3.369      1.599      4.231
REMARK INTER + INTRA:          -4.938
REMARK INTER:                  -5.105
REMARK INTRA:                   0.167
REMARK UNBOUND:                -0.191
REMARK SMILES CC1=CCC(=C(C)C)C(=O)CC(C)=CCC1
REMARK SMILES IDX 12 1 14 2 13 3 15 4 16 5 2 6 1 7 3 8 11 10 9 11 10 12 5 13
REMARK SMILES IDX 6 14 7 15 8 16 4 17
REMARK H PARENT
REMARK Flexibility Score: 60.00
ROOT
ATOM      1  C   UNL     1     128.906 119.897  99.836  1.00  0.00    -0.070 C 
ATOM      2  C   UNL     1     129.709 118.942  99.310  1.00  0.00    -0.027 C 
ATOM      3  C   UNL     1     128.105 119.523 101.060  1.00  0.00     0.039 C 
ENDROOT
BRANCH   2   4
ATOM      4  C   UNL     1     130.628 119.098  98.126  1.00  0.00     0.032 C 
BRANCH   4   5
ATOM      5  C   UNL     1     132.130 119.236  98.470  1.00  0.00     0.034 C 
BRANCH   5   6
ATOM      6  C   UNL     1     132.438 119.781  99.859  1.00  0.00    -0.077 C 
ATOM      7  C   UNL     1     132.725 118.781 100.953  1.00  0.00     0.039 C 
ATOM      8  C   UNL     1     132.417 121.096 100.208  1.00  0.00    -0.023 CG0
ATOM      9  G   UNL     1     132.306 122.337  99.335  1.00  0.00     0.000 G0
ENDBRANCH   5   6
ENDBRANCH   4   5
ENDBRANCH   2   4
BRANCH   1  10
ATOM     10  C   UNL     1     128.791 121.326  99.318  1.00  0.00     0.111 C 
BRANCH  10  11
ATOM     11  C   UNL     1     129.777 122.329  99.872  1.00  0.00     0.163 C 
ATOM     12  O   UNL     1     129.602 122.683 101.069  1.00  0.00    -0.294 OA
BRANCH  11  13
ATOM     13  C   UNL     1     130.932 122.894  99.082  1.00  0.00    -0.002 C 
ATOM     14  C   UNL     1     130.773 123.939  98.209  1.00  0.00    -0.069 C 
ATOM     15  C   UNL     1     129.412 124.496  97.856  1.00  0.00     0.039 C 
ATOM     16  C   UNL     1     131.960 124.575  97.519  1.00  0.00     0.039 C 
BRANCH  13  17
ATOM     17  C   UNL     1     132.317 122.315  99.321  1.00  0.00     0.066 CG0
ATOM     18  G   UNL     1     132.402 121.087 100.216  1.00  0.00     0.000 G0
ENDBRANCH  13  17
ENDBRANCH  11  13
ENDBRANCH  10  11
ENDBRANCH   1  10
TORSDOF 0
ENDMDL
MODEL 8
REMARK VINA RESULT:    -3.311      3.064      6.003
REMARK INTER + INTRA:          -4.857
REMARK INTER:                  -4.947
REMARK INTRA:                   0.090
REMARK UNBOUND:                -0.191
REMARK SMILES CC1=CCC(=C(C)C)C(=O)CC(C)=CCC1
REMARK SMILES IDX 12 1 14 2 13 3 15 4 16 5 2 6 1 7 3 8 11 10 9 11 10 12 5 13
REMARK SMILES IDX 6 14 7 15 8 16 4 17
REMARK H PARENT
REMARK Flexibility Score: 60.00
ROOT
ATOM      1  C   UNL     1     130.382 121.558  98.848  1.00  0.00    -0.070 C 
ATOM      2  C   UNL     1     131.154 120.446  98.813  1.00  0.00    -0.027 C 
ATOM      3  C   UNL     1     131.094 122.890  98.843  1.00  0.00     0.039 C 
ENDROOT
BRANCH   2   4
ATOM      4  C   UNL     1     130.668 119.021  98.766  1.00  0.00     0.032 C 
BRANCH   4   5
ATOM      5  C   UNL     1     130.710 118.265 100.116  1.00  0.00     0.034 C 
BRANCH   5   6
ATOM      6  C   UNL     1     130.535 119.130 101.358  1.00  0.00    -0.077 C 
ATOM      7  C   UNL     1     131.783 119.581 102.077  1.00  0.00     0.039 C 
ATOM      8  C   UNL     1     129.340 119.481 101.908  1.00  0.00    -0.023 CG0
ATOM      9  G   UNL     1     127.928 119.314 101.364  1.00  0.00     0.000 G0
ENDBRANCH   5   6
ENDBRANCH   4   5
ENDBRANCH   2   4
BRANCH   1  10
ATOM     10  C   UNL     1     128.858 121.566  98.843  1.00  0.00     0.111 C 
BRANCH  10  11
ATOM     11  C   UNL     1     128.176 121.623 100.190  1.00  0.00     0.163 C 
ATOM     12  O   UNL     1     128.382 122.660 100.878  1.00  0.00    -0.294 OA
BRANCH  11  13
ATOM     13  C   UNL     1     127.277 120.534 100.723  1.00  0.00    -0.002 C 
ATOM     14  C   UNL     1     125.913 120.595 100.605  1.00  0.00    -0.069 C 
ATOM     15  C   UNL     1     125.202 121.821 100.078  1.00  0.00     0.039 C 
ATOM     16  C   UNL     1     125.033 119.439 101.033  1.00  0.00     0.039 C 
BRANCH  13  17
ATOM     17  C   UNL     1     127.926 119.311 101.351  1.00  0.00     0.066 CG0
ATOM     18  G   UNL     1     129.329 119.492 101.913  1.00  0.00     0.000 G0
ENDBRANCH  13  17
ENDBRANCH  11  13
ENDBRANCH  10  11
ENDBRANCH   1  10
TORSDOF 0
ENDMDL
MODEL 9
REMARK VINA RESULT:    -3.265      1.599      2.043
REMARK INTER + INTRA:          -4.792
REMARK INTER:                  -4.635
REMARK INTRA:                  -0.157
REMARK UNBOUND:                -0.191
REMARK SMILES CC1=CCC(=C(C)C)C(=O)CC(C)=CCC1
REMARK SMILES IDX 12 1 14 2 13 3 15 4 16 5 2 6 1 7 3 8 11 10 9 11 10 12 5 13
REMARK SMILES IDX 6 14 7 15 8 16 4 17
REMARK H PARENT
REMARK Flexibility Score: 60.00
ROOT
ATOM      1  C   UNL     1     128.461 122.173  99.225  1.00  0.00    -0.070 C 
ATOM      2  C   UNL     1     128.555 123.468  98.844  1.00  0.00    -0.027 C 
ATOM      3  C   UNL     1     127.462 121.846 100.310  1.00  0.00     0.039 C 
ENDROOT
BRANCH   2   4
ATOM      4  C   UNL     1     129.443 124.020  97.759  1.00  0.00     0.032 C 
BRANCH   4   5
ATOM      5  C   UNL     1     130.652 124.850  98.254  1.00  0.00     0.034 C 
BRANCH   5   6
ATOM      6  C   UNL     1     132.007 124.165  98.146  1.00  0.00    -0.077 C 
ATOM      7  C   UNL     1     132.874 124.515  96.961  1.00  0.00     0.039 C 
ATOM      8  C   UNL     1     132.478 123.216  99.001  1.00  0.00    -0.023 CG0
ATOM      9  G   UNL     1     131.928 122.751 100.342  1.00  0.00     0.000 G0
ENDBRANCH   5   6
ENDBRANCH   4   5
ENDBRANCH   2   4
BRANCH   1  10
ATOM     10  C   UNL     1     129.247 121.020  98.610  1.00  0.00     0.111 C 
BRANCH  10  11
ATOM     11  C   UNL     1     130.682 120.865  99.058  1.00  0.00     0.163 C 
ATOM     12  O   UNL     1     131.453 120.257  98.266  1.00  0.00    -0.294 OA
BRANCH  11  13
ATOM     13  C   UNL     1     131.217 121.400 100.363  1.00  0.00    -0.002 C 
ATOM     14  C   UNL     1     131.124 120.691 101.533  1.00  0.00    -0.069 C 
ATOM     15  C   UNL     1     130.343 119.400 101.634  1.00  0.00     0.039 C 
ATOM     16  C   UNL     1     131.774 121.186 102.807  1.00  0.00     0.039 C 
BRANCH  13  17
ATOM     17  C   UNL     1     131.934 122.741 100.349  1.00  0.00     0.066 CG0
ATOM     18  G   UNL     1     132.483 123.211  99.010  1.00  0.00     0.000 G0
ENDBRANCH  13  17
ENDBRANCH  11  13
ENDBRANCH  10  11
ENDBRANCH   1  10
TORSDOF 0
ENDMDL
