MODEL 1
REMARK VINA RESULT:     3.060      0.000      0.000
REMARK INTER + INTRA:           4.121
REMARK INTER:                   4.312
REMARK INTRA:                  -0.191
REMARK UNBOUND:                -0.191
REMARK SMILES CCCCCCCCC(=O)[O-]
REMARK SMILES IDX 6 1 7 2 8 3 9 4 10 5 11 6 5 7 4 8 3 9 2 10 1 11
REMARK H PARENT
REMARK Flexibility Score: inf
ROOT
ATOM      1  C   UNL     1     -35.101  17.247  17.384  1.00  0.00     0.000 C 
ENDROOT
BRANCH   1   2
ATOM      2  C   UNL     1     -36.578  17.447  17.763  1.00  0.00     0.006 C 
BRANCH   2   3
ATOM      3  C   UNL     1     -37.439  16.213  17.458  1.00  0.00     0.053 C 
BRANCH   3   4
ATOM      4  C   UNL     1     -38.749  16.304  18.175  1.00  0.00     0.041 C 
ATOM      5  O   UNL     1     -39.687  16.994  17.694  1.00  0.00    -0.550 OA
ATOM      6  O   UNL     1     -38.953  15.588  19.347  1.00  0.00    -0.550 OA
ENDBRANCH   3   4
ENDBRANCH   2   3
ENDBRANCH   1   2
BRANCH   1   7
ATOM      7  C   UNL     1     -34.825  15.850  16.802  1.00  0.00     0.000 C 
BRANCH   7   8
ATOM      8  C   UNL     1     -34.166  14.905  17.821  1.00  0.00    -0.000 C 
BRANCH   8   9
ATOM      9  C   UNL     1     -33.708  13.580  17.188  1.00  0.00    -0.000 C 
BRANCH   9  10
ATOM     10  C   UNL     1     -32.616  12.880  18.014  1.00  0.00    -0.003 C 
ATOM     11  C   UNL     1     -33.109  12.433  19.390  1.00  0.00     0.004 C 
ENDBRANCH   9  10
ENDBRANCH   8   9
ENDBRANCH   7   8
ENDBRANCH   1   7
TORSDOF 7
ENDMDL
MODEL 2
REMARK VINA RESULT:     3.209      3.155      5.611
REMARK INTER + INTRA:           4.331
REMARK INTER:                   4.647
REMARK INTRA:                  -0.316
REMARK UNBOUND:                -0.191
REMARK SMILES CCCCCCCCC(=O)[O-]
REMARK SMILES IDX 6 1 7 2 8 3 9 4 10 5 11 6 5 7 4 8 3 9 2 10 1 11
REMARK H PARENT
REMARK Flexibility Score: inf
ROOT
ATOM      1  C   UNL     1     -34.353  14.901  17.636  1.00  0.00     0.000 C 
ENDROOT
BRANCH   1   2
ATOM      2  C   UNL     1     -33.507  13.901  16.829  1.00  0.00     0.006 C 
BRANCH   2   3
ATOM      3  C   UNL     1     -33.476  12.504  17.464  1.00  0.00     0.053 C 
BRANCH   3   4
ATOM      4  C   UNL     1     -32.755  12.544  18.774  1.00  0.00     0.041 C 
ATOM      5  O   UNL     1     -31.529  12.830  18.813  1.00  0.00    -0.550 OA
ATOM      6  O   UNL     1     -33.446  12.314  19.957  1.00  0.00    -0.550 OA
ENDBRANCH   3   4
ENDBRANCH   2   3
ENDBRANCH   1   2
BRANCH   1   7
ATOM      7  C   UNL     1     -34.974  15.997  16.752  1.00  0.00     0.000 C 
BRANCH   7   8
ATOM      8  C   UNL     1     -35.218  17.306  17.521  1.00  0.00    -0.000 C 
BRANCH   8   9
ATOM      9  C   UNL     1     -36.710  17.553  17.809  1.00  0.00    -0.000 C 
BRANCH   9  10
ATOM     10  C   UNL     1     -37.585  16.340  17.456  1.00  0.00    -0.003 C 
ATOM     11  C   UNL     1     -38.489  15.906  18.610  1.00  0.00     0.004 C 
ENDBRANCH   9  10
ENDBRANCH   8   9
ENDBRANCH   7   8
ENDBRANCH   1   7
TORSDOF 7
ENDMDL
MODEL 3
REMARK VINA RESULT:     3.268      3.264      5.822
REMARK INTER + INTRA:           4.414
REMARK INTER:                   4.642
REMARK INTRA:                  -0.228
REMARK UNBOUND:                -0.191
REMARK SMILES CCCCCCCCC(=O)[O-]
REMARK SMILES IDX 6 1 7 2 8 3 9 4 10 5 11 6 5 7 4 8 3 9 2 10 1 11
REMARK H PARENT
REMARK Flexibility Score: inf
ROOT
ATOM      1  C   UNL     1     -34.982  16.087  16.856  1.00  0.00     0.000 C 
ENDROOT
BRANCH   1   2
ATOM      2  C   UNL     1     -34.273  15.064  17.758  1.00  0.00     0.006 C 
BRANCH   2   3
ATOM      3  C   UNL     1     -33.916  13.768  17.017  1.00  0.00     0.053 C 
BRANCH   3   4
ATOM      4  C   UNL     1     -32.768  13.084  17.688  1.00  0.00     0.041 C 
ATOM      5  O   UNL     1     -31.643  13.033  17.123  1.00  0.00    -0.550 OA
ATOM      6  O   UNL     1     -32.924  12.545  18.959  1.00  0.00    -0.550 OA
ENDBRANCH   3   4
ENDBRANCH   2   3
ENDBRANCH   1   2
BRANCH   1   7
ATOM      7  C   UNL     1     -35.342  17.384  17.604  1.00  0.00     0.000 C 
BRANCH   7   8
ATOM      8  C   UNL     1     -36.860  17.578  17.752  1.00  0.00    -0.000 C 
BRANCH   8   9
ATOM      9  C   UNL     1     -37.628  16.244  17.768  1.00  0.00    -0.000 C 
BRANCH   9  10
ATOM     10  C   UNL     1     -39.092  16.414  18.205  1.00  0.00    -0.003 C 
ATOM     11  C   UNL     1     -39.935  17.164  17.173  1.00  0.00     0.004 C 
ENDBRANCH   9  10
ENDBRANCH   8   9
ENDBRANCH   7   8
ENDBRANCH   1   7
TORSDOF 7
ENDMDL
MODEL 4
REMARK VINA RESULT:     4.079      1.992      3.143
REMARK INTER + INTRA:           5.557
REMARK INTER:                   5.827
REMARK INTRA:                  -0.270
REMARK UNBOUND:                -0.191
REMARK SMILES CCCCCCCCC(=O)[O-]
REMARK SMILES IDX 6 1 7 2 8 3 9 4 10 5 11 6 5 7 4 8 3 9 2 10 1 11
REMARK H PARENT
REMARK Flexibility Score: inf
ROOT
ATOM      1  C   UNL     1     -34.014  14.166  16.290  1.00  0.00     0.000 C 
ENDROOT
BRANCH   1   2
ATOM      2  C   UNL     1     -34.510  15.253  17.258  1.00  0.00     0.006 C 
BRANCH   2   3
ATOM      3  C   UNL     1     -35.109  16.465  16.531  1.00  0.00     0.053 C 
BRANCH   3   4
ATOM      4  C   UNL     1     -35.746  17.397  17.512  1.00  0.00     0.041 C 
ATOM      5  O   UNL     1     -36.932  17.206  17.889  1.00  0.00    -0.550 OA
ATOM      6  O   UNL     1     -35.015  18.449  18.049  1.00  0.00    -0.550 OA
ENDBRANCH   3   4
ENDBRANCH   2   3
ENDBRANCH   1   2
BRANCH   1   7
ATOM      7  C   UNL     1     -33.571  12.885  17.018  1.00  0.00     0.000 C 
BRANCH   7   8
ATOM      8  C   UNL     1     -32.761  13.179  18.292  1.00  0.00    -0.000 C 
BRANCH   8   9
ATOM      9  C   UNL     1     -32.669  11.961  19.228  1.00  0.00    -0.000 C 
BRANCH   9  10
ATOM     10  C   UNL     1     -33.695  12.019  20.371  1.00  0.00    -0.003 C 
ATOM     11  C   UNL     1     -34.017  10.641  20.948  1.00  0.00     0.004 C 
ENDBRANCH   9  10
ENDBRANCH   8   9
ENDBRANCH   7   8
ENDBRANCH   1   7
TORSDOF 7
ENDMDL
MODEL 5
REMARK VINA RESULT:     4.096      3.053      5.612
REMARK INTER + INTRA:           5.581
REMARK INTER:                   5.843
REMARK INTRA:                  -0.262
REMARK UNBOUND:                -0.191
REMARK SMILES CCCCCCCCC(=O)[O-]
REMARK SMILES IDX 6 1 7 2 8 3 9 4 10 5 11 6 5 7 4 8 3 9 2 10 1 11
REMARK H PARENT
REMARK Flexibility Score: inf
ROOT
ATOM      1  C   UNL     1     -33.147  13.708  17.102  1.00  0.00     0.000 C 
ENDROOT
BRANCH   1   2
ATOM      2  C   UNL     1     -33.354  12.380  17.848  1.00  0.00     0.006 C 
BRANCH   2   3
ATOM      3  C   UNL     1     -32.605  12.331  19.188  1.00  0.00     0.053 C 
BRANCH   3   4
ATOM      4  C   UNL     1     -33.548  11.992  20.298  1.00  0.00     0.041 C 
ATOM      5  O   UNL     1     -33.924  12.884  21.105  1.00  0.00    -0.550 OA
ATOM      6  O   UNL     1     -34.052  10.703  20.415  1.00  0.00    -0.550 OA
ENDBRANCH   3   4
ENDBRANCH   2   3
ENDBRANCH   1   2
BRANCH   1   7
ATOM      7  C   UNL     1     -34.475  14.412  16.769  1.00  0.00     0.000 C 
BRANCH   7   8
ATOM      8  C   UNL     1     -34.774  15.586  17.716  1.00  0.00    -0.000 C 
BRANCH   8   9
ATOM      9  C   UNL     1     -35.340  16.812  16.976  1.00  0.00    -0.000 C 
BRANCH   9  10
ATOM     10  C   UNL     1     -36.573  17.403  17.678  1.00  0.00    -0.003 C 
ATOM     11  C   UNL     1     -37.704  16.388  17.845  1.00  0.00     0.004 C 
ENDBRANCH   9  10
ENDBRANCH   8   9
ENDBRANCH   7   8
ENDBRANCH   1   7
TORSDOF 7
ENDMDL
