MODEL 1
REMARK VINA RESULT:    -2.361      0.000      0.000
REMARK INTER + INTRA:          -3.950
REMARK INTER:                  -3.603
REMARK INTRA:                  -0.347
REMARK UNBOUND:                -0.347
REMARK SMILES CC1=CCC[C@@H](C)C(=O)C[C@@H](C(C)C)C(=O)C1
REMARK SMILES IDX 8 1 9 2 6 3 7 4 5 5 4 6 3 7 2 8 1 9 10 11 11 12 15 13 16 14
REMARK SMILES IDX 17 15 12 17 13 18 14 19
REMARK H PARENT
REMARK Flexibility Score: 70.00
ROOT
ATOM      1  C   UNL     1      80.679   2.678  67.005  1.00  0.00     0.136 C 
ATOM      2  O   UNL     1      81.520   3.333  67.606  1.00  0.00    -0.299 OA
ENDROOT
BRANCH   1   3
ATOM      3  C   UNL     1      80.019   1.510  67.717  1.00  0.00     0.053 C 
ATOM      4  C   UNL     1      79.045   2.021  68.784  1.00  0.00     0.016 C 
BRANCH   3   5
ATOM      5  C   UNL     1      81.043   0.535  68.330  1.00  0.00     0.015 C 
BRANCH   5   6
ATOM      6  C   UNL     1      81.410  -0.603  67.360  1.00  0.00     0.028 C 
BRANCH   6   7
ATOM      7  C   UNL     1      80.204  -1.236  66.714  1.00  0.00    -0.028 C 
ATOM      8  C   UNL     1      79.778  -1.022  65.443  1.00  0.00    -0.070 CG0
ATOM      9  C   UNL     1      78.478  -1.671  65.033  1.00  0.00     0.039 C 
ATOM     10  G   UNL     1      80.557  -0.230  64.395  1.00  0.00     0.000 G0
ENDBRANCH   6   7
ENDBRANCH   5   6
ENDBRANCH   3   5
ENDBRANCH   1   3
BRANCH   1  11
ATOM     11  C   UNL     1      80.386   3.019  65.561  1.00  0.00     0.087 C 
BRANCH  11  12
ATOM     12  C   UNL     1      79.321   2.083  64.924  1.00  0.00     0.066 C 
BRANCH  12  13
ATOM     13  C   UNL     1      79.899   1.077  63.933  1.00  0.00     0.140 C 
ATOM     14  O   UNL     1      79.952   1.389  62.751  1.00  0.00    -0.299 OA
BRANCH  13  15
ATOM     15  C   UNL     1      80.545  -0.219  64.366  1.00  0.00     0.106 CG0
ATOM     16  G   UNL     1      79.768  -0.980  65.438  1.00  0.00     0.000 G0
ENDBRANCH  13  15
ENDBRANCH  12  13
BRANCH  12  17
ATOM     17  C   UNL     1      78.103   2.846  64.306  1.00  0.00    -0.006 C 
ATOM     18  C   UNL     1      76.769   2.197  64.707  1.00  0.00     0.008 C 
ATOM     19  C   UNL     1      78.066   4.349  64.640  1.00  0.00     0.008 C 
ENDBRANCH  12  17
ENDBRANCH  11  12
ENDBRANCH   1  11
TORSDOF 1
ENDMDL
MODEL 2
REMARK VINA RESULT:    -2.196      2.444      4.926
REMARK INTER + INTRA:          -3.699
REMARK INTER:                  -3.547
REMARK INTRA:                  -0.152
REMARK UNBOUND:                -0.347
REMARK SMILES CC1=CCC[C@@H](C)C(=O)C[C@@H](C(C)C)C(=O)C1
REMARK SMILES IDX 8 1 9 2 6 3 7 4 5 5 4 6 3 7 2 8 1 9 10 11 11 12 15 13 16 14
REMARK SMILES IDX 17 15 12 17 13 18 14 19
REMARK H PARENT
REMARK Flexibility Score: 70.00
ROOT
ATOM      1  C   UNL     1      80.203   0.735  65.802  1.00  0.00     0.136 C 
ATOM      2  O   UNL     1      79.788   0.381  64.707  1.00  0.00    -0.299 OA
ENDROOT
BRANCH   1   3
ATOM      3  C   UNL     1      79.950   2.163  66.252  1.00  0.00     0.053 C 
ATOM      4  C   UNL     1      79.999   3.114  65.050  1.00  0.00     0.016 C 
BRANCH   3   5
ATOM      5  C   UNL     1      80.927   2.620  67.353  1.00  0.00     0.015 C 
BRANCH   5   6
ATOM      6  C   UNL     1      80.374   2.351  68.764  1.00  0.00     0.028 C 
BRANCH   6   7
ATOM      7  C   UNL     1      78.868   2.382  68.819  1.00  0.00    -0.028 C 
ATOM      8  C   UNL     1      78.051   1.298  68.856  1.00  0.00    -0.070 CG0
ATOM      9  C   UNL     1      76.564   1.552  68.793  1.00  0.00     0.039 C 
ATOM     10  G   UNL     1      78.535  -0.140  69.023  1.00  0.00     0.000 G0
ENDBRANCH   6   7
ENDBRANCH   5   6
ENDBRANCH   3   5
ENDBRANCH   1   3
BRANCH   1  11
ATOM     11  C   UNL     1      81.009  -0.245  66.627  1.00  0.00     0.087 C 
BRANCH  11  12
ATOM     12  C   UNL     1      80.135  -1.367  67.254  1.00  0.00     0.066 C 
BRANCH  12  13
ATOM     13  C   UNL     1      78.754  -0.895  67.701  1.00  0.00     0.140 C 
ATOM     14  O   UNL     1      77.782  -1.224  67.036  1.00  0.00    -0.299 OA
BRANCH  13  15
ATOM     15  C   UNL     1      78.521  -0.171  69.007  1.00  0.00     0.106 CG0
ATOM     16  G   UNL     1      78.066   1.278  68.851  1.00  0.00     0.000 G0
ENDBRANCH  13  15
ENDBRANCH  12  13
BRANCH  12  17
ATOM     17  C   UNL     1      80.855  -2.159  68.395  1.00  0.00    -0.006 C 
ATOM     18  C   UNL     1      81.121  -3.617  67.986  1.00  0.00     0.008 C 
ATOM     19  C   UNL     1      82.164  -1.514  68.882  1.00  0.00     0.008 C 
ENDBRANCH  12  17
ENDBRANCH  11  12
ENDBRANCH   1  11
TORSDOF 1
ENDMDL
MODEL 3
REMARK VINA RESULT:    -2.040     18.175     19.968
REMARK INTER + INTRA:          -3.460
REMARK INTER:                  -3.402
REMARK INTRA:                  -0.058
REMARK UNBOUND:                -0.347
REMARK SMILES CC1=CCC[C@@H](C)C(=O)C[C@@H](C(C)C)C(=O)C1
REMARK SMILES IDX 8 1 9 2 6 3 7 4 5 5 4 6 3 7 2 8 1 9 10 11 11 12 15 13 16 14
REMARK SMILES IDX 17 15 12 17 13 18 14 19
REMARK H PARENT
REMARK Flexibility Score: 70.00
ROOT
ATOM      1  C   UNL     1      64.635   4.363  50.825  1.00  0.00     0.136 C 
ATOM      2  O   UNL     1      63.815   5.236  50.581  1.00  0.00    -0.299 OA
ENDROOT
BRANCH   1   3
ATOM      3  C   UNL     1      65.264   3.607  49.668  1.00  0.00     0.053 C 
ATOM      4  C   UNL     1      65.304   2.105  49.974  1.00  0.00     0.016 C 
BRANCH   3   5
ATOM      5  C   UNL     1      66.669   4.131  49.311  1.00  0.00     0.015 C 
BRANCH   5   6
ATOM      6  C   UNL     1      67.753   3.557  50.241  1.00  0.00     0.028 C 
BRANCH   6   7
ATOM      7  C   UNL     1      68.807   4.570  50.609  1.00  0.00    -0.028 C 
ATOM      8  C   UNL     1      68.837   5.309  51.747  1.00  0.00    -0.070 CG0
ATOM      9  C   UNL     1      69.924   6.350  51.865  1.00  0.00     0.039 C 
ATOM     10  G   UNL     1      67.891   5.110  52.928  1.00  0.00     0.000 G0
ENDBRANCH   6   7
ENDBRANCH   5   6
ENDBRANCH   3   5
ENDBRANCH   1   3
BRANCH   1  11
ATOM     11  C   UNL     1      64.934   4.028  52.270  1.00  0.00     0.087 C 
BRANCH  11  12
ATOM     12  C   UNL     1      65.233   5.288  53.132  1.00  0.00     0.066 C 
BRANCH  12  13
ATOM     13  C   UNL     1      66.601   5.908  52.863  1.00  0.00     0.140 C 
ATOM     14  O   UNL     1      66.670   7.118  52.701  1.00  0.00    -0.299 OA
BRANCH  13  15
ATOM     15  C   UNL     1      67.886   5.116  52.942  1.00  0.00     0.106 CG0
ATOM     16  G   UNL     1      68.831   5.334  51.764  1.00  0.00     0.000 G0
ENDBRANCH  13  15
ENDBRANCH  12  13
BRANCH  12  17
ATOM     17  C   UNL     1      65.005   5.068  54.664  1.00  0.00    -0.006 C 
ATOM     18  C   UNL     1      64.582   6.371  55.363  1.00  0.00     0.008 C 
ATOM     19  C   UNL     1      63.997   3.953  54.998  1.00  0.00     0.008 C 
ENDBRANCH  12  17
ENDBRANCH  11  12
ENDBRANCH   1  11
TORSDOF 1
ENDMDL
MODEL 4
REMARK VINA RESULT:    -2.024     16.065     18.447
REMARK INTER + INTRA:          -3.436
REMARK INTER:                  -3.110
REMARK INTRA:                  -0.326
REMARK UNBOUND:                -0.347
REMARK SMILES CC1=CCC[C@@H](C)C(=O)C[C@@H](C(C)C)C(=O)C1
REMARK SMILES IDX 8 1 9 2 6 3 7 4 5 5 4 6 3 7 2 8 1 9 10 11 11 12 15 13 16 14
REMARK SMILES IDX 17 15 12 17 13 18 14 19
REMARK H PARENT
REMARK Flexibility Score: 70.00
ROOT
ATOM      1  C   UNL     1      70.784  -8.306  52.070  1.00  0.00     0.136 C 
ATOM      2  O   UNL     1      69.824  -7.570  52.244  1.00  0.00    -0.299 OA
ENDROOT
BRANCH   1   3
ATOM      3  C   UNL     1      71.338  -9.078  53.255  1.00  0.00     0.053 C 
ATOM      4  C   UNL     1      70.428 -10.266  53.586  1.00  0.00     0.016 C 
BRANCH   3   5
ATOM      5  C   UNL     1      71.550  -8.187  54.495  1.00  0.00     0.015 C 
BRANCH   5   6
ATOM      6  C   UNL     1      73.037  -7.858  54.723  1.00  0.00     0.028 C 
BRANCH   6   7
ATOM      7  C   UNL     1      73.487  -6.628  53.977  1.00  0.00    -0.028 C 
ATOM      8  C   UNL     1      74.280  -6.611  52.876  1.00  0.00    -0.070 CG0
ATOM      9  C   UNL     1      74.705  -5.260  52.353  1.00  0.00     0.039 C 
ATOM     10  G   UNL     1      74.709  -7.856  52.104  1.00  0.00     0.000 G0
ENDBRANCH   6   7
ENDBRANCH   5   6
ENDBRANCH   3   5
ENDBRANCH   1   3
BRANCH   1  11
ATOM     11  C   UNL     1      71.418  -8.363  50.697  1.00  0.00     0.087 C 
BRANCH  11  12
ATOM     12  C   UNL     1      72.807  -9.062  50.703  1.00  0.00     0.066 C 
BRANCH  12  13
ATOM     13  C   UNL     1      73.982  -8.095  50.823  1.00  0.00     0.140 C 
ATOM     14  O   UNL     1      74.259  -7.393  49.861  1.00  0.00    -0.299 OA
BRANCH  13  15
ATOM     15  C   UNL     1      74.718  -7.862  52.122  1.00  0.00     0.106 CG0
ATOM     16  G   UNL     1      74.295  -6.597  52.865  1.00  0.00     0.000 G0
ENDBRANCH  13  15
ENDBRANCH  12  13
BRANCH  12  17
ATOM     17  C   UNL     1      73.014 -10.055  49.512  1.00  0.00    -0.006 C 
ATOM     18  C   UNL     1      74.363 -10.785  49.616  1.00  0.00     0.008 C 
ATOM     19  C   UNL     1      71.882 -11.085  49.346  1.00  0.00     0.008 C 
ENDBRANCH  12  17
ENDBRANCH  11  12
ENDBRANCH   1  11
TORSDOF 1
ENDMDL
MODEL 5
REMARK VINA RESULT:    -1.988      4.273      6.796
REMARK INTER + INTRA:          -3.380
REMARK INTER:                  -3.049
REMARK INTRA:                  -0.332
REMARK UNBOUND:                -0.347
REMARK SMILES CC1=CCC[C@@H](C)C(=O)C[C@@H](C(C)C)C(=O)C1
REMARK SMILES IDX 8 1 9 2 6 3 7 4 5 5 4 6 3 7 2 8 1 9 10 11 11 12 15 13 16 14
REMARK SMILES IDX 17 15 12 17 13 18 14 19
REMARK H PARENT
REMARK Flexibility Score: 70.00
ROOT
ATOM      1  C   UNL     1      80.678   4.409  61.353  1.00  0.00     0.136 C 
ATOM      2  O   UNL     1      81.614   5.009  60.843  1.00  0.00    -0.299 OA
ENDROOT
BRANCH   1   3
ATOM      3  C   UNL     1      79.841   3.486  60.483  1.00  0.00     0.053 C 
ATOM      4  C   UNL     1      80.514   2.114  60.366  1.00  0.00     0.016 C 
BRANCH   3   5
ATOM      5  C   UNL     1      79.559   4.080  59.089  1.00  0.00     0.015 C 
BRANCH   5   6
ATOM      6  C   UNL     1      78.357   5.042  59.103  1.00  0.00     0.028 C 
BRANCH   6   7
ATOM      7  C   UNL     1      77.140   4.450  59.767  1.00  0.00    -0.028 C 
ATOM      8  C   UNL     1      76.683   4.755  61.008  1.00  0.00    -0.070 CG0
ATOM      9  C   UNL     1      75.509   3.960  61.526  1.00  0.00     0.039 C 
ATOM     10  G   UNL     1      77.234   5.884  61.875  1.00  0.00     0.000 G0
ENDBRANCH   6   7
ENDBRANCH   5   6
ENDBRANCH   3   5
ENDBRANCH   1   3
BRANCH   1  11
ATOM     11  C   UNL     1      80.353   4.667  62.808  1.00  0.00     0.087 C 
BRANCH  11  12
ATOM     12  C   UNL     1      78.905   4.249  63.186  1.00  0.00     0.066 C 
BRANCH  12  13
ATOM     13  C   UNL     1      77.906   5.403  63.171  1.00  0.00     0.140 C 
ATOM     14  O   UNL     1      77.745   6.048  64.198  1.00  0.00    -0.299 OA
BRANCH  13  15
ATOM     15  C   UNL     1      77.226   5.878  61.908  1.00  0.00     0.106 CG0
ATOM     16  G   UNL     1      76.691   4.755  61.022  1.00  0.00     0.000 G0
ENDBRANCH  13  15
ENDBRANCH  12  13
BRANCH  12  17
ATOM     17  C   UNL     1      78.813   3.444  64.525  1.00  0.00    -0.006 C 
ATOM     18  C   UNL     1      78.011   2.145  64.347  1.00  0.00     0.008 C 
ATOM     19  C   UNL     1      80.177   3.125  65.163  1.00  0.00     0.008 C 
ENDBRANCH  12  17
ENDBRANCH  11  12
ENDBRANCH   1  11
TORSDOF 1
ENDMDL
MODEL 6
REMARK VINA RESULT:    -1.954      2.267      4.419
REMARK INTER + INTRA:          -3.329
REMARK INTER:                  -2.822
REMARK INTRA:                  -0.507
REMARK UNBOUND:                -0.347
REMARK SMILES CC1=CCC[C@@H](C)C(=O)C[C@@H](C(C)C)C(=O)C1
REMARK SMILES IDX 8 1 9 2 6 3 7 4 5 5 4 6 3 7 2 8 1 9 10 11 11 12 15 13 16 14
REMARK SMILES IDX 17 15 12 17 13 18 14 19
REMARK H PARENT
REMARK Flexibility Score: 70.00
ROOT
ATOM      1  C   UNL     1      79.373  -0.977  64.490  1.00  0.00     0.136 C 
ATOM      2  O   UNL     1      78.453  -1.377  63.791  1.00  0.00    -0.299 OA
ENDROOT
BRANCH   1   3
ATOM      3  C   UNL     1      80.742  -0.787  63.859  1.00  0.00     0.053 C 
ATOM      4  C   UNL     1      80.596  -0.416  62.379  1.00  0.00     0.016 C 
BRANCH   3   5
ATOM      5  C   UNL     1      81.649  -2.021  64.029  1.00  0.00     0.015 C 
BRANCH   5   6
ATOM      6  C   UNL     1      82.719  -1.806  65.115  1.00  0.00     0.028 C 
BRANCH   6   7
ATOM      7  C   UNL     1      82.440  -2.584  66.376  1.00  0.00    -0.028 C 
ATOM      8  C   UNL     1      82.262  -2.057  67.613  1.00  0.00    -0.070 CG0
ATOM      9  C   UNL     1      82.107  -3.025  68.761  1.00  0.00     0.039 C 
ATOM     10  G   UNL     1      82.143  -0.563  67.904  1.00  0.00     0.000 G0
ENDBRANCH   6   7
ENDBRANCH   5   6
ENDBRANCH   3   5
ENDBRANCH   1   3
BRANCH   1  11
ATOM     11  C   UNL     1      79.123  -0.754  65.966  1.00  0.00     0.087 C 
BRANCH  11  12
ATOM     12  C   UNL     1      80.023   0.360  66.569  1.00  0.00     0.066 C 
BRANCH  12  13
ATOM     13  C   UNL     1      80.714  -0.043  67.870  1.00  0.00     0.140 C 
ATOM     14  O   UNL     1      80.052  -0.065  68.898  1.00  0.00    -0.299 OA
BRANCH  13  15
ATOM     15  C   UNL     1      82.133  -0.561  67.914  1.00  0.00     0.106 CG0
ATOM     16  G   UNL     1      82.267  -2.053  67.615  1.00  0.00     0.000 G0
ENDBRANCH  13  15
ENDBRANCH  12  13
BRANCH  12  17
ATOM     17  C   UNL     1      79.300   1.739  66.721  1.00  0.00    -0.006 C 
ATOM     18  C   UNL     1      79.793   2.752  65.675  1.00  0.00     0.008 C 
ATOM     19  C   UNL     1      77.764   1.653  66.671  1.00  0.00     0.008 C 
ENDBRANCH  12  17
ENDBRANCH  11  12
ENDBRANCH   1  11
TORSDOF 1
ENDMDL
MODEL 7
REMARK VINA RESULT:    -1.908     17.308     19.173
REMARK INTER + INTRA:          -3.259
REMARK INTER:                  -3.120
REMARK INTRA:                  -0.139
REMARK UNBOUND:                -0.347
REMARK SMILES CC1=CCC[C@@H](C)C(=O)C[C@@H](C(C)C)C(=O)C1
REMARK SMILES IDX 8 1 9 2 6 3 7 4 5 5 4 6 3 7 2 8 1 9 10 11 11 12 15 13 16 14
REMARK SMILES IDX 17 15 12 17 13 18 14 19
REMARK H PARENT
REMARK Flexibility Score: 70.00
ROOT
ATOM      1  C   UNL     1      66.835  -7.869  53.998  1.00  0.00     0.136 C 
ATOM      2  O   UNL     1      65.835  -8.445  54.403  1.00  0.00    -0.299 OA
ENDROOT
BRANCH   1   3
ATOM      3  C   UNL     1      66.869  -6.351  54.036  1.00  0.00     0.053 C 
ATOM      4  C   UNL     1      65.681  -5.814  54.842  1.00  0.00     0.016 C 
BRANCH   3   5
ATOM      5  C   UNL     1      66.906  -5.724  52.628  1.00  0.00     0.015 C 
BRANCH   5   6
ATOM      6  C   UNL     1      68.158  -4.853  52.417  1.00  0.00     0.028 C 
BRANCH   6   7
ATOM      7  C   UNL     1      68.909  -5.201  51.156  1.00  0.00    -0.028 C 
ATOM      8  C   UNL     1      70.094  -5.859  51.092  1.00  0.00    -0.070 CG0
ATOM      9  C   UNL     1      70.730  -6.004  49.731  1.00  0.00     0.039 C 
ATOM     10  G   UNL     1      70.783  -6.512  52.288  1.00  0.00     0.000 G0
ENDBRANCH   6   7
ENDBRANCH   5   6
ENDBRANCH   3   5
ENDBRANCH   1   3
BRANCH   1  11
ATOM     11  C   UNL     1      67.963  -8.691  53.415  1.00  0.00     0.087 C 
BRANCH  11  12
ATOM     12  C   UNL     1      69.367  -8.166  53.826  1.00  0.00     0.066 C 
BRANCH  12  13
ATOM     13  C   UNL     1      70.294  -7.894  52.644  1.00  0.00     0.140 C 
ATOM     14  O   UNL     1      70.544  -8.813  51.878  1.00  0.00    -0.299 OA
BRANCH  13  15
ATOM     15  C   UNL     1      70.788  -6.509  52.296  1.00  0.00     0.106 CG0
ATOM     16  G   UNL     1      70.097  -5.881  51.088  1.00  0.00     0.000 G0
ENDBRANCH  13  15
ENDBRANCH  12  13
BRANCH  12  17
ATOM     17  C   UNL     1      70.076  -9.050  54.905  1.00  0.00    -0.006 C 
ATOM     18  C   UNL     1      69.892 -10.548  54.616  1.00  0.00     0.008 C 
ATOM     19  C   UNL     1      71.573  -8.740  55.090  1.00  0.00     0.008 C 
ENDBRANCH  12  17
ENDBRANCH  11  12
ENDBRANCH   1  11
TORSDOF 1
ENDMDL
MODEL 8
REMARK VINA RESULT:    -1.868      3.075      5.117
REMARK INTER + INTRA:          -3.198
REMARK INTER:                  -3.043
REMARK INTRA:                  -0.155
REMARK UNBOUND:                -0.347
REMARK SMILES CC1=CCC[C@@H](C)C(=O)C[C@@H](C(C)C)C(=O)C1
REMARK SMILES IDX 8 1 9 2 6 3 7 4 5 5 4 6 3 7 2 8 1 9 10 11 11 12 15 13 16 14
REMARK SMILES IDX 17 15 12 17 13 18 14 19
REMARK H PARENT
REMARK Flexibility Score: 70.00
ROOT
ATOM      1  C   UNL     1      78.941   0.929  63.070  1.00  0.00     0.136 C 
ATOM      2  O   UNL     1      77.848   0.542  63.460  1.00  0.00    -0.299 OA
ENDROOT
BRANCH   1   3
ATOM      3  C   UNL     1      80.133   0.811  64.005  1.00  0.00     0.053 C 
ATOM      4  C   UNL     1      80.584  -0.650  64.107  1.00  0.00     0.016 C 
BRANCH   3   5
ATOM      5  C   UNL     1      79.850   1.397  65.402  1.00  0.00     0.015 C 
BRANCH   5   6
ATOM      6  C   UNL     1      79.961   2.933  65.418  1.00  0.00     0.028 C 
BRANCH   6   7
ATOM      7  C   UNL     1      78.635   3.619  65.210  1.00  0.00    -0.028 C 
ATOM      8  C   UNL     1      78.368   4.569  64.277  1.00  0.00    -0.070 CG0
ATOM      9  C   UNL     1      77.002   5.209  64.315  1.00  0.00     0.039 C 
ATOM     10  G   UNL     1      79.331   4.978  63.165  1.00  0.00     0.000 G0
ENDBRANCH   6   7
ENDBRANCH   5   6
ENDBRANCH   3   5
ENDBRANCH   1   3
BRANCH   1  11
ATOM     11  C   UNL     1      79.042   1.568  61.703  1.00  0.00     0.087 C 
BRANCH  11  12
ATOM     12  C   UNL     1      79.948   2.832  61.694  1.00  0.00     0.066 C 
BRANCH  12  13
ATOM     13  C   UNL     1      79.186   4.138  61.895  1.00  0.00     0.140 C 
ATOM     14  O   UNL     1      78.341   4.452  61.068  1.00  0.00    -0.299 OA
BRANCH  13  15
ATOM     15  C   UNL     1      79.320   4.979  63.143  1.00  0.00     0.106 CG0
ATOM     16  G   UNL     1      78.376   4.579  64.274  1.00  0.00     0.000 G0
ENDBRANCH  13  15
ENDBRANCH  12  13
BRANCH  12  17
ATOM     17  C   UNL     1      80.893   2.917  60.450  1.00  0.00    -0.006 C 
ATOM     18  C   UNL     1      80.319   2.142  59.252  1.00  0.00     0.008 C 
ATOM     19  C   UNL     1      81.237   4.353  60.017  1.00  0.00     0.008 C 
ENDBRANCH  12  17
ENDBRANCH  11  12
ENDBRANCH   1  11
TORSDOF 1
ENDMDL
MODEL 9
REMARK VINA RESULT:    -1.833     17.101     19.831
REMARK INTER + INTRA:          -3.145
REMARK INTER:                  -2.699
REMARK INTRA:                  -0.446
REMARK UNBOUND:                -0.347
REMARK SMILES CC1=CCC[C@@H](C)C(=O)C[C@@H](C(C)C)C(=O)C1
REMARK SMILES IDX 8 1 9 2 6 3 7 4 5 5 4 6 3 7 2 8 1 9 10 11 11 12 15 13 16 14
REMARK SMILES IDX 17 15 12 17 13 18 14 19
REMARK H PARENT
REMARK Flexibility Score: 70.00
ROOT
ATOM      1  C   UNL     1      67.413   3.520  50.551  1.00  0.00     0.136 C 
ATOM      2  O   UNL     1      68.269   2.689  50.821  1.00  0.00    -0.299 OA
ENDROOT
BRANCH   1   3
ATOM      3  C   UNL     1      66.243   3.106  49.675  1.00  0.00     0.053 C 
ATOM      4  C   UNL     1      65.564   4.344  49.078  1.00  0.00     0.016 C 
BRANCH   3   5
ATOM      5  C   UNL     1      65.223   2.228  50.426  1.00  0.00     0.015 C 
BRANCH   5   6
ATOM      6  C   UNL     1      64.085   3.063  51.041  1.00  0.00     0.028 C 
BRANCH   6   7
ATOM      7  C   UNL     1      64.095   3.049  52.548  1.00  0.00    -0.028 C 
ATOM      8  C   UNL     1      64.565   4.039  53.350  1.00  0.00    -0.070 CG0
ATOM      9  C   UNL     1      64.586   3.772  54.835  1.00  0.00     0.039 C 
ATOM     10  G   UNL     1      65.007   5.413  52.853  1.00  0.00     0.000 G0
ENDBRANCH   6   7
ENDBRANCH   5   6
ENDBRANCH   3   5
ENDBRANCH   1   3
BRANCH   1  11
ATOM     11  C   UNL     1      67.595   4.939  51.045  1.00  0.00     0.087 C 
BRANCH  11  12
ATOM     12  C   UNL     1      67.650   5.035  52.595  1.00  0.00     0.066 C 
BRANCH  12  13
ATOM     13  C   UNL     1      66.452   5.754  53.210  1.00  0.00     0.140 C 
ATOM     14  O   UNL     1      66.659   6.725  53.923  1.00  0.00    -0.299 OA
BRANCH  13  15
ATOM     15  C   UNL     1      65.024   5.412  52.855  1.00  0.00     0.106 CG0
ATOM     16  G   UNL     1      64.569   4.035  53.333  1.00  0.00     0.000 G0
ENDBRANCH  13  15
ENDBRANCH  12  13
BRANCH  12  17
ATOM     17  C   UNL     1      68.996   5.617  53.140  1.00  0.00    -0.006 C 
ATOM     18  C   UNL     1      69.957   4.500  53.577  1.00  0.00     0.008 C 
ATOM     19  C   UNL     1      69.716   6.563  52.163  1.00  0.00     0.008 C 
ENDBRANCH  12  17
ENDBRANCH  11  12
ENDBRANCH   1  11
TORSDOF 1
ENDMDL
