MODEL 1
REMARK VINA RESULT:    -3.741      0.000      0.000
REMARK INTER + INTRA:          -5.176
REMARK INTER:                  -4.834
REMARK INTRA:                  -0.342
REMARK UNBOUND:                -0.342
REMARK SMILES CCCCCCC(=O)[O-]
REMARK SMILES IDX 5 1 6 2 7 3 8 4 9 5 4 6 3 7 2 8 1 9
REMARK H PARENT
REMARK Flexibility Score: inf
ROOT
ATOM      1  C   UNL     1      52.185 -51.727  -8.797  1.00  0.00     0.006 C 
ENDROOT
BRANCH   1   2
ATOM      2  C   UNL     1      53.253 -51.188  -9.757  1.00  0.00     0.053 C 
BRANCH   2   3
ATOM      3  C   UNL     1      52.769 -51.267 -11.171  1.00  0.00     0.041 C 
ATOM      4  O   UNL     1      53.538 -51.668 -12.084  1.00  0.00    -0.550 OA
ATOM      5  O   UNL     1      51.482 -50.851 -11.489  1.00  0.00    -0.550 OA
ENDBRANCH   2   3
ENDBRANCH   1   2
BRANCH   1   6
ATOM      6  C   UNL     1      51.401 -50.607  -8.092  1.00  0.00     0.000 C 
BRANCH   6   7
ATOM      7  C   UNL     1      52.088 -49.237  -8.219  1.00  0.00    -0.000 C 
BRANCH   7   8
ATOM      8  C   UNL     1      51.278 -48.248  -9.072  1.00  0.00    -0.003 C 
ATOM      9  C   UNL     1      52.097 -47.633 -10.206  1.00  0.00     0.004 C 
ENDBRANCH   7   8
ENDBRANCH   6   7
ENDBRANCH   1   6
TORSDOF 5
ENDMDL
MODEL 2
REMARK VINA RESULT:    -3.575      2.595      4.108
REMARK INTER + INTRA:          -4.962
REMARK INTER:                  -4.716
REMARK INTRA:                  -0.246
REMARK UNBOUND:                -0.342
REMARK SMILES CCCCCCC(=O)[O-]
REMARK SMILES IDX 5 1 6 2 7 3 8 4 9 5 4 6 3 7 2 8 1 9
REMARK H PARENT
REMARK Flexibility Score: inf
ROOT
ATOM      1  C   UNL     1      52.385 -48.530  -9.564  1.00  0.00     0.006 C 
ENDROOT
BRANCH   1   2
ATOM      2  C   UNL     1      51.048 -47.931  -9.106  1.00  0.00     0.053 C 
BRANCH   2   3
ATOM      3  C   UNL     1      50.440 -47.118 -10.205  1.00  0.00     0.041 C 
ATOM      4  O   UNL     1      50.931 -46.001 -10.515  1.00  0.00    -0.550 OA
ATOM      5  O   UNL     1      49.298 -47.571 -10.855  1.00  0.00    -0.550 OA
ENDBRANCH   2   3
ENDBRANCH   1   2
BRANCH   1   6
ATOM      6  C   UNL     1      52.942 -49.564  -8.572  1.00  0.00     0.000 C 
BRANCH   6   7
ATOM      7  C   UNL     1      53.096 -50.961  -9.200  1.00  0.00    -0.000 C 
BRANCH   7   8
ATOM      8  C   UNL     1      51.799 -51.781  -9.135  1.00  0.00    -0.003 C 
ATOM      9  C   UNL     1      51.069 -51.634  -7.801  1.00  0.00     0.004 C 
ENDBRANCH   7   8
ENDBRANCH   6   7
ENDBRANCH   1   6
TORSDOF 5
ENDMDL
MODEL 3
REMARK VINA RESULT:    -3.569      1.530      2.151
REMARK INTER + INTRA:          -4.955
REMARK INTER:                  -4.706
REMARK INTRA:                  -0.249
REMARK UNBOUND:                -0.342
REMARK SMILES CCCCCCC(=O)[O-]
REMARK SMILES IDX 5 1 6 2 7 3 8 4 9 5 4 6 3 7 2 8 1 9
REMARK H PARENT
REMARK Flexibility Score: inf
ROOT
ATOM      1  C   UNL     1      51.849 -49.945  -8.314  1.00  0.00     0.006 C 
ENDROOT
BRANCH   1   2
ATOM      2  C   UNL     1      51.761 -51.127  -9.289  1.00  0.00     0.053 C 
BRANCH   2   3
ATOM      3  C   UNL     1      53.116 -51.454  -9.834  1.00  0.00     0.041 C 
ATOM      4  O   UNL     1      53.343 -51.361 -11.069  1.00  0.00    -0.550 OA
ATOM      5  O   UNL     1      54.115 -51.910  -8.983  1.00  0.00    -0.550 OA
ENDBRANCH   2   3
ENDBRANCH   1   2
BRANCH   1   6
ATOM      6  C   UNL     1      52.691 -48.783  -8.865  1.00  0.00     0.000 C 
BRANCH   6   7
ATOM      7  C   UNL     1      51.962 -47.997  -9.969  1.00  0.00    -0.000 C 
BRANCH   7   8
ATOM      8  C   UNL     1      50.709 -47.276  -9.448  1.00  0.00    -0.003 C 
ATOM      9  C   UNL     1      49.571 -47.253 -10.468  1.00  0.00     0.004 C 
ENDBRANCH   7   8
ENDBRANCH   6   7
ENDBRANCH   1   6
TORSDOF 5
ENDMDL
MODEL 4
REMARK VINA RESULT:    -3.528      2.429      4.094
REMARK INTER + INTRA:          -4.901
REMARK INTER:                  -4.659
REMARK INTRA:                  -0.242
REMARK UNBOUND:                -0.342
REMARK SMILES CCCCCCC(=O)[O-]
REMARK SMILES IDX 5 1 6 2 7 3 8 4 9 5 4 6 3 7 2 8 1 9
REMARK H PARENT
REMARK Flexibility Score: inf
ROOT
ATOM      1  C   UNL     1      52.514 -48.586  -9.522  1.00  0.00     0.006 C 
ENDROOT
BRANCH   1   2
ATOM      2  C   UNL     1      51.156 -48.006  -9.103  1.00  0.00     0.053 C 
BRANCH   2   3
ATOM      3  C   UNL     1      50.563 -47.211 -10.223  1.00  0.00     0.041 C 
ATOM      4  O   UNL     1      49.731 -47.740 -11.007  1.00  0.00    -0.550 OA
ATOM      5  O   UNL     1      50.966 -45.898 -10.433  1.00  0.00    -0.550 OA
ENDBRANCH   2   3
ENDBRANCH   1   2
BRANCH   1   6
ATOM      6  C   UNL     1      53.020 -49.670  -8.555  1.00  0.00     0.000 C 
BRANCH   6   7
ATOM      7  C   UNL     1      53.048 -51.067  -9.198  1.00  0.00    -0.000 C 
BRANCH   7   8
ATOM      8  C   UNL     1      51.707 -51.806  -9.061  1.00  0.00    -0.003 C 
ATOM      9  C   UNL     1      51.141 -51.750  -7.642  1.00  0.00     0.004 C 
ENDBRANCH   7   8
ENDBRANCH   6   7
ENDBRANCH   1   6
TORSDOF 5
ENDMDL
MODEL 5
REMARK VINA RESULT:    -3.523      1.186      3.181
REMARK INTER + INTRA:          -4.895
REMARK INTER:                  -4.471
REMARK INTRA:                  -0.424
REMARK UNBOUND:                -0.342
REMARK SMILES CCCCCCC(=O)[O-]
REMARK SMILES IDX 5 1 6 2 7 3 8 4 9 5 4 6 3 7 2 8 1 9
REMARK H PARENT
REMARK Flexibility Score: inf
ROOT
ATOM      1  C   UNL     1      51.349 -48.338  -8.947  1.00  0.00     0.006 C 
ENDROOT
BRANCH   1   2
ATOM      2  C   UNL     1      52.058 -47.997 -10.264  1.00  0.00     0.053 C 
BRANCH   2   3
ATOM      3  C   UNL     1      51.480 -48.798 -11.389  1.00  0.00     0.041 C 
ATOM      4  O   UNL     1      50.358 -48.495 -11.872  1.00  0.00    -0.550 OA
ATOM      5  O   UNL     1      52.160 -49.910 -11.871  1.00  0.00    -0.550 OA
ENDBRANCH   2   3
ENDBRANCH   1   2
BRANCH   1   6
ATOM      6  C   UNL     1      52.077 -49.431  -8.147  1.00  0.00     0.000 C 
BRANCH   6   7
ATOM      7  C   UNL     1      51.326 -50.773  -8.161  1.00  0.00    -0.000 C 
BRANCH   7   8
ATOM      8  C   UNL     1      52.134 -51.893  -8.835  1.00  0.00    -0.003 C 
ATOM      9  C   UNL     1      53.595 -51.512  -9.070  1.00  0.00     0.004 C 
ENDBRANCH   7   8
ENDBRANCH   6   7
ENDBRANCH   1   6
TORSDOF 5
ENDMDL
MODEL 6
REMARK VINA RESULT:    -3.517      2.136      3.086
REMARK INTER + INTRA:          -4.888
REMARK INTER:                  -4.693
REMARK INTRA:                  -0.195
REMARK UNBOUND:                -0.342
REMARK SMILES CCCCCCC(=O)[O-]
REMARK SMILES IDX 5 1 6 2 7 3 8 4 9 5 4 6 3 7 2 8 1 9
REMARK H PARENT
REMARK Flexibility Score: inf
ROOT
ATOM      1  C   UNL     1      52.745 -49.430  -9.135  1.00  0.00     0.006 C 
ENDROOT
BRANCH   1   2
ATOM      2  C   UNL     1      51.782 -49.929  -8.049  1.00  0.00     0.053 C 
BRANCH   2   3
ATOM      3  C   UNL     1      51.395 -51.351  -8.309  1.00  0.00     0.041 C 
ATOM      4  O   UNL     1      51.063 -52.103  -7.356  1.00  0.00    -0.550 OA
ATOM      5  O   UNL     1      51.447 -51.859  -9.601  1.00  0.00    -0.550 OA
ENDBRANCH   2   3
ENDBRANCH   1   2
BRANCH   1   6
ATOM      6  C   UNL     1      52.252 -48.145  -9.819  1.00  0.00     0.000 C 
BRANCH   6   7
ATOM      7  C   UNL     1      50.923 -47.636  -9.233  1.00  0.00    -0.000 C 
BRANCH   7   8
ATOM      8  C   UNL     1      50.272 -46.552 -10.106  1.00  0.00    -0.003 C 
ATOM      9  C   UNL     1      49.000 -47.034 -10.801  1.00  0.00     0.004 C 
ENDBRANCH   7   8
ENDBRANCH   6   7
ENDBRANCH   1   6
TORSDOF 5
ENDMDL
MODEL 7
REMARK VINA RESULT:    -3.485      1.708      2.409
REMARK INTER + INTRA:          -4.845
REMARK INTER:                  -4.542
REMARK INTRA:                  -0.304
REMARK UNBOUND:                -0.342
REMARK SMILES CCCCCCC(=O)[O-]
REMARK SMILES IDX 5 1 6 2 7 3 8 4 9 5 4 6 3 7 2 8 1 9
REMARK H PARENT
REMARK Flexibility Score: inf
ROOT
ATOM      1  C   UNL     1      52.832 -49.356  -8.500  1.00  0.00     0.006 C 
ENDROOT
BRANCH   1   2
ATOM      2  C   UNL     1      53.123 -50.773  -9.013  1.00  0.00     0.053 C 
BRANCH   2   3
ATOM      3  C   UNL     1      51.845 -51.515  -9.248  1.00  0.00     0.041 C 
ATOM      4  O   UNL     1      51.446 -51.735 -10.422  1.00  0.00    -0.550 OA
ATOM      5  O   UNL     1      51.069 -51.921  -8.170  1.00  0.00    -0.550 OA
ENDBRANCH   2   3
ENDBRANCH   1   2
BRANCH   1   6
ATOM      6  C   UNL     1      52.326 -48.417  -9.608  1.00  0.00     0.000 C 
BRANCH   6   7
ATOM      7  C   UNL     1      50.997 -47.735  -9.242  1.00  0.00    -0.000 C 
BRANCH   7   8
ATOM      8  C   UNL     1      50.050 -47.606 -10.446  1.00  0.00    -0.003 C 
ATOM      9  C   UNL     1      50.565 -48.335 -11.687  1.00  0.00     0.004 C 
ENDBRANCH   7   8
ENDBRANCH   6   7
ENDBRANCH   1   6
TORSDOF 5
ENDMDL
MODEL 8
REMARK VINA RESULT:    -3.016      1.919      3.382
REMARK INTER + INTRA:          -4.240
REMARK INTER:                  -3.833
REMARK INTRA:                  -0.407
REMARK UNBOUND:                -0.342
REMARK SMILES CCCCCCC(=O)[O-]
REMARK SMILES IDX 5 1 6 2 7 3 8 4 9 5 4 6 3 7 2 8 1 9
REMARK H PARENT
REMARK Flexibility Score: inf
ROOT
ATOM      1  C   UNL     1      51.284 -48.641  -9.156  1.00  0.00     0.006 C 
ENDROOT
BRANCH   1   2
ATOM      2  C   UNL     1      52.307 -49.421  -8.319  1.00  0.00     0.053 C 
BRANCH   2   3
ATOM      3  C   UNL     1      52.088 -50.894  -8.470  1.00  0.00     0.041 C 
ATOM      4  O   UNL     1      52.952 -51.609  -9.044  1.00  0.00    -0.550 OA
ATOM      5  O   UNL     1      50.906 -51.470  -8.021  1.00  0.00    -0.550 OA
ENDBRANCH   2   3
ENDBRANCH   1   2
BRANCH   1   6
ATOM      6  C   UNL     1      51.883 -48.085 -10.458  1.00  0.00     0.000 C 
BRANCH   6   7
ATOM      7  C   UNL     1      51.306 -48.765 -11.711  1.00  0.00    -0.000 C 
BRANCH   7   8
ATOM      8  C   UNL     1      52.104 -50.011 -12.125  1.00  0.00    -0.003 C 
ATOM      9  C   UNL     1      51.249 -51.278 -12.165  1.00  0.00     0.004 C 
ENDBRANCH   7   8
ENDBRANCH   6   7
ENDBRANCH   1   6
TORSDOF 5
ENDMDL
MODEL 9
REMARK VINA RESULT:    -2.964      1.444      3.023
REMARK INTER + INTRA:          -4.172
REMARK INTER:                  -3.921
REMARK INTRA:                  -0.251
REMARK UNBOUND:                -0.342
REMARK SMILES CCCCCCC(=O)[O-]
REMARK SMILES IDX 5 1 6 2 7 3 8 4 9 5 4 6 3 7 2 8 1 9
REMARK H PARENT
REMARK Flexibility Score: inf
ROOT
ATOM      1  C   UNL     1      51.837 -48.740 -10.973  1.00  0.00     0.006 C 
ENDROOT
BRANCH   1   2
ATOM      2  C   UNL     1      51.085 -49.388 -12.144  1.00  0.00     0.053 C 
BRANCH   2   3
ATOM      3  C   UNL     1      51.500 -50.817 -12.301  1.00  0.00     0.041 C 
ATOM      4  O   UNL     1      50.637 -51.734 -12.283  1.00  0.00    -0.550 OA
ATOM      5  O   UNL     1      52.846 -51.141 -12.418  1.00  0.00    -0.550 OA
ENDBRANCH   2   3
ENDBRANCH   1   2
BRANCH   1   6
ATOM      6  C   UNL     1      51.029 -48.763  -9.664  1.00  0.00     0.000 C 
BRANCH   6   7
ATOM      7  C   UNL     1      51.724 -49.574  -8.557  1.00  0.00    -0.000 C 
BRANCH   7   8
ATOM      8  C   UNL     1      51.414 -51.077  -8.644  1.00  0.00    -0.003 C 
ATOM      9  C   UNL     1      50.913 -51.657  -7.322  1.00  0.00     0.004 C 
ENDBRANCH   7   8
ENDBRANCH   6   7
ENDBRANCH   1   6
TORSDOF 5
ENDMDL
