MODEL 1
REMARK VINA RESULT:    -6.282      0.000      0.000
REMARK INTER + INTRA:          -8.552
REMARK INTER:                  -7.934
REMARK INTRA:                  -0.617
REMARK UNBOUND:                -0.617
REMARK SMILES O=C(C=Cc1ccc(O)cc1)c1ccc(O)cc1O
REMARK SMILES IDX 4 1 3 2 5 3 6 4 7 5 8 6 11 7 10 8 9 9 2 11 1 12 12 13 18 14
REMARK SMILES IDX 13 15 17 16 14 17 15 18 19 19 16 21
REMARK H PARENT 9 10 19 20 16 22
REMARK Flexibility Score: inf
ROOT
ATOM      1  C   UNL     1      13.600   3.546  67.620  1.00  0.00     0.012 C 
ATOM      2  C   UNL     1      13.205   4.822  67.510  1.00  0.00     0.053 C 
ENDROOT
BRANCH   1   3
ATOM      3  C   UNL     1      14.015   2.710  66.468  1.00  0.00    -0.025 A 
ATOM      4  C   UNL     1      13.224   2.723  65.307  1.00  0.00     0.012 A 
ATOM      5  C   UNL     1      13.572   1.943  64.200  1.00  0.00     0.047 A 
ATOM      6  C   UNL     1      14.708   1.130  64.241  1.00  0.00     0.115 A 
ATOM      7  C   UNL     1      15.151   1.875  66.508  1.00  0.00     0.012 A 
ATOM      8  C   UNL     1      15.495   1.096  65.399  1.00  0.00     0.047 A 
BRANCH   6   9
ATOM      9  O   UNL     1      15.042   0.358  63.131  1.00  0.00    -0.508 OA
ATOM     10  H   UNL     1      16.008   0.152  62.901  1.00  0.00     0.293 HD
ENDBRANCH   6   9
ENDBRANCH   1   3
BRANCH   2  11
ATOM     11  C   UNL     1      12.783   5.622  68.681  1.00  0.00     0.189 C 
ATOM     12  O   UNL     1      12.892   5.148  69.844  1.00  0.00    -0.289 OA
BRANCH  11  13
ATOM     13  C   UNL     1      12.259   6.994  68.500  1.00  0.00     0.064 A 
ATOM     14  C   UNL     1      11.065   7.428  69.126  1.00  0.00     0.130 A 
ATOM     15  C   UNL     1      12.988   7.906  67.715  1.00  0.00     0.020 A 
ATOM     16  C   UNL     1      10.650   8.758  68.984  1.00  0.00     0.093 A 
ATOM     17  C   UNL     1      12.555   9.225  67.569  1.00  0.00     0.047 A 
ATOM     18  C   UNL     1      11.387   9.656  68.208  1.00  0.00     0.119 A 
BRANCH  14  19
ATOM     19  O   UNL     1      10.256   6.567  69.870  1.00  0.00    -0.507 OA
ATOM     20  H   UNL     1       9.727   5.809  69.459  1.00  0.00     0.293 HD
ENDBRANCH  14  19
BRANCH  18  21
ATOM     21  O   UNL     1      10.949  10.972  68.076  1.00  0.00    -0.508 OA
ATOM     22  H   UNL     1      10.364  11.261  67.300  1.00  0.00     0.293 HD
ENDBRANCH  18  21
ENDBRANCH  11  13
ENDBRANCH   2  11
TORSDOF 6
ENDMDL
MODEL 2
REMARK VINA RESULT:    -6.140      1.723      7.737
REMARK INTER + INTRA:          -8.373
REMARK INTER:                  -7.821
REMARK INTRA:                  -0.552
REMARK UNBOUND:                -0.617
REMARK SMILES O=C(C=Cc1ccc(O)cc1)c1ccc(O)cc1O
REMARK SMILES IDX 4 1 3 2 5 3 6 4 7 5 8 6 11 7 10 8 9 9 2 11 1 12 12 13 18 14
REMARK SMILES IDX 13 15 17 16 14 17 15 18 19 19 16 21
REMARK H PARENT 9 10 19 20 16 22
REMARK Flexibility Score: inf
ROOT
ATOM      1  C   UNL     1      13.878   4.912  67.576  1.00  0.00     0.012 C 
ATOM      2  C   UNL     1      13.801   3.578  67.469  1.00  0.00     0.053 C 
ENDROOT
BRANCH   1   3
ATOM      3  C   UNL     1      12.899   5.736  68.324  1.00  0.00    -0.025 A 
ATOM      4  C   UNL     1      12.324   6.847  67.684  1.00  0.00     0.012 A 
ATOM      5  C   UNL     1      11.403   7.658  68.354  1.00  0.00     0.047 A 
ATOM      6  C   UNL     1      11.052   7.379  69.678  1.00  0.00     0.115 A 
ATOM      7  C   UNL     1      12.552   5.471  69.665  1.00  0.00     0.012 A 
ATOM      8  C   UNL     1      11.632   6.285  70.332  1.00  0.00     0.047 A 
BRANCH   6   9
ATOM      9  O   UNL     1      10.134   8.196  70.333  1.00  0.00    -0.508 OA
ATOM     10  H   UNL     1      10.307   8.540  71.270  1.00  0.00     0.293 HD
ENDBRANCH   6   9
ENDBRANCH   1   3
BRANCH   2  11
ATOM     11  C   UNL     1      14.789   2.790  66.701  1.00  0.00     0.189 C 
ATOM     12  O   UNL     1      15.951   2.611  67.159  1.00  0.00    -0.289 OA
BRANCH  11  13
ATOM     13  C   UNL     1      14.415   2.179  65.407  1.00  0.00     0.064 A 
ATOM     14  C   UNL     1      15.218   1.191  64.785  1.00  0.00     0.130 A 
ATOM     15  C   UNL     1      13.206   2.560  64.795  1.00  0.00     0.020 A 
ATOM     16  C   UNL     1      14.782   0.590  63.597  1.00  0.00     0.093 A 
ATOM     17  C   UNL     1      12.792   1.963  63.603  1.00  0.00     0.047 A 
ATOM     18  C   UNL     1      13.576   0.972  63.004  1.00  0.00     0.119 A 
BRANCH  14  19
ATOM     19  O   UNL     1      16.457   0.805  65.298  1.00  0.00    -0.507 OA
ATOM     20  H   UNL     1      17.295   0.742  64.736  1.00  0.00     0.293 HD
ENDBRANCH  14  19
BRANCH  18  21
ATOM     21  O   UNL     1      13.169   0.363  61.818  1.00  0.00    -0.508 OA
ATOM     22  H   UNL     1      12.339  -0.217  61.779  1.00  0.00     0.293 HD
ENDBRANCH  18  21
ENDBRANCH  11  13
ENDBRANCH   2  11
TORSDOF 6
ENDMDL
MODEL 3
REMARK VINA RESULT:    -6.051     10.134     11.371
REMARK INTER + INTRA:          -8.260
REMARK INTER:                  -7.645
REMARK INTRA:                  -0.615
REMARK UNBOUND:                -0.617
REMARK SMILES O=C(C=Cc1ccc(O)cc1)c1ccc(O)cc1O
REMARK SMILES IDX 4 1 3 2 5 3 6 4 7 5 8 6 11 7 10 8 9 9 2 11 1 12 12 13 18 14
REMARK SMILES IDX 13 15 17 16 14 17 15 18 19 19 16 21
REMARK H PARENT 9 10 19 20 16 22
REMARK Flexibility Score: inf
ROOT
ATOM      1  C   UNL     1       2.009   4.505  63.601  1.00  0.00     0.012 C 
ATOM      2  C   UNL     1       2.371   5.621  64.248  1.00  0.00     0.053 C 
ENDROOT
BRANCH   1   3
ATOM      3  C   UNL     1       1.613   3.249  64.283  1.00  0.00    -0.025 A 
ATOM      4  C   UNL     1       2.402   2.782  65.347  1.00  0.00     0.012 A 
ATOM      5  C   UNL     1       2.072   1.598  66.013  1.00  0.00     0.047 A 
ATOM      6  C   UNL     1       0.955   0.857  65.617  1.00  0.00     0.115 A 
ATOM      7  C   UNL     1       0.497   2.487  63.879  1.00  0.00     0.012 A 
ATOM      8  C   UNL     1       0.170   1.303  64.547  1.00  0.00     0.047 A 
BRANCH   6   9
ATOM      9  O   UNL     1       0.639  -0.321  66.290  1.00  0.00    -0.508 OA
ATOM     10  H   UNL     1       0.239  -1.116  65.804  1.00  0.00     0.293 HD
ENDBRANCH   6   9
ENDBRANCH   1   3
BRANCH   2  11
ATOM     11  C   UNL     1       2.775   6.852  63.534  1.00  0.00     0.189 C 
ATOM     12  O   UNL     1       2.629   6.936  62.284  1.00  0.00    -0.289 OA
BRANCH  11  13
ATOM     13  C   UNL     1       3.324   8.004  64.281  1.00  0.00     0.064 A 
ATOM     14  C   UNL     1       4.533   8.636  63.901  1.00  0.00     0.130 A 
ATOM     15  C   UNL     1       2.603   8.514  65.378  1.00  0.00     0.020 A 
ATOM     16  C   UNL     1       4.972   9.770  64.597  1.00  0.00     0.093 A 
ATOM     17  C   UNL     1       3.061   9.635  66.072  1.00  0.00     0.047 A 
ATOM     18  C   UNL     1       4.244  10.270  65.679  1.00  0.00     0.119 A 
BRANCH  14  19
ATOM     19  O   UNL     1       5.334   8.154  62.865  1.00  0.00    -0.507 OA
ATOM     20  H   UNL     1       6.267   7.790  63.006  1.00  0.00     0.293 HD
ENDBRANCH  14  19
BRANCH  18  21
ATOM     21  O   UNL     1       4.706  11.395  66.359  1.00  0.00    -0.508 OA
ATOM     22  H   UNL     1       5.466  11.959  65.995  1.00  0.00     0.293 HD
ENDBRANCH  18  21
ENDBRANCH  11  13
ENDBRANCH   2  11
TORSDOF 6
ENDMDL
MODEL 4
REMARK VINA RESULT:    -5.938     10.862     13.013
REMARK INTER + INTRA:          -8.117
REMARK INTER:                  -7.563
REMARK INTRA:                  -0.554
REMARK UNBOUND:                -0.617
REMARK SMILES O=C(C=Cc1ccc(O)cc1)c1ccc(O)cc1O
REMARK SMILES IDX 4 1 3 2 5 3 6 4 7 5 8 6 11 7 10 8 9 9 2 11 1 12 12 13 18 14
REMARK SMILES IDX 13 15 17 16 14 17 15 18 19 19 16 21
REMARK H PARENT 9 10 19 20 16 22
REMARK Flexibility Score: inf
ROOT
ATOM      1  C   UNL     1       1.674   5.526  64.057  1.00  0.00     0.012 C 
ATOM      2  C   UNL     1       1.889   4.235  63.766  1.00  0.00     0.053 C 
ENDROOT
BRANCH   1   3
ATOM      3  C   UNL     1       2.648   6.607  63.775  1.00  0.00    -0.025 A 
ATOM      4  C   UNL     1       3.217   7.301  64.856  1.00  0.00     0.012 A 
ATOM      5  C   UNL     1       4.133   8.335  64.636  1.00  0.00     0.047 A 
ATOM      6  C   UNL     1       4.484   8.698  63.333  1.00  0.00     0.115 A 
ATOM      7  C   UNL     1       2.995   6.991  62.463  1.00  0.00     0.012 A 
ATOM      8  C   UNL     1       3.911   8.026  62.247  1.00  0.00     0.047 A 
BRANCH   6   9
ATOM      9  O   UNL     1       5.397   9.730  63.130  1.00  0.00    -0.508 OA
ATOM     10  H   UNL     1       5.224  10.464  62.454  1.00  0.00     0.293 HD
ENDBRANCH   6   9
ENDBRANCH   1   3
BRANCH   2  11
ATOM     11  C   UNL     1       0.899   3.180  64.076  1.00  0.00     0.189 C 
ATOM     12  O   UNL     1      -0.216   3.164  63.486  1.00  0.00    -0.289 OA
BRANCH  11  13
ATOM     13  C   UNL     1       1.220   2.120  65.056  1.00  0.00     0.064 A 
ATOM     14  C   UNL     1       0.449   0.935  65.156  1.00  0.00     0.130 A 
ATOM     15  C   UNL     1       2.347   2.273  65.886  1.00  0.00     0.020 A 
ATOM     16  C   UNL     1       0.837  -0.072  66.049  1.00  0.00     0.093 A 
ATOM     17  C   UNL     1       2.713   1.267  66.782  1.00  0.00     0.047 A 
ATOM     18  C   UNL     1       1.962   0.089  66.862  1.00  0.00     0.119 A 
BRANCH  14  19
ATOM     19  O   UNL     1      -0.715   0.737  64.412  1.00  0.00    -0.507 OA
ATOM     20  H   UNL     1      -0.752   0.160  63.582  1.00  0.00     0.293 HD
ENDBRANCH  14  19
BRANCH  18  21
ATOM     21  O   UNL     1       2.324  -0.925  67.746  1.00  0.00    -0.508 OA
ATOM     22  H   UNL     1       2.734  -1.792  67.420  1.00  0.00     0.293 HD
ENDBRANCH  18  21
ENDBRANCH  11  13
ENDBRANCH   2  11
TORSDOF 6
ENDMDL
MODEL 5
REMARK VINA RESULT:    -5.923      1.515      2.486
REMARK INTER + INTRA:          -8.098
REMARK INTER:                  -7.573
REMARK INTRA:                  -0.525
REMARK UNBOUND:                -0.617
REMARK SMILES O=C(C=Cc1ccc(O)cc1)c1ccc(O)cc1O
REMARK SMILES IDX 4 1 3 2 5 3 6 4 7 5 8 6 11 7 10 8 9 9 2 11 1 12 12 13 18 14
REMARK SMILES IDX 13 15 17 16 14 17 15 18 19 19 16 21
REMARK H PARENT 9 10 19 20 16 22
REMARK Flexibility Score: inf
ROOT
ATOM      1  C   UNL     1      14.031   3.445  67.133  1.00  0.00     0.012 C 
ATOM      2  C   UNL     1      14.560   4.676  67.138  1.00  0.00     0.053 C 
ENDROOT
BRANCH   1   3
ATOM      3  C   UNL     1      13.987   2.571  65.936  1.00  0.00    -0.025 A 
ATOM      4  C   UNL     1      15.037   1.662  65.727  1.00  0.00     0.012 A 
ATOM      5  C   UNL     1      15.042   0.826  64.606  1.00  0.00     0.047 A 
ATOM      6  C   UNL     1      14.005   0.894  63.672  1.00  0.00     0.115 A 
ATOM      7  C   UNL     1      12.952   2.646  64.981  1.00  0.00     0.012 A 
ATOM      8  C   UNL     1      12.962   1.809  63.860  1.00  0.00     0.047 A 
BRANCH   6   9
ATOM      9  O   UNL     1      14.024   0.055  62.560  1.00  0.00    -0.508 OA
ATOM     10  H   UNL     1      14.429  -0.873  62.605  1.00  0.00     0.293 HD
ENDBRANCH   6   9
ENDBRANCH   1   3
BRANCH   2  11
ATOM     11  C   UNL     1      14.573   5.525  68.349  1.00  0.00     0.189 C 
ATOM     12  O   UNL     1      15.636   5.663  69.015  1.00  0.00    -0.289 OA
BRANCH  11  13
ATOM     13  C   UNL     1      13.351   6.243  68.771  1.00  0.00     0.064 A 
ATOM     14  C   UNL     1      12.913   7.423  68.120  1.00  0.00     0.130 A 
ATOM     15  C   UNL     1      12.578   5.718  69.824  1.00  0.00     0.020 A 
ATOM     16  C   UNL     1      11.709   8.024  68.509  1.00  0.00     0.093 A 
ATOM     17  C   UNL     1      11.389   6.337  70.212  1.00  0.00     0.047 A 
ATOM     18  C   UNL     1      10.947   7.488  69.551  1.00  0.00     0.119 A 
BRANCH  14  19
ATOM     19  O   UNL     1      13.654   8.037  67.110  1.00  0.00    -0.507 OA
ATOM     20  H   UNL     1      14.660   7.960  67.034  1.00  0.00     0.293 HD
ENDBRANCH  14  19
BRANCH  18  21
ATOM     21  O   UNL     1       9.757   8.110  69.924  1.00  0.00    -0.508 OA
ATOM     22  H   UNL     1       8.872   7.618  69.898  1.00  0.00     0.293 HD
ENDBRANCH  18  21
ENDBRANCH  11  13
ENDBRANCH   2  11
TORSDOF 6
ENDMDL
MODEL 6
REMARK VINA RESULT:    -5.857      2.484      3.782
REMARK INTER + INTRA:          -8.015
REMARK INTER:                  -7.564
REMARK INTRA:                  -0.451
REMARK UNBOUND:                -0.617
REMARK SMILES O=C(C=Cc1ccc(O)cc1)c1ccc(O)cc1O
REMARK SMILES IDX 4 1 3 2 5 3 6 4 7 5 8 6 11 7 10 8 9 9 2 11 1 12 12 13 18 14
REMARK SMILES IDX 13 15 17 16 14 17 15 18 19 19 16 21
REMARK H PARENT 9 10 19 20 16 22
REMARK Flexibility Score: inf
ROOT
ATOM      1  C   UNL     1      13.782   3.707  67.260  1.00  0.00     0.012 C 
ATOM      2  C   UNL     1      13.267   4.941  67.157  1.00  0.00     0.053 C 
ENDROOT
BRANCH   1   3
ATOM      3  C   UNL     1      13.926   2.777  66.114  1.00  0.00    -0.025 A 
ATOM      4  C   UNL     1      12.935   2.777  65.119  1.00  0.00     0.012 A 
ATOM      5  C   UNL     1      13.024   1.910  64.025  1.00  0.00     0.047 A 
ATOM      6  C   UNL     1      14.098   1.023  63.917  1.00  0.00     0.115 A 
ATOM      7  C   UNL     1      14.998   1.868  66.006  1.00  0.00     0.012 A 
ATOM      8  C   UNL     1      15.083   1.002  64.911  1.00  0.00     0.047 A 
BRANCH   6   9
ATOM      9  O   UNL     1      14.174   0.165  62.822  1.00  0.00    -0.508 OA
ATOM     10  H   UNL     1      13.678  -0.719  62.808  1.00  0.00     0.293 HD
ENDBRANCH   6   9
ENDBRANCH   1   3
BRANCH   2  11
ATOM     11  C   UNL     1      13.126   5.836  68.326  1.00  0.00     0.189 C 
ATOM     12  O   UNL     1      12.026   6.411  68.555  1.00  0.00    -0.289 OA
BRANCH  11  13
ATOM     13  C   UNL     1      14.260   6.041  69.253  1.00  0.00     0.064 A 
ATOM     14  C   UNL     1      15.467   6.654  68.836  1.00  0.00     0.130 A 
ATOM     15  C   UNL     1      14.123   5.651  70.599  1.00  0.00     0.020 A 
ATOM     16  C   UNL     1      16.483   6.892  69.770  1.00  0.00     0.093 A 
ATOM     17  C   UNL     1      15.150   5.881  71.515  1.00  0.00     0.047 A 
ATOM     18  C   UNL     1      16.332   6.508  71.104  1.00  0.00     0.119 A 
BRANCH  14  19
ATOM     19  O   UNL     1      15.702   7.012  67.508  1.00  0.00    -0.507 OA
ATOM     20  H   UNL     1      16.563   7.438  67.191  1.00  0.00     0.293 HD
ENDBRANCH  14  19
BRANCH  18  21
ATOM     21  O   UNL     1      17.361   6.749  72.012  1.00  0.00    -0.508 OA
ATOM     22  H   UNL     1      18.084   7.434  71.823  1.00  0.00     0.293 HD
ENDBRANCH  18  21
ENDBRANCH  11  13
ENDBRANCH   2  11
TORSDOF 6
ENDMDL
MODEL 7
REMARK VINA RESULT:    -5.837     10.794     11.935
REMARK INTER + INTRA:          -7.989
REMARK INTER:                  -7.409
REMARK INTRA:                  -0.580
REMARK UNBOUND:                -0.617
REMARK SMILES O=C(C=Cc1ccc(O)cc1)c1ccc(O)cc1O
REMARK SMILES IDX 4 1 3 2 5 3 6 4 7 5 8 6 11 7 10 8 9 9 2 11 1 12 12 13 18 14
REMARK SMILES IDX 13 15 17 16 14 17 15 18 19 19 16 21
REMARK H PARENT 9 10 19 20 16 22
REMARK Flexibility Score: inf
ROOT
ATOM      1  C   UNL     1       1.554   4.243  64.047  1.00  0.00     0.012 C 
ATOM      2  C   UNL     1       0.563   5.145  64.089  1.00  0.00     0.053 C 
ENDROOT
BRANCH   1   3
ATOM      3  C   UNL     1       1.491   2.919  64.712  1.00  0.00    -0.025 A 
ATOM      4  C   UNL     1       2.477   2.593  65.657  1.00  0.00     0.012 A 
ATOM      5  C   UNL     1       2.463   1.351  66.302  1.00  0.00     0.047 A 
ATOM      6  C   UNL     1       1.470   0.415  66.002  1.00  0.00     0.115 A 
ATOM      7  C   UNL     1       0.502   1.962  64.403  1.00  0.00     0.012 A 
ATOM      8  C   UNL     1       0.492   0.722  65.049  1.00  0.00     0.047 A 
BRANCH   6   9
ATOM      9  O   UNL     1       1.469  -0.817  66.652  1.00  0.00    -0.508 OA
ATOM     10  H   UNL     1       2.271  -1.436  66.614  1.00  0.00     0.293 HD
ENDBRANCH   6   9
ENDBRANCH   1   3
BRANCH   2  11
ATOM     11  C   UNL     1       0.668   6.463  63.426  1.00  0.00     0.189 C 
ATOM     12  O   UNL     1      -0.327   6.950  62.823  1.00  0.00    -0.289 OA
BRANCH  11  13
ATOM     13  C   UNL     1       1.928   7.235  63.490  1.00  0.00     0.064 A 
ATOM     14  C   UNL     1       2.338   7.904  64.669  1.00  0.00     0.130 A 
ATOM     15  C   UNL     1       2.766   7.271  62.359  1.00  0.00     0.020 A 
ATOM     16  C   UNL     1       3.575   8.559  64.702  1.00  0.00     0.093 A 
ATOM     17  C   UNL     1       3.990   7.941  62.401  1.00  0.00     0.047 A 
ATOM     18  C   UNL     1       4.401   8.582  63.575  1.00  0.00     0.119 A 
BRANCH  14  19
ATOM     19  O   UNL     1       1.535   7.964  65.810  1.00  0.00    -0.507 OA
ATOM     20  H   UNL     1       0.524   7.964  65.778  1.00  0.00     0.293 HD
ENDBRANCH  14  19
BRANCH  18  21
ATOM     21  O   UNL     1       5.624   9.246  63.631  1.00  0.00    -0.508 OA
ATOM     22  H   UNL     1       6.057   9.485  64.516  1.00  0.00     0.293 HD
ENDBRANCH  18  21
ENDBRANCH  11  13
ENDBRANCH   2  11
TORSDOF 6
ENDMDL
MODEL 8
REMARK VINA RESULT:    -5.831     10.184     12.464
REMARK INTER + INTRA:          -7.982
REMARK INTER:                  -7.818
REMARK INTRA:                  -0.164
REMARK UNBOUND:                -0.617
REMARK SMILES O=C(C=Cc1ccc(O)cc1)c1ccc(O)cc1O
REMARK SMILES IDX 4 1 3 2 5 3 6 4 7 5 8 6 11 7 10 8 9 9 2 11 1 12 12 13 18 14
REMARK SMILES IDX 13 15 17 16 14 17 15 18 19 19 16 21
REMARK H PARENT 9 10 19 20 16 22
REMARK Flexibility Score: inf
ROOT
ATOM      1  C   UNL     1       2.269   6.673  64.549  1.00  0.00     0.012 C 
ATOM      2  C   UNL     1       2.180   5.354  64.324  1.00  0.00     0.053 C 
ENDROOT
BRANCH   1   3
ATOM      3  C   UNL     1       3.384   7.519  64.058  1.00  0.00    -0.025 A 
ATOM      4  C   UNL     1       3.572   7.647  62.672  1.00  0.00     0.012 A 
ATOM      5  C   UNL     1       4.617   8.426  62.165  1.00  0.00     0.047 A 
ATOM      6  C   UNL     1       5.494   9.079  63.035  1.00  0.00     0.115 A 
ATOM      7  C   UNL     1       4.283   8.167  64.930  1.00  0.00     0.012 A 
ATOM      8  C   UNL     1       5.327   8.944  64.418  1.00  0.00     0.047 A 
BRANCH   6   9
ATOM      9  O   UNL     1       6.530   9.851  62.515  1.00  0.00    -0.508 OA
ATOM     10  H   UNL     1       6.360  10.773  62.128  1.00  0.00     0.293 HD
ENDBRANCH   6   9
ENDBRANCH   1   3
BRANCH   2  11
ATOM     11  C   UNL     1       1.060   4.539  64.842  1.00  0.00     0.189 C 
ATOM     12  O   UNL     1      -0.089   5.045  64.963  1.00  0.00    -0.289 OA
BRANCH  11  13
ATOM     13  C   UNL     1       1.269   3.117  65.193  1.00  0.00     0.064 A 
ATOM     14  C   UNL     1       2.310   2.706  66.061  1.00  0.00     0.130 A 
ATOM     15  C   UNL     1       0.384   2.149  64.682  1.00  0.00     0.020 A 
ATOM     16  C   UNL     1       2.421   1.357  66.421  1.00  0.00     0.093 A 
ATOM     17  C   UNL     1       0.516   0.806  65.037  1.00  0.00     0.047 A 
ATOM     18  C   UNL     1       1.532   0.407  65.913  1.00  0.00     0.119 A 
BRANCH  14  19
ATOM     19  O   UNL     1       3.262   3.596  66.559  1.00  0.00    -0.507 OA
ATOM     20  H   UNL     1       3.514   3.651  67.537  1.00  0.00     0.293 HD
ENDBRANCH  14  19
BRANCH  18  21
ATOM     21  O   UNL     1       1.668  -0.930  66.281  1.00  0.00    -0.508 OA
ATOM     22  H   UNL     1       1.442  -1.682  65.640  1.00  0.00     0.293 HD
ENDBRANCH  18  21
ENDBRANCH  11  13
ENDBRANCH   2  11
TORSDOF 6
ENDMDL
MODEL 9
REMARK VINA RESULT:    -5.759      1.946      7.703
REMARK INTER + INTRA:          -7.891
REMARK INTER:                  -7.265
REMARK INTRA:                  -0.626
REMARK UNBOUND:                -0.617
REMARK SMILES O=C(C=Cc1ccc(O)cc1)c1ccc(O)cc1O
REMARK SMILES IDX 4 1 3 2 5 3 6 4 7 5 8 6 11 7 10 8 9 9 2 11 1 12 12 13 18 14
REMARK SMILES IDX 13 15 17 16 14 17 15 18 19 19 16 21
REMARK H PARENT 9 10 19 20 16 22
REMARK Flexibility Score: inf
ROOT
ATOM      1  C   UNL     1      13.268   6.119  68.014  1.00  0.00     0.012 C 
ATOM      2  C   UNL     1      13.329   4.830  67.650  1.00  0.00     0.053 C 
ENDROOT
BRANCH   1   3
ATOM      3  C   UNL     1      12.107   6.723  68.712  1.00  0.00    -0.025 A 
ATOM      4  C   UNL     1      11.805   6.292  70.014  1.00  0.00     0.012 A 
ATOM      5  C   UNL     1      10.714   6.827  70.706  1.00  0.00     0.047 A 
ATOM      6  C   UNL     1       9.903   7.792  70.103  1.00  0.00     0.115 A 
ATOM      7  C   UNL     1      11.274   7.685  68.104  1.00  0.00     0.012 A 
ATOM      8  C   UNL     1      10.184   8.217  68.799  1.00  0.00     0.047 A 
BRANCH   6   9
ATOM      9  O   UNL     1       8.819   8.315  70.805  1.00  0.00    -0.508 OA
ATOM     10  H   UNL     1       7.928   7.833  70.839  1.00  0.00     0.293 HD
ENDBRANCH   6   9
ENDBRANCH   1   3
BRANCH   2  11
ATOM     11  C   UNL     1      14.498   4.265  66.941  1.00  0.00     0.189 C 
ATOM     12  O   UNL     1      15.660   4.428  67.405  1.00  0.00    -0.289 OA
BRANCH  11  13
ATOM     13  C   UNL     1      14.313   3.479  65.702  1.00  0.00     0.064 A 
ATOM     14  C   UNL     1      15.163   3.638  64.580  1.00  0.00     0.130 A 
ATOM     15  C   UNL     1      13.287   2.516  65.650  1.00  0.00     0.020 A 
ATOM     16  C   UNL     1      14.993   2.817  63.458  1.00  0.00     0.093 A 
ATOM     17  C   UNL     1      13.119   1.715  64.519  1.00  0.00     0.047 A 
ATOM     18  C   UNL     1      13.976   1.860  63.421  1.00  0.00     0.119 A 
BRANCH  14  19
ATOM     19  O   UNL     1      16.162   4.612  64.533  1.00  0.00    -0.507 OA
ATOM     20  H   UNL     1      16.204   5.331  63.823  1.00  0.00     0.293 HD
ENDBRANCH  14  19
BRANCH  18  21
ATOM     21  O   UNL     1      13.822   1.061  62.291  1.00  0.00    -0.508 OA
ATOM     22  H   UNL     1      14.384   0.229  62.149  1.00  0.00     0.293 HD
ENDBRANCH  18  21
ENDBRANCH  11  13
ENDBRANCH   2  11
TORSDOF 6
ENDMDL
