MODEL 1
REMARK VINA RESULT:    -8.601      0.000      0.000
REMARK INTER + INTRA:         -12.238
REMARK INTER:                 -11.366
REMARK INTRA:                  -0.871
REMARK UNBOUND:                -0.871
REMARK SMILES CC[C@H](C=C[C@H](C)[C@H]1CC[C@H]2[C@@H]3CC=C4C[C@@H](O)CC[C@]4(C)[C@H]3CC[C@@]12C)C(C)C
REMARK SMILES IDX 6 1 7 2 5 3 4 4 3 5 2 6 1 7 28 8 29 9 30 10 8 11 9 12 26 13
REMARK SMILES IDX 10 14 11 15 25 16 27 17 12 18 24 19 23 20 13 21 21 22 14 23
REMARK SMILES IDX 15 24 20 25 22 26 16 27 19 28 17 29 18 30
REMARK H PARENT 18 31
REMARK Flexibility Score: inf
ROOT
ATOM      1  C   UNL     1     119.179 128.775 130.531  1.00  0.00     0.012 C 
ATOM      2  C   UNL     1     120.650 128.325 130.529  1.00  0.00     0.012 C 
ENDROOT
BRANCH   1   3
ATOM      3  C   UNL     1     119.098 130.230 130.107  1.00  0.00    -0.028 C 
ATOM      4  C   UNL     1     120.182 131.027 130.068  1.00  0.00    -0.027 C 
BRANCH   4   5
ATOM      5  C   UNL     1     120.114 132.469 129.607  1.00  0.00     0.014 C 
BRANCH   5   6
ATOM      6  C   UNL     1     118.782 133.072 130.122  1.00  0.00     0.004 C 
ATOM      7  C   UNL     1     118.070 133.981 129.120  1.00  0.00     0.004 C 
ENDBRANCH   5   6
BRANCH   5   8
ATOM      8  C   UNL     1     121.418 133.205 130.052  1.00  0.00    -0.011 C 
ATOM      9  C   UNL     1     122.694 132.391 129.789  1.00  0.00     0.008 C 
ATOM     10  C   UNL     1     121.554 134.627 129.486  1.00  0.00     0.008 C 
ENDBRANCH   5   8
ENDBRANCH   4   5
ENDBRANCH   1   3
BRANCH   1  11
ATOM     11  C   UNL     1     118.266 127.863 129.634  1.00  0.00     0.002 C 
ATOM     12  C   UNL     1     119.013 127.032 128.586  1.00  0.00     0.005 C 
ATOM     13  C   UNL     1     117.359 126.819 130.355  1.00  0.00    -0.026 C 
ATOM     14  C   UNL     1     118.065 125.895 128.198  1.00  0.00     0.005 C 
ATOM     15  C   UNL     1     116.854 125.980 129.149  1.00  0.00    -0.001 C 
ATOM     16  C   UNL     1     118.171 125.942 131.386  1.00  0.00     0.007 C 
ATOM     17  C   UNL     1     116.167 127.528 131.047  1.00  0.00     0.012 C 
ATOM     18  C   UNL     1     116.227 124.580 129.477  1.00  0.00     0.000 C 
ATOM     19  C   UNL     1     117.944 124.420 131.298  1.00  0.00     0.005 C 
ATOM     20  C   UNL     1     116.496 124.095 130.920  1.00  0.00     0.003 C 
ATOM     21  C   UNL     1     114.713 124.550 129.237  1.00  0.00     0.031 C 
ATOM     22  C   UNL     1     116.069 122.590 131.105  1.00  0.00    -0.008 C 
ATOM     23  C   UNL     1     114.113 123.217 129.606  1.00  0.00    -0.027 C 
ATOM     24  C   UNL     1     114.672 122.361 130.500  1.00  0.00    -0.065 C 
ATOM     25  C   UNL     1     116.000 122.266 132.631  1.00  0.00     0.014 C 
ATOM     26  C   UNL     1     117.076 121.625 130.421  1.00  0.00     0.016 C 
ATOM     27  C   UNL     1     113.935 121.081 130.843  1.00  0.00     0.063 C 
ATOM     28  C   UNL     1     115.305 120.934 132.957  1.00  0.00     0.033 C 
ATOM     29  C   UNL     1     113.893 120.881 132.364  1.00  0.00     0.118 C 
BRANCH  29  30
ATOM     30  O   UNL     1     113.314 119.638 132.667  1.00  0.00    -0.393 OA
ATOM     31  H   UNL     1     113.984 118.944 132.423  1.00  0.00     0.210 HD
ENDBRANCH  29  30
ENDBRANCH   1  11
TORSDOF 6
ENDMDL
MODEL 2
REMARK VINA RESULT:    -7.470      3.777      6.633
REMARK INTER + INTRA:         -10.744
REMARK INTER:                 -10.451
REMARK INTRA:                  -0.293
REMARK UNBOUND:                -0.871
REMARK SMILES CC[C@H](C=C[C@H](C)[C@H]1CC[C@H]2[C@@H]3CC=C4C[C@@H](O)CC[C@]4(C)[C@H]3CC[C@@]12C)C(C)C
REMARK SMILES IDX 6 1 7 2 5 3 4 4 3 5 2 6 1 7 28 8 29 9 30 10 8 11 9 12 26 13
REMARK SMILES IDX 10 14 11 15 25 16 27 17 12 18 24 19 23 20 13 21 21 22 14 23
REMARK SMILES IDX 15 24 20 25 22 26 16 27 19 28 17 29 18 30
REMARK H PARENT 18 31
REMARK Flexibility Score: inf
ROOT
ATOM      1  C   UNL     1     113.891 123.338 128.629  1.00  0.00     0.012 C 
ATOM      2  C   UNL     1     112.468 123.805 128.276  1.00  0.00     0.012 C 
ENDROOT
BRANCH   1   3
ATOM      3  C   UNL     1     114.736 124.540 129.007  1.00  0.00    -0.028 C 
ATOM      4  C   UNL     1     115.793 124.934 128.272  1.00  0.00    -0.027 C 
BRANCH   4   5
ATOM      5  C   UNL     1     116.617 126.157 128.623  1.00  0.00     0.014 C 
BRANCH   5   6
ATOM      6  C   UNL     1     116.721 126.235 130.168  1.00  0.00     0.004 C 
ATOM      7  C   UNL     1     116.372 127.601 130.758  1.00  0.00     0.004 C 
ENDBRANCH   5   6
BRANCH   5   8
ATOM      8  C   UNL     1     117.970 126.098 127.845  1.00  0.00    -0.011 C 
ATOM      9  C   UNL     1     119.046 127.023 128.431  1.00  0.00     0.008 C 
ATOM     10  C   UNL     1     118.519 124.676 127.658  1.00  0.00     0.008 C 
ENDBRANCH   5   8
ENDBRANCH   4   5
ENDBRANCH   1   3
BRANCH   1  11
ATOM     11  C   UNL     1     113.907 122.246 129.758  1.00  0.00     0.002 C 
ATOM     12  C   UNL     1     113.974 120.799 129.258  1.00  0.00     0.005 C 
ATOM     13  C   UNL     1     115.047 122.321 130.820  1.00  0.00    -0.026 C 
ATOM     14  C   UNL     1     114.479 119.969 130.440  1.00  0.00     0.005 C 
ATOM     15  C   UNL     1     114.863 120.964 131.552  1.00  0.00    -0.001 C 
ATOM     16  C   UNL     1     116.471 122.442 130.151  1.00  0.00     0.007 C 
ATOM     17  C   UNL     1     114.793 123.495 131.799  1.00  0.00     0.012 C 
ATOM     18  C   UNL     1     116.061 120.471 132.436  1.00  0.00     0.000 C 
ATOM     19  C   UNL     1     117.551 121.484 130.691  1.00  0.00     0.005 C 
ATOM     20  C   UNL     1     117.378 121.243 132.194  1.00  0.00     0.003 C 
ATOM     21  C   UNL     1     115.742 120.529 133.935  1.00  0.00     0.031 C 
ATOM     22  C   UNL     1     118.593 120.541 132.911  1.00  0.00    -0.008 C 
ATOM     23  C   UNL     1     116.919 120.103 134.776  1.00  0.00    -0.027 C 
ATOM     24  C   UNL     1     118.208 120.175 134.357  1.00  0.00    -0.065 C 
ATOM     25  C   UNL     1     119.796 121.535 132.961  1.00  0.00     0.014 C 
ATOM     26  C   UNL     1     119.024 119.250 132.164  1.00  0.00     0.016 C 
ATOM     27  C   UNL     1     119.312 119.786 135.321  1.00  0.00     0.063 C 
ATOM     28  C   UNL     1     120.933 121.093 133.897  1.00  0.00     0.033 C 
ATOM     29  C   UNL     1     120.421 120.846 135.320  1.00  0.00     0.118 C 
BRANCH  29  30
ATOM     30  O   UNL     1     121.490 120.421 136.125  1.00  0.00    -0.393 OA
ATOM     31  H   UNL     1     122.264 121.006 135.904  1.00  0.00     0.210 HD
ENDBRANCH  29  30
ENDBRANCH   1  11
TORSDOF 6
ENDMDL
MODEL 3
REMARK VINA RESULT:    -7.368      3.614      9.810
REMARK INTER + INTRA:         -10.609
REMARK INTER:                 -10.071
REMARK INTRA:                  -0.538
REMARK UNBOUND:                -0.871
REMARK SMILES CC[C@H](C=C[C@H](C)[C@H]1CC[C@H]2[C@@H]3CC=C4C[C@@H](O)CC[C@]4(C)[C@H]3CC[C@@]12C)C(C)C
REMARK SMILES IDX 6 1 7 2 5 3 4 4 3 5 2 6 1 7 28 8 29 9 30 10 8 11 9 12 26 13
REMARK SMILES IDX 10 14 11 15 25 16 27 17 12 18 24 19 23 20 13 21 21 22 14 23
REMARK SMILES IDX 15 24 20 25 22 26 16 27 19 28 17 29 18 30
REMARK H PARENT 18 31
REMARK Flexibility Score: inf
ROOT
ATOM      1  C   UNL     1     114.100 119.813 129.091  1.00  0.00     0.012 C 
ATOM      2  C   UNL     1     113.797 120.481 127.739  1.00  0.00     0.012 C 
ENDROOT
BRANCH   1   3
ATOM      3  C   UNL     1     115.242 118.829 128.921  1.00  0.00    -0.028 C 
ATOM      4  C   UNL     1     115.803 118.581 127.722  1.00  0.00    -0.027 C 
BRANCH   4   5
ATOM      5  C   UNL     1     116.970 117.630 127.552  1.00  0.00     0.014 C 
BRANCH   5   6
ATOM      6  C   UNL     1     117.316 117.565 126.042  1.00  0.00     0.004 C 
ATOM      7  C   UNL     1     117.108 116.192 125.404  1.00  0.00     0.004 C 
ENDBRANCH   5   6
BRANCH   5   8
ATOM      8  C   UNL     1     118.127 118.071 128.504  1.00  0.00    -0.011 C 
ATOM      9  C   UNL     1     119.108 116.936 128.831  1.00  0.00     0.008 C 
ATOM     10  C   UNL     1     118.880 119.322 128.030  1.00  0.00     0.008 C 
ENDBRANCH   5   8
ENDBRANCH   4   5
ENDBRANCH   1   3
BRANCH   1  11
ATOM     11  C   UNL     1     114.403 120.856 130.227  1.00  0.00     0.002 C 
ATOM     12  C   UNL     1     115.337 120.353 131.333  1.00  0.00     0.005 C 
ATOM     13  C   UNL     1     115.031 122.220 129.806  1.00  0.00    -0.026 C 
ATOM     14  C   UNL     1     115.890 121.606 132.016  1.00  0.00     0.005 C 
ATOM     15  C   UNL     1     115.408 122.815 131.190  1.00  0.00    -0.001 C 
ATOM     16  C   UNL     1     116.296 122.029 128.881  1.00  0.00     0.007 C 
ATOM     17  C   UNL     1     113.968 123.110 129.115  1.00  0.00     0.012 C 
ATOM     18  C   UNL     1     116.425 124.009 131.191  1.00  0.00     0.000 C 
ATOM     19  C   UNL     1     117.543 122.845 129.272  1.00  0.00     0.005 C 
ATOM     20  C   UNL     1     117.156 124.211 129.845  1.00  0.00     0.003 C 
ATOM     21  C   UNL     1     115.763 125.337 131.580  1.00  0.00     0.031 C 
ATOM     22  C   UNL     1     118.336 125.246 129.985  1.00  0.00    -0.008 C 
ATOM     23  C   UNL     1     116.737 126.486 131.527  1.00  0.00    -0.027 C 
ATOM     24  C   UNL     1     117.856 126.489 130.757  1.00  0.00    -0.065 C 
ATOM     25  C   UNL     1     118.786 125.698 128.560  1.00  0.00     0.014 C 
ATOM     26  C   UNL     1     119.547 124.628 130.734  1.00  0.00     0.016 C 
ATOM     27  C   UNL     1     118.720 127.735 130.731  1.00  0.00     0.063 C 
ATOM     28  C   UNL     1     119.713 126.925 128.559  1.00  0.00     0.033 C 
ATOM     29  C   UNL     1     119.072 128.111 129.286  1.00  0.00     0.118 C 
BRANCH  29  30
ATOM     30  O   UNL     1     119.967 129.193 129.278  1.00  0.00    -0.393 OA
ATOM     31  H   UNL     1     119.790 129.704 128.443  1.00  0.00     0.210 HD
ENDBRANCH  29  30
ENDBRANCH   1  11
TORSDOF 6
ENDMDL
MODEL 4
REMARK VINA RESULT:    -7.294      1.526      2.609
REMARK INTER + INTRA:         -10.510
REMARK INTER:                 -10.105
REMARK INTRA:                  -0.406
REMARK UNBOUND:                -0.871
REMARK SMILES CC[C@H](C=C[C@H](C)[C@H]1CC[C@H]2[C@@H]3CC=C4C[C@@H](O)CC[C@]4(C)[C@H]3CC[C@@]12C)C(C)C
REMARK SMILES IDX 6 1 7 2 5 3 4 4 3 5 2 6 1 7 28 8 29 9 30 10 8 11 9 12 26 13
REMARK SMILES IDX 10 14 11 15 25 16 27 17 12 18 24 19 23 20 13 21 21 22 14 23
REMARK SMILES IDX 15 24 20 25 22 26 16 27 19 28 17 29 18 30
REMARK H PARENT 18 31
REMARK Flexibility Score: inf
ROOT
ATOM      1  C   UNL     1     118.452 129.018 130.339  1.00  0.00     0.012 C 
ATOM      2  C   UNL     1     117.809 128.983 131.736  1.00  0.00     0.012 C 
ENDROOT
BRANCH   1   3
ATOM      3  C   UNL     1     119.492 130.121 130.291  1.00  0.00    -0.028 C 
ATOM      4  C   UNL     1     119.182 131.410 130.531  1.00  0.00    -0.027 C 
BRANCH   4   5
ATOM      5  C   UNL     1     120.223 132.511 130.524  1.00  0.00     0.014 C 
BRANCH   5   6
ATOM      6  C   UNL     1     121.556 131.905 130.014  1.00  0.00     0.004 C 
ATOM      7  C   UNL     1     122.592 132.937 129.571  1.00  0.00     0.004 C 
ENDBRANCH   5   6
BRANCH   5   8
ATOM      8  C   UNL     1     119.669 133.728 129.717  1.00  0.00    -0.011 C 
ATOM      9  C   UNL     1     118.199 133.563 129.304  1.00  0.00     0.008 C 
ATOM     10  C   UNL     1     119.893 135.083 130.403  1.00  0.00     0.008 C 
ENDBRANCH   5   8
ENDBRANCH   4   5
ENDBRANCH   1   3
BRANCH   1  11
ATOM     11  C   UNL     1     119.064 127.633 129.920  1.00  0.00     0.002 C 
ATOM     12  C   UNL     1     120.036 127.023 130.935  1.00  0.00     0.005 C 
ATOM     13  C   UNL     1     118.073 126.468 129.614  1.00  0.00    -0.026 C 
ATOM     14  C   UNL     1     120.109 125.530 130.603  1.00  0.00     0.005 C 
ATOM     15  C   UNL     1     119.049 125.264 129.516  1.00  0.00    -0.001 C 
ATOM     16  C   UNL     1     117.012 126.275 130.767  1.00  0.00     0.007 C 
ATOM     17  C   UNL     1     117.375 126.701 128.250  1.00  0.00     0.012 C 
ATOM     18  C   UNL     1     118.414 123.832 129.610  1.00  0.00     0.000 C 
ATOM     19  C   UNL     1     116.810 124.830 131.260  1.00  0.00     0.005 C 
ATOM     20  C   UNL     1     116.953 123.826 130.112  1.00  0.00     0.003 C 
ATOM     21  C   UNL     1     118.463 123.085 128.272  1.00  0.00     0.031 C 
ATOM     22  C   UNL     1     116.463 122.362 130.428  1.00  0.00    -0.008 C 
ATOM     23  C   UNL     1     117.803 121.732 128.360  1.00  0.00    -0.027 C 
ATOM     24  C   UNL     1     116.850 121.418 129.275  1.00  0.00    -0.065 C 
ATOM     25  C   UNL     1     114.907 122.364 130.559  1.00  0.00     0.014 C 
ATOM     26  C   UNL     1     117.088 121.826 131.745  1.00  0.00     0.016 C 
ATOM     27  C   UNL     1     116.207 120.046 129.217  1.00  0.00     0.063 C 
ATOM     28  C   UNL     1     114.279 120.961 130.562  1.00  0.00     0.033 C 
ATOM     29  C   UNL     1     114.681 120.167 129.315  1.00  0.00     0.118 C 
BRANCH  29  30
ATOM     30  O   UNL     1     114.103 118.888 129.379  1.00  0.00    -0.393 OA
ATOM     31  H   UNL     1     114.736 118.313 129.886  1.00  0.00     0.210 HD
ENDBRANCH  29  30
ENDBRANCH   1  11
TORSDOF 6
ENDMDL
MODEL 5
REMARK VINA RESULT:    -7.237      4.601      6.566
REMARK INTER + INTRA:         -10.436
REMARK INTER:                  -9.045
REMARK INTRA:                  -1.391
REMARK UNBOUND:                -0.871
REMARK SMILES CC[C@H](C=C[C@H](C)[C@H]1CC[C@H]2[C@@H]3CC=C4C[C@@H](O)CC[C@]4(C)[C@H]3CC[C@@]12C)C(C)C
REMARK SMILES IDX 6 1 7 2 5 3 4 4 3 5 2 6 1 7 28 8 29 9 30 10 8 11 9 12 26 13
REMARK SMILES IDX 10 14 11 15 25 16 27 17 12 18 24 19 23 20 13 21 21 22 14 23
REMARK SMILES IDX 15 24 20 25 22 26 16 27 19 28 17 29 18 30
REMARK H PARENT 18 31
REMARK Flexibility Score: inf
ROOT
ATOM      1  C   UNL     1     116.764 126.023 129.959  1.00  0.00     0.012 C 
ATOM      2  C   UNL     1     115.720 125.355 130.870  1.00  0.00     0.012 C 
ENDROOT
BRANCH   1   3
ATOM      3  C   UNL     1     116.798 127.513 130.243  1.00  0.00    -0.028 C 
ATOM      4  C   UNL     1     117.773 128.081 130.979  1.00  0.00    -0.027 C 
BRANCH   4   5
ATOM      5  C   UNL     1     117.835 129.573 131.233  1.00  0.00     0.014 C 
BRANCH   5   6
ATOM      6  C   UNL     1     117.505 129.817 132.727  1.00  0.00     0.004 C 
ATOM      7  C   UNL     1     117.084 128.565 133.496  1.00  0.00     0.004 C 
ENDBRANCH   5   6
BRANCH   5   8
ATOM      8  C   UNL     1     119.213 130.116 130.737  1.00  0.00    -0.011 C 
ATOM      9  C   UNL     1     119.975 130.907 131.810  1.00  0.00     0.008 C 
ATOM     10  C   UNL     1     120.115 129.043 130.108  1.00  0.00     0.008 C 
ENDBRANCH   5   8
ENDBRANCH   4   5
ENDBRANCH   1   3
BRANCH   1  11
ATOM     11  C   UNL     1     118.189 125.378 130.098  1.00  0.00     0.002 C 
ATOM     12  C   UNL     1     118.275 124.205 131.080  1.00  0.00     0.005 C 
ATOM     13  C   UNL     1     118.862 124.826 128.804  1.00  0.00    -0.026 C 
ATOM     14  C   UNL     1     119.541 123.432 130.701  1.00  0.00     0.005 C 
ATOM     15  C   UNL     1     120.076 124.064 129.401  1.00  0.00    -0.001 C 
ATOM     16  C   UNL     1     117.900 123.867 128.001  1.00  0.00     0.007 C 
ATOM     17  C   UNL     1     119.352 125.995 127.912  1.00  0.00     0.012 C 
ATOM     18  C   UNL     1     120.792 123.031 128.461  1.00  0.00     0.000 C 
ATOM     19  C   UNL     1     118.510 122.525 127.552  1.00  0.00     0.005 C 
ATOM     20  C   UNL     1     119.989 122.682 127.188  1.00  0.00     0.003 C 
ATOM     21  C   UNL     1     122.187 123.503 128.033  1.00  0.00     0.031 C 
ATOM     22  C   UNL     1     120.631 121.462 126.424  1.00  0.00    -0.008 C 
ATOM     23  C   UNL     1     122.843 122.528 127.088  1.00  0.00    -0.027 C 
ATOM     24  C   UNL     1     122.154 121.660 126.305  1.00  0.00    -0.065 C 
ATOM     25  C   UNL     1     120.032 121.392 124.984  1.00  0.00     0.014 C 
ATOM     26  C   UNL     1     120.356 120.123 127.160  1.00  0.00     0.016 C 
ATOM     27  C   UNL     1     122.924 120.778 125.340  1.00  0.00     0.063 C 
ATOM     28  C   UNL     1     120.789 120.445 124.038  1.00  0.00     0.033 C 
ATOM     29  C   UNL     1     122.274 120.813 123.951  1.00  0.00     0.118 C 
BRANCH  29  30
ATOM     30  O   UNL     1     122.922 119.905 123.097  1.00  0.00    -0.393 OA
ATOM     31  H   UNL     1     122.753 118.996 123.464  1.00  0.00     0.210 HD
ENDBRANCH  29  30
ENDBRANCH   1  11
TORSDOF 6
ENDMDL
MODEL 6
REMARK VINA RESULT:    -7.128      4.807      8.856
REMARK INTER + INTRA:         -10.291
REMARK INTER:                  -9.112
REMARK INTRA:                  -1.179
REMARK UNBOUND:                -0.871
REMARK SMILES CC[C@H](C=C[C@H](C)[C@H]1CC[C@H]2[C@@H]3CC=C4C[C@@H](O)CC[C@]4(C)[C@H]3CC[C@@]12C)C(C)C
REMARK SMILES IDX 6 1 7 2 5 3 4 4 3 5 2 6 1 7 28 8 29 9 30 10 8 11 9 12 26 13
REMARK SMILES IDX 10 14 11 15 25 16 27 17 12 18 24 19 23 20 13 21 21 22 14 23
REMARK SMILES IDX 15 24 20 25 22 26 16 27 19 28 17 29 18 30
REMARK H PARENT 18 31
REMARK Flexibility Score: inf
ROOT
ATOM      1  C   UNL     1     116.540 124.929 130.664  1.00  0.00     0.012 C 
ATOM      2  C   UNL     1     116.015 126.355 130.904  1.00  0.00     0.012 C 
ENDROOT
BRANCH   1   3
ATOM      3  C   UNL     1     115.443 123.930 130.979  1.00  0.00    -0.028 C 
ATOM      4  C   UNL     1     115.564 123.020 131.964  1.00  0.00    -0.027 C 
BRANCH   4   5
ATOM      5  C   UNL     1     114.456 122.045 132.310  1.00  0.00     0.014 C 
BRANCH   5   6
ATOM      6  C   UNL     1     113.736 121.654 130.995  1.00  0.00     0.004 C 
ATOM      7  C   UNL     1     114.256 120.371 130.346  1.00  0.00     0.004 C 
ENDBRANCH   5   6
BRANCH   5   8
ATOM      8  C   UNL     1     115.057 120.867 133.140  1.00  0.00    -0.011 C 
ATOM      9  C   UNL     1     116.593 120.879 133.185  1.00  0.00     0.008 C 
ATOM     10  C   UNL     1     114.473 120.740 134.555  1.00  0.00     0.008 C 
ENDBRANCH   5   8
ENDBRANCH   4   5
ENDBRANCH   1   3
BRANCH   1  11
ATOM     11  C   UNL     1     117.100 124.727 129.210  1.00  0.00     0.002 C 
ATOM     12  C   UNL     1     117.751 125.968 128.590  1.00  0.00     0.005 C 
ATOM     13  C   UNL     1     118.164 123.607 128.994  1.00  0.00    -0.026 C 
ATOM     14  C   UNL     1     118.643 125.453 127.457  1.00  0.00     0.005 C 
ATOM     15  C   UNL     1     118.632 123.914 127.546  1.00  0.00    -0.001 C 
ATOM     16  C   UNL     1     119.349 123.709 130.032  1.00  0.00     0.007 C 
ATOM     17  C   UNL     1     117.494 122.211 129.053  1.00  0.00     0.012 C 
ATOM     18  C   UNL     1     119.982 123.260 127.088  1.00  0.00     0.000 C 
ATOM     19  C   UNL     1     120.769 123.625 129.441  1.00  0.00     0.005 C 
ATOM     20  C   UNL     1     120.817 122.669 128.245  1.00  0.00     0.003 C 
ATOM     21  C   UNL     1     119.770 122.160 126.040  1.00  0.00     0.031 C 
ATOM     22  C   UNL     1     122.261 122.263 127.760  1.00  0.00    -0.008 C 
ATOM     23  C   UNL     1     121.068 121.502 125.647  1.00  0.00    -0.027 C 
ATOM     24  C   UNL     1     122.169 121.475 126.440  1.00  0.00    -0.065 C 
ATOM     25  C   UNL     1     122.918 121.342 128.836  1.00  0.00     0.014 C 
ATOM     26  C   UNL     1     123.156 123.512 127.538  1.00  0.00     0.016 C 
ATOM     27  C   UNL     1     123.394 120.718 125.964  1.00  0.00     0.063 C 
ATOM     28  C   UNL     1     124.194 120.631 128.354  1.00  0.00     0.033 C 
ATOM     29  C   UNL     1     123.934 119.818 127.082  1.00  0.00     0.118 C 
BRANCH  29  30
ATOM     30  O   UNL     1     125.133 119.212 126.672  1.00  0.00    -0.393 OA
ATOM     31  H   UNL     1     125.873 119.788 127.005  1.00  0.00     0.210 HD
ENDBRANCH  29  30
ENDBRANCH   1  11
TORSDOF 6
ENDMDL
MODEL 7
REMARK VINA RESULT:    -6.867      6.727     10.604
REMARK INTER + INTRA:          -9.947
REMARK INTER:                  -8.666
REMARK INTRA:                  -1.281
REMARK UNBOUND:                -0.871
REMARK SMILES CC[C@H](C=C[C@H](C)[C@H]1CC[C@H]2[C@@H]3CC=C4C[C@@H](O)CC[C@]4(C)[C@H]3CC[C@@]12C)C(C)C
REMARK SMILES IDX 6 1 7 2 5 3 4 4 3 5 2 6 1 7 28 8 29 9 30 10 8 11 9 12 26 13
REMARK SMILES IDX 10 14 11 15 25 16 27 17 12 18 24 19 23 20 13 21 21 22 14 23
REMARK SMILES IDX 15 24 20 25 22 26 16 27 19 28 17 29 18 30
REMARK H PARENT 18 31
REMARK Flexibility Score: inf
ROOT
ATOM      1  C   UNL     1     118.808 120.696 130.366  1.00  0.00     0.012 C 
ATOM      2  C   UNL     1     119.278 121.573 131.540  1.00  0.00     0.012 C 
ENDROOT
BRANCH   1   3
ATOM      3  C   UNL     1     117.407 120.186 130.650  1.00  0.00    -0.028 C 
ATOM      4  C   UNL     1     116.307 120.858 130.262  1.00  0.00    -0.027 C 
BRANCH   4   5
ATOM      5  C   UNL     1     114.906 120.335 130.508  1.00  0.00     0.014 C 
BRANCH   5   6
ATOM      6  C   UNL     1     114.356 121.022 131.784  1.00  0.00     0.004 C 
ATOM      7  C   UNL     1     113.694 120.070 132.780  1.00  0.00     0.004 C 
ENDBRANCH   5   6
BRANCH   5   8
ATOM      8  C   UNL     1     114.060 120.522 129.209  1.00  0.00    -0.011 C 
ATOM      9  C   UNL     1     113.982 121.983 128.741  1.00  0.00     0.008 C 
ATOM     10  C   UNL     1     114.481 119.602 128.053  1.00  0.00     0.008 C 
ENDBRANCH   5   8
ENDBRANCH   4   5
ENDBRANCH   1   3
BRANCH   1  11
ATOM     11  C   UNL     1     118.879 121.443 128.986  1.00  0.00     0.002 C 
ATOM     12  C   UNL     1     119.699 122.737 128.993  1.00  0.00     0.005 C 
ATOM     13  C   UNL     1     119.446 120.654 127.766  1.00  0.00    -0.026 C 
ATOM     14  C   UNL     1     120.059 123.015 127.532  1.00  0.00     0.005 C 
ATOM     15  C   UNL     1     119.593 121.791 126.718  1.00  0.00    -0.001 C 
ATOM     16  C   UNL     1     120.830 119.972 128.095  1.00  0.00     0.007 C 
ATOM     17  C   UNL     1     118.414 119.608 127.276  1.00  0.00     0.012 C 
ATOM     18  C   UNL     1     120.503 121.492 125.476  1.00  0.00     0.000 C 
ATOM     19  C   UNL     1     121.949 120.186 127.056  1.00  0.00     0.005 C 
ATOM     20  C   UNL     1     121.383 120.231 125.633  1.00  0.00     0.003 C 
ATOM     21  C   UNL     1     119.694 121.351 124.181  1.00  0.00     0.031 C 
ATOM     22  C   UNL     1     122.450 120.132 124.478  1.00  0.00    -0.008 C 
ATOM     23  C   UNL     1     120.573 121.012 123.004  1.00  0.00    -0.027 C 
ATOM     24  C   UNL     1     121.778 120.396 123.118  1.00  0.00    -0.065 C 
ATOM     25  C   UNL     1     123.044 118.688 124.458  1.00  0.00     0.014 C 
ATOM     26  C   UNL     1     123.600 121.156 124.676  1.00  0.00     0.016 C 
ATOM     27  C   UNL     1     122.537 120.040 121.854  1.00  0.00     0.063 C 
ATOM     28  C   UNL     1     123.863 118.366 123.197  1.00  0.00     0.033 C 
ATOM     29  C   UNL     1     123.041 118.593 121.924  1.00  0.00     0.118 C 
BRANCH  29  30
ATOM     30  O   UNL     1     123.842 118.310 120.805  1.00  0.00    -0.393 OA
ATOM     31  H   UNL     1     123.237 117.941 120.107  1.00  0.00     0.210 HD
ENDBRANCH  29  30
ENDBRANCH   1  11
TORSDOF 6
ENDMDL
MODEL 8
REMARK VINA RESULT:    -6.862      7.484     10.093
REMARK INTER + INTRA:          -9.940
REMARK INTER:                  -8.815
REMARK INTRA:                  -1.125
REMARK UNBOUND:                -0.871
REMARK SMILES CC[C@H](C=C[C@H](C)[C@H]1CC[C@H]2[C@@H]3CC=C4C[C@@H](O)CC[C@]4(C)[C@H]3CC[C@@]12C)C(C)C
REMARK SMILES IDX 6 1 7 2 5 3 4 4 3 5 2 6 1 7 28 8 29 9 30 10 8 11 9 12 26 13
REMARK SMILES IDX 10 14 11 15 25 16 27 17 12 18 24 19 23 20 13 21 21 22 14 23
REMARK SMILES IDX 15 24 20 25 22 26 16 27 19 28 17 29 18 30
REMARK H PARENT 18 31
REMARK Flexibility Score: inf
ROOT
ATOM      1  C   UNL     1     122.885 120.942 124.072  1.00  0.00     0.012 C 
ATOM      2  C   UNL     1     124.166 121.021 124.921  1.00  0.00     0.012 C 
ENDROOT
BRANCH   1   3
ATOM      3  C   UNL     1     123.260 120.804 122.608  1.00  0.00    -0.028 C 
ATOM      4  C   UNL     1     124.507 120.481 122.214  1.00  0.00    -0.027 C 
BRANCH   4   5
ATOM      5  C   UNL     1     124.878 120.303 120.756  1.00  0.00     0.014 C 
BRANCH   5   6
ATOM      6  C   UNL     1     123.658 120.727 119.898  1.00  0.00     0.004 C 
ATOM      7  C   UNL     1     123.961 121.805 118.857  1.00  0.00     0.004 C 
ENDBRANCH   5   6
BRANCH   5   8
ATOM      8  C   UNL     1     126.213 121.064 120.476  1.00  0.00    -0.011 C 
ATOM      9  C   UNL     1     126.890 121.589 121.750  1.00  0.00     0.008 C 
ATOM     10  C   UNL     1     127.210 120.274 119.615  1.00  0.00     0.008 C 
ENDBRANCH   5   8
ENDBRANCH   4   5
ENDBRANCH   1   3
BRANCH   1  11
ATOM     11  C   UNL     1     121.926 119.785 124.531  1.00  0.00     0.002 C 
ATOM     12  C   UNL     1     122.526 118.817 125.555  1.00  0.00     0.005 C 
ATOM     13  C   UNL     1     120.558 120.189 125.162  1.00  0.00    -0.026 C 
ATOM     14  C   UNL     1     121.336 118.122 126.223  1.00  0.00     0.005 C 
ATOM     15  C   UNL     1     120.064 118.820 125.703  1.00  0.00    -0.001 C 
ATOM     16  C   UNL     1     120.731 121.252 126.316  1.00  0.00     0.007 C 
ATOM     17  C   UNL     1     119.593 120.710 124.068  1.00  0.00     0.012 C 
ATOM     18  C   UNL     1     118.904 118.856 126.759  1.00  0.00     0.000 C 
ATOM     19  C   UNL     1     119.980 120.949 127.627  1.00  0.00     0.005 C 
ATOM     20  C   UNL     1     118.641 120.258 127.353  1.00  0.00     0.003 C 
ATOM     21  C   UNL     1     117.583 118.322 126.192  1.00  0.00     0.031 C 
ATOM     22  C   UNL     1     117.655 120.183 128.580  1.00  0.00    -0.008 C 
ATOM     23  C   UNL     1     116.464 118.411 127.198  1.00  0.00    -0.027 C 
ATOM     24  C   UNL     1     116.448 119.293 128.230  1.00  0.00    -0.065 C 
ATOM     25  C   UNL     1     117.128 121.619 128.897  1.00  0.00     0.014 C 
ATOM     26  C   UNL     1     118.356 119.605 129.838  1.00  0.00     0.016 C 
ATOM     27  C   UNL     1     115.231 119.337 129.134  1.00  0.00     0.063 C 
ATOM     28  C   UNL     1     115.933 121.647 129.864  1.00  0.00     0.033 C 
ATOM     29  C   UNL     1     114.776 120.786 129.347  1.00  0.00     0.118 C 
BRANCH  29  30
ATOM     30  O   UNL     1     113.724 120.826 130.277  1.00  0.00    -0.393 OA
ATOM     31  H   UNL     1     113.228 119.968 130.185  1.00  0.00     0.210 HD
ENDBRANCH  29  30
ENDBRANCH   1  11
TORSDOF 6
ENDMDL
MODEL 9
REMARK VINA RESULT:    -6.802      4.754      8.714
REMARK INTER + INTRA:          -9.860
REMARK INTER:                  -9.329
REMARK INTRA:                  -0.531
REMARK UNBOUND:                -0.871
REMARK SMILES CC[C@H](C=C[C@H](C)[C@H]1CC[C@H]2[C@@H]3CC=C4C[C@@H](O)CC[C@]4(C)[C@H]3CC[C@@]12C)C(C)C
REMARK SMILES IDX 6 1 7 2 5 3 4 4 3 5 2 6 1 7 28 8 29 9 30 10 8 11 9 12 26 13
REMARK SMILES IDX 10 14 11 15 25 16 27 17 12 18 24 19 23 20 13 21 21 22 14 23
REMARK SMILES IDX 15 24 20 25 22 26 16 27 19 28 17 29 18 30
REMARK H PARENT 18 31
REMARK Flexibility Score: inf
ROOT
ATOM      1  C   UNL     1     115.992 125.676 129.848  1.00  0.00     0.012 C 
ATOM      2  C   UNL     1     115.874 126.971 129.026  1.00  0.00     0.012 C 
ENDROOT
BRANCH   1   3
ATOM      3  C   UNL     1     115.207 124.573 129.164  1.00  0.00    -0.028 C 
ATOM      4  C   UNL     1     114.400 123.737 129.846  1.00  0.00    -0.027 C 
BRANCH   4   5
ATOM      5  C   UNL     1     113.583 122.659 129.163  1.00  0.00     0.014 C 
BRANCH   5   6
ATOM      6  C   UNL     1     113.933 122.679 127.654  1.00  0.00     0.004 C 
ATOM      7  C   UNL     1     112.722 122.644 126.722  1.00  0.00     0.004 C 
ENDBRANCH   5   6
BRANCH   5   8
ATOM      8  C   UNL     1     113.813 121.303 129.904  1.00  0.00    -0.011 C 
ATOM      9  C   UNL     1     114.223 120.161 128.963  1.00  0.00     0.008 C 
ATOM     10  C   UNL     1     114.778 121.400 131.095  1.00  0.00     0.008 C 
ENDBRANCH   5   8
ENDBRANCH   4   5
ENDBRANCH   1   3
BRANCH   1  11
ATOM     11  C   UNL     1     117.484 125.251 130.096  1.00  0.00     0.002 C 
ATOM     12  C   UNL     1     117.679 124.172 131.167  1.00  0.00     0.005 C 
ATOM     13  C   UNL     1     118.293 124.711 128.877  1.00  0.00    -0.026 C 
ATOM     14  C   UNL     1     119.057 123.562 130.902  1.00  0.00     0.005 C 
ATOM     15  C   UNL     1     119.568 124.172 129.581  1.00  0.00    -0.001 C 
ATOM     16  C   UNL     1     117.516 123.571 128.110  1.00  0.00     0.007 C 
ATOM     17  C   UNL     1     118.663 125.872 127.921  1.00  0.00     0.012 C 
ATOM     18  C   UNL     1     120.468 123.188 128.754  1.00  0.00     0.000 C 
ATOM     19  C   UNL     1     118.328 122.301 127.790  1.00  0.00     0.005 C 
ATOM     20  C   UNL     1     119.789 122.640 127.478  1.00  0.00     0.003 C 
ATOM     21  C   UNL     1     121.805 123.822 128.350  1.00  0.00     0.031 C 
ATOM     22  C   UNL     1     120.633 121.474 126.838  1.00  0.00    -0.008 C 
ATOM     23  C   UNL     1     122.638 122.886 127.511  1.00  0.00    -0.027 C 
ATOM     24  C   UNL     1     122.117 121.876 126.768  1.00  0.00    -0.065 C 
ATOM     25  C   UNL     1     120.125 121.220 125.383  1.00  0.00     0.014 C 
ATOM     26  C   UNL     1     120.507 120.164 127.661  1.00  0.00     0.016 C 
ATOM     27  C   UNL     1     123.051 121.048 125.906  1.00  0.00     0.063 C 
ATOM     28  C   UNL     1     121.054 120.326 124.545  1.00  0.00     0.033 C 
ATOM     29  C   UNL     1     122.477 120.894 124.492  1.00  0.00     0.118 C 
BRANCH  29  30
ATOM     30  O   UNL     1     123.288 120.029 123.738  1.00  0.00    -0.393 OA
ATOM     31  H   UNL     1     122.685 119.548 123.110  1.00  0.00     0.210 HD
ENDBRANCH  29  30
ENDBRANCH   1  11
TORSDOF 6
ENDMDL
