MODEL 1
REMARK VINA RESULT:    -6.373      0.000      0.000
REMARK INTER + INTRA:         -10.224
REMARK INTER:                  -8.981
REMARK INTRA:                  -1.242
REMARK UNBOUND:                -1.242
REMARK SMILES OCC1=C[C@H](O)[C@H]2C=CO[C@@H](O[C@@H]3O[C@H](CO)[C@H](O)[C@H](O)[C@@H]3O)[C@@H]12
REMARK SMILES IDX 12 1 11 2 8 3 9 4 7 5 10 6 24 7 5 8 3 9 4 10 6 11 2 13 1 14
REMARK SMILES IDX 13 16 22 17 14 18 20 19 15 20 18 21 23 22 21 24 16 26 17 27
REMARK SMILES IDX 19 29
REMARK H PARENT 6 12 1 15 23 23 21 25 17 28 19 30
REMARK Flexibility Score: inf
ROOT
ATOM      1  O   UNL     1       2.039 -16.876 -36.497  1.00  0.00    -0.310 OA
ENDROOT
BRANCH   1   2
ATOM      2  C   UNL     1       1.812 -16.570 -35.132  1.00  0.00     0.316 C 
ATOM      3  C   UNL     1       0.447 -15.566 -32.863  1.00  0.00     0.018 C 
ATOM      4  C   UNL     1      -0.074 -16.570 -33.569  1.00  0.00     0.186 C 
ATOM      5  C   UNL     1       1.562 -14.686 -33.401  1.00  0.00     0.061 C 
ATOM      6  O   UNL     1       0.480 -16.937 -34.795  1.00  0.00    -0.472 OA
ATOM      7  C   UNL     1       2.032 -15.067 -34.833  1.00  0.00     0.096 C 
ATOM      8  C   UNL     1       1.036 -13.243 -33.548  1.00  0.00     0.145 C 
ATOM      9  C   UNL     1       1.259 -14.118 -35.707  1.00  0.00    -0.036 C 
ATOM     10  C   UNL     1       0.721 -13.132 -34.998  1.00  0.00     0.007 C 
BRANCH   8  11
ATOM     11  O   UNL     1       2.040 -12.318 -33.228  1.00  0.00    -0.388 OA
ATOM     12  H   UNL     1       1.930 -12.104 -32.265  1.00  0.00     0.211 HD
ENDBRANCH   8  11
BRANCH   9  13
ATOM     13  C   UNL     1       1.288 -14.097 -37.211  1.00  0.00     0.187 C 
BRANCH  13  14
ATOM     14  O   UNL     1       2.598 -14.312 -37.654  1.00  0.00    -0.392 OA
ATOM     15  H   UNL     1       2.736 -15.295 -37.636  1.00  0.00     0.211 HD
ENDBRANCH  13  14
ENDBRANCH   9  13
ENDBRANCH   1   2
BRANCH   1  16
ATOM     16  C   UNL     1       3.210 -17.656 -36.685  1.00  0.00     0.286 C 
ATOM     17  C   UNL     1       2.830 -19.155 -36.754  1.00  0.00     0.202 C 
ATOM     18  O   UNL     1       3.807 -17.249 -37.905  1.00  0.00    -0.341 OA
ATOM     19  C   UNL     1       4.078 -19.999 -37.088  1.00  0.00     0.179 C 
ATOM     20  C   UNL     1       5.057 -17.892 -38.093  1.00  0.00     0.178 C 
ATOM     21  C   UNL     1       4.860 -19.418 -38.283  1.00  0.00     0.177 C 
BRANCH  17  22
ATOM     22  O   UNL     1       1.832 -19.366 -37.721  1.00  0.00    -0.385 OA
ATOM     23  H   UNL     1       1.041 -19.735 -37.246  1.00  0.00     0.211 HD
ENDBRANCH  17  22
BRANCH  19  24
ATOM     24  O   UNL     1       3.719 -21.331 -37.355  1.00  0.00    -0.387 OA
ATOM     25  H   UNL     1       3.111 -21.616 -36.622  1.00  0.00     0.211 HD
ENDBRANCH  19  24
BRANCH  20  26
ATOM     26  C   UNL     1       5.772 -17.265 -39.298  1.00  0.00     0.191 C 
BRANCH  26  27
ATOM     27  O   UNL     1       6.630 -18.200 -39.896  1.00  0.00    -0.394 OA
ATOM     28  H   UNL     1       6.833 -18.883 -39.205  1.00  0.00     0.210 HD
ENDBRANCH  26  27
ENDBRANCH  20  26
BRANCH  21  29
ATOM     29  O   UNL     1       4.232 -19.730 -39.505  1.00  0.00    -0.387 OA
ATOM     30  H   UNL     1       4.739 -19.297 -40.238  1.00  0.00     0.211 HD
ENDBRANCH  21  29
ENDBRANCH   1  16
TORSDOF 10
ENDMDL
MODEL 2
REMARK VINA RESULT:    -5.933      3.849      7.170
REMARK INTER + INTRA:          -9.603
REMARK INTER:                  -8.293
REMARK INTRA:                  -1.310
REMARK UNBOUND:                -1.242
REMARK SMILES OCC1=C[C@H](O)[C@H]2C=CO[C@@H](O[C@@H]3O[C@H](CO)[C@H](O)[C@H](O)[C@@H]3O)[C@@H]12
REMARK SMILES IDX 12 1 11 2 8 3 9 4 7 5 10 6 24 7 5 8 3 9 4 10 6 11 2 13 1 14
REMARK SMILES IDX 13 16 22 17 14 18 20 19 15 20 18 21 23 22 21 24 16 26 17 27
REMARK SMILES IDX 19 29
REMARK H PARENT 6 12 1 15 23 23 21 25 17 28 19 30
REMARK Flexibility Score: inf
ROOT
ATOM      1  O   UNL     1       6.661 -17.911 -37.813  1.00  0.00    -0.310 OA
ENDROOT
BRANCH   1   2
ATOM      2  C   UNL     1       7.779 -18.312 -38.586  1.00  0.00     0.316 C 
ATOM      3  C   UNL     1      10.490 -18.462 -39.390  1.00  0.00     0.018 C 
ATOM      4  C   UNL     1      10.118 -18.925 -38.195  1.00  0.00     0.186 C 
ATOM      5  C   UNL     1       9.612 -17.535 -40.212  1.00  0.00     0.061 C 
ATOM      6  O   UNL     1       8.836 -18.676 -37.706  1.00  0.00    -0.472 OA
ATOM      7  C   UNL     1       8.255 -17.188 -39.538  1.00  0.00     0.096 C 
ATOM      8  C   UNL     1      10.321 -16.173 -40.360  1.00  0.00     0.145 C 
ATOM      9  C   UNL     1       8.533 -15.863 -38.882  1.00  0.00    -0.036 C 
ATOM     10  C   UNL     1       9.658 -15.322 -39.336  1.00  0.00     0.007 C 
BRANCH   8  11
ATOM     11  O   UNL     1      10.079 -15.629 -41.630  1.00  0.00    -0.388 OA
ATOM     12  H   UNL     1      10.915 -15.747 -42.151  1.00  0.00     0.211 HD
ENDBRANCH   8  11
BRANCH   9  13
ATOM     13  C   UNL     1       7.564 -15.093 -38.027  1.00  0.00     0.187 C 
BRANCH  13  14
ATOM     14  O   UNL     1       6.315 -15.058 -38.656  1.00  0.00    -0.392 OA
ATOM     15  H   UNL     1       6.421 -15.559 -39.507  1.00  0.00     0.211 HD
ENDBRANCH  13  14
ENDBRANCH   9  13
ENDBRANCH   1   2
BRANCH   1  16
ATOM     16  C   UNL     1       5.449 -18.477 -38.289  1.00  0.00     0.286 C 
ATOM     17  C   UNL     1       5.018 -19.636 -37.358  1.00  0.00     0.202 C 
ATOM     18  O   UNL     1       4.465 -17.457 -38.282  1.00  0.00    -0.341 OA
ATOM     19  C   UNL     1       3.637 -20.173 -37.790  1.00  0.00     0.179 C 
ATOM     20  C   UNL     1       3.260 -17.916 -38.873  1.00  0.00     0.178 C 
ATOM     21  C   UNL     1       2.622 -19.033 -38.008  1.00  0.00     0.177 C 
BRANCH  17  22
ATOM     22  O   UNL     1       4.970 -19.202 -36.021  1.00  0.00    -0.385 OA
ATOM     23  H   UNL     1       4.193 -19.654 -35.597  1.00  0.00     0.211 HD
ENDBRANCH  17  22
BRANCH  19  24
ATOM     24  O   UNL     1       3.139 -21.082 -36.841  1.00  0.00    -0.387 OA
ATOM     25  H   UNL     1       3.541 -21.965 -37.053  1.00  0.00     0.211 HD
ENDBRANCH  19  24
BRANCH  20  26
ATOM     26  C   UNL     1       2.301 -16.731 -39.053  1.00  0.00     0.191 C 
BRANCH  26  27
ATOM     27  O   UNL     1       0.970 -17.173 -39.026  1.00  0.00    -0.394 OA
ATOM     28  H   UNL     1       0.650 -17.171 -39.966  1.00  0.00     0.210 HD
ENDBRANCH  26  27
ENDBRANCH  20  26
BRANCH  21  29
ATOM     29  O   UNL     1       2.129 -18.546 -36.780  1.00  0.00    -0.387 OA
ATOM     30  H   UNL     1       2.894 -18.214 -36.245  1.00  0.00     0.211 HD
ENDBRANCH  21  29
ENDBRANCH   1  16
TORSDOF 10
ENDMDL
MODEL 3
REMARK VINA RESULT:    -5.889      1.288      2.383
REMARK INTER + INTRA:          -9.540
REMARK INTER:                  -8.091
REMARK INTRA:                  -1.450
REMARK UNBOUND:                -1.242
REMARK SMILES OCC1=C[C@H](O)[C@H]2C=CO[C@@H](O[C@@H]3O[C@H](CO)[C@H](O)[C@H](O)[C@@H]3O)[C@@H]12
REMARK SMILES IDX 12 1 11 2 8 3 9 4 7 5 10 6 24 7 5 8 3 9 4 10 6 11 2 13 1 14
REMARK SMILES IDX 13 16 22 17 14 18 20 19 15 20 18 21 23 22 21 24 16 26 17 27
REMARK SMILES IDX 19 29
REMARK H PARENT 6 12 1 15 23 23 21 25 17 28 19 30
REMARK Flexibility Score: inf
ROOT
ATOM      1  O   UNL     1       1.860 -16.795 -37.334  1.00  0.00    -0.310 OA
ENDROOT
BRANCH   1   2
ATOM      2  C   UNL     1       1.575 -16.901 -35.950  1.00  0.00     0.316 C 
ATOM      3  C   UNL     1       0.209 -16.436 -33.513  1.00  0.00     0.018 C 
ATOM      4  C   UNL     1      -0.409 -17.054 -34.521  1.00  0.00     0.186 C 
ATOM      5  C   UNL     1       1.494 -15.649 -33.706  1.00  0.00     0.061 C 
ATOM      6  O   UNL     1       0.177 -17.108 -35.785  1.00  0.00    -0.472 OA
ATOM      7  C   UNL     1       2.012 -15.636 -35.172  1.00  0.00     0.096 C 
ATOM      8  C   UNL     1       1.224 -14.164 -33.387  1.00  0.00     0.145 C 
ATOM      9  C   UNL     1       1.479 -14.335 -35.708  1.00  0.00    -0.036 C 
ATOM     10  C   UNL     1       1.054 -13.544 -34.729  1.00  0.00     0.007 C 
BRANCH   8  11
ATOM     11  O   UNL     1       2.337 -13.587 -32.758  1.00  0.00    -0.388 OA
ATOM     12  H   UNL     1       2.232 -13.758 -31.786  1.00  0.00     0.211 HD
ENDBRANCH   8  11
BRANCH   9  13
ATOM     13  C   UNL     1       1.636 -13.845 -37.121  1.00  0.00     0.187 C 
BRANCH  13  14
ATOM     14  O   UNL     1       2.956 -14.045 -37.539  1.00  0.00    -0.392 OA
ATOM     15  H   UNL     1       3.319 -14.769 -36.965  1.00  0.00     0.211 HD
ENDBRANCH  13  14
ENDBRANCH   9  13
ENDBRANCH   1   2
BRANCH   1  16
ATOM     16  C   UNL     1       2.619 -17.896 -37.812  1.00  0.00     0.286 C 
ATOM     17  C   UNL     1       3.711 -17.390 -38.785  1.00  0.00     0.202 C 
ATOM     18  O   UNL     1       3.219 -18.524 -36.692  1.00  0.00    -0.341 OA
ATOM     19  C   UNL     1       4.621 -18.561 -39.209  1.00  0.00     0.179 C 
ATOM     20  C   UNL     1       3.884 -19.715 -37.080  1.00  0.00     0.178 C 
ATOM     21  C   UNL     1       5.092 -19.389 -37.996  1.00  0.00     0.177 C 
BRANCH  17  22
ATOM     22  O   UNL     1       4.476 -16.377 -38.183  1.00  0.00    -0.385 OA
ATOM     23  H   UNL     1       5.332 -16.322 -38.685  1.00  0.00     0.211 HD
ENDBRANCH  17  22
BRANCH  19  24
ATOM     24  O   UNL     1       5.734 -18.090 -39.927  1.00  0.00    -0.387 OA
ATOM     25  H   UNL     1       6.200 -18.889 -40.288  1.00  0.00     0.211 HD
ENDBRANCH  19  24
BRANCH  20  26
ATOM     26  C   UNL     1       4.326 -20.480 -35.824  1.00  0.00     0.191 C 
BRANCH  26  27
ATOM     27  O   UNL     1       5.045 -19.635 -34.967  1.00  0.00    -0.394 OA
ATOM     28  H   UNL     1       4.378 -19.179 -34.391  1.00  0.00     0.210 HD
ENDBRANCH  26  27
ENDBRANCH  20  26
BRANCH  21  29
ATOM     29  O   UNL     1       6.131 -18.736 -37.304  1.00  0.00    -0.387 OA
ATOM     30  H   UNL     1       6.824 -19.406 -37.075  1.00  0.00     0.211 HD
ENDBRANCH  21  29
ENDBRANCH   1  16
TORSDOF 10
ENDMDL
MODEL 4
REMARK VINA RESULT:    -5.882      3.253      7.051
REMARK INTER + INTRA:          -9.532
REMARK INTER:                  -8.370
REMARK INTRA:                  -1.162
REMARK UNBOUND:                -1.242
REMARK SMILES OCC1=C[C@H](O)[C@H]2C=CO[C@@H](O[C@@H]3O[C@H](CO)[C@H](O)[C@H](O)[C@@H]3O)[C@@H]12
REMARK SMILES IDX 12 1 11 2 8 3 9 4 7 5 10 6 24 7 5 8 3 9 4 10 6 11 2 13 1 14
REMARK SMILES IDX 13 16 22 17 14 18 20 19 15 20 18 21 23 22 21 24 16 26 17 27
REMARK SMILES IDX 19 29
REMARK H PARENT 6 12 1 15 23 23 21 25 17 28 19 30
REMARK Flexibility Score: inf
ROOT
ATOM      1  O   UNL     1       5.781 -17.328 -39.636  1.00  0.00    -0.310 OA
ENDROOT
BRANCH   1   2
ATOM      2  C   UNL     1       7.144 -17.641 -39.869  1.00  0.00     0.316 C 
ATOM      3  C   UNL     1       9.947 -17.595 -39.473  1.00  0.00     0.018 C 
ATOM      4  C   UNL     1       9.146 -18.101 -38.535  1.00  0.00     0.186 C 
ATOM      5  C   UNL     1       9.429 -16.717 -40.599  1.00  0.00     0.061 C 
ATOM      6  O   UNL     1       7.763 -17.946 -38.625  1.00  0.00    -0.472 OA
ATOM      7  C   UNL     1       7.895 -16.473 -40.554  1.00  0.00     0.096 C 
ATOM      8  C   UNL     1      10.041 -15.308 -40.459  1.00  0.00     0.145 C 
ATOM      9  C   UNL     1       7.784 -15.142 -39.860  1.00  0.00    -0.036 C 
ATOM     10  C   UNL     1       8.956 -14.520 -39.814  1.00  0.00     0.007 C 
BRANCH   8  11
ATOM     11  O   UNL     1      10.311 -14.761 -41.722  1.00  0.00    -0.388 OA
ATOM     12  H   UNL     1      10.853 -13.945 -41.565  1.00  0.00     0.211 HD
ENDBRANCH   8  11
BRANCH   9  13
ATOM     13  C   UNL     1       6.498 -14.454 -39.495  1.00  0.00     0.187 C 
BRANCH  13  14
ATOM     14  O   UNL     1       5.583 -14.590 -40.545  1.00  0.00    -0.392 OA
ATOM     15  H   UNL     1       6.100 -14.447 -41.381  1.00  0.00     0.211 HD
ENDBRANCH  13  14
ENDBRANCH   9  13
ENDBRANCH   1   2
BRANCH   1  16
ATOM     16  C   UNL     1       5.301 -17.890 -38.424  1.00  0.00     0.286 C 
ATOM     17  C   UNL     1       4.101 -17.061 -37.908  1.00  0.00     0.202 C 
ATOM     18  O   UNL     1       4.892 -19.219 -38.698  1.00  0.00    -0.341 OA
ATOM     19  C   UNL     1       3.491 -17.737 -36.662  1.00  0.00     0.179 C 
ATOM     20  C   UNL     1       4.526 -19.890 -37.502  1.00  0.00     0.178 C 
ATOM     21  C   UNL     1       3.258 -19.245 -36.886  1.00  0.00     0.177 C 
BRANCH  17  22
ATOM     22  O   UNL     1       3.125 -16.929 -38.911  1.00  0.00    -0.385 OA
ATOM     23  H   UNL     1       3.570 -16.511 -39.695  1.00  0.00     0.211 HD
ENDBRANCH  17  22
BRANCH  19  24
ATOM     24  O   UNL     1       2.283 -17.116 -36.301  1.00  0.00    -0.387 OA
ATOM     25  H   UNL     1       2.404 -16.143 -36.460  1.00  0.00     0.211 HD
ENDBRANCH  19  24
BRANCH  20  26
ATOM     26  C   UNL     1       4.307 -21.379 -37.804  1.00  0.00     0.191 C 
BRANCH  26  27
ATOM     27  O   UNL     1       3.449 -21.948 -36.851  1.00  0.00    -0.394 OA
ATOM     28  H   UNL     1       2.836 -21.226 -36.553  1.00  0.00     0.210 HD
ENDBRANCH  26  27
ENDBRANCH  20  26
BRANCH  21  29
ATOM     29  O   UNL     1       2.106 -19.474 -37.664  1.00  0.00    -0.387 OA
ATOM     30  H   UNL     1       1.542 -20.143 -37.199  1.00  0.00     0.211 HD
ENDBRANCH  21  29
ENDBRANCH   1  16
TORSDOF 10
ENDMDL
MODEL 5
REMARK VINA RESULT:    -5.745      2.395      6.451
REMARK INTER + INTRA:          -9.339
REMARK INTER:                  -8.023
REMARK INTRA:                  -1.315
REMARK UNBOUND:                -1.242
REMARK SMILES OCC1=C[C@H](O)[C@H]2C=CO[C@@H](O[C@@H]3O[C@H](CO)[C@H](O)[C@H](O)[C@@H]3O)[C@@H]12
REMARK SMILES IDX 12 1 11 2 8 3 9 4 7 5 10 6 24 7 5 8 3 9 4 10 6 11 2 13 1 14
REMARK SMILES IDX 13 16 22 17 14 18 20 19 15 20 18 21 23 22 21 24 16 26 17 27
REMARK SMILES IDX 19 29
REMARK H PARENT 6 12 1 15 23 23 21 25 17 28 19 30
REMARK Flexibility Score: inf
ROOT
ATOM      1  O   UNL     1       2.519 -17.986 -36.525  1.00  0.00    -0.310 OA
ENDROOT
BRANCH   1   2
ATOM      2  C   UNL     1       3.517 -17.091 -36.985  1.00  0.00     0.316 C 
ATOM      3  C   UNL     1       5.305 -15.876 -38.814  1.00  0.00     0.018 C 
ATOM      4  C   UNL     1       3.988 -15.794 -39.010  1.00  0.00     0.186 C 
ATOM      5  C   UNL     1       5.925 -16.881 -37.860  1.00  0.00     0.061 C 
ATOM      6  O   UNL     1       3.109 -16.553 -38.237  1.00  0.00    -0.472 OA
ATOM      7  C   UNL     1       4.890 -17.790 -37.139  1.00  0.00     0.096 C 
ATOM      8  C   UNL     1       6.797 -17.865 -38.665  1.00  0.00     0.145 C 
ATOM      9  C   UNL     1       4.888 -19.035 -37.983  1.00  0.00    -0.036 C 
ATOM     10  C   UNL     1       5.928 -19.064 -38.809  1.00  0.00     0.007 C 
BRANCH   8  11
ATOM     11  O   UNL     1       7.942 -18.218 -37.936  1.00  0.00    -0.388 OA
ATOM     12  H   UNL     1       8.497 -17.398 -37.867  1.00  0.00     0.211 HD
ENDBRANCH   8  11
BRANCH   9  13
ATOM     13  C   UNL     1       4.004 -20.232 -37.768  1.00  0.00     0.187 C 
BRANCH  13  14
ATOM     14  O   UNL     1       2.902 -20.157 -38.626  1.00  0.00    -0.392 OA
ATOM     15  H   UNL     1       2.986 -20.925 -39.250  1.00  0.00     0.211 HD
ENDBRANCH  13  14
ENDBRANCH   9  13
ENDBRANCH   1   2
BRANCH   1  16
ATOM     16  C   UNL     1       1.218 -17.419 -36.593  1.00  0.00     0.286 C 
ATOM     17  C   UNL     1       0.306 -18.317 -37.464  1.00  0.00     0.202 C 
ATOM     18  O   UNL     1       0.710 -17.348 -35.271  1.00  0.00    -0.341 OA
ATOM     19  C   UNL     1      -1.140 -17.780 -37.437  1.00  0.00     0.179 C 
ATOM     20  C   UNL     1      -0.533 -16.667 -35.246  1.00  0.00     0.178 C 
ATOM     21  C   UNL     1      -1.614 -17.483 -36.001  1.00  0.00     0.177 C 
BRANCH  17  22
ATOM     22  O   UNL     1       0.337 -19.645 -37.004  1.00  0.00    -0.385 OA
ATOM     23  H   UNL     1       1.076 -19.706 -36.342  1.00  0.00     0.211 HD
ENDBRANCH  17  22
BRANCH  19  24
ATOM     24  O   UNL     1      -2.018 -18.689 -38.052  1.00  0.00    -0.387 OA
ATOM     25  H   UNL     1      -1.518 -19.540 -38.163  1.00  0.00     0.211 HD
ENDBRANCH  19  24
BRANCH  20  26
ATOM     26  C   UNL     1      -0.941 -16.411 -33.788  1.00  0.00     0.191 C 
BRANCH  26  27
ATOM     27  O   UNL     1      -0.596 -17.509 -32.987  1.00  0.00    -0.394 OA
ATOM     28  H   UNL     1      -1.235 -18.235 -33.208  1.00  0.00     0.210 HD
ENDBRANCH  26  27
ENDBRANCH  20  26
BRANCH  21  29
ATOM     29  O   UNL     1      -1.964 -18.668 -35.323  1.00  0.00    -0.387 OA
ATOM     30  H   UNL     1      -2.949 -18.772 -35.363  1.00  0.00     0.211 HD
ENDBRANCH  21  29
ENDBRANCH   1  16
TORSDOF 10
ENDMDL
MODEL 6
REMARK VINA RESULT:    -5.694      3.487      5.742
REMARK INTER + INTRA:          -9.266
REMARK INTER:                  -8.155
REMARK INTRA:                  -1.111
REMARK UNBOUND:                -1.242
REMARK SMILES OCC1=C[C@H](O)[C@H]2C=CO[C@@H](O[C@@H]3O[C@H](CO)[C@H](O)[C@H](O)[C@@H]3O)[C@@H]12
REMARK SMILES IDX 12 1 11 2 8 3 9 4 7 5 10 6 24 7 5 8 3 9 4 10 6 11 2 13 1 14
REMARK SMILES IDX 13 16 22 17 14 18 20 19 15 20 18 21 23 22 21 24 16 26 17 27
REMARK SMILES IDX 19 29
REMARK H PARENT 6 12 1 15 23 23 21 25 17 28 19 30
REMARK Flexibility Score: inf
ROOT
ATOM      1  O   UNL     1       6.064 -17.131 -37.785  1.00  0.00    -0.310 OA
ENDROOT
BRANCH   1   2
ATOM      2  C   UNL     1       5.318 -18.215 -37.259  1.00  0.00     0.316 C 
ATOM      3  C   UNL     1       3.507 -20.392 -37.254  1.00  0.00     0.018 C 
ATOM      4  C   UNL     1       4.623 -20.450 -37.982  1.00  0.00     0.186 C 
ATOM      5  C   UNL     1       2.967 -19.087 -36.696  1.00  0.00     0.061 C 
ATOM      6  O   UNL     1       5.417 -19.316 -38.154  1.00  0.00    -0.472 OA
ATOM      7  C   UNL     1       3.830 -17.844 -37.049  1.00  0.00     0.096 C 
ATOM      8  C   UNL     1       1.598 -18.793 -37.344  1.00  0.00     0.145 C 
ATOM      9  C   UNL     1       3.132 -17.277 -38.255  1.00  0.00    -0.036 C 
ATOM     10  C   UNL     1       1.921 -17.802 -38.405  1.00  0.00     0.007 C 
BRANCH   8  11
ATOM     11  O   UNL     1       0.731 -18.200 -36.415  1.00  0.00    -0.388 OA
ATOM     12  H   UNL     1      -0.151 -18.637 -36.534  1.00  0.00     0.211 HD
ENDBRANCH   8  11
BRANCH   9  13
ATOM     13  C   UNL     1       3.593 -16.087 -39.050  1.00  0.00     0.187 C 
BRANCH  13  14
ATOM     14  O   UNL     1       3.954 -15.056 -38.177  1.00  0.00    -0.392 OA
ATOM     15  H   UNL     1       3.566 -15.293 -37.295  1.00  0.00     0.211 HD
ENDBRANCH  13  14
ENDBRANCH   9  13
ENDBRANCH   1   2
BRANCH   1  16
ATOM     16  C   UNL     1       7.013 -17.552 -38.753  1.00  0.00     0.286 C 
ATOM     17  C   UNL     1       7.371 -16.365 -39.680  1.00  0.00     0.202 C 
ATOM     18  O   UNL     1       8.169 -17.992 -38.060  1.00  0.00    -0.341 OA
ATOM     19  C   UNL     1       8.496 -16.776 -40.652  1.00  0.00     0.179 C 
ATOM     20  C   UNL     1       9.111 -18.555 -38.959  1.00  0.00     0.178 C 
ATOM     21  C   UNL     1       9.662 -17.469 -39.918  1.00  0.00     0.177 C 
BRANCH  17  22
ATOM     22  O   UNL     1       7.771 -15.251 -38.922  1.00  0.00    -0.385 OA
ATOM     23  H   UNL     1       8.700 -15.031 -39.198  1.00  0.00     0.211 HD
ENDBRANCH  17  22
BRANCH  19  24
ATOM     24  O   UNL     1       8.973 -15.660 -41.361  1.00  0.00    -0.387 OA
ATOM     25  H   UNL     1       8.514 -14.865 -40.983  1.00  0.00     0.211 HD
ENDBRANCH  19  24
BRANCH  20  26
ATOM     26  C   UNL     1      10.240 -19.219 -38.158  1.00  0.00     0.191 C 
BRANCH  26  27
ATOM     27  O   UNL     1      11.391 -19.343 -38.950  1.00  0.00    -0.394 OA
ATOM     28  H   UNL     1      11.156 -19.943 -39.703  1.00  0.00     0.210 HD
ENDBRANCH  26  27
ENDBRANCH  20  26
BRANCH  21  29
ATOM     29  O   UNL     1      10.478 -16.530 -39.256  1.00  0.00    -0.387 OA
ATOM     30  H   UNL     1      10.106 -15.625 -39.413  1.00  0.00     0.211 HD
ENDBRANCH  21  29
ENDBRANCH   1  16
TORSDOF 10
ENDMDL
MODEL 7
REMARK VINA RESULT:    -5.628      1.596      6.840
REMARK INTER + INTRA:          -9.174
REMARK INTER:                  -7.998
REMARK INTRA:                  -1.176
REMARK UNBOUND:                -1.242
REMARK SMILES OCC1=C[C@H](O)[C@H]2C=CO[C@@H](O[C@@H]3O[C@H](CO)[C@H](O)[C@H](O)[C@@H]3O)[C@@H]12
REMARK SMILES IDX 12 1 11 2 8 3 9 4 7 5 10 6 24 7 5 8 3 9 4 10 6 11 2 13 1 14
REMARK SMILES IDX 13 16 22 17 14 18 20 19 15 20 18 21 23 22 21 24 16 26 17 27
REMARK SMILES IDX 19 29
REMARK H PARENT 6 12 1 15 23 23 21 25 17 28 19 30
REMARK Flexibility Score: inf
ROOT
ATOM      1  O   UNL     1       2.405 -16.480 -36.802  1.00  0.00    -0.310 OA
ENDROOT
BRANCH   1   2
ATOM      2  C   UNL     1       3.669 -17.106 -36.938  1.00  0.00     0.316 C 
ATOM      3  C   UNL     1       5.823 -18.407 -38.237  1.00  0.00     0.018 C 
ATOM      4  C   UNL     1       5.493 -17.158 -38.572  1.00  0.00     0.186 C 
ATOM      5  C   UNL     1       4.893 -19.309 -37.444  1.00  0.00     0.061 C 
ATOM      6  O   UNL     1       4.318 -16.582 -38.091  1.00  0.00    -0.472 OA
ATOM      7  C   UNL     1       3.541 -18.643 -37.063  1.00  0.00     0.096 C 
ATOM      8  C   UNL     1       4.490 -20.510 -38.323  1.00  0.00     0.145 C 
ATOM      9  C   UNL     1       2.611 -19.126 -38.142  1.00  0.00    -0.036 C 
ATOM     10  C   UNL     1       3.137 -20.139 -38.820  1.00  0.00     0.007 C 
BRANCH   8  11
ATOM     11  O   UNL     1       4.386 -21.674 -37.548  1.00  0.00    -0.388 OA
ATOM     12  H   UNL     1       5.232 -22.176 -37.677  1.00  0.00     0.211 HD
ENDBRANCH   8  11
BRANCH   9  13
ATOM     13  C   UNL     1       1.169 -18.726 -38.293  1.00  0.00     0.187 C 
BRANCH  13  14
ATOM     14  O   UNL     1       0.402 -19.376 -37.320  1.00  0.00    -0.392 OA
ATOM     15  H   UNL     1       0.226 -18.701 -36.613  1.00  0.00     0.211 HD
ENDBRANCH  13  14
ENDBRANCH   9  13
ENDBRANCH   1   2
BRANCH   1  16
ATOM     16  C   UNL     1       1.896 -16.577 -35.481  1.00  0.00     0.286 C 
ATOM     17  C   UNL     1       2.140 -15.245 -34.731  1.00  0.00     0.202 C 
ATOM     18  O   UNL     1       0.505 -16.836 -35.572  1.00  0.00    -0.341 OA
ATOM     19  C   UNL     1       1.476 -15.295 -33.339  1.00  0.00     0.179 C 
ATOM     20  C   UNL     1      -0.047 -17.081 -34.288  1.00  0.00     0.178 C 
ATOM     21  C   UNL     1       0.022 -15.801 -33.416  1.00  0.00     0.177 C 
BRANCH  17  22
ATOM     22  O   UNL     1       1.629 -14.164 -35.471  1.00  0.00    -0.385 OA
ATOM     23  H   UNL     1       1.546 -13.397 -34.844  1.00  0.00     0.211 HD
ENDBRANCH  17  22
BRANCH  19  24
ATOM     24  O   UNL     1       1.511 -14.031 -32.727  1.00  0.00    -0.387 OA
ATOM     25  H   UNL     1       2.320 -14.014 -32.151  1.00  0.00     0.211 HD
ENDBRANCH  19  24
BRANCH  20  26
ATOM     26  C   UNL     1      -1.492 -17.575 -34.445  1.00  0.00     0.191 C 
BRANCH  26  27
ATOM     27  O   UNL     1      -1.522 -18.763 -35.191  1.00  0.00    -0.394 OA
ATOM     28  H   UNL     1      -1.969 -19.443 -34.624  1.00  0.00     0.210 HD
ENDBRANCH  26  27
ENDBRANCH  20  26
BRANCH  21  29
ATOM     29  O   UNL     1      -0.847 -14.791 -33.873  1.00  0.00    -0.387 OA
ATOM     30  H   UNL     1      -0.748 -14.714 -34.856  1.00  0.00     0.211 HD
ENDBRANCH  21  29
ENDBRANCH   1  16
TORSDOF 10
ENDMDL
MODEL 8
REMARK VINA RESULT:    -5.618      3.784      7.437
REMARK INTER + INTRA:          -9.160
REMARK INTER:                  -8.239
REMARK INTRA:                  -0.921
REMARK UNBOUND:                -1.242
REMARK SMILES OCC1=C[C@H](O)[C@H]2C=CO[C@@H](O[C@@H]3O[C@H](CO)[C@H](O)[C@H](O)[C@@H]3O)[C@@H]12
REMARK SMILES IDX 12 1 11 2 8 3 9 4 7 5 10 6 24 7 5 8 3 9 4 10 6 11 2 13 1 14
REMARK SMILES IDX 13 16 22 17 14 18 20 19 15 20 18 21 23 22 21 24 16 26 17 27
REMARK SMILES IDX 19 29
REMARK H PARENT 6 12 1 15 23 23 21 25 17 28 19 30
REMARK Flexibility Score: inf
ROOT
ATOM      1  O   UNL     1       6.439 -17.331 -38.203  1.00  0.00    -0.310 OA
ENDROOT
BRANCH   1   2
ATOM      2  C   UNL     1       6.970 -16.450 -39.177  1.00  0.00     0.316 C 
ATOM      3  C   UNL     1       8.361 -15.658 -41.513  1.00  0.00     0.018 C 
ATOM      4  C   UNL     1       7.264 -16.411 -41.609  1.00  0.00     0.186 C 
ATOM      5  C   UNL     1       9.118 -15.485 -40.208  1.00  0.00     0.061 C 
ATOM      6  O   UNL     1       6.690 -16.974 -40.470  1.00  0.00    -0.472 OA
ATOM      7  C   UNL     1       8.497 -16.258 -39.011  1.00  0.00     0.096 C 
ATOM      8  C   UNL     1      10.527 -16.094 -40.361  1.00  0.00     0.145 C 
ATOM      9  C   UNL     1       9.305 -17.526 -38.971  1.00  0.00    -0.036 C 
ATOM     10  C   UNL     1      10.404 -17.426 -39.709  1.00  0.00     0.007 C 
BRANCH   8  11
ATOM     11  O   UNL     1      11.472 -15.330 -39.661  1.00  0.00    -0.388 OA
ATOM     12  H   UNL     1      10.996 -14.522 -39.337  1.00  0.00     0.211 HD
ENDBRANCH   8  11
BRANCH   9  13
ATOM     13  C   UNL     1       9.077 -18.676 -38.028  1.00  0.00     0.187 C 
BRANCH  13  14
ATOM     14  O   UNL     1      10.193 -19.520 -38.045  1.00  0.00    -0.392 OA
ATOM     15  H   UNL     1      10.881 -19.054 -38.588  1.00  0.00     0.211 HD
ENDBRANCH  13  14
ENDBRANCH   9  13
ENDBRANCH   1   2
BRANCH   1  16
ATOM     16  C   UNL     1       5.365 -18.108 -38.709  1.00  0.00     0.286 C 
ATOM     17  C   UNL     1       5.301 -19.459 -37.957  1.00  0.00     0.202 C 
ATOM     18  O   UNL     1       4.168 -17.378 -38.499  1.00  0.00    -0.341 OA
ATOM     19  C   UNL     1       4.060 -20.256 -38.409  1.00  0.00     0.179 C 
ATOM     20  C   UNL     1       3.065 -18.034 -39.103  1.00  0.00     0.178 C 
ATOM     21  C   UNL     1       2.786 -19.387 -38.399  1.00  0.00     0.177 C 
BRANCH  17  22
ATOM     22  O   UNL     1       5.259 -19.248 -36.568  1.00  0.00    -0.385 OA
ATOM     23  H   UNL     1       5.591 -20.079 -36.137  1.00  0.00     0.211 HD
ENDBRANCH  17  22
BRANCH  19  24
ATOM     24  O   UNL     1       3.873 -21.387 -37.597  1.00  0.00    -0.387 OA
ATOM     25  H   UNL     1       3.826 -21.062 -36.660  1.00  0.00     0.211 HD
ENDBRANCH  19  24
BRANCH  20  26
ATOM     26  C   UNL     1       1.838 -17.113 -39.051  1.00  0.00     0.191 C 
BRANCH  26  27
ATOM     27  O   UNL     1       1.779 -16.450 -37.817  1.00  0.00    -0.394 OA
ATOM     28  H   UNL     1       2.596 -16.707 -37.316  1.00  0.00     0.210 HD
ENDBRANCH  26  27
ENDBRANCH  20  26
BRANCH  21  29
ATOM     29  O   UNL     1       2.292 -19.220 -37.090  1.00  0.00    -0.387 OA
ATOM     30  H   UNL     1       3.007 -18.818 -36.534  1.00  0.00     0.211 HD
ENDBRANCH  21  29
ENDBRANCH   1  16
TORSDOF 10
ENDMDL
MODEL 9
REMARK VINA RESULT:    -5.543      2.977      4.546
REMARK INTER + INTRA:          -9.053
REMARK INTER:                  -7.575
REMARK INTRA:                  -1.478
REMARK UNBOUND:                -1.242
REMARK SMILES OCC1=C[C@H](O)[C@H]2C=CO[C@@H](O[C@@H]3O[C@H](CO)[C@H](O)[C@H](O)[C@@H]3O)[C@@H]12
REMARK SMILES IDX 12 1 11 2 8 3 9 4 7 5 10 6 24 7 5 8 3 9 4 10 6 11 2 13 1 14
REMARK SMILES IDX 13 16 22 17 14 18 20 19 15 20 18 21 23 22 21 24 16 26 17 27
REMARK SMILES IDX 19 29
REMARK H PARENT 6 12 1 15 23 23 21 25 17 28 19 30
REMARK Flexibility Score: inf
ROOT
ATOM      1  O   UNL     1       2.022 -16.713 -37.379  1.00  0.00    -0.310 OA
ENDROOT
BRANCH   1   2
ATOM      2  C   UNL     1       2.330 -15.989 -38.558  1.00  0.00     0.316 C 
ATOM      3  C   UNL     1       2.100 -13.967 -40.526  1.00  0.00     0.018 C 
ATOM      4  C   UNL     1       2.413 -13.647 -39.270  1.00  0.00     0.186 C 
ATOM      5  C   UNL     1       1.512 -15.317 -40.900  1.00  0.00     0.061 C 
ATOM      6  O   UNL     1       2.331 -14.599 -38.255  1.00  0.00    -0.472 OA
ATOM      7  C   UNL     1       1.317 -16.276 -39.693  1.00  0.00     0.096 C 
ATOM      8  C   UNL     1       0.087 -15.107 -41.451  1.00  0.00     0.145 C 
ATOM      9  C   UNL     1      -0.129 -16.076 -39.331  1.00  0.00    -0.036 C 
ATOM     10  C   UNL     1      -0.787 -15.439 -40.293  1.00  0.00     0.007 C 
BRANCH   8  11
ATOM     11  O   UNL     1      -0.176 -16.010 -42.491  1.00  0.00    -0.388 OA
ATOM     12  H   UNL     1      -0.351 -15.464 -43.301  1.00  0.00     0.211 HD
ENDBRANCH   8  11
BRANCH   9  13
ATOM     13  C   UNL     1      -0.836 -16.725 -38.173  1.00  0.00     0.187 C 
BRANCH  13  14
ATOM     14  O   UNL     1      -0.610 -18.106 -38.206  1.00  0.00    -0.392 OA
ATOM     15  H   UNL     1      -1.127 -18.487 -37.448  1.00  0.00     0.211 HD
ENDBRANCH  13  14
ENDBRANCH   9  13
ENDBRANCH   1   2
BRANCH   1  16
ATOM     16  C   UNL     1       3.064 -17.602 -37.007  1.00  0.00     0.286 C 
ATOM     17  C   UNL     1       2.511 -19.046 -36.928  1.00  0.00     0.202 C 
ATOM     18  O   UNL     1       4.074 -17.522 -37.999  1.00  0.00    -0.341 OA
ATOM     19  C   UNL     1       3.661 -20.036 -36.652  1.00  0.00     0.179 C 
ATOM     20  C   UNL     1       5.210 -18.284 -37.623  1.00  0.00     0.178 C 
ATOM     21  C   UNL     1       4.862 -19.795 -37.588  1.00  0.00     0.177 C 
BRANCH  17  22
ATOM     22  O   UNL     1       1.856 -19.388 -38.124  1.00  0.00    -0.385 OA
ATOM     23  H   UNL     1       2.386 -20.115 -38.547  1.00  0.00     0.211 HD
ENDBRANCH  17  22
BRANCH  19  24
ATOM     24  O   UNL     1       3.215 -21.363 -36.778  1.00  0.00    -0.387 OA
ATOM     25  H   UNL     1       4.026 -21.930 -36.863  1.00  0.00     0.211 HD
ENDBRANCH  19  24
BRANCH  20  26
ATOM     26  C   UNL     1       6.358 -17.996 -38.600  1.00  0.00     0.191 C 
BRANCH  26  27
ATOM     27  O   UNL     1       5.896 -18.053 -39.924  1.00  0.00    -0.394 OA
ATOM     28  H   UNL     1       6.670 -18.324 -40.483  1.00  0.00     0.210 HD
ENDBRANCH  26  27
ENDBRANCH  20  26
BRANCH  21  29
ATOM     29  O   UNL     1       4.621 -20.321 -38.873  1.00  0.00    -0.387 OA
ATOM     30  H   UNL     1       4.626 -19.574 -39.524  1.00  0.00     0.211 HD
ENDBRANCH  21  29
ENDBRANCH   1  16
TORSDOF 10
ENDMDL
