MODEL 1
REMARK VINA RESULT:    -5.007      0.000      0.000
REMARK INTER + INTRA:          -5.007
REMARK INTER:                  -5.007
REMARK INTRA:                   0.000
REMARK UNBOUND:                 0.000
REMARK SMILES CC(C)=C1CC[C@H](C)CC1=O
REMARK SMILES IDX 8 1 7 2 6 3 5 4 4 5 2 6 1 7 3 8 10 9 11 10 9 11
REMARK H PARENT
REMARK Flexibility Score: inf
ROOT
ATOM      1  C   UNL     1      44.125 -42.618  -6.530  1.00  0.00     0.008 C 
ATOM      2  C   UNL     1      43.176 -41.566  -5.947  1.00  0.00    -0.006 C 
ATOM      3  C   UNL     1      41.716 -42.032  -6.057  1.00  0.00     0.008 C 
ATOM      4  C   UNL     1      40.746 -40.948  -5.570  1.00  0.00     0.039 C 
ATOM      5  C   UNL     1      41.092 -40.436  -4.179  1.00  0.00    -0.006 C 
ATOM      6  C   UNL     1      40.122 -40.009  -3.318  1.00  0.00    -0.070 C 
ATOM      7  C   UNL     1      38.663 -40.011  -3.717  1.00  0.00     0.039 C 
ATOM      8  C   UNL     1      40.448 -39.553  -1.914  1.00  0.00     0.039 C 
ATOM      9  C   UNL     1      42.547 -40.322  -3.866  1.00  0.00     0.159 C 
ATOM     10  O   UNL     1      42.983 -39.426  -3.095  1.00  0.00    -0.295 OA
ATOM     11  C   UNL     1      43.527 -41.282  -4.478  1.00  0.00     0.084 C 
ENDROOT
TORSDOF 0
ENDMDL
MODEL 2
REMARK VINA RESULT:    -4.478      1.345      4.072
REMARK INTER + INTRA:          -4.478
REMARK INTER:                  -4.478
REMARK INTRA:                   0.000
REMARK UNBOUND:                 0.000
REMARK SMILES CC(C)=C1CC[C@H](C)CC1=O
REMARK SMILES IDX 8 1 7 2 6 3 5 4 4 5 2 6 1 7 3 8 10 9 11 10 9 11
REMARK H PARENT
REMARK Flexibility Score: inf
ROOT
ATOM      1  C   UNL     1      37.026 -39.383  -4.979  1.00  0.00     0.008 C 
ATOM      2  C   UNL     1      38.309 -40.176  -4.709  1.00  0.00    -0.006 C 
ATOM      3  C   UNL     1      39.262 -40.090  -5.912  1.00  0.00     0.008 C 
ATOM      4  C   UNL     1      40.508 -40.960  -5.700  1.00  0.00     0.039 C 
ATOM      5  C   UNL     1      41.206 -40.669  -4.379  1.00  0.00    -0.006 C 
ATOM      6  C   UNL     1      42.560 -40.796  -4.249  1.00  0.00    -0.070 C 
ATOM      7  C   UNL     1      43.420 -41.247  -5.408  1.00  0.00     0.039 C 
ATOM      8  C   UNL     1      43.271 -40.455  -2.959  1.00  0.00     0.039 C 
ATOM      9  C   UNL     1      40.316 -40.356  -3.222  1.00  0.00     0.159 C 
ATOM     10  O   UNL     1      40.634 -40.677  -2.046  1.00  0.00    -0.295 OA
ATOM     11  C   UNL     1      39.009 -39.652  -3.447  1.00  0.00     0.084 C 
ENDROOT
TORSDOF 0
ENDMDL
MODEL 3
REMARK VINA RESULT:    -4.394      1.834      2.649
REMARK INTER + INTRA:          -4.394
REMARK INTER:                  -4.394
REMARK INTRA:                   0.000
REMARK UNBOUND:                 0.000
REMARK SMILES CC(C)=C1CC[C@H](C)CC1=O
REMARK SMILES IDX 8 1 7 2 6 3 5 4 4 5 2 6 1 7 3 8 10 9 11 10 9 11
REMARK H PARENT
REMARK Flexibility Score: inf
ROOT
ATOM      1  C   UNL     1      43.733 -41.768  -5.914  1.00  0.00     0.008 C 
ATOM      2  C   UNL     1      42.638 -41.270  -4.965  1.00  0.00    -0.006 C 
ATOM      3  C   UNL     1      42.918 -39.822  -4.529  1.00  0.00     0.008 C 
ATOM      4  C   UNL     1      41.886 -39.341  -3.500  1.00  0.00     0.039 C 
ATOM      5  C   UNL     1      40.453 -39.542  -3.971  1.00  0.00    -0.006 C 
ATOM      6  C   UNL     1      39.456 -38.686  -3.598  1.00  0.00    -0.070 C 
ATOM      7  C   UNL     1      39.732 -37.511  -2.687  1.00  0.00     0.039 C 
ATOM      8  C   UNL     1      38.041 -38.843  -4.105  1.00  0.00     0.039 C 
ATOM      9  C   UNL     1      40.190 -40.784  -4.758  1.00  0.00     0.159 C 
ATOM     10  O   UNL     1      39.079 -41.375  -4.696  1.00  0.00    -0.295 OA
ATOM     11  C   UNL     1      41.261 -41.357  -5.640  1.00  0.00     0.084 C 
ENDROOT
TORSDOF 0
ENDMDL
MODEL 4
REMARK VINA RESULT:    -4.326      1.632      4.579
REMARK INTER + INTRA:          -4.326
REMARK INTER:                  -4.326
REMARK INTRA:                   0.000
REMARK UNBOUND:                 0.000
REMARK SMILES CC(C)=C1CC[C@H](C)CC1=O
REMARK SMILES IDX 8 1 7 2 6 3 5 4 4 5 2 6 1 7 3 8 10 9 11 10 9 11
REMARK H PARENT
REMARK Flexibility Score: inf
ROOT
ATOM      1  C   UNL     1      40.938 -39.510   0.278  1.00  0.00     0.008 C 
ATOM      2  C   UNL     1      41.308 -39.484  -1.209  1.00  0.00    -0.006 C 
ATOM      3  C   UNL     1      42.598 -40.282  -1.459  1.00  0.00     0.008 C 
ATOM      4  C   UNL     1      43.039 -40.183  -2.925  1.00  0.00     0.039 C 
ATOM      5  C   UNL     1      41.926 -40.551  -3.897  1.00  0.00    -0.006 C 
ATOM      6  C   UNL     1      42.199 -41.140  -5.098  1.00  0.00    -0.070 C 
ATOM      7  C   UNL     1      43.620 -41.436  -5.522  1.00  0.00     0.039 C 
ATOM      8  C   UNL     1      41.099 -41.562  -6.045  1.00  0.00     0.039 C 
ATOM      9  C   UNL     1      40.549 -40.126  -3.507  1.00  0.00     0.159 C 
ATOM     10  O   UNL     1      39.691 -39.812  -4.375  1.00  0.00    -0.295 OA
ATOM     11  C   UNL     1      40.163 -40.057  -2.058  1.00  0.00     0.084 C 
ENDROOT
TORSDOF 0
ENDMDL
MODEL 5
REMARK VINA RESULT:    -4.239      1.297      4.099
REMARK INTER + INTRA:          -4.239
REMARK INTER:                  -4.239
REMARK INTRA:                   0.000
REMARK UNBOUND:                 0.000
REMARK SMILES CC(C)=C1CC[C@H](C)CC1=O
REMARK SMILES IDX 8 1 7 2 6 3 5 4 4 5 2 6 1 7 3 8 10 9 11 10 9 11
REMARK H PARENT
REMARK Flexibility Score: inf
ROOT
ATOM      1  C   UNL     1      38.433 -37.715  -4.193  1.00  0.00     0.008 C 
ATOM      2  C   UNL     1      39.248 -39.011  -4.271  1.00  0.00    -0.006 C 
ATOM      3  C   UNL     1      39.267 -39.553  -5.709  1.00  0.00     0.008 C 
ATOM      4  C   UNL     1      39.993 -40.902  -5.787  1.00  0.00     0.039 C 
ATOM      5  C   UNL     1      41.381 -40.856  -5.161  1.00  0.00    -0.006 C 
ATOM      6  C   UNL     1      42.400 -41.631  -5.636  1.00  0.00    -0.070 C 
ATOM      7  C   UNL     1      42.187 -42.582  -6.793  1.00  0.00     0.039 C 
ATOM      8  C   UNL     1      43.795 -41.552  -5.060  1.00  0.00     0.039 C 
ATOM      9  C   UNL     1      41.521 -40.008  -3.940  1.00  0.00     0.159 C 
ATOM     10  O   UNL     1      42.330 -40.311  -3.023  1.00  0.00    -0.295 OA
ATOM     11  C   UNL     1      40.684 -38.772  -3.781  1.00  0.00     0.084 C 
ENDROOT
TORSDOF 0
ENDMDL
MODEL 6
REMARK VINA RESULT:    -4.006      3.522      5.563
REMARK INTER + INTRA:          -4.006
REMARK INTER:                  -4.006
REMARK INTRA:                   0.000
REMARK UNBOUND:                 0.000
REMARK SMILES CC(C)=C1CC[C@H](C)CC1=O
REMARK SMILES IDX 8 1 7 2 6 3 5 4 4 5 2 6 1 7 3 8 10 9 11 10 9 11
REMARK H PARENT
REMARK Flexibility Score: inf
ROOT
ATOM      1  C   UNL     1      36.192 -36.848  -7.633  1.00  0.00     0.008 C 
ATOM      2  C   UNL     1      36.804 -38.161  -7.133  1.00  0.00    -0.006 C 
ATOM      3  C   UNL     1      38.281 -38.262  -7.545  1.00  0.00     0.008 C 
ATOM      4  C   UNL     1      38.882 -39.615  -7.140  1.00  0.00     0.039 C 
ATOM      5  C   UNL     1      38.663 -39.935  -5.668  1.00  0.00    -0.006 C 
ATOM      6  C   UNL     1      39.570 -40.668  -4.958  1.00  0.00    -0.070 C 
ATOM      7  C   UNL     1      40.824 -41.207  -5.610  1.00  0.00     0.039 C 
ATOM      8  C   UNL     1      39.391 -40.943  -3.483  1.00  0.00     0.039 C 
ATOM      9  C   UNL     1      37.355 -39.503  -5.091  1.00  0.00     0.159 C 
ATOM     10  O   UNL     1      36.794 -40.162  -4.175  1.00  0.00    -0.295 OA
ATOM     11  C   UNL     1      36.677 -38.266  -5.605  1.00  0.00     0.084 C 
ENDROOT
TORSDOF 0
ENDMDL
MODEL 7
REMARK VINA RESULT:    -3.967      2.025      4.720
REMARK INTER + INTRA:          -3.967
REMARK INTER:                  -3.967
REMARK INTRA:                   0.000
REMARK UNBOUND:                 0.000
REMARK SMILES CC(C)=C1CC[C@H](C)CC1=O
REMARK SMILES IDX 8 1 7 2 6 3 5 4 4 5 2 6 1 7 3 8 10 9 11 10 9 11
REMARK H PARENT
REMARK Flexibility Score: inf
ROOT
ATOM      1  C   UNL     1      40.649 -36.794  -1.473  1.00  0.00     0.008 C 
ATOM      2  C   UNL     1      41.139 -37.522  -2.729  1.00  0.00    -0.006 C 
ATOM      3  C   UNL     1      42.367 -38.389  -2.409  1.00  0.00     0.008 C 
ATOM      4  C   UNL     1      42.931 -39.046  -3.675  1.00  0.00     0.039 C 
ATOM      5  C   UNL     1      41.871 -39.804  -4.463  1.00  0.00    -0.006 C 
ATOM      6  C   UNL     1      42.185 -40.920  -5.183  1.00  0.00    -0.070 C 
ATOM      7  C   UNL     1      43.604 -41.442  -5.242  1.00  0.00     0.039 C 
ATOM      8  C   UNL     1      41.132 -41.713  -5.923  1.00  0.00     0.039 C 
ATOM      9  C   UNL     1      40.512 -39.188  -4.492  1.00  0.00     0.159 C 
ATOM     10  O   UNL     1      39.758 -39.312  -5.494  1.00  0.00    -0.295 OA
ATOM     11  C   UNL     1      40.019 -38.396  -3.315  1.00  0.00     0.084 C 
ENDROOT
TORSDOF 0
ENDMDL
MODEL 8
REMARK VINA RESULT:    -3.856      1.714      3.896
REMARK INTER + INTRA:          -3.856
REMARK INTER:                  -3.856
REMARK INTRA:                   0.000
REMARK UNBOUND:                 0.000
REMARK SMILES CC(C)=C1CC[C@H](C)CC1=O
REMARK SMILES IDX 8 1 7 2 6 3 5 4 4 5 2 6 1 7 3 8 10 9 11 10 9 11
REMARK H PARENT
REMARK Flexibility Score: inf
ROOT
ATOM      1  C   UNL     1      43.104 -37.071  -1.259  1.00  0.00     0.008 C 
ATOM      2  C   UNL     1      42.555 -38.387  -1.819  1.00  0.00    -0.006 C 
ATOM      3  C   UNL     1      41.020 -38.352  -1.880  1.00  0.00     0.008 C 
ATOM      4  C   UNL     1      40.449 -39.698  -2.343  1.00  0.00     0.039 C 
ATOM      5  C   UNL     1      41.074 -40.181  -3.645  1.00  0.00    -0.006 C 
ATOM      6  C   UNL     1      40.361 -40.924  -4.542  1.00  0.00    -0.070 C 
ATOM      7  C   UNL     1      38.925 -41.313  -4.272  1.00  0.00     0.039 C 
ATOM      8  C   UNL     1      40.953 -41.360  -5.862  1.00  0.00     0.039 C 
ATOM      9  C   UNL     1      42.529 -39.894  -3.819  1.00  0.00     0.159 C 
ATOM     10  O   UNL     1      43.278 -40.678  -4.462  1.00  0.00    -0.295 OA
ATOM     11  C   UNL     1      43.129 -38.656  -3.219  1.00  0.00     0.084 C 
ENDROOT
TORSDOF 0
ENDMDL
MODEL 9
REMARK VINA RESULT:    -3.781      1.198      4.323
REMARK INTER + INTRA:          -3.781
REMARK INTER:                  -3.781
REMARK INTRA:                   0.000
REMARK UNBOUND:                 0.000
REMARK SMILES CC(C)=C1CC[C@H](C)CC1=O
REMARK SMILES IDX 8 1 7 2 6 3 5 4 4 5 2 6 1 7 3 8 10 9 11 10 9 11
REMARK H PARENT
REMARK Flexibility Score: inf
ROOT
ATOM      1  C   UNL     1      39.423 -38.076  -0.571  1.00  0.00     0.008 C 
ATOM      2  C   UNL     1      39.991 -39.211  -1.430  1.00  0.00    -0.006 C 
ATOM      3  C   UNL     1      39.272 -39.273  -2.787  1.00  0.00     0.008 C 
ATOM      4  C   UNL     1      39.758 -40.466  -3.621  1.00  0.00     0.039 C 
ATOM      5  C   UNL     1      41.274 -40.503  -3.761  1.00  0.00    -0.006 C 
ATOM      6  C   UNL     1      41.872 -41.005  -4.881  1.00  0.00    -0.070 C 
ATOM      7  C   UNL     1      41.052 -41.561  -6.024  1.00  0.00     0.039 C 
ATOM      8  C   UNL     1      43.373 -40.995  -5.055  1.00  0.00     0.039 C 
ATOM      9  C   UNL     1      42.053 -40.071  -2.562  1.00  0.00     0.159 C 
ATOM     10  O   UNL     1      43.175 -40.577  -2.294  1.00  0.00    -0.295 OA
ATOM     11  C   UNL     1      41.500 -39.019  -1.644  1.00  0.00     0.084 C 
ENDROOT
TORSDOF 0
ENDMDL
