MODEL 1
REMARK VINA RESULT:    -3.128      0.000      0.000
REMARK INTER + INTRA:          -4.258
REMARK INTER:                  -4.042
REMARK INTRA:                  -0.217
REMARK UNBOUND:                -0.217
REMARK SMILES CCCCCCC(=O)[O-]
REMARK SMILES IDX 5 1 6 2 7 3 8 4 9 5 4 6 3 7 2 8 1 9
REMARK H PARENT
REMARK Flexibility Score: inf
ROOT
ATOM      1  C   UNL     1      45.141 -24.112  -1.521  1.00  0.00     0.006 C 
ENDROOT
BRANCH   1   2
ATOM      2  C   UNL     1      46.089 -23.846  -2.693  1.00  0.00     0.053 C 
BRANCH   2   3
ATOM      3  C   UNL     1      46.125 -25.022  -3.617  1.00  0.00     0.041 C 
ATOM      4  O   UNL     1      46.125 -26.193  -3.153  1.00  0.00    -0.550 OA
ATOM      5  O   UNL     1      46.108 -24.827  -4.992  1.00  0.00    -0.550 OA
ENDBRANCH   2   3
ENDBRANCH   1   2
BRANCH   1   6
ATOM      6  C   UNL     1      45.431 -23.164  -0.352  1.00  0.00     0.000 C 
BRANCH   6   7
ATOM      7  C   UNL     1      45.897 -23.941   0.885  1.00  0.00    -0.000 C 
BRANCH   7   8
ATOM      8  C   UNL     1      45.826 -25.454   0.643  1.00  0.00    -0.003 C 
ATOM      9  C   UNL     1      45.377 -26.192   1.902  1.00  0.00     0.004 C 
ENDBRANCH   7   8
ENDBRANCH   6   7
ENDBRANCH   1   6
TORSDOF 5
ENDMDL
MODEL 2
REMARK VINA RESULT:    -2.937      2.968      4.934
REMARK INTER + INTRA:          -4.012
REMARK INTER:                  -3.847
REMARK INTRA:                  -0.165
REMARK UNBOUND:                -0.217
REMARK SMILES CCCCCCC(=O)[O-]
REMARK SMILES IDX 5 1 6 2 7 3 8 4 9 5 4 6 3 7 2 8 1 9
REMARK H PARENT
REMARK Flexibility Score: inf
ROOT
ATOM      1  C   UNL     1      46.016 -25.402   0.425  1.00  0.00     0.006 C 
ENDROOT
BRANCH   1   2
ATOM      2  C   UNL     1      45.372 -25.739   1.773  1.00  0.00     0.053 C 
BRANCH   2   3
ATOM      3  C   UNL     1      45.742 -27.124   2.201  1.00  0.00     0.041 C 
ATOM      4  O   UNL     1      45.753 -28.065   1.364  1.00  0.00    -0.550 OA
ATOM      5  O   UNL     1      46.125 -27.366   3.514  1.00  0.00    -0.550 OA
ENDBRANCH   2   3
ENDBRANCH   1   2
BRANCH   1   6
ATOM      6  C   UNL     1      45.697 -23.963   0.007  1.00  0.00     0.000 C 
BRANCH   6   7
ATOM      7  C   UNL     1      45.900 -23.770  -1.501  1.00  0.00    -0.000 C 
BRANCH   7   8
ATOM      8  C   UNL     1      46.125 -25.114  -2.202  1.00  0.00    -0.003 C 
ATOM      9  C   UNL     1      45.768 -25.029  -3.684  1.00  0.00     0.004 C 
ENDBRANCH   7   8
ENDBRANCH   6   7
ENDBRANCH   1   6
TORSDOF 5
ENDMDL
MODEL 3
REMARK VINA RESULT:    -2.913      1.155      1.702
REMARK INTER + INTRA:          -3.981
REMARK INTER:                  -3.828
REMARK INTRA:                  -0.153
REMARK UNBOUND:                -0.217
REMARK SMILES CCCCCCC(=O)[O-]
REMARK SMILES IDX 5 1 6 2 7 3 8 4 9 5 4 6 3 7 2 8 1 9
REMARK H PARENT
REMARK Flexibility Score: inf
ROOT
ATOM      1  C   UNL     1      45.444 -24.144  -0.565  1.00  0.00     0.006 C 
ENDROOT
BRANCH   1   2
ATOM      2  C   UNL     1      46.058 -24.169  -1.968  1.00  0.00     0.053 C 
BRANCH   2   3
ATOM      3  C   UNL     1      45.418 -25.232  -2.803  1.00  0.00     0.041 C 
ATOM      4  O   UNL     1      46.125 -25.987  -3.521  1.00  0.00    -0.550 OA
ATOM      5  O   UNL     1      44.043 -25.424  -2.749  1.00  0.00    -0.550 OA
ENDBRANCH   2   3
ENDBRANCH   1   2
BRANCH   1   6
ATOM      6  C   UNL     1      45.808 -25.411   0.217  1.00  0.00     0.000 C 
BRANCH   6   7
ATOM      7  C   UNL     1      46.119 -25.083   1.682  1.00  0.00    -0.000 C 
BRANCH   7   8
ATOM      8  C   UNL     1      46.125 -26.353   2.541  1.00  0.00    -0.003 C 
ATOM      9  C   UNL     1      44.973 -27.280   2.160  1.00  0.00     0.004 C 
ENDBRANCH   7   8
ENDBRANCH   6   7
ENDBRANCH   1   6
TORSDOF 5
ENDMDL
MODEL 4
REMARK VINA RESULT:    -2.775      1.445      2.331
REMARK INTER + INTRA:          -3.803
REMARK INTER:                  -3.645
REMARK INTRA:                  -0.158
REMARK UNBOUND:                -0.217
REMARK SMILES CCCCCCC(=O)[O-]
REMARK SMILES IDX 5 1 6 2 7 3 8 4 9 5 4 6 3 7 2 8 1 9
REMARK H PARENT
REMARK Flexibility Score: inf
ROOT
ATOM      1  C   UNL     1      45.385 -25.056  -3.311  1.00  0.00     0.006 C 
ENDROOT
BRANCH   1   2
ATOM      2  C   UNL     1      46.125 -23.943  -4.059  1.00  0.00     0.053 C 
BRANCH   2   3
ATOM      3  C   UNL     1      45.912 -24.071  -5.534  1.00  0.00     0.041 C 
ATOM      4  O   UNL     1      45.635 -23.056  -6.225  1.00  0.00    -0.550 OA
ATOM      5  O   UNL     1      46.070 -25.303  -6.155  1.00  0.00    -0.550 OA
ENDBRANCH   2   3
ENDBRANCH   1   2
BRANCH   1   6
ATOM      6  C   UNL     1      45.696 -25.012  -1.811  1.00  0.00     0.000 C 
BRANCH   6   7
ATOM      7  C   UNL     1      45.320 -23.652  -1.210  1.00  0.00    -0.000 C 
BRANCH   7   8
ATOM      8  C   UNL     1      45.848 -23.520   0.223  1.00  0.00    -0.003 C 
ATOM      9  C   UNL     1      45.748 -24.846   0.971  1.00  0.00     0.004 C 
ENDBRANCH   7   8
ENDBRANCH   6   7
ENDBRANCH   1   6
TORSDOF 5
ENDMDL
MODEL 5
REMARK VINA RESULT:    -2.596      2.567      3.881
REMARK INTER + INTRA:          -3.572
REMARK INTER:                  -3.417
REMARK INTRA:                  -0.154
REMARK UNBOUND:                -0.217
REMARK SMILES CCCCCCC(=O)[O-]
REMARK SMILES IDX 5 1 6 2 7 3 8 4 9 5 4 6 3 7 2 8 1 9
REMARK H PARENT
REMARK Flexibility Score: inf
ROOT
ATOM      1  C   UNL     1      46.107 -25.375   1.743  1.00  0.00     0.006 C 
ENDROOT
BRANCH   1   2
ATOM      2  C   UNL     1      45.758 -25.406   0.252  1.00  0.00     0.053 C 
BRANCH   2   3
ATOM      3  C   UNL     1      45.711 -24.018  -0.305  1.00  0.00     0.041 C 
ATOM      4  O   UNL     1      45.787 -23.024   0.463  1.00  0.00    -0.550 OA
ATOM      5  O   UNL     1      45.635 -23.823  -1.678  1.00  0.00    -0.550 OA
ENDBRANCH   2   3
ENDBRANCH   1   2
BRANCH   1   6
ATOM      6  C   UNL     1      45.229 -26.351   2.533  1.00  0.00     0.000 C 
BRANCH   6   7
ATOM      7  C   UNL     1      46.051 -27.541   3.044  1.00  0.00    -0.000 C 
BRANCH   7   8
ATOM      8  C   UNL     1      46.106 -28.661   1.998  1.00  0.00    -0.003 C 
ATOM      9  C   UNL     1      45.728 -30.007   2.611  1.00  0.00     0.004 C 
ENDBRANCH   7   8
ENDBRANCH   6   7
ENDBRANCH   1   6
TORSDOF 5
ENDMDL
MODEL 6
REMARK VINA RESULT:    -2.482      2.642      5.143
REMARK INTER + INTRA:          -3.424
REMARK INTER:                  -3.301
REMARK INTRA:                  -0.123
REMARK UNBOUND:                -0.217
REMARK SMILES CCCCCCC(=O)[O-]
REMARK SMILES IDX 5 1 6 2 7 3 8 4 9 5 4 6 3 7 2 8 1 9
REMARK H PARENT
REMARK Flexibility Score: inf
ROOT
ATOM      1  C   UNL     1      45.598 -24.331  -2.318  1.00  0.00     0.006 C 
ENDROOT
BRANCH   1   2
ATOM      2  C   UNL     1      46.125 -25.199  -1.171  1.00  0.00     0.053 C 
BRANCH   2   3
ATOM      3  C   UNL     1      45.569 -24.734   0.138  1.00  0.00     0.041 C 
ATOM      4  O   UNL     1      45.265 -25.569   1.030  1.00  0.00    -0.550 OA
ATOM      5  O   UNL     1      45.434 -23.375   0.392  1.00  0.00    -0.550 OA
ENDBRANCH   2   3
ENDBRANCH   1   2
BRANCH   1   6
ATOM      6  C   UNL     1      45.147 -25.196  -3.500  1.00  0.00     0.000 C 
BRANCH   6   7
ATOM      7  C   UNL     1      46.125 -25.075  -4.675  1.00  0.00    -0.000 C 
BRANCH   7   8
ATOM      8  C   UNL     1      45.392 -24.671  -5.960  1.00  0.00    -0.003 C 
ATOM      9  C   UNL     1      45.779 -23.260  -6.394  1.00  0.00     0.004 C 
ENDBRANCH   7   8
ENDBRANCH   6   7
ENDBRANCH   1   6
TORSDOF 5
ENDMDL
