MODEL 1
REMARK VINA RESULT:    -4.473      0.000      0.000
REMARK INTER + INTRA:          -5.038
REMARK INTER:                  -4.996
REMARK INTRA:                  -0.041
REMARK UNBOUND:                -0.041
REMARK SMILES CCCC(=O)[O-]
REMARK SMILES IDX 3 1 4 2 5 3 6 4 2 5 1 6
REMARK H PARENT
REMARK Flexibility Score: inf
ROOT
ATOM      1  C   UNL     1      27.698  -3.301  19.607  1.00  0.00     0.052 C 
ENDROOT
BRANCH   1   2
ATOM      2  C   UNL     1      29.168  -3.414  19.344  1.00  0.00     0.041 C 
ATOM      3  O   UNL     1      29.996  -2.869  20.121  1.00  0.00    -0.550 OA
ATOM      4  O   UNL     1      29.626  -4.150  18.257  1.00  0.00    -0.550 OA
ENDBRANCH   1   2
BRANCH   1   5
ATOM      5  C   UNL     1      26.907  -4.399  18.886  1.00  0.00     0.003 C 
ATOM      6  C   UNL     1      26.660  -5.616  19.776  1.00  0.00     0.004 C 
ENDBRANCH   1   5
TORSDOF 2
ENDMDL
MODEL 2
REMARK VINA RESULT:    -4.469      0.188      1.336
REMARK INTER + INTRA:          -5.033
REMARK INTER:                  -4.993
REMARK INTRA:                  -0.040
REMARK UNBOUND:                -0.041
REMARK SMILES CCCC(=O)[O-]
REMARK SMILES IDX 3 1 4 2 5 3 6 4 2 5 1 6
REMARK H PARENT
REMARK Flexibility Score: inf
ROOT
ATOM      1  C   UNL     1      27.654  -3.449  19.391  1.00  0.00     0.052 C 
ENDROOT
BRANCH   1   2
ATOM      2  C   UNL     1      29.136  -3.562  19.210  1.00  0.00     0.041 C 
ATOM      3  O   UNL     1      29.611  -4.211  18.241  1.00  0.00    -0.550 OA
ATOM      4  O   UNL     1      29.996  -2.920  20.094  1.00  0.00    -0.550 OA
ENDBRANCH   1   2
BRANCH   1   5
ATOM      5  C   UNL     1      26.915  -4.644  18.777  1.00  0.00     0.003 C 
ATOM      6  C   UNL     1      26.677  -5.763  19.790  1.00  0.00     0.004 C 
ENDBRANCH   1   5
TORSDOF 2
ENDMDL
MODEL 3
REMARK VINA RESULT:    -4.463      1.187      1.881
REMARK INTER + INTRA:          -5.027
REMARK INTER:                  -5.020
REMARK INTRA:                  -0.007
REMARK UNBOUND:                -0.041
REMARK SMILES CCCC(=O)[O-]
REMARK SMILES IDX 3 1 4 2 5 3 6 4 2 5 1 6
REMARK H PARENT
REMARK Flexibility Score: inf
ROOT
ATOM      1  C   UNL     1      27.608  -3.489  19.676  1.00  0.00     0.052 C 
ENDROOT
BRANCH   1   2
ATOM      2  C   UNL     1      29.071  -3.514  19.355  1.00  0.00     0.041 C 
ATOM      3  O   UNL     1      29.898  -2.945  20.115  1.00  0.00    -0.550 OA
ATOM      4  O   UNL     1      29.525  -4.195  18.232  1.00  0.00    -0.550 OA
ENDBRANCH   1   2
BRANCH   1   5
ATOM      5  C   UNL     1      27.120  -2.070  19.989  1.00  0.00     0.003 C 
ATOM      6  C   UNL     1      25.595  -1.979  20.047  1.00  0.00     0.004 C 
ENDBRANCH   1   5
TORSDOF 2
ENDMDL
MODEL 4
REMARK VINA RESULT:    -4.455      1.150      2.263
REMARK INTER + INTRA:          -5.018
REMARK INTER:                  -5.010
REMARK INTRA:                  -0.008
REMARK UNBOUND:                -0.041
REMARK SMILES CCCC(=O)[O-]
REMARK SMILES IDX 3 1 4 2 5 3 6 4 2 5 1 6
REMARK H PARENT
REMARK Flexibility Score: inf
ROOT
ATOM      1  C   UNL     1      27.582  -3.483  19.292  1.00  0.00     0.052 C 
ENDROOT
BRANCH   1   2
ATOM      2  C   UNL     1      29.072  -3.605  19.203  1.00  0.00     0.041 C 
ATOM      3  O   UNL     1      29.602  -4.248  18.259  1.00  0.00    -0.550 OA
ATOM      4  O   UNL     1      29.878  -2.978  20.146  1.00  0.00    -0.550 OA
ENDBRANCH   1   2
BRANCH   1   5
ATOM      5  C   UNL     1      27.160  -2.222  20.056  1.00  0.00     0.003 C 
ATOM      6  C   UNL     1      25.641  -2.057  20.110  1.00  0.00     0.004 C 
ENDBRANCH   1   5
TORSDOF 2
ENDMDL
MODEL 5
REMARK VINA RESULT:    -4.395      1.019      1.209
REMARK INTER + INTRA:          -4.950
REMARK INTER:                  -4.912
REMARK INTRA:                  -0.038
REMARK UNBOUND:                -0.041
REMARK SMILES CCCC(=O)[O-]
REMARK SMILES IDX 3 1 4 2 5 3 6 4 2 5 1 6
REMARK H PARENT
REMARK Flexibility Score: inf
ROOT
ATOM      1  C   UNL     1      28.088  -4.544  18.568  1.00  0.00     0.052 C 
ENDROOT
BRANCH   1   2
ATOM      2  C   UNL     1      29.148  -3.597  19.039  1.00  0.00     0.041 C 
ATOM      3  O   UNL     1      29.073  -3.079  20.185  1.00  0.00    -0.550 OA
ATOM      4  O   UNL     1      30.237  -3.311  18.224  1.00  0.00    -0.550 OA
ENDBRANCH   1   2
BRANCH   1   5
ATOM      5  C   UNL     1      27.066  -4.847  19.671  1.00  0.00     0.003 C 
ATOM      6  C   UNL     1      25.706  -4.207  19.394  1.00  0.00     0.004 C 
ENDBRANCH   1   5
TORSDOF 2
ENDMDL
MODEL 6
REMARK VINA RESULT:    -4.010      1.636      2.019
REMARK INTER + INTRA:          -4.521
REMARK INTER:                  -4.512
REMARK INTRA:                  -0.009
REMARK UNBOUND:                -0.041
REMARK SMILES CCCC(=O)[O-]
REMARK SMILES IDX 3 1 4 2 5 3 6 4 2 5 1 6
REMARK H PARENT
REMARK Flexibility Score: inf
ROOT
ATOM      1  C   UNL     1      27.117  -2.099  19.754  1.00  0.00     0.052 C 
ENDROOT
BRANCH   1   2
ATOM      2  C   UNL     1      28.497  -1.665  20.139  1.00  0.00     0.041 C 
ATOM      3  O   UNL     1      28.717  -0.473  20.481  1.00  0.00    -0.550 OA
ATOM      4  O   UNL     1      29.537  -2.587  20.153  1.00  0.00    -0.550 OA
ENDBRANCH   1   2
BRANCH   1   5
ATOM      5  C   UNL     1      26.993  -3.626  19.714  1.00  0.00     0.003 C 
ATOM      6  C   UNL     1      25.569  -4.086  19.399  1.00  0.00     0.004 C 
ENDBRANCH   1   5
TORSDOF 2
ENDMDL
MODEL 7
REMARK VINA RESULT:    -3.908      2.927      3.531
REMARK INTER + INTRA:          -4.406
REMARK INTER:                  -4.397
REMARK INTRA:                  -0.009
REMARK UNBOUND:                -0.041
REMARK SMILES CCCC(=O)[O-]
REMARK SMILES IDX 3 1 4 2 5 3 6 4 2 5 1 6
REMARK H PARENT
REMARK Flexibility Score: inf
ROOT
ATOM      1  C   UNL     1      26.885  -0.739  19.822  1.00  0.00     0.052 C 
ENDROOT
BRANCH   1   2
ATOM      2  C   UNL     1      27.762  -1.934  20.035  1.00  0.00     0.041 C 
ATOM      3  O   UNL     1      28.953  -1.789  20.419  1.00  0.00    -0.550 OA
ATOM      4  O   UNL     1      27.253  -3.213  19.842  1.00  0.00    -0.550 OA
ENDBRANCH   1   2
BRANCH   1   5
ATOM      5  C   UNL     1      25.399  -1.096  19.946  1.00  0.00     0.003 C 
ATOM      6  C   UNL     1      24.488   0.082  19.604  1.00  0.00     0.004 C 
ENDBRANCH   1   5
TORSDOF 2
ENDMDL
MODEL 8
REMARK VINA RESULT:    -3.834      2.210      2.444
REMARK INTER + INTRA:          -4.324
REMARK INTER:                  -4.317
REMARK INTRA:                  -0.006
REMARK UNBOUND:                -0.041
REMARK SMILES CCCC(=O)[O-]
REMARK SMILES IDX 3 1 4 2 5 3 6 4 2 5 1 6
REMARK H PARENT
REMARK Flexibility Score: inf
ROOT
ATOM      1  C   UNL     1      28.563  -2.838  19.225  1.00  0.00     0.052 C 
ENDROOT
BRANCH   1   2
ATOM      2  C   UNL     1      27.950  -1.647  19.893  1.00  0.00     0.041 C 
ATOM      3  O   UNL     1      28.514  -1.114  20.886  1.00  0.00    -0.550 OA
ATOM      4  O   UNL     1      26.771  -1.102  19.398  1.00  0.00    -0.550 OA
ENDBRANCH   1   2
BRANCH   1   5
ATOM      5  C   UNL     1      27.557  -3.985  19.075  1.00  0.00     0.003 C 
ATOM      6  C   UNL     1      28.133  -5.165  18.292  1.00  0.00     0.004 C 
ENDBRANCH   1   5
TORSDOF 2
ENDMDL
MODEL 9
REMARK VINA RESULT:    -3.813      3.863      4.813
REMARK INTER + INTRA:          -4.300
REMARK INTER:                  -4.275
REMARK INTRA:                  -0.025
REMARK UNBOUND:                -0.041
REMARK SMILES CCCC(=O)[O-]
REMARK SMILES IDX 3 1 4 2 5 3 6 4 2 5 1 6
REMARK H PARENT
REMARK Flexibility Score: inf
ROOT
ATOM      1  C   UNL     1      25.254  -5.498  19.711  1.00  0.00     0.052 C 
ENDROOT
BRANCH   1   2
ATOM      2  C   UNL     1      24.811  -6.891  20.037  1.00  0.00     0.041 C 
ATOM      3  O   UNL     1      23.592  -7.140  20.235  1.00  0.00    -0.550 OA
ATOM      4  O   UNL     1      25.741  -7.923  20.090  1.00  0.00    -0.550 OA
ENDBRANCH   1   2
BRANCH   1   5
ATOM      5  C   UNL     1      26.781  -5.367  19.741  1.00  0.00     0.003 C 
ATOM      6  C   UNL     1      27.329  -4.668  18.498  1.00  0.00     0.004 C 
ENDBRANCH   1   5
TORSDOF 2
ENDMDL
