MODEL 1
REMARK VINA RESULT:    -5.098      0.000      0.000
REMARK INTER + INTRA:         -10.693
REMARK INTER:                  -9.867
REMARK INTRA:                  -0.826
REMARK UNBOUND:                -0.826
REMARK SMILES CCCCCCCCCCCCCCCCCC(=O)[O-]
REMARK SMILES IDX 10 1 11 2 12 3 13 4 14 5 15 6 16 7 17 8 18 9 19 10 20 11
REMARK SMILES IDX 9 12 8 13 7 14 6 15 5 16 4 17 3 18 2 19 1 20
REMARK H PARENT
REMARK Flexibility Score: inf
ROOT
ATOM      1  C   UNL     1      38.528  31.924  27.890  1.00  0.00     0.000 C 
ENDROOT
BRANCH   1   2
ATOM      2  C   UNL     1      37.243  31.142  28.223  1.00  0.00     0.000 C 
BRANCH   2   3
ATOM      3  C   UNL     1      37.441  30.034  29.280  1.00  0.00     0.000 C 
BRANCH   3   4
ATOM      4  C   UNL     1      36.105  29.433  29.751  1.00  0.00     0.000 C 
BRANCH   4   5
ATOM      5  C   UNL     1      36.074  27.901  29.639  1.00  0.00     0.000 C 
BRANCH   5   6
ATOM      6  C   UNL     1      34.671  27.319  29.887  1.00  0.00     0.000 C 
BRANCH   6   7
ATOM      7  C   UNL     1      33.556  28.202  29.304  1.00  0.00     0.006 C 
BRANCH   7   8
ATOM      8  C   UNL     1      32.217  27.461  29.190  1.00  0.00     0.053 C 
BRANCH   8   9
ATOM      9  C   UNL     1      31.960  27.062  27.771  1.00  0.00     0.041 C 
ATOM     10  O   UNL     1      30.876  27.376  27.210  1.00  0.00    -0.550 OA
ATOM     11  O   UNL     1      32.899  26.305  27.080  1.00  0.00    -0.550 OA
ENDBRANCH   8   9
ENDBRANCH   7   8
ENDBRANCH   6   7
ENDBRANCH   5   6
ENDBRANCH   4   5
ENDBRANCH   3   4
ENDBRANCH   2   3
ENDBRANCH   1   2
BRANCH   1  12
ATOM     12  C   UNL     1      38.752  33.192  28.732  1.00  0.00     0.000 C 
BRANCH  12  13
ATOM     13  C   UNL     1      39.760  32.981  29.871  1.00  0.00    -0.000 C 
BRANCH  13  14
ATOM     14  C   UNL     1      41.016  32.257  29.365  1.00  0.00    -0.000 C 
BRANCH  14  15
ATOM     15  C   UNL     1      42.276  33.143  29.395  1.00  0.00    -0.000 C 
BRANCH  15  16
ATOM     16  C   UNL     1      43.612  32.383  29.318  1.00  0.00    -0.000 C 
BRANCH  16  17
ATOM     17  C   UNL     1      43.530  30.965  29.906  1.00  0.00    -0.000 C 
BRANCH  17  18
ATOM     18  C   UNL     1      43.838  29.872  28.869  1.00  0.00    -0.000 C 
BRANCH  18  19
ATOM     19  C   UNL     1      44.990  28.932  29.283  1.00  0.00    -0.003 C 
ATOM     20  C   UNL     1      44.648  27.460  29.054  1.00  0.00     0.004 C 
ENDBRANCH  18  19
ENDBRANCH  17  18
ENDBRANCH  16  17
ENDBRANCH  15  16
ENDBRANCH  14  15
ENDBRANCH  13  14
ENDBRANCH  12  13
ENDBRANCH   1  12
TORSDOF 16
ENDMDL
MODEL 2
REMARK VINA RESULT:    -4.429      2.220      3.315
REMARK INTER + INTRA:          -9.398
REMARK INTER:                  -8.654
REMARK INTRA:                  -0.744
REMARK UNBOUND:                -0.826
REMARK SMILES CCCCCCCCCCCCCCCCCC(=O)[O-]
REMARK SMILES IDX 10 1 11 2 12 3 13 4 14 5 15 6 16 7 17 8 18 9 19 10 20 11
REMARK SMILES IDX 9 12 8 13 7 14 6 15 5 16 4 17 3 18 2 19 1 20
REMARK H PARENT
REMARK Flexibility Score: inf
ROOT
ATOM      1  C   UNL     1      38.060  31.891  28.074  1.00  0.00     0.000 C 
ENDROOT
BRANCH   1   2
ATOM      2  C   UNL     1      37.341  31.114  29.194  1.00  0.00     0.000 C 
BRANCH   2   3
ATOM      3  C   UNL     1      36.362  30.037  28.679  1.00  0.00     0.000 C 
BRANCH   3   4
ATOM      4  C   UNL     1      36.536  28.695  29.411  1.00  0.00     0.000 C 
BRANCH   4   5
ATOM      5  C   UNL     1      35.196  28.075  29.836  1.00  0.00     0.000 C 
BRANCH   5   6
ATOM      6  C   UNL     1      33.987  28.917  29.389  1.00  0.00     0.000 C 
BRANCH   6   7
ATOM      7  C   UNL     1      32.757  28.054  29.064  1.00  0.00     0.006 C 
BRANCH   7   8
ATOM      8  C   UNL     1      33.065  26.951  28.042  1.00  0.00     0.053 C 
BRANCH   8   9
ATOM      9  C   UNL     1      32.169  27.078  26.851  1.00  0.00     0.041 C 
ATOM     10  O   UNL     1      30.962  26.725  26.925  1.00  0.00    -0.550 OA
ATOM     11  O   UNL     1      32.677  27.545  25.644  1.00  0.00    -0.550 OA
ENDBRANCH   8   9
ENDBRANCH   7   8
ENDBRANCH   6   7
ENDBRANCH   5   6
ENDBRANCH   4   5
ENDBRANCH   3   4
ENDBRANCH   2   3
ENDBRANCH   1   2
BRANCH   1  12
ATOM     12  C   UNL     1      39.111  32.904  28.558  1.00  0.00     0.000 C 
BRANCH  12  13
ATOM     13  C   UNL     1      40.364  32.230  29.138  1.00  0.00    -0.000 C 
BRANCH  13  14
ATOM     14  C   UNL     1      41.081  33.163  30.125  1.00  0.00    -0.000 C 
BRANCH  14  15
ATOM     15  C   UNL     1      42.602  33.232  29.892  1.00  0.00    -0.000 C 
BRANCH  15  16
ATOM     16  C   UNL     1      43.227  34.628  30.063  1.00  0.00    -0.000 C 
BRANCH  16  17
ATOM     17  C   UNL     1      44.357  34.906  29.057  1.00  0.00    -0.000 C 
BRANCH  17  18
ATOM     18  C   UNL     1      44.444  36.388  28.655  1.00  0.00    -0.000 C 
BRANCH  18  19
ATOM     19  C   UNL     1      44.078  36.651  27.178  1.00  0.00    -0.003 C 
ATOM     20  C   UNL     1      44.008  35.362  26.360  1.00  0.00     0.004 C 
ENDBRANCH  18  19
ENDBRANCH  17  18
ENDBRANCH  16  17
ENDBRANCH  15  16
ENDBRANCH  14  15
ENDBRANCH  13  14
ENDBRANCH  12  13
ENDBRANCH   1  12
TORSDOF 16
ENDMDL
MODEL 3
REMARK VINA RESULT:    -4.395      5.228     10.506
REMARK INTER + INTRA:          -9.331
REMARK INTER:                  -8.620
REMARK INTRA:                  -0.711
REMARK UNBOUND:                -0.826
REMARK SMILES CCCCCCCCCCCCCCCCCC(=O)[O-]
REMARK SMILES IDX 10 1 11 2 12 3 13 4 14 5 15 6 16 7 17 8 18 9 19 10 20 11
REMARK SMILES IDX 9 12 8 13 7 14 6 15 5 16 4 17 3 18 2 19 1 20
REMARK H PARENT
REMARK Flexibility Score: inf
ROOT
ATOM      1  C   UNL     1      38.266  32.470  28.338  1.00  0.00     0.000 C 
ENDROOT
BRANCH   1   2
ATOM      2  C   UNL     1      38.736  32.465  29.805  1.00  0.00     0.000 C 
BRANCH   2   3
ATOM      3  C   UNL     1      40.206  32.028  29.988  1.00  0.00     0.000 C 
BRANCH   3   4
ATOM      4  C   UNL     1      41.197  33.077  29.453  1.00  0.00     0.000 C 
BRANCH   4   5
ATOM      5  C   UNL     1      42.639  32.552  29.396  1.00  0.00     0.000 C 
BRANCH   5   6
ATOM      6  C   UNL     1      43.634  33.477  30.121  1.00  0.00     0.000 C 
BRANCH   6   7
ATOM      7  C   UNL     1      43.675  34.888  29.511  1.00  0.00     0.006 C 
BRANCH   7   8
ATOM      8  C   UNL     1      44.284  34.903  28.102  1.00  0.00     0.053 C 
BRANCH   8   9
ATOM      9  C   UNL     1      44.424  36.309  27.609  1.00  0.00     0.041 C 
ATOM     10  O   UNL     1      43.639  36.753  26.729  1.00  0.00    -0.550 OA
ATOM     11  O   UNL     1      45.450  37.115  28.088  1.00  0.00    -0.550 OA
ENDBRANCH   8   9
ENDBRANCH   7   8
ENDBRANCH   6   7
ENDBRANCH   5   6
ENDBRANCH   4   5
ENDBRANCH   3   4
ENDBRANCH   2   3
ENDBRANCH   1   2
BRANCH   1  12
ATOM     12  C   UNL     1      37.547  31.189  27.883  1.00  0.00     0.000 C 
BRANCH  12  13
ATOM     13  C   UNL     1      37.141  30.285  29.057  1.00  0.00    -0.000 C 
BRANCH  13  14
ATOM     14  C   UNL     1      35.801  29.589  28.775  1.00  0.00    -0.000 C 
BRANCH  14  15
ATOM     15  C   UNL     1      35.253  28.822  29.994  1.00  0.00    -0.000 C 
BRANCH  15  16
ATOM     16  C   UNL     1      34.200  27.747  29.670  1.00  0.00    -0.000 C 
BRANCH  16  17
ATOM     17  C   UNL     1      32.793  28.330  29.463  1.00  0.00    -0.000 C 
BRANCH  17  18
ATOM     18  C   UNL     1      31.827  27.334  28.799  1.00  0.00    -0.000 C 
BRANCH  18  19
ATOM     19  C   UNL     1      31.917  27.318  27.258  1.00  0.00    -0.003 C 
ATOM     20  C   UNL     1      32.138  25.910  26.705  1.00  0.00     0.004 C 
ENDBRANCH  18  19
ENDBRANCH  17  18
ENDBRANCH  16  17
ENDBRANCH  15  16
ENDBRANCH  14  15
ENDBRANCH  13  14
ENDBRANCH  12  13
ENDBRANCH   1  12
TORSDOF 16
ENDMDL
MODEL 4
REMARK VINA RESULT:    -3.962     13.168     15.917
REMARK INTER + INTRA:          -8.493
REMARK INTER:                  -7.759
REMARK INTRA:                  -0.734
REMARK UNBOUND:                -0.826
REMARK SMILES CCCCCCCCCCCCCCCCCC(=O)[O-]
REMARK SMILES IDX 10 1 11 2 12 3 13 4 14 5 15 6 16 7 17 8 18 9 19 10 20 11
REMARK SMILES IDX 9 12 8 13 7 14 6 15 5 16 4 17 3 18 2 19 1 20
REMARK H PARENT
REMARK Flexibility Score: inf
ROOT
ATOM      1  C   UNL     1      40.833  27.120  17.929  1.00  0.00     0.000 C 
ENDROOT
BRANCH   1   2
ATOM      2  C   UNL     1      41.855  26.078  18.424  1.00  0.00     0.000 C 
BRANCH   2   3
ATOM      3  C   UNL     1      42.320  25.090  17.332  1.00  0.00     0.000 C 
BRANCH   3   4
ATOM      4  C   UNL     1      43.630  24.378  17.710  1.00  0.00     0.000 C 
BRANCH   4   5
ATOM      5  C   UNL     1      44.033  23.301  16.691  1.00  0.00     0.000 C 
BRANCH   5   6
ATOM      6  C   UNL     1      44.680  22.071  17.355  1.00  0.00     0.000 C 
BRANCH   6   7
ATOM      7  C   UNL     1      44.078  20.748  16.854  1.00  0.00     0.006 C 
BRANCH   7   8
ATOM      8  C   UNL     1      42.892  20.279  17.708  1.00  0.00     0.053 C 
BRANCH   8   9
ATOM      9  C   UNL     1      41.836  19.666  16.844  1.00  0.00     0.041 C 
ATOM     10  O   UNL     1      40.811  19.151  17.365  1.00  0.00    -0.550 OA
ATOM     11  O   UNL     1      42.003  19.623  15.465  1.00  0.00    -0.550 OA
ENDBRANCH   8   9
ENDBRANCH   7   8
ENDBRANCH   6   7
ENDBRANCH   5   6
ENDBRANCH   4   5
ENDBRANCH   3   4
ENDBRANCH   2   3
ENDBRANCH   1   2
BRANCH   1  12
ATOM     12  C   UNL     1      39.933  26.647  16.775  1.00  0.00     0.000 C 
BRANCH  12  13
ATOM     13  C   UNL     1      38.517  26.272  17.240  1.00  0.00    -0.000 C 
BRANCH  13  14
ATOM     14  C   UNL     1      37.614  25.949  16.041  1.00  0.00    -0.000 C 
BRANCH  14  15
ATOM     15  C   UNL     1      36.154  25.666  16.445  1.00  0.00    -0.000 C 
BRANCH  15  16
ATOM     16  C   UNL     1      35.089  26.343  15.564  1.00  0.00    -0.000 C 
BRANCH  16  17
ATOM     17  C   UNL     1      34.986  27.858  15.806  1.00  0.00    -0.000 C 
BRANCH  17  18
ATOM     18  C   UNL     1      34.976  28.670  14.500  1.00  0.00    -0.000 C 
BRANCH  18  19
ATOM     19  C   UNL     1      34.911  30.197  14.721  1.00  0.00    -0.003 C 
ATOM     20  C   UNL     1      34.209  30.919  13.570  1.00  0.00     0.004 C 
ENDBRANCH  18  19
ENDBRANCH  17  18
ENDBRANCH  16  17
ENDBRANCH  15  16
ENDBRANCH  14  15
ENDBRANCH  13  14
ENDBRANCH  12  13
ENDBRANCH   1  12
TORSDOF 16
ENDMDL
MODEL 5
REMARK VINA RESULT:    -3.920     13.616     16.651
REMARK INTER + INTRA:          -8.413
REMARK INTER:                  -7.667
REMARK INTRA:                  -0.746
REMARK UNBOUND:                -0.826
REMARK SMILES CCCCCCCCCCCCCCCCCC(=O)[O-]
REMARK SMILES IDX 10 1 11 2 12 3 13 4 14 5 15 6 16 7 17 8 18 9 19 10 20 11
REMARK SMILES IDX 9 12 8 13 7 14 6 15 5 16 4 17 3 18 2 19 1 20
REMARK H PARENT
REMARK Flexibility Score: inf
ROOT
ATOM      1  C   UNL     1      40.939  26.725  17.877  1.00  0.00     0.000 C 
ENDROOT
BRANCH   1   2
ATOM      2  C   UNL     1      42.007  27.809  17.635  1.00  0.00     0.000 C 
BRANCH   2   3
ATOM      3  C   UNL     1      41.457  29.090  16.972  1.00  0.00     0.000 C 
BRANCH   3   4
ATOM      4  C   UNL     1      42.505  29.780  16.081  1.00  0.00     0.000 C 
BRANCH   4   5
ATOM      5  C   UNL     1      42.568  31.298  16.309  1.00  0.00     0.000 C 
BRANCH   5   6
ATOM      6  C   UNL     1      43.760  31.955  15.590  1.00  0.00     0.000 C 
BRANCH   6   7
ATOM      7  C   UNL     1      45.113  31.486  16.147  1.00  0.00     0.006 C 
BRANCH   7   8
ATOM      8  C   UNL     1      45.967  30.767  15.093  1.00  0.00     0.053 C 
BRANCH   8   9
ATOM      9  C   UNL     1      47.275  30.342  15.682  1.00  0.00     0.041 C 
ATOM     10  O   UNL     1      47.414  30.270  16.932  1.00  0.00    -0.550 OA
ATOM     11  O   UNL     1      48.355  30.068  14.852  1.00  0.00    -0.550 OA
ENDBRANCH   8   9
ENDBRANCH   7   8
ENDBRANCH   6   7
ENDBRANCH   5   6
ENDBRANCH   4   5
ENDBRANCH   3   4
ENDBRANCH   2   3
ENDBRANCH   1   2
BRANCH   1  12
ATOM     12  C   UNL     1      39.972  26.493  16.703  1.00  0.00     0.000 C 
BRANCH  12  13
ATOM     13  C   UNL     1      38.521  26.279  17.159  1.00  0.00    -0.000 C 
BRANCH  13  14
ATOM     14  C   UNL     1      37.562  26.292  15.960  1.00  0.00    -0.000 C 
BRANCH  14  15
ATOM     15  C   UNL     1      36.203  25.636  16.270  1.00  0.00    -0.000 C 
BRANCH  15  16
ATOM     16  C   UNL     1      34.982  26.335  15.645  1.00  0.00    -0.000 C 
BRANCH  16  17
ATOM     17  C   UNL     1      35.001  27.860  15.839  1.00  0.00    -0.000 C 
BRANCH  17  18
ATOM     18  C   UNL     1      35.111  28.628  14.510  1.00  0.00    -0.000 C 
BRANCH  18  19
ATOM     19  C   UNL     1      34.964  30.157  14.665  1.00  0.00    -0.003 C 
ATOM     20  C   UNL     1      34.185  30.784  13.509  1.00  0.00     0.004 C 
ENDBRANCH  18  19
ENDBRANCH  17  18
ENDBRANCH  16  17
ENDBRANCH  15  16
ENDBRANCH  14  15
ENDBRANCH  13  14
ENDBRANCH  12  13
ENDBRANCH   1  12
TORSDOF 16
ENDMDL
MODEL 6
REMARK VINA RESULT:    -3.778     12.870     13.540
REMARK INTER + INTRA:          -8.137
REMARK INTER:                  -7.395
REMARK INTRA:                  -0.743
REMARK UNBOUND:                -0.826
REMARK SMILES CCCCCCCCCCCCCCCCCC(=O)[O-]
REMARK SMILES IDX 10 1 11 2 12 3 13 4 14 5 15 6 16 7 17 8 18 9 19 10 20 11
REMARK SMILES IDX 9 12 8 13 7 14 6 15 5 16 4 17 3 18 2 19 1 20
REMARK H PARENT
REMARK Flexibility Score: inf
ROOT
ATOM      1  C   UNL     1      41.362  27.490  18.365  1.00  0.00     0.000 C 
ENDROOT
BRANCH   1   2
ATOM      2  C   UNL     1      40.077  26.642  18.428  1.00  0.00     0.000 C 
BRANCH   2   3
ATOM      3  C   UNL     1      39.529  26.233  17.043  1.00  0.00     0.000 C 
BRANCH   3   4
ATOM      4  C   UNL     1      38.059  25.784  17.108  1.00  0.00     0.000 C 
BRANCH   4   5
ATOM      5  C   UNL     1      37.237  26.277  15.908  1.00  0.00     0.000 C 
BRANCH   5   6
ATOM      6  C   UNL     1      35.759  25.853  15.989  1.00  0.00     0.000 C 
BRANCH   6   7
ATOM      7  C   UNL     1      34.823  26.850  15.287  1.00  0.00     0.006 C 
BRANCH   7   8
ATOM      8  C   UNL     1      34.951  28.274  15.847  1.00  0.00     0.053 C 
BRANCH   8   9
ATOM      9  C   UNL     1      35.006  29.270  14.733  1.00  0.00     0.041 C 
ATOM     10  O   UNL     1      34.977  30.505  14.985  1.00  0.00    -0.550 OA
ATOM     11  O   UNL     1      35.045  28.837  13.413  1.00  0.00    -0.550 OA
ENDBRANCH   8   9
ENDBRANCH   7   8
ENDBRANCH   6   7
ENDBRANCH   5   6
ENDBRANCH   4   5
ENDBRANCH   3   4
ENDBRANCH   2   3
ENDBRANCH   1   2
BRANCH   1  12
ATOM     12  C   UNL     1      41.682  28.081  16.981  1.00  0.00     0.000 C 
BRANCH  12  13
ATOM     13  C   UNL     1      41.768  29.614  16.994  1.00  0.00    -0.000 C 
BRANCH  13  14
ATOM     14  C   UNL     1      42.683  30.122  15.870  1.00  0.00    -0.000 C 
BRANCH  14  15
ATOM     15  C   UNL     1      43.180  31.562  16.101  1.00  0.00    -0.000 C 
BRANCH  15  16
ATOM     16  C   UNL     1      44.519  31.908  15.426  1.00  0.00    -0.000 C 
BRANCH  16  17
ATOM     17  C   UNL     1      45.712  31.162  16.046  1.00  0.00    -0.000 C 
BRANCH  17  18
ATOM     18  C   UNL     1      46.547  30.403  15.001  1.00  0.00    -0.000 C 
BRANCH  18  19
ATOM     19  C   UNL     1      47.888  29.869  15.549  1.00  0.00    -0.003 C 
ATOM     20  C   UNL     1      49.086  30.379  14.747  1.00  0.00     0.004 C 
ENDBRANCH  18  19
ENDBRANCH  17  18
ENDBRANCH  16  17
ENDBRANCH  15  16
ENDBRANCH  14  15
ENDBRANCH  13  14
ENDBRANCH  12  13
ENDBRANCH   1  12
TORSDOF 16
ENDMDL
MODEL 7
REMARK VINA RESULT:    -3.721     13.459     15.704
REMARK INTER + INTRA:          -8.028
REMARK INTER:                  -7.706
REMARK INTRA:                  -0.322
REMARK UNBOUND:                -0.826
REMARK SMILES CCCCCCCCCCCCCCCCCC(=O)[O-]
REMARK SMILES IDX 10 1 11 2 12 3 13 4 14 5 15 6 16 7 17 8 18 9 19 10 20 11
REMARK SMILES IDX 9 12 8 13 7 14 6 15 5 16 4 17 3 18 2 19 1 20
REMARK H PARENT
REMARK Flexibility Score: inf
ROOT
ATOM      1  C   UNL     1      41.758  25.909  19.034  1.00  0.00     0.000 C 
ENDROOT
BRANCH   1   2
ATOM      2  C   UNL     1      40.524  26.818  18.879  1.00  0.00     0.000 C 
BRANCH   2   3
ATOM      3  C   UNL     1      40.166  27.142  17.413  1.00  0.00     0.000 C 
BRANCH   3   4
ATOM      4  C   UNL     1      41.380  27.652  16.616  1.00  0.00     0.000 C 
BRANCH   4   5
ATOM      5  C   UNL     1      41.825  29.056  17.052  1.00  0.00     0.000 C 
BRANCH   5   6
ATOM      6  C   UNL     1      42.432  29.870  15.894  1.00  0.00     0.000 C 
BRANCH   6   7
ATOM      7  C   UNL     1      42.807  31.300  16.315  1.00  0.00     0.006 C 
BRANCH   7   8
ATOM      8  C   UNL     1      43.966  31.873  15.487  1.00  0.00     0.053 C 
BRANCH   8   9
ATOM      9  C   UNL     1      45.278  31.524  16.115  1.00  0.00     0.041 C 
ATOM     10  O   UNL     1      45.554  31.929  17.276  1.00  0.00    -0.550 OA
ATOM     11  O   UNL     1      46.217  30.787  15.402  1.00  0.00    -0.550 OA
ENDBRANCH   8   9
ENDBRANCH   7   8
ENDBRANCH   6   7
ENDBRANCH   5   6
ENDBRANCH   4   5
ENDBRANCH   3   4
ENDBRANCH   2   3
ENDBRANCH   1   2
BRANCH   1  12
ATOM     12  C   UNL     1      42.141  25.116  17.773  1.00  0.00     0.000 C 
BRANCH  12  13
ATOM     13  C   UNL     1      43.581  24.583  17.819  1.00  0.00    -0.000 C 
BRANCH  13  14
ATOM     14  C   UNL     1      43.785  23.465  16.786  1.00  0.00    -0.000 C 
BRANCH  14  15
ATOM     15  C   UNL     1      44.571  22.264  17.346  1.00  0.00    -0.000 C 
BRANCH  15  16
ATOM     16  C   UNL     1      44.022  20.881  16.951  1.00  0.00    -0.000 C 
BRANCH  16  17
ATOM     17  C   UNL     1      43.177  20.233  18.060  1.00  0.00    -0.000 C 
BRANCH  17  18
ATOM     18  C   UNL     1      41.783  19.804  17.572  1.00  0.00    -0.000 C 
BRANCH  18  19
ATOM     19  C   UNL     1      41.735  19.450  16.070  1.00  0.00    -0.003 C 
ATOM     20  C   UNL     1      40.872  18.219  15.792  1.00  0.00     0.004 C 
ENDBRANCH  18  19
ENDBRANCH  17  18
ENDBRANCH  16  17
ENDBRANCH  15  16
ENDBRANCH  14  15
ENDBRANCH  13  14
ENDBRANCH  12  13
ENDBRANCH   1  12
TORSDOF 16
ENDMDL
MODEL 8
REMARK VINA RESULT:    -3.573     13.163     14.496
REMARK INTER + INTRA:          -7.741
REMARK INTER:                  -6.999
REMARK INTRA:                  -0.742
REMARK UNBOUND:                -0.826
REMARK SMILES CCCCCCCCCCCCCCCCCC(=O)[O-]
REMARK SMILES IDX 10 1 11 2 12 3 13 4 14 5 15 6 16 7 17 8 18 9 19 10 20 11
REMARK SMILES IDX 9 12 8 13 7 14 6 15 5 16 4 17 3 18 2 19 1 20
REMARK H PARENT
REMARK Flexibility Score: inf
ROOT
ATOM      1  C   UNL     1      41.394  26.860  17.948  1.00  0.00     0.000 C 
ENDROOT
BRANCH   1   2
ATOM      2  C   UNL     1      39.884  26.645  18.166  1.00  0.00     0.000 C 
BRANCH   2   3
ATOM      3  C   UNL     1      39.118  26.249  16.885  1.00  0.00     0.000 C 
BRANCH   3   4
ATOM      4  C   UNL     1      37.648  25.895  17.171  1.00  0.00     0.000 C 
BRANCH   4   5
ATOM      5  C   UNL     1      36.878  25.499  15.903  1.00  0.00     0.000 C 
BRANCH   5   6
ATOM      6  C   UNL     1      35.379  25.843  15.989  1.00  0.00     0.000 C 
BRANCH   6   7
ATOM      7  C   UNL     1      34.993  27.020  15.079  1.00  0.00     0.006 C 
BRANCH   7   8
ATOM      8  C   UNL     1      34.998  28.364  15.821  1.00  0.00     0.053 C 
BRANCH   8   9
ATOM      9  C   UNL     1      34.999  29.498  14.845  1.00  0.00     0.041 C 
ATOM     10  O   UNL     1      34.776  30.674  15.240  1.00  0.00    -0.550 OA
ATOM     11  O   UNL     1      35.201  29.253  13.492  1.00  0.00    -0.550 OA
ENDBRANCH   8   9
ENDBRANCH   7   8
ENDBRANCH   6   7
ENDBRANCH   5   6
ENDBRANCH   4   5
ENDBRANCH   3   4
ENDBRANCH   2   3
ENDBRANCH   1   2
BRANCH   1  12
ATOM     12  C   UNL     1      42.069  25.831  17.025  1.00  0.00     0.000 C 
BRANCH  12  13
ATOM     13  C   UNL     1      42.878  24.779  17.798  1.00  0.00    -0.000 C 
BRANCH  13  14
ATOM     14  C   UNL     1      43.184  23.563  16.911  1.00  0.00    -0.000 C 
BRANCH  14  15
ATOM     15  C   UNL     1      44.483  22.837  17.311  1.00  0.00    -0.000 C 
BRANCH  15  16
ATOM     16  C   UNL     1      44.454  21.307  17.149  1.00  0.00    -0.000 C 
BRANCH  16  17
ATOM     17  C   UNL     1      43.076  20.698  17.457  1.00  0.00    -0.000 C 
BRANCH  17  18
ATOM     18  C   UNL     1      42.496  19.909  16.271  1.00  0.00    -0.000 C 
BRANCH  18  19
ATOM     19  C   UNL     1      41.210  19.128  16.617  1.00  0.00    -0.003 C 
ATOM     20  C   UNL     1      40.978  17.947  15.674  1.00  0.00     0.004 C 
ENDBRANCH  18  19
ENDBRANCH  17  18
ENDBRANCH  16  17
ENDBRANCH  15  16
ENDBRANCH  14  15
ENDBRANCH  13  14
ENDBRANCH  12  13
ENDBRANCH   1  12
TORSDOF 16
ENDMDL
MODEL 9
REMARK VINA RESULT:    -3.514      2.491      3.798
REMARK INTER + INTRA:          -7.627
REMARK INTER:                  -7.131
REMARK INTRA:                  -0.496
REMARK UNBOUND:                -0.826
REMARK SMILES CCCCCCCCCCCCCCCCCC(=O)[O-]
REMARK SMILES IDX 10 1 11 2 12 3 13 4 14 5 15 6 16 7 17 8 18 9 19 10 20 11
REMARK SMILES IDX 9 12 8 13 7 14 6 15 5 16 4 17 3 18 2 19 1 20
REMARK H PARENT
REMARK Flexibility Score: inf
ROOT
ATOM      1  C   UNL     1      40.127  32.268  28.940  1.00  0.00     0.000 C 
ENDROOT
BRANCH   1   2
ATOM      2  C   UNL     1      38.636  31.903  29.080  1.00  0.00     0.000 C 
BRANCH   2   3
ATOM      3  C   UNL     1      38.390  30.482  29.632  1.00  0.00     0.000 C 
BRANCH   3   4
ATOM      4  C   UNL     1      36.905  30.228  29.947  1.00  0.00     0.000 C 
BRANCH   4   5
ATOM      5  C   UNL     1      36.037  30.158  28.682  1.00  0.00     0.000 C 
BRANCH   5   6
ATOM      6  C   UNL     1      35.241  28.844  28.583  1.00  0.00     0.000 C 
BRANCH   6   7
ATOM      7  C   UNL     1      34.004  28.836  29.496  1.00  0.00     0.006 C 
BRANCH   7   8
ATOM      8  C   UNL     1      33.326  27.461  29.557  1.00  0.00     0.053 C 
BRANCH   8   9
ATOM      9  C   UNL     1      31.848  27.615  29.731  1.00  0.00     0.041 C 
ATOM     10  O   UNL     1      31.330  28.763  29.770  1.00  0.00    -0.550 OA
ATOM     11  O   UNL     1      31.046  26.492  29.897  1.00  0.00    -0.550 OA
ENDBRANCH   8   9
ENDBRANCH   7   8
ENDBRANCH   6   7
ENDBRANCH   5   6
ENDBRANCH   4   5
ENDBRANCH   3   4
ENDBRANCH   2   3
ENDBRANCH   1   2
BRANCH   1  12
ATOM     12  C   UNL     1      41.035  31.723  30.055  1.00  0.00     0.000 C 
BRANCH  12  13
ATOM     13  C   UNL     1      42.482  32.227  29.944  1.00  0.00    -0.000 C 
BRANCH  13  14
ATOM     14  C   UNL     1      42.547  33.751  30.125  1.00  0.00    -0.000 C 
BRANCH  14  15
ATOM     15  C   UNL     1      43.362  34.454  29.022  1.00  0.00    -0.000 C 
BRANCH  15  16
ATOM     16  C   UNL     1      44.031  35.774  29.445  1.00  0.00    -0.000 C 
BRANCH  16  17
ATOM     17  C   UNL     1      44.332  36.701  28.256  1.00  0.00    -0.000 C 
BRANCH  17  18
ATOM     18  C   UNL     1      44.702  35.928  26.978  1.00  0.00    -0.000 C 
BRANCH  18  19
ATOM     19  C   UNL     1      43.515  35.726  26.012  1.00  0.00    -0.003 C 
ATOM     20  C   UNL     1      43.795  34.643  24.969  1.00  0.00     0.004 C 
ENDBRANCH  18  19
ENDBRANCH  17  18
ENDBRANCH  16  17
ENDBRANCH  15  16
ENDBRANCH  14  15
ENDBRANCH  13  14
ENDBRANCH  12  13
ENDBRANCH   1  12
TORSDOF 16
ENDMDL
