MODEL 1
REMARK VINA RESULT:    -5.543      0.000      0.000
REMARK INTER + INTRA:          -5.935
REMARK INTER:                  -5.867
REMARK INTRA:                  -0.069
REMARK UNBOUND:                -0.069
REMARK SMILES CC(=O)c1ccccc1
REMARK SMILES IDX 4 1 5 2 6 3 7 4 8 5 9 6 2 7 1 8 3 9
REMARK H PARENT
REMARK Flexibility Score: inf
ROOT
ATOM      1  C   UNL     1     130.840 125.787 127.223  1.00  0.00     0.017 A 
ATOM      2  C   UNL     1     130.897 124.426 126.860  1.00  0.00     0.012 A 
ATOM      3  C   UNL     1     129.804 123.583 127.087  1.00  0.00     0.001 A 
ATOM      4  C   UNL     1     128.643 124.085 127.678  1.00  0.00     0.000 A 
ATOM      5  C   UNL     1     128.571 125.430 128.042  1.00  0.00     0.001 A 
ATOM      6  C   UNL     1     129.660 126.278 127.817  1.00  0.00     0.012 A 
ENDROOT
BRANCH   1   7
ATOM      7  C   UNL     1     131.991 126.700 126.988  1.00  0.00     0.159 C 
ATOM      8  C   UNL     1     132.235 127.905 127.846  1.00  0.00     0.093 C 
ATOM      9  O   UNL     1     132.793 126.466 126.043  1.00  0.00    -0.295 OA
ENDBRANCH   1   7
TORSDOF 1
ENDMDL
MODEL 2
REMARK VINA RESULT:    -5.537      0.026      1.614
REMARK INTER + INTRA:          -5.929
REMARK INTER:                  -5.862
REMARK INTRA:                  -0.067
REMARK UNBOUND:                -0.069
REMARK SMILES CC(=O)c1ccccc1
REMARK SMILES IDX 4 1 5 2 6 3 7 4 8 5 9 6 2 7 1 8 3 9
REMARK H PARENT
REMARK Flexibility Score: inf
ROOT
ATOM      1  C   UNL     1     130.816 125.813 127.231  1.00  0.00     0.017 A 
ATOM      2  C   UNL     1     129.627 126.286 127.821  1.00  0.00     0.012 A 
ATOM      3  C   UNL     1     128.548 125.423 128.040  1.00  0.00     0.001 A 
ATOM      4  C   UNL     1     128.641 124.079 127.674  1.00  0.00     0.000 A 
ATOM      5  C   UNL     1     129.812 123.594 127.089  1.00  0.00     0.001 A 
ATOM      6  C   UNL     1     130.894 124.453 126.868  1.00  0.00     0.012 A 
ENDROOT
BRANCH   1   7
ATOM      7  C   UNL     1     131.974 126.715 126.991  1.00  0.00     0.159 C 
ATOM      8  C   UNL     1     132.241 127.910 127.855  1.00  0.00     0.093 C 
ATOM      9  O   UNL     1     132.762 126.481 126.034  1.00  0.00    -0.295 OA
ENDBRANCH   1   7
TORSDOF 1
ENDMDL
MODEL 3
REMARK VINA RESULT:    -5.230      4.882      5.186
REMARK INTER + INTRA:          -5.604
REMARK INTER:                  -5.545
REMARK INTRA:                  -0.059
REMARK UNBOUND:                -0.069
REMARK SMILES CC(=O)c1ccccc1
REMARK SMILES IDX 4 1 5 2 6 3 7 4 8 5 9 6 2 7 1 8 3 9
REMARK H PARENT
REMARK Flexibility Score: inf
ROOT
ATOM      1  C   UNL     1     129.106 127.321 123.692  1.00  0.00     0.017 A 
ATOM      2  C   UNL     1     128.126 126.401 123.268  1.00  0.00     0.012 A 
ATOM      3  C   UNL     1     127.136 126.785 122.358  1.00  0.00     0.001 A 
ATOM      4  C   UNL     1     127.109 128.088 121.860  1.00  0.00     0.000 A 
ATOM      5  C   UNL     1     128.073 129.011 122.269  1.00  0.00     0.001 A 
ATOM      6  C   UNL     1     129.066 128.633 123.178  1.00  0.00     0.012 A 
ENDROOT
BRANCH   1   7
ATOM      7  C   UNL     1     130.168 126.932 124.658  1.00  0.00     0.159 C 
ATOM      8  C   UNL     1     131.278 125.997 124.283  1.00  0.00     0.093 C 
ATOM      9  O   UNL     1     130.145 127.393 125.832  1.00  0.00    -0.295 OA
ENDBRANCH   1   7
TORSDOF 1
ENDMDL
MODEL 4
REMARK VINA RESULT:    -5.222      4.885      5.313
REMARK INTER + INTRA:          -5.596
REMARK INTER:                  -5.536
REMARK INTRA:                  -0.059
REMARK UNBOUND:                -0.069
REMARK SMILES CC(=O)c1ccccc1
REMARK SMILES IDX 4 1 5 2 6 3 7 4 8 5 9 6 2 7 1 8 3 9
REMARK H PARENT
REMARK Flexibility Score: inf
ROOT
ATOM      1  C   UNL     1     129.088 127.309 123.707  1.00  0.00     0.017 A 
ATOM      2  C   UNL     1     129.038 128.633 123.224  1.00  0.00     0.012 A 
ATOM      3  C   UNL     1     128.062 129.016 122.299  1.00  0.00     0.001 A 
ATOM      4  C   UNL     1     127.124 128.087 121.844  1.00  0.00     0.000 A 
ATOM      5  C   UNL     1     127.160 126.773 122.313  1.00  0.00     0.001 A 
ATOM      6  C   UNL     1     128.133 126.383 123.239  1.00  0.00     0.012 A 
ENDROOT
BRANCH   1   7
ATOM      7  C   UNL     1     130.118 126.882 124.692  1.00  0.00     0.159 C 
ATOM      8  C   UNL     1     131.268 126.001 124.305  1.00  0.00     0.093 C 
ATOM      9  O   UNL     1     130.033 127.264 125.891  1.00  0.00    -0.295 OA
ENDBRANCH   1   7
TORSDOF 1
ENDMDL
MODEL 5
REMARK VINA RESULT:    -5.196      2.580      4.348
REMARK INTER + INTRA:          -5.568
REMARK INTER:                  -5.501
REMARK INTRA:                  -0.067
REMARK UNBOUND:                -0.069
REMARK SMILES CC(=O)c1ccccc1
REMARK SMILES IDX 4 1 5 2 6 3 7 4 8 5 9 6 2 7 1 8 3 9
REMARK H PARENT
REMARK Flexibility Score: inf
ROOT
ATOM      1  C   UNL     1     128.532 124.901 128.148  1.00  0.00     0.017 A 
ATOM      2  C   UNL     1     129.322 126.068 128.097  1.00  0.00     0.012 A 
ATOM      3  C   UNL     1     130.520 126.084 127.376  1.00  0.00     0.001 A 
ATOM      4  C   UNL     1     130.947 124.941 126.698  1.00  0.00     0.000 A 
ATOM      5  C   UNL     1     130.176 123.778 126.739  1.00  0.00     0.001 A 
ATOM      6  C   UNL     1     128.976 123.755 127.458  1.00  0.00     0.012 A 
ENDROOT
BRANCH   1   7
ATOM      7  C   UNL     1     127.254 124.864 128.909  1.00  0.00     0.159 C 
ATOM      8  C   UNL     1     126.793 123.631 129.625  1.00  0.00     0.093 C 
ATOM      9  O   UNL     1     126.527 125.893 128.960  1.00  0.00    -0.295 OA
ENDBRANCH   1   7
TORSDOF 1
ENDMDL
MODEL 6
REMARK VINA RESULT:    -5.195      1.709      3.923
REMARK INTER + INTRA:          -5.567
REMARK INTER:                  -5.497
REMARK INTRA:                  -0.070
REMARK UNBOUND:                -0.069
REMARK SMILES CC(=O)c1ccccc1
REMARK SMILES IDX 4 1 5 2 6 3 7 4 8 5 9 6 2 7 1 8 3 9
REMARK H PARENT
REMARK Flexibility Score: inf
ROOT
ATOM      1  C   UNL     1     130.325 125.496 127.315  1.00  0.00     0.017 A 
ATOM      2  C   UNL     1     130.111 126.671 128.064  1.00  0.00     0.012 A 
ATOM      3  C   UNL     1     131.065 127.693 128.073  1.00  0.00     0.001 A 
ATOM      4  C   UNL     1     132.244 127.558 127.337  1.00  0.00     0.000 A 
ATOM      5  C   UNL     1     132.471 126.401 126.591  1.00  0.00     0.001 A 
ATOM      6  C   UNL     1     131.520 125.375 126.577  1.00  0.00     0.012 A 
ENDROOT
BRANCH   1   7
ATOM      7  C   UNL     1     129.322 124.398 127.293  1.00  0.00     0.159 C 
ATOM      8  C   UNL     1     128.061 124.459 128.101  1.00  0.00     0.093 C 
ATOM      9  O   UNL     1     129.526 123.379 126.578  1.00  0.00    -0.295 OA
ENDBRANCH   1   7
TORSDOF 1
ENDMDL
MODEL 7
REMARK VINA RESULT:    -4.929      3.568      4.250
REMARK INTER + INTRA:          -5.285
REMARK INTER:                  -5.226
REMARK INTRA:                  -0.059
REMARK UNBOUND:                -0.069
REMARK SMILES CC(=O)c1ccccc1
REMARK SMILES IDX 4 1 5 2 6 3 7 4 8 5 9 6 2 7 1 8 3 9
REMARK H PARENT
REMARK Flexibility Score: inf
ROOT
ATOM      1  C   UNL     1     129.728 127.124 124.589  1.00  0.00     0.017 A 
ATOM      2  C   UNL     1     130.846 126.299 124.354  1.00  0.00     0.012 A 
ATOM      3  C   UNL     1     131.826 126.133 125.338  1.00  0.00     0.001 A 
ATOM      4  C   UNL     1     131.705 126.785 126.566  1.00  0.00     0.000 A 
ATOM      5  C   UNL     1     130.603 127.606 126.813  1.00  0.00     0.001 A 
ATOM      6  C   UNL     1     129.619 127.776 125.834  1.00  0.00     0.012 A 
ENDROOT
BRANCH   1   7
ATOM      7  C   UNL     1     128.674 127.314 123.555  1.00  0.00     0.159 C 
ATOM      8  C   UNL     1     128.537 128.594 122.788  1.00  0.00     0.093 C 
ATOM      9  O   UNL     1     127.866 126.378 123.307  1.00  0.00    -0.295 OA
ENDBRANCH   1   7
TORSDOF 1
ENDMDL
MODEL 8
REMARK VINA RESULT:    -4.788      3.375      4.411
REMARK INTER + INTRA:          -5.137
REMARK INTER:                  -5.077
REMARK INTRA:                  -0.060
REMARK UNBOUND:                -0.069
REMARK SMILES CC(=O)c1ccccc1
REMARK SMILES IDX 4 1 5 2 6 3 7 4 8 5 9 6 2 7 1 8 3 9
REMARK H PARENT
REMARK Flexibility Score: inf
ROOT
ATOM      1  C   UNL     1     129.768 127.316 124.776  1.00  0.00     0.017 A 
ATOM      2  C   UNL     1     129.605 127.889 126.055  1.00  0.00     0.012 A 
ATOM      3  C   UNL     1     130.444 127.518 127.111  1.00  0.00     0.001 A 
ATOM      4  C   UNL     1     131.452 126.575 126.909  1.00  0.00     0.000 A 
ATOM      5  C   UNL     1     131.626 126.000 125.649  1.00  0.00     0.001 A 
ATOM      6  C   UNL     1     130.792 126.366 124.588  1.00  0.00     0.012 A 
ENDROOT
BRANCH   1   7
ATOM      7  C   UNL     1     128.887 127.698 123.639  1.00  0.00     0.159 C 
ATOM      8  C   UNL     1     127.877 126.750 123.067  1.00  0.00     0.093 C 
ATOM      9  O   UNL     1     128.984 128.848 123.132  1.00  0.00    -0.295 OA
ENDBRANCH   1   7
TORSDOF 1
ENDMDL
MODEL 9
REMARK VINA RESULT:    -4.707      3.256      4.146
REMARK INTER + INTRA:          -5.051
REMARK INTER:                  -4.981
REMARK INTRA:                  -0.070
REMARK UNBOUND:                -0.069
REMARK SMILES CC(=O)c1ccccc1
REMARK SMILES IDX 4 1 5 2 6 3 7 4 8 5 9 6 2 7 1 8 3 9
REMARK H PARENT
REMARK Flexibility Score: inf
ROOT
ATOM      1  C   UNL     1     129.438 126.645 125.753  1.00  0.00     0.017 A 
ATOM      2  C   UNL     1     129.692 128.030 125.661  1.00  0.00     0.012 A 
ATOM      3  C   UNL     1     129.268 128.757 124.544  1.00  0.00     0.001 A 
ATOM      4  C   UNL     1     128.588 128.117 123.507  1.00  0.00     0.000 A 
ATOM      5  C   UNL     1     128.329 126.748 123.583  1.00  0.00     0.001 A 
ATOM      6  C   UNL     1     128.749 126.014 124.697  1.00  0.00     0.012 A 
ENDROOT
BRANCH   1   7
ATOM      7  C   UNL     1     129.880 125.854 126.933  1.00  0.00     0.159 C 
ATOM      8  C   UNL     1     130.017 124.362 126.880  1.00  0.00     0.093 C 
ATOM      9  O   UNL     1     130.150 126.442 128.015  1.00  0.00    -0.295 OA
ENDBRANCH   1   7
TORSDOF 1
ENDMDL
