MODEL 1
REMARK VINA RESULT:    -2.558      0.000      0.000
REMARK INTER + INTRA:          -7.007
REMARK INTER:                  -4.501
REMARK INTRA:                  -2.506
REMARK UNBOUND:                -2.506
REMARK SMILES CCCCCCC=CCCCCCCCC(=O)[O-]
REMARK SMILES IDX 10 1 11 2 12 3 13 4 14 5 15 6 16 7 17 8 18 9 9 10 8 11 7 12
REMARK SMILES IDX 6 13 5 14 4 15 3 16 2 17 1 18
REMARK H PARENT
REMARK Flexibility Score: inf
ROOT
ATOM      1  C   UNL     1     129.403 -35.479  82.595  1.00  0.00     0.004 C 
ENDROOT
BRANCH   1   2
ATOM      2  C   UNL     1     128.698 -36.256  83.722  1.00  0.00     0.000 C 
BRANCH   2   3
ATOM      3  C   UNL     1     127.606 -35.433  84.422  1.00  0.00     0.000 C 
BRANCH   3   4
ATOM      4  C   UNL     1     126.216 -36.025  84.157  1.00  0.00     0.000 C 
BRANCH   4   5
ATOM      5  C   UNL     1     126.259 -37.557  84.176  1.00  0.00     0.006 C 
BRANCH   5   6
ATOM      6  C   UNL     1     125.109 -38.149  83.356  1.00  0.00     0.053 C 
BRANCH   6   7
ATOM      7  C   UNL     1     125.605 -39.264  82.489  1.00  0.00     0.041 C 
ATOM      8  O   UNL     1     126.660 -39.879  82.792  1.00  0.00    -0.550 OA
ATOM      9  O   UNL     1     124.866 -39.664  81.383  1.00  0.00    -0.550 OA
ENDBRANCH   6   7
ENDBRANCH   5   6
ENDBRANCH   4   5
ENDBRANCH   3   4
ENDBRANCH   2   3
ENDBRANCH   1   2
BRANCH   1  10
ATOM     10  C   UNL     1     129.593 -33.978  82.873  1.00  0.00     0.027 C 
BRANCH  10  11
ATOM     11  C   UNL     1     129.328 -33.138  81.644  1.00  0.00    -0.031 C 
ATOM     12  C   UNL     1     128.163 -32.531  81.349  1.00  0.00    -0.031 C 
BRANCH  12  13
ATOM     13  C   UNL     1     126.922 -32.554  82.205  1.00  0.00     0.027 C 
BRANCH  13  14
ATOM     14  C   UNL     1     125.617 -32.683  81.398  1.00  0.00     0.004 C 
BRANCH  14  15
ATOM     15  C   UNL     1     125.645 -33.800  80.337  1.00  0.00     0.000 C 
BRANCH  15  16
ATOM     16  C   UNL     1     125.384 -35.197  80.927  1.00  0.00    -0.000 C 
BRANCH  16  17
ATOM     17  C   UNL     1     126.249 -36.284  80.270  1.00  0.00    -0.003 C 
ATOM     18  C   UNL     1     127.468 -35.711  79.548  1.00  0.00     0.004 C 
ENDBRANCH  16  17
ENDBRANCH  15  16
ENDBRANCH  14  15
ENDBRANCH  13  14
ENDBRANCH  12  13
ENDBRANCH  10  11
ENDBRANCH   1  10
TORSDOF 13
ENDMDL
MODEL 2
REMARK VINA RESULT:    -2.544      1.099      2.570
REMARK INTER + INTRA:          -6.982
REMARK INTER:                  -4.226
REMARK INTRA:                  -2.757
REMARK UNBOUND:                -2.506
REMARK SMILES CCCCCCC=CCCCCCCCC(=O)[O-]
REMARK SMILES IDX 10 1 11 2 12 3 13 4 14 5 15 6 16 7 17 8 18 9 9 10 8 11 7 12
REMARK SMILES IDX 6 13 5 14 4 15 3 16 2 17 1 18
REMARK H PARENT
REMARK Flexibility Score: inf
ROOT
ATOM      1  C   UNL     1     128.263 -33.541  82.217  1.00  0.00     0.004 C 
ENDROOT
BRANCH   1   2
ATOM      2  C   UNL     1     128.903 -34.705  82.996  1.00  0.00     0.000 C 
BRANCH   2   3
ATOM      3  C   UNL     1     128.041 -35.180  84.175  1.00  0.00     0.000 C 
BRANCH   3   4
ATOM      4  C   UNL     1     127.556 -36.619  83.958  1.00  0.00     0.000 C 
BRANCH   4   5
ATOM      5  C   UNL     1     126.047 -36.733  84.199  1.00  0.00     0.006 C 
BRANCH   5   6
ATOM      6  C   UNL     1     125.628 -38.195  84.381  1.00  0.00     0.053 C 
BRANCH   6   7
ATOM      7  C   UNL     1     125.171 -38.774  83.079  1.00  0.00     0.041 C 
ATOM      8  O   UNL     1     124.108 -38.366  82.543  1.00  0.00    -0.550 OA
ATOM      9  O   UNL     1     125.954 -39.719  82.428  1.00  0.00    -0.550 OA
ENDBRANCH   6   7
ENDBRANCH   5   6
ENDBRANCH   4   5
ENDBRANCH   3   4
ENDBRANCH   2   3
ENDBRANCH   1   2
BRANCH   1  10
ATOM     10  C   UNL     1     126.802 -33.244  82.596  1.00  0.00     0.027 C 
BRANCH  10  11
ATOM     11  C   UNL     1     125.952 -32.951  81.380  1.00  0.00    -0.031 C 
ATOM     12  C   UNL     1     125.251 -33.862  80.680  1.00  0.00    -0.031 C 
BRANCH  12  13
ATOM     13  C   UNL     1     125.162 -35.333  80.998  1.00  0.00     0.027 C 
BRANCH  13  14
ATOM     14  C   UNL     1     125.803 -36.236  79.929  1.00  0.00     0.004 C 
BRANCH  14  15
ATOM     15  C   UNL     1     127.012 -37.046  80.436  1.00  0.00     0.000 C 
BRANCH  15  16
ATOM     16  C   UNL     1     128.351 -36.553  79.858  1.00  0.00    -0.000 C 
BRANCH  16  17
ATOM     17  C   UNL     1     128.173 -35.383  78.878  1.00  0.00    -0.003 C 
ATOM     18  C   UNL     1     129.421 -34.508  78.771  1.00  0.00     0.004 C 
ENDBRANCH  16  17
ENDBRANCH  15  16
ENDBRANCH  14  15
ENDBRANCH  13  14
ENDBRANCH  12  13
ENDBRANCH  10  11
ENDBRANCH   1  10
TORSDOF 13
ENDMDL
MODEL 3
REMARK VINA RESULT:    -2.536      2.728      4.971
REMARK INTER + INTRA:          -6.970
REMARK INTER:                  -4.203
REMARK INTRA:                  -2.767
REMARK UNBOUND:                -2.506
REMARK SMILES CCCCCCC=CCCCCCCCC(=O)[O-]
REMARK SMILES IDX 10 1 11 2 12 3 13 4 14 5 15 6 16 7 17 8 18 9 9 10 8 11 7 12
REMARK SMILES IDX 6 13 5 14 4 15 3 16 2 17 1 18
REMARK H PARENT
REMARK Flexibility Score: inf
ROOT
ATOM      1  C   UNL     1     129.410 -36.931  83.834  1.00  0.00     0.004 C 
ENDROOT
BRANCH   1   2
ATOM      2  C   UNL     1     128.992 -35.450  83.891  1.00  0.00     0.000 C 
BRANCH   2   3
ATOM      3  C   UNL     1     127.495 -35.264  84.181  1.00  0.00     0.000 C 
BRANCH   3   4
ATOM      4  C   UNL     1     126.890 -34.185  83.274  1.00  0.00     0.000 C 
BRANCH   4   5
ATOM      5  C   UNL     1     127.967 -33.538  82.396  1.00  0.00     0.006 C 
BRANCH   5   6
ATOM      6  C   UNL     1     127.413 -32.316  81.657  1.00  0.00     0.053 C 
BRANCH   6   7
ATOM      7  C   UNL     1     126.320 -32.722  80.720  1.00  0.00     0.041 C 
ATOM      8  O   UNL     1     126.558 -33.527  79.782  1.00  0.00    -0.550 OA
ATOM      9  O   UNL     1     125.026 -32.260  80.921  1.00  0.00    -0.550 OA
ENDBRANCH   6   7
ENDBRANCH   5   6
ENDBRANCH   4   5
ENDBRANCH   3   4
ENDBRANCH   2   3
ENDBRANCH   1   2
BRANCH   1  10
ATOM     10  C   UNL     1     128.691 -37.839  84.847  1.00  0.00     0.027 C 
BRANCH  10  11
ATOM     11  C   UNL     1     128.117 -39.074  84.190  1.00  0.00    -0.031 C 
ATOM     12  C   UNL     1     126.808 -39.308  83.976  1.00  0.00    -0.031 C 
BRANCH  12  13
ATOM     13  C   UNL     1     125.682 -38.369  84.328  1.00  0.00     0.027 C 
BRANCH  13  14
ATOM     14  C   UNL     1     124.986 -37.752  83.101  1.00  0.00     0.004 C 
BRANCH  14  15
ATOM     15  C   UNL     1     125.665 -38.090  81.760  1.00  0.00     0.000 C 
BRANCH  15  16
ATOM     16  C   UNL     1     126.100 -36.841  80.974  1.00  0.00    -0.000 C 
BRANCH  16  17
ATOM     17  C   UNL     1     127.595 -36.862  80.619  1.00  0.00    -0.003 C 
ATOM     18  C   UNL     1     128.167 -38.277  80.559  1.00  0.00     0.004 C 
ENDBRANCH  16  17
ENDBRANCH  15  16
ENDBRANCH  14  15
ENDBRANCH  13  14
ENDBRANCH  12  13
ENDBRANCH  10  11
ENDBRANCH   1  10
TORSDOF 13
ENDMDL
MODEL 4
REMARK VINA RESULT:    -2.529     21.183     23.287
REMARK INTER + INTRA:          -6.957
REMARK INTER:                  -4.285
REMARK INTRA:                  -2.672
REMARK UNBOUND:                -2.506
REMARK SMILES CCCCCCC=CCCCCCCCC(=O)[O-]
REMARK SMILES IDX 10 1 11 2 12 3 13 4 14 5 15 6 16 7 17 8 18 9 9 10 8 11 7 12
REMARK SMILES IDX 6 13 5 14 4 15 3 16 2 17 1 18
REMARK H PARENT
REMARK Flexibility Score: inf
ROOT
ATOM      1  C   UNL     1     140.528 -49.407  69.527  1.00  0.00     0.004 C 
ENDROOT
BRANCH   1   2
ATOM      2  C   UNL     1     141.643 -49.495  68.469  1.00  0.00     0.000 C 
BRANCH   2   3
ATOM      3  C   UNL     1     141.648 -48.297  67.507  1.00  0.00     0.000 C 
BRANCH   3   4
ATOM      4  C   UNL     1     141.612 -46.972  68.279  1.00  0.00     0.000 C 
BRANCH   4   5
ATOM      5  C   UNL     1     141.864 -45.784  67.344  1.00  0.00     0.006 C 
BRANCH   5   6
ATOM      6  C   UNL     1     140.889 -45.796  66.164  1.00  0.00     0.053 C 
BRANCH   6   7
ATOM      7  C   UNL     1     139.784 -44.811  66.389  1.00  0.00     0.041 C 
ATOM      8  O   UNL     1     139.774 -44.097  67.425  1.00  0.00    -0.550 OA
ATOM      9  O   UNL     1     138.801 -44.638  65.423  1.00  0.00    -0.550 OA
ENDBRANCH   6   7
ENDBRANCH   5   6
ENDBRANCH   4   5
ENDBRANCH   3   4
ENDBRANCH   2   3
ENDBRANCH   1   2
BRANCH   1  10
ATOM     10  C   UNL     1     139.488 -50.539  69.458  1.00  0.00     0.027 C 
BRANCH  10  11
ATOM     11  C   UNL     1     139.687 -51.414  68.241  1.00  0.00    -0.031 C 
ATOM     12  C   UNL     1     138.935 -51.383  67.125  1.00  0.00    -0.031 C 
BRANCH  12  13
ATOM     13  C   UNL     1     137.776 -50.451  66.876  1.00  0.00     0.027 C 
BRANCH  13  14
ATOM     14  C   UNL     1     138.191 -49.098  66.268  1.00  0.00     0.004 C 
BRANCH  14  15
ATOM     15  C   UNL     1     137.962 -47.895  67.203  1.00  0.00     0.000 C 
BRANCH  15  16
ATOM     16  C   UNL     1     136.853 -48.142  68.241  1.00  0.00    -0.000 C 
BRANCH  16  17
ATOM     17  C   UNL     1     137.222 -47.608  69.633  1.00  0.00    -0.003 C 
ATOM     18  C   UNL     1     138.206 -46.441  69.575  1.00  0.00     0.004 C 
ENDBRANCH  16  17
ENDBRANCH  15  16
ENDBRANCH  14  15
ENDBRANCH  13  14
ENDBRANCH  12  13
ENDBRANCH  10  11
ENDBRANCH   1  10
TORSDOF 13
ENDMDL
MODEL 5
REMARK VINA RESULT:    -2.502      1.973      4.154
REMARK INTER + INTRA:          -6.909
REMARK INTER:                  -4.681
REMARK INTRA:                  -2.228
REMARK UNBOUND:                -2.506
REMARK SMILES CCCCCCC=CCCCCCCCC(=O)[O-]
REMARK SMILES IDX 10 1 11 2 12 3 13 4 14 5 15 6 16 7 17 8 18 9 9 10 8 11 7 12
REMARK SMILES IDX 6 13 5 14 4 15 3 16 2 17 1 18
REMARK H PARENT
REMARK Flexibility Score: inf
ROOT
ATOM      1  C   UNL     1     129.014 -34.396  81.515  1.00  0.00     0.004 C 
ENDROOT
BRANCH   1   2
ATOM      2  C   UNL     1     128.149 -33.258  82.087  1.00  0.00     0.000 C 
BRANCH   2   3
ATOM      3  C   UNL     1     126.969 -33.771  82.928  1.00  0.00     0.000 C 
BRANCH   3   4
ATOM      4  C   UNL     1     127.392 -34.959  83.801  1.00  0.00     0.000 C 
BRANCH   4   5
ATOM      5  C   UNL     1     126.200 -35.875  84.097  1.00  0.00     0.006 C 
BRANCH   5   6
ATOM      6  C   UNL     1     126.180 -37.077  83.149  1.00  0.00     0.053 C 
BRANCH   6   7
ATOM      7  C   UNL     1     125.481 -38.236  83.787  1.00  0.00     0.041 C 
ATOM      8  O   UNL     1     125.823 -38.627  84.934  1.00  0.00    -0.550 OA
ATOM      9  O   UNL     1     124.411 -38.842  83.142  1.00  0.00    -0.550 OA
ENDBRANCH   6   7
ENDBRANCH   5   6
ENDBRANCH   4   5
ENDBRANCH   3   4
ENDBRANCH   2   3
ENDBRANCH   1   2
BRANCH   1  10
ATOM     10  C   UNL     1     130.508 -34.056  81.373  1.00  0.00     0.027 C 
BRANCH  10  11
ATOM     11  C   UNL     1     130.886 -32.832  82.177  1.00  0.00    -0.031 C 
ATOM     12  C   UNL     1     131.736 -32.815  83.221  1.00  0.00    -0.031 C 
BRANCH  12  13
ATOM     13  C   UNL     1     132.487 -34.007  83.758  1.00  0.00     0.027 C 
BRANCH  13  14
ATOM     14  C   UNL     1     131.890 -34.578  85.058  1.00  0.00     0.004 C 
BRANCH  14  15
ATOM     15  C   UNL     1     130.734 -35.571  84.833  1.00  0.00     0.000 C 
BRANCH  15  16
ATOM     16  C   UNL     1     131.121 -36.748  83.919  1.00  0.00    -0.000 C 
BRANCH  16  17
ATOM     17  C   UNL     1     129.901 -37.566  83.467  1.00  0.00    -0.003 C 
ATOM     18  C   UNL     1     129.383 -38.503  84.556  1.00  0.00     0.004 C 
ENDBRANCH  16  17
ENDBRANCH  15  16
ENDBRANCH  14  15
ENDBRANCH  13  14
ENDBRANCH  12  13
ENDBRANCH  10  11
ENDBRANCH   1  10
TORSDOF 13
ENDMDL
MODEL 6
REMARK VINA RESULT:    -2.485      1.475      3.465
REMARK INTER + INTRA:          -6.880
REMARK INTER:                  -4.621
REMARK INTRA:                  -2.259
REMARK UNBOUND:                -2.506
REMARK SMILES CCCCCCC=CCCCCCCCC(=O)[O-]
REMARK SMILES IDX 10 1 11 2 12 3 13 4 14 5 15 6 16 7 17 8 18 9 9 10 8 11 7 12
REMARK SMILES IDX 6 13 5 14 4 15 3 16 2 17 1 18
REMARK H PARENT
REMARK Flexibility Score: inf
ROOT
ATOM      1  C   UNL     1     125.619 -35.979  80.125  1.00  0.00     0.004 C 
ENDROOT
BRANCH   1   2
ATOM      2  C   UNL     1     126.072 -36.762  81.371  1.00  0.00     0.000 C 
BRANCH   2   3
ATOM      3  C   UNL     1     125.076 -36.659  82.536  1.00  0.00     0.000 C 
BRANCH   3   4
ATOM      4  C   UNL     1     125.801 -36.718  83.886  1.00  0.00     0.000 C 
BRANCH   4   5
ATOM      5  C   UNL     1     125.903 -38.161  84.393  1.00  0.00     0.006 C 
BRANCH   5   6
ATOM      6  C   UNL     1     127.360 -38.547  84.665  1.00  0.00     0.053 C 
BRANCH   6   7
ATOM      7  C   UNL     1     127.867 -39.461  83.594  1.00  0.00     0.041 C 
ATOM      8  O   UNL     1     128.558 -39.002  82.646  1.00  0.00    -0.550 OA
ATOM      9  O   UNL     1     127.630 -40.826  83.677  1.00  0.00    -0.550 OA
ENDBRANCH   6   7
ENDBRANCH   5   6
ENDBRANCH   4   5
ENDBRANCH   3   4
ENDBRANCH   2   3
ENDBRANCH   1   2
BRANCH   1  10
ATOM     10  C   UNL     1     124.797 -34.714  80.428  1.00  0.00     0.027 C 
BRANCH  10  11
ATOM     11  C   UNL     1     125.517 -33.457  79.996  1.00  0.00    -0.031 C 
ATOM     12  C   UNL     1     126.089 -32.561  80.823  1.00  0.00    -0.031 C 
BRANCH  12  13
ATOM     13  C   UNL     1     126.139 -32.664  82.326  1.00  0.00     0.027 C 
BRANCH  13  14
ATOM     14  C   UNL     1     127.294 -33.540  82.847  1.00  0.00     0.004 C 
BRANCH  14  15
ATOM     15  C   UNL     1     128.626 -33.326  82.103  1.00  0.00     0.000 C 
BRANCH  15  16
ATOM     16  C   UNL     1     129.605 -34.501  82.273  1.00  0.00    -0.000 C 
BRANCH  16  17
ATOM     17  C   UNL     1     129.093 -35.554  83.269  1.00  0.00    -0.003 C 
ATOM     18  C   UNL     1     130.082 -35.827  84.400  1.00  0.00     0.004 C 
ENDBRANCH  16  17
ENDBRANCH  15  16
ENDBRANCH  14  15
ENDBRANCH  13  14
ENDBRANCH  12  13
ENDBRANCH  10  11
ENDBRANCH   1  10
TORSDOF 13
ENDMDL
MODEL 7
REMARK VINA RESULT:    -2.446      1.565      3.576
REMARK INTER + INTRA:          -6.810
REMARK INTER:                  -4.209
REMARK INTRA:                  -2.601
REMARK UNBOUND:                -2.506
REMARK SMILES CCCCCCC=CCCCCCCCC(=O)[O-]
REMARK SMILES IDX 10 1 11 2 12 3 13 4 14 5 15 6 16 7 17 8 18 9 9 10 8 11 7 12
REMARK SMILES IDX 6 13 5 14 4 15 3 16 2 17 1 18
REMARK H PARENT
REMARK Flexibility Score: inf
ROOT
ATOM      1  C   UNL     1     128.091 -35.630  84.374  1.00  0.00     0.004 C 
ENDROOT
BRANCH   1   2
ATOM      2  C   UNL     1     128.739 -37.023  84.264  1.00  0.00     0.000 C 
BRANCH   2   3
ATOM      3  C   UNL     1     129.785 -37.107  83.143  1.00  0.00     0.000 C 
BRANCH   3   4
ATOM      4  C   UNL     1     129.125 -37.437  81.798  1.00  0.00     0.000 C 
BRANCH   4   5
ATOM      5  C   UNL     1     129.054 -38.952  81.578  1.00  0.00     0.006 C 
BRANCH   5   6
ATOM      6  C   UNL     1     127.615 -39.405  81.317  1.00  0.00     0.053 C 
BRANCH   6   7
ATOM      7  C   UNL     1     127.221 -40.479  82.281  1.00  0.00     0.041 C 
ATOM      8  O   UNL     1     126.881 -41.615  81.859  1.00  0.00    -0.550 OA
ATOM      9  O   UNL     1     127.291 -40.244  83.648  1.00  0.00    -0.550 OA
ENDBRANCH   6   7
ENDBRANCH   5   6
ENDBRANCH   4   5
ENDBRANCH   3   4
ENDBRANCH   2   3
ENDBRANCH   1   2
BRANCH   1  10
ATOM     10  C   UNL     1     126.552 -35.637  84.375  1.00  0.00     0.027 C 
BRANCH  10  11
ATOM     11  C   UNL     1     125.995 -36.990  83.996  1.00  0.00    -0.031 C 
ATOM     12  C   UNL     1     125.260 -37.253  82.899  1.00  0.00    -0.031 C 
BRANCH  12  13
ATOM     13  C   UNL     1     124.886 -36.251  81.835  1.00  0.00     0.027 C 
BRANCH  13  14
ATOM     14  C   UNL     1     125.981 -36.038  80.774  1.00  0.00     0.004 C 
BRANCH  14  15
ATOM     15  C   UNL     1     126.265 -34.558  80.456  1.00  0.00     0.000 C 
BRANCH  15  16
ATOM     16  C   UNL     1     127.612 -34.069  81.018  1.00  0.00    -0.000 C 
BRANCH  16  17
ATOM     17  C   UNL     1     127.439 -33.007  82.116  1.00  0.00    -0.003 C 
ATOM     18  C   UNL     1     126.113 -32.256  82.006  1.00  0.00     0.004 C 
ENDBRANCH  16  17
ENDBRANCH  15  16
ENDBRANCH  14  15
ENDBRANCH  13  14
ENDBRANCH  12  13
ENDBRANCH  10  11
ENDBRANCH   1  10
TORSDOF 13
ENDMDL
MODEL 8
REMARK VINA RESULT:    -2.436      1.666      3.342
REMARK INTER + INTRA:          -6.793
REMARK INTER:                  -4.072
REMARK INTRA:                  -2.722
REMARK UNBOUND:                -2.506
REMARK SMILES CCCCCCC=CCCCCCCCC(=O)[O-]
REMARK SMILES IDX 10 1 11 2 12 3 13 4 14 5 15 6 16 7 17 8 18 9 9 10 8 11 7 12
REMARK SMILES IDX 6 13 5 14 4 15 3 16 2 17 1 18
REMARK H PARENT
REMARK Flexibility Score: inf
ROOT
ATOM      1  C   UNL     1     127.998 -35.659  79.144  1.00  0.00     0.004 C 
ENDROOT
BRANCH   1   2
ATOM      2  C   UNL     1     126.967 -36.573  79.831  1.00  0.00     0.000 C 
BRANCH   2   3
ATOM      3  C   UNL     1     125.578 -35.928  79.943  1.00  0.00     0.000 C 
BRANCH   3   4
ATOM      4  C   UNL     1     125.013 -36.082  81.361  1.00  0.00     0.000 C 
BRANCH   4   5
ATOM      5  C   UNL     1     125.776 -37.157  82.143  1.00  0.00     0.006 C 
BRANCH   5   6
ATOM      6  C   UNL     1     125.772 -36.853  83.643  1.00  0.00     0.053 C 
BRANCH   6   7
ATOM      7  C   UNL     1     126.000 -38.105  84.431  1.00  0.00     0.041 C 
ATOM      8  O   UNL     1     125.031 -38.854  84.722  1.00  0.00    -0.550 OA
ATOM      9  O   UNL     1     127.290 -38.475  84.788  1.00  0.00    -0.550 OA
ENDBRANCH   6   7
ENDBRANCH   5   6
ENDBRANCH   4   5
ENDBRANCH   3   4
ENDBRANCH   2   3
ENDBRANCH   1   2
BRANCH   1  10
ATOM     10  C   UNL     1     127.389 -34.567  78.247  1.00  0.00     0.027 C 
BRANCH  10  11
ATOM     11  C   UNL     1     127.874 -33.188  78.630  1.00  0.00    -0.031 C 
ATOM     12  C   UNL     1     127.127 -32.230  79.211  1.00  0.00    -0.031 C 
BRANCH  12  13
ATOM     13  C   UNL     1     125.680 -32.370  79.610  1.00  0.00     0.027 C 
BRANCH  13  14
ATOM     14  C   UNL     1     125.455 -32.349  81.134  1.00  0.00     0.004 C 
BRANCH  14  15
ATOM     15  C   UNL     1     126.753 -32.247  81.957  1.00  0.00     0.000 C 
BRANCH  15  16
ATOM     16  C   UNL     1     127.008 -33.484  82.835  1.00  0.00    -0.000 C 
BRANCH  16  17
ATOM     17  C   UNL     1     128.313 -34.207  82.467  1.00  0.00    -0.003 C 
ATOM     18  C   UNL     1     129.411 -33.247  82.012  1.00  0.00     0.004 C 
ENDBRANCH  16  17
ENDBRANCH  15  16
ENDBRANCH  14  15
ENDBRANCH  13  14
ENDBRANCH  12  13
ENDBRANCH  10  11
ENDBRANCH   1  10
TORSDOF 13
ENDMDL
MODEL 9
REMARK VINA RESULT:    -2.416     21.918     23.635
REMARK INTER + INTRA:          -6.758
REMARK INTER:                  -4.555
REMARK INTRA:                  -2.203
REMARK UNBOUND:                -2.506
REMARK SMILES CCCCCCC=CCCCCCCCC(=O)[O-]
REMARK SMILES IDX 10 1 11 2 12 3 13 4 14 5 15 6 16 7 17 8 18 9 9 10 8 11 7 12
REMARK SMILES IDX 6 13 5 14 4 15 3 16 2 17 1 18
REMARK H PARENT
REMARK Flexibility Score: inf
ROOT
ATOM      1  C   UNL     1     140.356 -49.713  69.148  1.00  0.00     0.004 C 
ENDROOT
BRANCH   1   2
ATOM      2  C   UNL     1     141.409 -49.568  68.034  1.00  0.00     0.000 C 
BRANCH   2   3
ATOM      3  C   UNL     1     141.527 -48.129  67.508  1.00  0.00     0.000 C 
BRANCH   3   4
ATOM      4  C   UNL     1     140.724 -47.157  68.382  1.00  0.00     0.000 C 
BRANCH   4   5
ATOM      5  C   UNL     1     141.612 -46.018  68.896  1.00  0.00     0.006 C 
BRANCH   5   6
ATOM      6  C   UNL     1     142.672 -46.544  69.868  1.00  0.00     0.053 C 
BRANCH   6   7
ATOM      7  C   UNL     1     142.038 -46.972  71.154  1.00  0.00     0.041 C 
ATOM      8  O   UNL     1     141.236 -46.205  71.750  1.00  0.00    -0.550 OA
ATOM      9  O   UNL     1     142.283 -48.241  71.660  1.00  0.00    -0.550 OA
ENDBRANCH   6   7
ENDBRANCH   5   6
ENDBRANCH   4   5
ENDBRANCH   3   4
ENDBRANCH   2   3
ENDBRANCH   1   2
BRANCH   1  10
ATOM     10  C   UNL     1     139.500 -50.988  69.059  1.00  0.00     0.027 C 
BRANCH  10  11
ATOM     11  C   UNL     1     139.622 -51.655  67.708  1.00  0.00    -0.031 C 
ATOM     12  C   UNL     1     138.673 -51.664  66.753  1.00  0.00    -0.031 C 
BRANCH  12  13
ATOM     13  C   UNL     1     137.329 -50.987  66.847  1.00  0.00     0.027 C 
BRANCH  13  14
ATOM     14  C   UNL     1     137.219 -49.712  65.991  1.00  0.00     0.004 C 
BRANCH  14  15
ATOM     15  C   UNL     1     137.800 -48.453  66.663  1.00  0.00     0.000 C 
BRANCH  15  16
ATOM     16  C   UNL     1     137.908 -47.254  65.704  1.00  0.00    -0.000 C 
BRANCH  16  17
ATOM     17  C   UNL     1     139.232 -47.244  64.924  1.00  0.00    -0.003 C 
ATOM     18  C   UNL     1     139.877 -45.861  64.875  1.00  0.00     0.004 C 
ENDBRANCH  16  17
ENDBRANCH  15  16
ENDBRANCH  14  15
ENDBRANCH  13  14
ENDBRANCH  12  13
ENDBRANCH  10  11
ENDBRANCH   1  10
TORSDOF 13
ENDMDL
