MODEL 1
REMARK VINA RESULT:    19.303      0.000      0.000
REMARK INTER + INTRA:          26.198
REMARK INTER:                  26.637
REMARK INTRA:                  -0.439
REMARK UNBOUND:                -0.439
REMARK SMILES CC[C@H](CC[C@@H](C)[C@H]1CC[C@H]2[C@H]3CC=C4C[C@H](O)CC[C@]4(C)[C@H]3CC[C@]12C)C(C)C
REMARK SMILES IDX 5 1 4 2 3 3 2 4 1 5 28 6 29 7 30 8 6 9 7 10 8 11 9 12 26 13
REMARK SMILES IDX 10 14 11 15 25 16 27 17 12 18 24 19 23 20 13 21 21 22 14 23
REMARK SMILES IDX 15 24 20 25 22 26 16 27 19 28 17 29 18 30
REMARK H PARENT 18 31
REMARK Flexibility Score: inf
ROOT
ATOM      1  C   UNL     1      13.410  22.829  -4.011  1.00  0.00     0.004 C 
ENDROOT
BRANCH   1   2
ATOM      2  C   UNL     1      13.946  21.387  -4.125  1.00  0.00     0.004 C 
BRANCH   2   3
ATOM      3  C   UNL     1      12.850  20.278  -4.097  1.00  0.00    -0.009 C 
BRANCH   3   4
ATOM      4  C   UNL     1      13.533  18.876  -4.122  1.00  0.00     0.000 C 
ATOM      5  C   UNL     1      15.052  18.899  -3.914  1.00  0.00     0.004 C 
ENDBRANCH   3   4
BRANCH   3   6
ATOM      6  C   UNL     1      11.854  20.466  -2.878  1.00  0.00    -0.014 C 
ATOM      7  C   UNL     1      10.650  19.498  -2.963  1.00  0.00     0.007 C 
ATOM      8  C   UNL     1      12.496  20.302  -1.485  1.00  0.00     0.007 C 
ENDBRANCH   3   6
ENDBRANCH   2   3
ENDBRANCH   1   2
BRANCH   1   9
ATOM      9  C   UNL     1      14.120  23.667  -2.891  1.00  0.00    -0.011 C 
ATOM     10  C   UNL     1      13.261  24.903  -2.565  1.00  0.00     0.008 C 
BRANCH   9  11
ATOM     11  C   UNL     1      14.396  22.795  -1.616  1.00  0.00    -0.002 C 
ATOM     12  C   UNL     1      15.903  22.438  -1.465  1.00  0.00     0.005 C 
ATOM     13  C   UNL     1      14.017  23.336  -0.194  1.00  0.00    -0.026 C 
ATOM     14  C   UNL     1      16.171  22.190   0.031  1.00  0.00     0.005 C 
ATOM     15  C   UNL     1      14.795  22.303   0.655  1.00  0.00    -0.001 C 
ATOM     16  C   UNL     1      12.523  23.217   0.216  1.00  0.00     0.007 C 
ATOM     17  C   UNL     1      14.509  24.811  -0.037  1.00  0.00     0.012 C 
ATOM     18  C   UNL     1      14.647  22.372   2.196  1.00  0.00     0.000 C 
ATOM     19  C   UNL     1      12.319  23.343   1.750  1.00  0.00     0.005 C 
ATOM     20  C   UNL     1      13.138  22.283   2.559  1.00  0.00     0.003 C 
ATOM     21  C   UNL     1      15.311  23.578   2.878  1.00  0.00     0.031 C 
ATOM     22  C   UNL     1      12.912  22.257   4.138  1.00  0.00    -0.008 C 
ATOM     23  C   UNL     1      15.106  23.524   4.356  1.00  0.00    -0.027 C 
ATOM     24  C   UNL     1      14.003  22.996   4.930  1.00  0.00    -0.065 C 
ATOM     25  C   UNL     1      12.966  20.768   4.605  1.00  0.00     0.014 C 
ATOM     26  C   UNL     1      11.528  22.850   4.505  1.00  0.00     0.016 C 
ATOM     27  C   UNL     1      13.961  22.902   6.444  1.00  0.00     0.063 C 
ATOM     28  C   UNL     1      12.933  20.573   6.137  1.00  0.00     0.033 C 
ATOM     29  C   UNL     1      13.973  21.430   6.890  1.00  0.00     0.118 C 
BRANCH  29  30
ATOM     30  O   UNL     1      15.264  20.872   6.780  1.00  0.00    -0.393 OA
ATOM     31  H   UNL     1      15.913  21.511   7.180  1.00  0.00     0.210 HD
ENDBRANCH  29  30
ENDBRANCH   9  11
ENDBRANCH   1   9
TORSDOF 7
ENDMDL
MODEL 2
REMARK VINA RESULT:    21.797      1.457      3.543
REMARK INTER + INTRA:          29.640
REMARK INTER:                  27.977
REMARK INTRA:                   1.663
REMARK UNBOUND:                -0.439
REMARK SMILES CC[C@H](CC[C@@H](C)[C@H]1CC[C@H]2[C@H]3CC=C4C[C@H](O)CC[C@]4(C)[C@H]3CC[C@]12C)C(C)C
REMARK SMILES IDX 5 1 4 2 3 3 2 4 1 5 28 6 29 7 30 8 6 9 7 10 8 11 9 12 26 13
REMARK SMILES IDX 10 14 11 15 25 16 27 17 12 18 24 19 23 20 13 21 21 22 14 23
REMARK SMILES IDX 15 24 20 25 22 26 16 27 19 28 17 29 18 30
REMARK H PARENT 18 31
REMARK Flexibility Score: inf
ROOT
ATOM      1  C   UNL     1      13.810  21.599  -4.125  1.00  0.00     0.004 C 
ENDROOT
BRANCH   1   2
ATOM      2  C   UNL     1      13.094  22.817  -3.505  1.00  0.00     0.004 C 
BRANCH   2   3
ATOM      3  C   UNL     1      14.023  24.026  -3.179  1.00  0.00    -0.009 C 
BRANCH   3   4
ATOM      4  C   UNL     1      13.658  25.222  -4.112  1.00  0.00     0.000 C 
ATOM      5  C   UNL     1      12.308  25.884  -3.809  1.00  0.00     0.004 C 
ENDBRANCH   3   4
BRANCH   3   6
ATOM      6  C   UNL     1      13.984  24.400  -1.640  1.00  0.00    -0.014 C 
ATOM      7  C   UNL     1      14.913  25.593  -1.313  1.00  0.00     0.007 C 
ATOM      8  C   UNL     1      12.581  24.726  -1.087  1.00  0.00     0.007 C 
ENDBRANCH   3   6
ENDBRANCH   2   3
ENDBRANCH   1   2
BRANCH   1   9
ATOM      9  C   UNL     1      13.603  20.276  -3.309  1.00  0.00    -0.011 C 
ATOM     10  C   UNL     1      14.201  19.097  -4.099  1.00  0.00     0.008 C 
BRANCH   9  11
ATOM     11  C   UNL     1      14.221  20.390  -1.872  1.00  0.00    -0.002 C 
ATOM     12  C   UNL     1      15.273  21.533  -1.774  1.00  0.00     0.005 C 
ATOM     13  C   UNL     1      13.296  20.655  -0.633  1.00  0.00    -0.026 C 
ATOM     14  C   UNL     1      15.325  21.989  -0.304  1.00  0.00     0.005 C 
ATOM     15  C   UNL     1      14.393  21.019   0.394  1.00  0.00    -0.001 C 
ATOM     16  C   UNL     1      12.537  19.426  -0.061  1.00  0.00     0.007 C 
ATOM     17  C   UNL     1      12.295  21.811  -0.956  1.00  0.00     0.012 C 
ATOM     18  C   UNL     1      13.957  21.284   1.857  1.00  0.00     0.000 C 
ATOM     19  C   UNL     1      12.026  19.668   1.385  1.00  0.00     0.005 C 
ATOM     20  C   UNL     1      13.175  20.045   2.378  1.00  0.00     0.003 C 
ATOM     21  C   UNL     1      13.167  22.579   2.096  1.00  0.00     0.031 C 
ATOM     22  C   UNL     1      12.770  20.206   3.912  1.00  0.00    -0.008 C 
ATOM     23  C   UNL     1      12.815  22.721   3.541  1.00  0.00    -0.027 C 
ATOM     24  C   UNL     1      12.568  21.666   4.348  1.00  0.00    -0.065 C 
ATOM     25  C   UNL     1      13.943  19.650   4.779  1.00  0.00     0.014 C 
ATOM     26  C   UNL     1      11.485  19.399   4.230  1.00  0.00     0.016 C 
ATOM     27  C   UNL     1      12.327  21.936   5.822  1.00  0.00     0.063 C 
ATOM     28  C   UNL     1      13.788  19.884   6.298  1.00  0.00     0.033 C 
ATOM     29  C   UNL     1      13.470  21.348   6.667  1.00  0.00     0.118 C 
BRANCH  29  30
ATOM     30  O   UNL     1      14.626  22.152   6.595  1.00  0.00    -0.393 OA
ATOM     31  H   UNL     1      15.377  21.656   7.017  1.00  0.00     0.210 HD
ENDBRANCH  29  30
ENDBRANCH   9  11
ENDBRANCH   1   9
TORSDOF 7
ENDMDL
