MODEL 1
REMARK VINA RESULT:    -3.879      0.000      0.000
REMARK INTER + INTRA:          -4.895
REMARK INTER:                  -4.672
REMARK INTRA:                  -0.223
REMARK UNBOUND:                -0.223
REMARK SMILES OCC(O)CO
REMARK SMILES IDX 3 1 5 2 6 3 2 5 1 6 4 8
REMARK H PARENT 6 4 1 7 4 9
REMARK Flexibility Score: inf
ROOT
ATOM      1  C   UNL     1      15.751  -4.936  17.393  1.00  0.00     0.165 C 
ENDROOT
BRANCH   1   2
ATOM      2  C   UNL     1      15.606  -3.401  17.411  1.00  0.00     0.190 C 
BRANCH   2   3
ATOM      3  O   UNL     1      14.932  -2.971  18.562  1.00  0.00    -0.394 OA
ATOM      4  H   UNL     1      14.859  -3.760  19.160  1.00  0.00     0.210 HD
ENDBRANCH   2   3
ENDBRANCH   1   2
BRANCH   1   5
ATOM      5  C   UNL     1      14.391  -5.653  17.420  1.00  0.00     0.190 C 
BRANCH   5   6
ATOM      6  O   UNL     1      13.876  -5.670  18.723  1.00  0.00    -0.394 OA
ATOM      7  H   UNL     1      13.517  -4.759  18.888  1.00  0.00     0.210 HD
ENDBRANCH   5   6
ENDBRANCH   1   5
BRANCH   1   8
ATOM      8  O   UNL     1      16.540  -5.358  18.478  1.00  0.00    -0.388 OA
ATOM      9  H   UNL     1      15.940  -5.811  19.126  1.00  0.00     0.211 HD
ENDBRANCH   1   8
TORSDOF 5
ENDMDL
MODEL 2
REMARK VINA RESULT:    -3.706      5.808      6.884
REMARK INTER + INTRA:          -4.687
REMARK INTER:                  -4.464
REMARK INTRA:                  -0.224
REMARK UNBOUND:                -0.223
REMARK SMILES OCC(O)CO
REMARK SMILES IDX 3 1 5 2 6 3 2 5 1 6 4 8
REMARK H PARENT 6 4 1 7 4 9
REMARK Flexibility Score: inf
ROOT
ATOM      1  C   UNL     1      20.900  -4.614  17.588  1.00  0.00     0.165 C 
ENDROOT
BRANCH   1   2
ATOM      2  C   UNL     1      21.024  -4.281  19.088  1.00  0.00     0.190 C 
BRANCH   2   3
ATOM      3  O   UNL     1      22.121  -3.443  19.330  1.00  0.00    -0.394 OA
ATOM      4  H   UNL     1      22.894  -4.035  19.519  1.00  0.00     0.210 HD
ENDBRANCH   2   3
ENDBRANCH   1   2
BRANCH   1   5
ATOM      5  C   UNL     1      22.258  -4.946  16.947  1.00  0.00     0.190 C 
BRANCH   5   6
ATOM      6  O   UNL     1      22.896  -3.771  16.527  1.00  0.00    -0.394 OA
ATOM      7  H   UNL     1      22.422  -3.480  15.705  1.00  0.00     0.210 HD
ENDBRANCH   5   6
ENDBRANCH   1   5
BRANCH   1   8
ATOM      8  O   UNL     1      20.292  -3.545  16.906  1.00  0.00    -0.388 OA
ATOM      9  H   UNL     1      20.130  -3.839  15.972  1.00  0.00     0.211 HD
ENDBRANCH   1   8
TORSDOF 5
ENDMDL
MODEL 3
REMARK VINA RESULT:    -3.704      0.716      2.578
REMARK INTER + INTRA:          -4.685
REMARK INTER:                  -4.493
REMARK INTRA:                  -0.192
REMARK UNBOUND:                -0.223
REMARK SMILES OCC(O)CO
REMARK SMILES IDX 3 1 5 2 6 3 2 5 1 6 4 8
REMARK H PARENT 6 4 1 7 4 9
REMARK Flexibility Score: inf
ROOT
ATOM      1  C   UNL     1      15.450  -4.130  17.447  1.00  0.00     0.165 C 
ENDROOT
BRANCH   1   2
ATOM      2  C   UNL     1      14.641  -5.441  17.473  1.00  0.00     0.190 C 
BRANCH   2   3
ATOM      3  O   UNL     1      14.009  -5.620  18.711  1.00  0.00    -0.394 OA
ATOM      4  H   UNL     1      13.799  -6.587  18.786  1.00  0.00     0.210 HD
ENDBRANCH   2   3
ENDBRANCH   1   2
BRANCH   1   5
ATOM      5  C   UNL     1      16.948  -4.359  17.715  1.00  0.00     0.190 C 
BRANCH   5   6
ATOM      6  O   UNL     1      17.119  -5.265  18.770  1.00  0.00    -0.394 OA
ATOM      7  H   UNL     1      16.286  -5.219  19.309  1.00  0.00     0.210 HD
ENDBRANCH   5   6
ENDBRANCH   1   5
BRANCH   1   8
ATOM      8  O   UNL     1      14.927  -3.222  18.384  1.00  0.00    -0.388 OA
ATOM      9  H   UNL     1      15.612  -2.520  18.538  1.00  0.00     0.211 HD
ENDBRANCH   1   8
TORSDOF 5
ENDMDL
MODEL 4
REMARK VINA RESULT:    -3.702      0.801      2.380
REMARK INTER + INTRA:          -4.683
REMARK INTER:                  -4.459
REMARK INTRA:                  -0.224
REMARK UNBOUND:                -0.223
REMARK SMILES OCC(O)CO
REMARK SMILES IDX 3 1 5 2 6 3 2 5 1 6 4 8
REMARK H PARENT 6 4 1 7 4 9
REMARK Flexibility Score: inf
ROOT
ATOM      1  C   UNL     1      15.938  -4.852  17.573  1.00  0.00     0.165 C 
ENDROOT
BRANCH   1   2
ATOM      2  C   UNL     1      14.606  -5.616  17.438  1.00  0.00     0.190 C 
BRANCH   2   3
ATOM      3  O   UNL     1      13.920  -5.653  18.660  1.00  0.00    -0.394 OA
ATOM      4  H   UNL     1      14.226  -6.471  19.133  1.00  0.00     0.210 HD
ENDBRANCH   2   3
ENDBRANCH   1   2
BRANCH   1   5
ATOM      5  C   UNL     1      15.752  -3.328  17.490  1.00  0.00     0.190 C 
BRANCH   5   6
ATOM      6  O   UNL     1      14.903  -2.886  18.514  1.00  0.00    -0.394 OA
ATOM      7  H   UNL     1      13.979  -2.978  18.164  1.00  0.00     0.210 HD
ENDBRANCH   5   6
ENDBRANCH   1   5
BRANCH   1   8
ATOM      8  O   UNL     1      16.842  -5.282  16.584  1.00  0.00    -0.388 OA
ATOM      9  H   UNL     1      16.319  -5.760  15.888  1.00  0.00     0.211 HD
ENDBRANCH   1   8
TORSDOF 5
ENDMDL
MODEL 5
REMARK VINA RESULT:    -3.667      5.695      6.614
REMARK INTER + INTRA:          -4.640
REMARK INTER:                  -4.422
REMARK INTRA:                  -0.218
REMARK UNBOUND:                -0.223
REMARK SMILES OCC(O)CO
REMARK SMILES IDX 3 1 5 2 6 3 2 5 1 6 4 8
REMARK H PARENT 6 4 1 7 4 9
REMARK Flexibility Score: inf
ROOT
ATOM      1  C   UNL     1      21.482  -4.597  18.290  1.00  0.00     0.165 C 
ENDROOT
BRANCH   1   2
ATOM      2  C   UNL     1      22.248  -4.904  16.988  1.00  0.00     0.190 C 
BRANCH   2   3
ATOM      3  O   UNL     1      22.911  -3.764  16.512  1.00  0.00    -0.394 OA
ATOM      4  H   UNL     1      23.795  -3.740  16.962  1.00  0.00     0.210 HD
ENDBRANCH   2   3
ENDBRANCH   1   2
BRANCH   1   5
ATOM      5  C   UNL     1      20.022  -4.189  18.029  1.00  0.00     0.190 C 
BRANCH   5   6
ATOM      6  O   UNL     1      19.910  -3.561  16.781  1.00  0.00    -0.394 OA
ATOM      7  H   UNL     1      19.911  -4.288  16.106  1.00  0.00     0.210 HD
ENDBRANCH   5   6
ENDBRANCH   1   5
BRANCH   1   8
ATOM      8  O   UNL     1      22.144  -3.588  19.012  1.00  0.00    -0.388 OA
ATOM      9  H   UNL     1      23.119  -3.710  18.872  1.00  0.00     0.211 HD
ENDBRANCH   1   8
TORSDOF 5
ENDMDL
MODEL 6
REMARK VINA RESULT:    -3.587      5.683      6.767
REMARK INTER + INTRA:          -4.544
REMARK INTER:                  -4.320
REMARK INTRA:                  -0.224
REMARK UNBOUND:                -0.223
REMARK SMILES OCC(O)CO
REMARK SMILES IDX 3 1 5 2 6 3 2 5 1 6 4 8
REMARK H PARENT 6 4 1 7 4 9
REMARK Flexibility Score: inf
ROOT
ATOM      1  C   UNL     1      20.863  -4.579  17.666  1.00  0.00     0.165 C 
ENDROOT
BRANCH   1   2
ATOM      2  C   UNL     1      22.175  -4.934  16.940  1.00  0.00     0.190 C 
BRANCH   2   3
ATOM      3  O   UNL     1      22.876  -3.778  16.569  1.00  0.00    -0.394 OA
ATOM      4  H   UNL     1      22.565  -3.053  17.171  1.00  0.00     0.210 HD
ENDBRANCH   2   3
ENDBRANCH   1   2
BRANCH   1   5
ATOM      5  C   UNL     1      21.068  -4.361  19.174  1.00  0.00     0.190 C 
BRANCH   5   6
ATOM      6  O   UNL     1      22.108  -3.447  19.396  1.00  0.00    -0.394 OA
ATOM      7  H   UNL     1      21.785  -2.829  20.102  1.00  0.00     0.210 HD
ENDBRANCH   5   6
ENDBRANCH   1   5
BRANCH   1   8
ATOM      8  O   UNL     1      19.906  -5.586  17.450  1.00  0.00    -0.388 OA
ATOM      9  H   UNL     1      20.053  -5.949  16.537  1.00  0.00     0.211 HD
ENDBRANCH   1   8
TORSDOF 5
ENDMDL
MODEL 7
REMARK VINA RESULT:    -3.535      1.064      2.042
REMARK INTER + INTRA:          -4.482
REMARK INTER:                  -4.476
REMARK INTRA:                  -0.005
REMARK UNBOUND:                -0.223
REMARK SMILES OCC(O)CO
REMARK SMILES IDX 3 1 5 2 6 3 2 5 1 6 4 8
REMARK H PARENT 6 4 1 7 4 9
REMARK Flexibility Score: inf
ROOT
ATOM      1  C   UNL     1      15.683  -4.271  18.319  1.00  0.00     0.165 C 
ENDROOT
BRANCH   1   2
ATOM      2  C   UNL     1      16.863  -3.958  17.378  1.00  0.00     0.190 C 
BRANCH   2   3
ATOM      3  O   UNL     1      17.516  -5.132  16.979  1.00  0.00    -0.394 OA
ATOM      4  H   UNL     1      18.196  -4.864  16.307  1.00  0.00     0.210 HD
ENDBRANCH   2   3
ENDBRANCH   1   2
BRANCH   1   5
ATOM      5  C   UNL     1      14.748  -5.350  17.747  1.00  0.00     0.190 C 
BRANCH   5   6
ATOM      6  O   UNL     1      13.797  -5.725  18.706  1.00  0.00    -0.394 OA
ATOM      7  H   UNL     1      13.488  -4.883  19.131  1.00  0.00     0.210 HD
ENDBRANCH   5   6
ENDBRANCH   1   5
BRANCH   1   8
ATOM      8  O   UNL     1      14.957  -3.097  18.588  1.00  0.00    -0.388 OA
ATOM      9  H   UNL     1      13.996  -3.341  18.626  1.00  0.00     0.211 HD
ENDBRANCH   1   8
TORSDOF 5
ENDMDL
MODEL 8
REMARK VINA RESULT:    -3.517      5.671      6.864
REMARK INTER + INTRA:          -4.460
REMARK INTER:                  -4.453
REMARK INTRA:                  -0.007
REMARK UNBOUND:                -0.223
REMARK SMILES OCC(O)CO
REMARK SMILES IDX 3 1 5 2 6 3 2 5 1 6 4 8
REMARK H PARENT 6 4 1 7 4 9
REMARK Flexibility Score: inf
ROOT
ATOM      1  C   UNL     1      21.335  -4.049  17.858  1.00  0.00     0.165 C 
ENDROOT
BRANCH   1   2
ATOM      2  C   UNL     1      20.199  -4.976  18.331  1.00  0.00     0.190 C 
BRANCH   2   3
ATOM      3  O   UNL     1      19.718  -5.764  17.276  1.00  0.00    -0.394 OA
ATOM      4  H   UNL     1      19.215  -6.514  17.688  1.00  0.00     0.210 HD
ENDBRANCH   2   3
ENDBRANCH   1   2
BRANCH   1   5
ATOM      5  C   UNL     1      22.323  -4.763  16.920  1.00  0.00     0.190 C 
BRANCH   5   6
ATOM      6  O   UNL     1      23.211  -3.838  16.355  1.00  0.00    -0.394 OA
ATOM      7  H   UNL     1      23.348  -4.128  15.415  1.00  0.00     0.210 HD
ENDBRANCH   5   6
ENDBRANCH   1   5
BRANCH   1   8
ATOM      8  O   UNL     1      22.019  -3.521  18.967  1.00  0.00    -0.388 OA
ATOM      9  H   UNL     1      21.738  -2.574  19.070  1.00  0.00     0.211 HD
ENDBRANCH   1   8
TORSDOF 5
ENDMDL
MODEL 9
REMARK VINA RESULT:    -3.415      1.466      2.165
REMARK INTER + INTRA:          -4.337
REMARK INTER:                  -4.113
REMARK INTRA:                  -0.223
REMARK UNBOUND:                -0.223
REMARK SMILES OCC(O)CO
REMARK SMILES IDX 3 1 5 2 6 3 2 5 1 6 4 8
REMARK H PARENT 6 4 1 7 4 9
REMARK Flexibility Score: inf
ROOT
ATOM      1  C   UNL     1      15.491  -4.871  17.989  1.00  0.00     0.165 C 
ENDROOT
BRANCH   1   2
ATOM      2  C   UNL     1      15.506  -3.338  17.832  1.00  0.00     0.190 C 
BRANCH   2   3
ATOM      3  O   UNL     1      16.665  -2.910  17.170  1.00  0.00    -0.394 OA
ATOM      4  H   UNL     1      16.394  -2.158  16.581  1.00  0.00     0.210 HD
ENDBRANCH   2   3
ENDBRANCH   1   2
BRANCH   1   5
ATOM      5  C   UNL     1      15.586  -5.600  16.638  1.00  0.00     0.190 C 
BRANCH   5   6
ATOM      6  O   UNL     1      16.918  -5.647  16.204  1.00  0.00    -0.394 OA
ATOM      7  H   UNL     1      16.919  -6.193  15.376  1.00  0.00     0.210 HD
ENDBRANCH   5   6
ENDBRANCH   1   5
BRANCH   1   8
ATOM      8  O   UNL     1      14.331  -5.274  18.673  1.00  0.00    -0.388 OA
ATOM      9  H   UNL     1      13.777  -4.464  18.827  1.00  0.00     0.211 HD
ENDBRANCH   1   8
TORSDOF 5
ENDMDL
