MODEL 1
REMARK VINA RESULT:    -3.528      0.000      0.000
REMARK INTER + INTRA:          -9.437
REMARK INTER:                  -6.415
REMARK INTRA:                  -3.022
REMARK UNBOUND:                -3.022
REMARK SMILES CCCCCC=CCC=CCCCCCCCC(=O)[O-]
REMARK SMILES IDX 11 1 12 2 13 3 14 4 15 5 16 6 17 7 18 8 19 9 20 10 10 11
REMARK SMILES IDX 9 12 8 13 7 14 6 15 5 16 4 17 3 18 2 19 1 20
REMARK H PARENT
REMARK Flexibility Score: inf
ROOT
ATOM      1  C   UNL     1      55.177  29.677  51.703  1.00  0.00     0.027 C 
ENDROOT
BRANCH   1   2
ATOM      2  C   UNL     1      56.543  29.965  51.065  1.00  0.00     0.004 C 
BRANCH   2   3
ATOM      3  C   UNL     1      57.712  29.803  52.053  1.00  0.00     0.000 C 
BRANCH   3   4
ATOM      4  C   UNL     1      59.058  29.427  51.407  1.00  0.00     0.000 C 
BRANCH   4   5
ATOM      5  C   UNL     1      58.925  29.055  49.924  1.00  0.00     0.000 C 
BRANCH   5   6
ATOM      6  C   UNL     1      59.658  27.743  49.618  1.00  0.00     0.006 C 
BRANCH   6   7
ATOM      7  C   UNL     1      60.310  27.169  50.880  1.00  0.00     0.053 C 
BRANCH   7   8
ATOM      8  C   UNL     1      61.791  27.063  50.704  1.00  0.00     0.041 C 
ATOM      9  O   UNL     1      62.474  26.361  51.494  1.00  0.00    -0.550 OA
ATOM     10  O   UNL     1      62.412  27.702  49.639  1.00  0.00    -0.550 OA
ENDBRANCH   7   8
ENDBRANCH   6   7
ENDBRANCH   5   6
ENDBRANCH   4   5
ENDBRANCH   3   4
ENDBRANCH   2   3
ENDBRANCH   1   2
BRANCH   1  11
ATOM     11  C   UNL     1      54.097  29.679  50.651  1.00  0.00    -0.031 C 
ATOM     12  C   UNL     1      53.323  28.622  50.340  1.00  0.00    -0.027 C 
BRANCH  12  13
ATOM     13  C   UNL     1      53.365  27.284  51.036  1.00  0.00     0.054 C 
BRANCH  13  14
ATOM     14  C   UNL     1      53.711  26.165  50.086  1.00  0.00    -0.027 C 
ATOM     15  C   UNL     1      54.961  25.739  49.824  1.00  0.00    -0.031 C 
BRANCH  15  16
ATOM     16  C   UNL     1      56.216  26.363  50.383  1.00  0.00     0.027 C 
BRANCH  16  17
ATOM     17  C   UNL     1      56.785  25.553  51.557  1.00  0.00     0.004 C 
BRANCH  17  18
ATOM     18  C   UNL     1      56.933  26.403  52.831  1.00  0.00     0.000 C 
BRANCH  18  19
ATOM     19  C   UNL     1      55.695  26.330  53.736  1.00  0.00    -0.003 C 
ATOM     20  C   UNL     1      54.947  25.003  53.607  1.00  0.00     0.004 C 
ENDBRANCH  18  19
ENDBRANCH  17  18
ENDBRANCH  16  17
ENDBRANCH  15  16
ENDBRANCH  13  14
ENDBRANCH  12  13
ENDBRANCH   1  11
TORSDOF 14
ENDMDL
MODEL 2
REMARK VINA RESULT:    -3.498      3.003      5.909
REMARK INTER + INTRA:          -9.382
REMARK INTER:                  -6.641
REMARK INTRA:                  -2.741
REMARK UNBOUND:                -3.022
REMARK SMILES CCCCCC=CCC=CCCCCCCCC(=O)[O-]
REMARK SMILES IDX 11 1 12 2 13 3 14 4 15 5 16 6 17 7 18 8 19 9 20 10 10 11
REMARK SMILES IDX 9 12 8 13 7 14 6 15 5 16 4 17 3 18 2 19 1 20
REMARK H PARENT
REMARK Flexibility Score: inf
ROOT
ATOM      1  C   UNL     1      56.154  26.035  50.235  1.00  0.00     0.027 C 
ENDROOT
BRANCH   1   2
ATOM      2  C   UNL     1      54.644  25.822  50.056  1.00  0.00     0.004 C 
BRANCH   2   3
ATOM      3  C   UNL     1      53.798  26.827  50.858  1.00  0.00     0.000 C 
BRANCH   3   4
ATOM      4  C   UNL     1      52.954  27.789  50.001  1.00  0.00     0.000 C 
BRANCH   4   5
ATOM      5  C   UNL     1      53.224  29.266  50.319  1.00  0.00     0.000 C 
BRANCH   5   6
ATOM      6  C   UNL     1      54.513  29.426  51.136  1.00  0.00     0.006 C 
BRANCH   6   7
ATOM      7  C   UNL     1      55.060  30.852  51.027  1.00  0.00     0.053 C 
BRANCH   7   8
ATOM      8  C   UNL     1      55.231  31.453  52.386  1.00  0.00     0.041 C 
ATOM      9  O   UNL     1      55.310  30.712  53.400  1.00  0.00    -0.550 OA
ATOM     10  O   UNL     1      55.351  32.829  52.528  1.00  0.00    -0.550 OA
ENDBRANCH   7   8
ENDBRANCH   6   7
ENDBRANCH   5   6
ENDBRANCH   4   5
ENDBRANCH   3   4
ENDBRANCH   2   3
ENDBRANCH   1   2
BRANCH   1  11
ATOM     11  C   UNL     1      56.556  25.759  51.661  1.00  0.00    -0.031 C 
ATOM     12  C   UNL     1      57.750  25.267  52.044  1.00  0.00    -0.027 C 
BRANCH  12  13
ATOM     13  C   UNL     1      58.902  24.972  51.114  1.00  0.00     0.054 C 
BRANCH  13  14
ATOM     14  C   UNL     1      60.134  25.765  51.473  1.00  0.00    -0.027 C 
ATOM     15  C   UNL     1      60.531  26.889  50.847  1.00  0.00    -0.031 C 
BRANCH  15  16
ATOM     16  C   UNL     1      59.848  27.490  49.643  1.00  0.00     0.027 C 
BRANCH  16  17
ATOM     17  C   UNL     1      59.424  28.944  49.892  1.00  0.00     0.004 C 
BRANCH  17  18
ATOM     18  C   UNL     1      58.171  29.039  50.781  1.00  0.00     0.000 C 
BRANCH  18  19
ATOM     19  C   UNL     1      58.468  29.663  52.153  1.00  0.00    -0.003 C 
ATOM     20  C   UNL     1      58.265  28.678  53.305  1.00  0.00     0.004 C 
ENDBRANCH  18  19
ENDBRANCH  17  18
ENDBRANCH  16  17
ENDBRANCH  15  16
ENDBRANCH  13  14
ENDBRANCH  12  13
ENDBRANCH   1  11
TORSDOF 14
ENDMDL
MODEL 3
REMARK VINA RESULT:    -3.377      3.369      6.021
REMARK INTER + INTRA:          -9.162
REMARK INTER:                  -5.884
REMARK INTRA:                  -3.278
REMARK UNBOUND:                -3.022
REMARK SMILES CCCCCC=CCC=CCCCCCCCC(=O)[O-]
REMARK SMILES IDX 11 1 12 2 13 3 14 4 15 5 16 6 17 7 18 8 19 9 20 10 10 11
REMARK SMILES IDX 9 12 8 13 7 14 6 15 5 16 4 17 3 18 2 19 1 20
REMARK H PARENT
REMARK Flexibility Score: inf
ROOT
ATOM      1  C   UNL     1      55.812  25.659  51.335  1.00  0.00     0.027 C 
ENDROOT
BRANCH   1   2
ATOM      2  C   UNL     1      55.068  26.269  50.139  1.00  0.00     0.004 C 
BRANCH   2   3
ATOM      3  C   UNL     1      53.588  26.565  50.441  1.00  0.00     0.000 C 
BRANCH   3   4
ATOM      4  C   UNL     1      53.112  27.969  50.025  1.00  0.00     0.000 C 
BRANCH   4   5
ATOM      5  C   UNL     1      54.073  29.081  50.466  1.00  0.00     0.000 C 
BRANCH   5   6
ATOM      6  C   UNL     1      53.718  29.593  51.867  1.00  0.00     0.006 C 
BRANCH   6   7
ATOM      7  C   UNL     1      54.206  31.031  52.068  1.00  0.00     0.053 C 
BRANCH   7   8
ATOM      8  C   UNL     1      54.281  31.360  53.525  1.00  0.00     0.041 C 
ATOM      9  O   UNL     1      54.062  32.535  53.921  1.00  0.00    -0.550 OA
ATOM     10  O   UNL     1      54.548  30.361  54.450  1.00  0.00    -0.550 OA
ENDBRANCH   7   8
ENDBRANCH   6   7
ENDBRANCH   5   6
ENDBRANCH   4   5
ENDBRANCH   3   4
ENDBRANCH   2   3
ENDBRANCH   1   2
BRANCH   1  11
ATOM     11  C   UNL     1      55.289  26.235  52.626  1.00  0.00    -0.031 C 
ATOM     12  C   UNL     1      55.990  27.032  53.455  1.00  0.00    -0.027 C 
BRANCH  12  13
ATOM     13  C   UNL     1      57.391  27.530  53.195  1.00  0.00     0.054 C 
BRANCH  13  14
ATOM     14  C   UNL     1      57.413  29.002  52.863  1.00  0.00    -0.027 C 
ATOM     15  C   UNL     1      57.563  29.506  51.625  1.00  0.00    -0.031 C 
BRANCH  15  16
ATOM     16  C   UNL     1      57.806  28.682  50.384  1.00  0.00     0.027 C 
BRANCH  16  17
ATOM     17  C   UNL     1      59.241  28.844  49.861  1.00  0.00     0.004 C 
BRANCH  17  18
ATOM     18  C   UNL     1      60.017  27.515  49.879  1.00  0.00     0.000 C 
BRANCH  18  19
ATOM     19  C   UNL     1      59.097  26.296  50.044  1.00  0.00    -0.003 C 
ATOM     20  C   UNL     1      59.589  25.327  51.119  1.00  0.00     0.004 C 
ENDBRANCH  18  19
ENDBRANCH  17  18
ENDBRANCH  16  17
ENDBRANCH  15  16
ENDBRANCH  13  14
ENDBRANCH  12  13
ENDBRANCH   1  11
TORSDOF 14
ENDMDL
MODEL 4
REMARK VINA RESULT:    -3.270      1.546      2.255
REMARK INTER + INTRA:          -8.967
REMARK INTER:                  -6.210
REMARK INTRA:                  -2.757
REMARK UNBOUND:                -3.022
REMARK SMILES CCCCCC=CCC=CCCCCCCCC(=O)[O-]
REMARK SMILES IDX 11 1 12 2 13 3 14 4 15 5 16 6 17 7 18 8 19 9 20 10 10 11
REMARK SMILES IDX 9 12 8 13 7 14 6 15 5 16 4 17 3 18 2 19 1 20
REMARK H PARENT
REMARK Flexibility Score: inf
ROOT
ATOM      1  C   UNL     1      56.092  29.445  52.005  1.00  0.00     0.027 C 
ENDROOT
BRANCH   1   2
ATOM      2  C   UNL     1      57.483  29.820  51.477  1.00  0.00     0.004 C 
BRANCH   2   3
ATOM      3  C   UNL     1      57.893  29.007  50.236  1.00  0.00     0.000 C 
BRANCH   3   4
ATOM      4  C   UNL     1      59.407  28.970  49.958  1.00  0.00     0.000 C 
BRANCH   4   5
ATOM      5  C   UNL     1      60.252  29.214  51.216  1.00  0.00     0.000 C 
BRANCH   5   6
ATOM      6  C   UNL     1      61.269  28.085  51.422  1.00  0.00     0.006 C 
BRANCH   6   7
ATOM      7  C   UNL     1      61.680  27.463  50.084  1.00  0.00     0.053 C 
BRANCH   7   8
ATOM      8  C   UNL     1      63.154  27.605  49.871  1.00  0.00     0.041 C 
ATOM      9  O   UNL     1      63.957  27.336  50.803  1.00  0.00    -0.550 OA
ATOM     10  O   UNL     1      63.643  27.991  48.631  1.00  0.00    -0.550 OA
ENDBRANCH   7   8
ENDBRANCH   6   7
ENDBRANCH   5   6
ENDBRANCH   4   5
ENDBRANCH   3   4
ENDBRANCH   2   3
ENDBRANCH   1   2
BRANCH   1  11
ATOM     11  C   UNL     1      55.045  29.699  50.951  1.00  0.00    -0.031 C 
ATOM     12  C   UNL     1      54.196  28.771  50.469  1.00  0.00    -0.027 C 
BRANCH  12  13
ATOM     13  C   UNL     1      54.111  27.344  50.950  1.00  0.00     0.054 C 
BRANCH  13  14
ATOM     14  C   UNL     1      55.015  26.429  50.161  1.00  0.00    -0.027 C 
ATOM     15  C   UNL     1      56.061  25.756  50.675  1.00  0.00    -0.031 C 
BRANCH  15  16
ATOM     16  C   UNL     1      56.538  25.867  52.103  1.00  0.00     0.027 C 
BRANCH  16  17
ATOM     17  C   UNL     1      58.068  25.957  52.190  1.00  0.00     0.004 C 
BRANCH  17  18
ATOM     18  C   UNL     1      58.754  25.415  50.924  1.00  0.00     0.000 C 
BRANCH  18  19
ATOM     19  C   UNL     1      59.689  24.233  51.220  1.00  0.00    -0.003 C 
ATOM     20  C   UNL     1      59.854  23.972  52.717  1.00  0.00     0.004 C 
ENDBRANCH  18  19
ENDBRANCH  17  18
ENDBRANCH  16  17
ENDBRANCH  15  16
ENDBRANCH  13  14
ENDBRANCH  12  13
ENDBRANCH   1  11
TORSDOF 14
ENDMDL
MODEL 5
REMARK VINA RESULT:    -3.261      3.104      4.764
REMARK INTER + INTRA:          -8.952
REMARK INTER:                  -6.509
REMARK INTRA:                  -2.443
REMARK UNBOUND:                -3.022
REMARK SMILES CCCCCC=CCC=CCCCCCCCC(=O)[O-]
REMARK SMILES IDX 11 1 12 2 13 3 14 4 15 5 16 6 17 7 18 8 19 9 20 10 10 11
REMARK SMILES IDX 9 12 8 13 7 14 6 15 5 16 4 17 3 18 2 19 1 20
REMARK H PARENT
REMARK Flexibility Score: inf
ROOT
ATOM      1  C   UNL     1      54.399  28.634  50.375  1.00  0.00     0.027 C 
ENDROOT
BRANCH   1   2
ATOM      2  C   UNL     1      53.960  30.052  50.764  1.00  0.00     0.004 C 
BRANCH   2   3
ATOM      3  C   UNL     1      55.146  31.012  50.967  1.00  0.00     0.000 C 
BRANCH   3   4
ATOM      4  C   UNL     1      56.522  30.328  51.068  1.00  0.00     0.000 C 
BRANCH   4   5
ATOM      5  C   UNL     1      57.153  30.457  52.461  1.00  0.00     0.000 C 
BRANCH   5   6
ATOM      6  C   UNL     1      57.276  29.086  53.138  1.00  0.00     0.006 C 
BRANCH   6   7
ATOM      7  C   UNL     1      55.916  28.599  53.647  1.00  0.00     0.053 C 
BRANCH   7   8
ATOM      8  C   UNL     1      55.462  29.430  54.804  1.00  0.00     0.041 C 
ATOM      9  O   UNL     1      54.571  30.306  54.644  1.00  0.00    -0.550 OA
ATOM     10  O   UNL     1      55.987  29.206  56.070  1.00  0.00    -0.550 OA
ENDBRANCH   7   8
ENDBRANCH   6   7
ENDBRANCH   5   6
ENDBRANCH   4   5
ENDBRANCH   3   4
ENDBRANCH   2   3
ENDBRANCH   1   2
BRANCH   1  11
ATOM     11  C   UNL     1      53.196  27.743  50.198  1.00  0.00    -0.031 C 
ATOM     12  C   UNL     1      53.246  26.436  49.875  1.00  0.00    -0.027 C 
BRANCH  12  13
ATOM     13  C   UNL     1      54.513  25.636  49.699  1.00  0.00     0.054 C 
BRANCH  13  14
ATOM     14  C   UNL     1      55.119  25.242  51.023  1.00  0.00    -0.027 C 
ATOM     15  C   UNL     1      56.319  25.658  51.471  1.00  0.00    -0.031 C 
BRANCH  15  16
ATOM     16  C   UNL     1      57.277  26.523  50.689  1.00  0.00     0.027 C 
BRANCH  16  17
ATOM     17  C   UNL     1      58.578  25.781  50.357  1.00  0.00     0.004 C 
BRANCH  17  18
ATOM     18  C   UNL     1      59.751  26.748  50.114  1.00  0.00     0.000 C 
BRANCH  18  19
ATOM     19  C   UNL     1      59.283  28.151  49.702  1.00  0.00    -0.003 C 
ATOM     20  C   UNL     1      60.004  29.261  50.467  1.00  0.00     0.004 C 
ENDBRANCH  18  19
ENDBRANCH  17  18
ENDBRANCH  16  17
ENDBRANCH  15  16
ENDBRANCH  13  14
ENDBRANCH  12  13
ENDBRANCH   1  11
TORSDOF 14
ENDMDL
MODEL 6
REMARK VINA RESULT:    -3.238      1.316      3.468
REMARK INTER + INTRA:          -8.910
REMARK INTER:                  -5.704
REMARK INTRA:                  -3.206
REMARK UNBOUND:                -3.022
REMARK SMILES CCCCCC=CCC=CCCCCCCCC(=O)[O-]
REMARK SMILES IDX 11 1 12 2 13 3 14 4 15 5 16 6 17 7 18 8 19 9 20 10 10 11
REMARK SMILES IDX 9 12 8 13 7 14 6 15 5 16 4 17 3 18 2 19 1 20
REMARK H PARENT
REMARK Flexibility Score: inf
ROOT
ATOM      1  C   UNL     1      56.756  27.077  53.981  1.00  0.00     0.027 C 
ENDROOT
BRANCH   1   2
ATOM      2  C   UNL     1      56.927  28.544  53.562  1.00  0.00     0.004 C 
BRANCH   2   3
ATOM      3  C   UNL     1      58.308  28.834  52.947  1.00  0.00     0.000 C 
BRANCH   3   4
ATOM      4  C   UNL     1      58.275  29.630  51.630  1.00  0.00     0.000 C 
BRANCH   4   5
ATOM      5  C   UNL     1      57.937  28.758  50.413  1.00  0.00     0.000 C 
BRANCH   5   6
ATOM      6  C   UNL     1      59.205  28.379  49.638  1.00  0.00     0.006 C 
BRANCH   6   7
ATOM      7  C   UNL     1      59.632  26.942  49.950  1.00  0.00     0.053 C 
BRANCH   7   8
ATOM      8  C   UNL     1      60.948  26.929  50.662  1.00  0.00     0.041 C 
ATOM      9  O   UNL     1      61.014  26.553  51.862  1.00  0.00    -0.550 OA
ATOM     10  O   UNL     1      62.107  27.288  49.988  1.00  0.00    -0.550 OA
ENDBRANCH   7   8
ENDBRANCH   6   7
ENDBRANCH   5   6
ENDBRANCH   4   5
ENDBRANCH   3   4
ENDBRANCH   2   3
ENDBRANCH   1   2
BRANCH   1  11
ATOM     11  C   UNL     1      57.490  26.170  53.027  1.00  0.00    -0.031 C 
ATOM     12  C   UNL     1      56.905  25.416  52.077  1.00  0.00    -0.027 C 
BRANCH  12  13
ATOM     13  C   UNL     1      55.427  25.405  51.770  1.00  0.00     0.054 C 
BRANCH  13  14
ATOM     14  C   UNL     1      55.139  25.886  50.370  1.00  0.00    -0.027 C 
ATOM     15  C   UNL     1      54.592  27.078  50.066  1.00  0.00    -0.031 C 
BRANCH  15  16
ATOM     16  C   UNL     1      54.115  28.089  51.080  1.00  0.00     0.027 C 
BRANCH  16  17
ATOM     17  C   UNL     1      54.475  29.524  50.671  1.00  0.00     0.004 C 
BRANCH  17  18
ATOM     18  C   UNL     1      54.322  30.516  51.838  1.00  0.00     0.000 C 
BRANCH  18  19
ATOM     19  C   UNL     1      55.243  31.737  51.700  1.00  0.00    -0.003 C 
ATOM     20  C   UNL     1      55.915  32.120  53.018  1.00  0.00     0.004 C 
ENDBRANCH  18  19
ENDBRANCH  17  18
ENDBRANCH  16  17
ENDBRANCH  15  16
ENDBRANCH  13  14
ENDBRANCH  12  13
ENDBRANCH   1  11
TORSDOF 14
ENDMDL
MODEL 7
REMARK VINA RESULT:    -3.203      2.797      5.267
REMARK INTER + INTRA:          -8.847
REMARK INTER:                  -5.868
REMARK INTRA:                  -2.979
REMARK UNBOUND:                -3.022
REMARK SMILES CCCCCC=CCC=CCCCCCCCC(=O)[O-]
REMARK SMILES IDX 11 1 12 2 13 3 14 4 15 5 16 6 17 7 18 8 19 9 20 10 10 11
REMARK SMILES IDX 9 12 8 13 7 14 6 15 5 16 4 17 3 18 2 19 1 20
REMARK H PARENT
REMARK Flexibility Score: inf
ROOT
ATOM      1  C   UNL     1      54.223  28.126  50.139  1.00  0.00     0.027 C 
ENDROOT
BRANCH   1   2
ATOM      2  C   UNL     1      53.587  26.732  50.051  1.00  0.00     0.004 C 
BRANCH   2   3
ATOM      3  C   UNL     1      54.629  25.599  50.032  1.00  0.00     0.000 C 
BRANCH   3   4
ATOM      4  C   UNL     1      56.066  26.036  50.370  1.00  0.00     0.000 C 
BRANCH   4   5
ATOM      5  C   UNL     1      56.529  25.551  51.751  1.00  0.00     0.000 C 
BRANCH   5   6
ATOM      6  C   UNL     1      56.727  26.731  52.710  1.00  0.00     0.006 C 
BRANCH   6   7
ATOM      7  C   UNL     1      55.439  27.033  53.484  1.00  0.00     0.053 C 
BRANCH   7   8
ATOM      8  C   UNL     1      55.501  26.439  54.855  1.00  0.00     0.041 C 
ATOM      9  O   UNL     1      56.044  27.075  55.796  1.00  0.00    -0.550 OA
ATOM     10  O   UNL     1      54.918  25.205  55.105  1.00  0.00    -0.550 OA
ENDBRANCH   7   8
ENDBRANCH   6   7
ENDBRANCH   5   6
ENDBRANCH   4   5
ENDBRANCH   3   4
ENDBRANCH   2   3
ENDBRANCH   1   2
BRANCH   1  11
ATOM     11  C   UNL     1      53.438  29.001  51.083  1.00  0.00    -0.031 C 
ATOM     12  C   UNL     1      53.834  30.212  51.520  1.00  0.00    -0.027 C 
BRANCH  12  13
ATOM     13  C   UNL     1      55.095  30.917  51.088  1.00  0.00     0.054 C 
BRANCH  13  14
ATOM     14  C   UNL     1      56.227  30.697  52.061  1.00  0.00    -0.027 C 
ATOM     15  C   UNL     1      57.394  30.099  51.757  1.00  0.00    -0.031 C 
BRANCH  15  16
ATOM     16  C   UNL     1      57.725  29.490  50.417  1.00  0.00     0.027 C 
BRANCH  16  17
ATOM     17  C   UNL     1      59.202  29.083  50.322  1.00  0.00     0.004 C 
BRANCH  17  18
ATOM     18  C   UNL     1      59.381  27.692  49.687  1.00  0.00     0.000 C 
BRANCH  18  19
ATOM     19  C   UNL     1      60.026  26.684  50.650  1.00  0.00    -0.003 C 
ATOM     20  C   UNL     1      60.309  27.282  52.028  1.00  0.00     0.004 C 
ENDBRANCH  18  19
ENDBRANCH  17  18
ENDBRANCH  16  17
ENDBRANCH  15  16
ENDBRANCH  13  14
ENDBRANCH  12  13
ENDBRANCH   1  11
TORSDOF 14
ENDMDL
MODEL 8
REMARK VINA RESULT:    -3.201      1.500      3.089
REMARK INTER + INTRA:          -8.843
REMARK INTER:                  -5.910
REMARK INTRA:                  -2.933
REMARK UNBOUND:                -3.022
REMARK SMILES CCCCCC=CCC=CCCCCCCCC(=O)[O-]
REMARK SMILES IDX 11 1 12 2 13 3 14 4 15 5 16 6 17 7 18 8 19 9 20 10 10 11
REMARK SMILES IDX 9 12 8 13 7 14 6 15 5 16 4 17 3 18 2 19 1 20
REMARK H PARENT
REMARK Flexibility Score: inf
ROOT
ATOM      1  C   UNL     1      54.588  25.205  51.667  1.00  0.00     0.027 C 
ENDROOT
BRANCH   1   2
ATOM      2  C   UNL     1      56.060  25.494  51.991  1.00  0.00     0.004 C 
BRANCH   2   3
ATOM      3  C   UNL     1      56.833  26.081  50.797  1.00  0.00     0.000 C 
BRANCH   3   4
ATOM      4  C   UNL     1      57.988  27.027  51.176  1.00  0.00     0.000 C 
BRANCH   4   5
ATOM      5  C   UNL     1      57.898  28.391  50.478  1.00  0.00     0.000 C 
BRANCH   5   6
ATOM      6  C   UNL     1      59.213  28.733  49.767  1.00  0.00     0.006 C 
BRANCH   6   7
ATOM      7  C   UNL     1      60.159  27.528  49.750  1.00  0.00     0.053 C 
BRANCH   7   8
ATOM      8  C   UNL     1      61.501  27.907  50.289  1.00  0.00     0.041 C 
ATOM      9  O   UNL     1      61.619  28.286  51.484  1.00  0.00    -0.550 OA
ATOM     10  O   UNL     1      62.629  27.798  49.487  1.00  0.00    -0.550 OA
ENDBRANCH   7   8
ENDBRANCH   6   7
ENDBRANCH   5   6
ENDBRANCH   4   5
ENDBRANCH   3   4
ENDBRANCH   2   3
ENDBRANCH   1   2
BRANCH   1  11
ATOM     11  C   UNL     1      54.366  25.229  50.176  1.00  0.00    -0.031 C 
ATOM     12  C   UNL     1      53.660  26.168  49.517  1.00  0.00    -0.027 C 
BRANCH  12  13
ATOM     13  C   UNL     1      53.033  27.383  50.155  1.00  0.00     0.054 C 
BRANCH  13  14
ATOM     14  C   UNL     1      54.010  28.527  50.273  1.00  0.00    -0.027 C 
ATOM     15  C   UNL     1      54.398  29.087  51.434  1.00  0.00    -0.031 C 
BRANCH  15  16
ATOM     16  C   UNL     1      53.861  28.709  52.793  1.00  0.00     0.027 C 
BRANCH  16  17
ATOM     17  C   UNL     1      54.985  28.525  53.822  1.00  0.00     0.004 C 
BRANCH  17  18
ATOM     18  C   UNL     1      56.191  29.435  53.532  1.00  0.00     0.000 C 
BRANCH  18  19
ATOM     19  C   UNL     1      57.456  28.995  54.284  1.00  0.00    -0.003 C 
ATOM     20  C   UNL     1      57.344  27.578  54.847  1.00  0.00     0.004 C 
ENDBRANCH  18  19
ENDBRANCH  17  18
ENDBRANCH  16  17
ENDBRANCH  15  16
ENDBRANCH  13  14
ENDBRANCH  12  13
ENDBRANCH   1  11
TORSDOF 14
ENDMDL
MODEL 9
REMARK VINA RESULT:    -3.145      3.108      5.619
REMARK INTER + INTRA:          -8.740
REMARK INTER:                  -5.925
REMARK INTRA:                  -2.816
REMARK UNBOUND:                -3.022
REMARK SMILES CCCCCC=CCC=CCCCCCCCC(=O)[O-]
REMARK SMILES IDX 11 1 12 2 13 3 14 4 15 5 16 6 17 7 18 8 19 9 20 10 10 11
REMARK SMILES IDX 9 12 8 13 7 14 6 15 5 16 4 17 3 18 2 19 1 20
REMARK H PARENT
REMARK Flexibility Score: inf
ROOT
ATOM      1  C   UNL     1      56.504  30.399  51.108  1.00  0.00     0.027 C 
ENDROOT
BRANCH   1   2
ATOM      2  C   UNL     1      55.036  30.824  51.245  1.00  0.00     0.004 C 
BRANCH   2   3
ATOM      3  C   UNL     1      54.052  29.750  50.749  1.00  0.00     0.000 C 
BRANCH   3   4
ATOM      4  C   UNL     1      54.658  28.344  50.585  1.00  0.00     0.000 C 
BRANCH   4   5
ATOM      5  C   UNL     1      53.666  27.330  50.000  1.00  0.00     0.000 C 
BRANCH   5   6
ATOM      6  C   UNL     1      54.309  25.944  49.869  1.00  0.00     0.006 C 
BRANCH   6   7
ATOM      7  C   UNL     1      55.122  25.594  51.120  1.00  0.00     0.053 C 
BRANCH   7   8
ATOM      8  C   UNL     1      54.215  25.193  52.239  1.00  0.00     0.041 C 
ATOM      9  O   UNL     1      53.634  24.076  52.213  1.00  0.00    -0.550 OA
ATOM     10  O   UNL     1      54.048  26.030  53.333  1.00  0.00    -0.550 OA
ENDBRANCH   7   8
ENDBRANCH   6   7
ENDBRANCH   5   6
ENDBRANCH   4   5
ENDBRANCH   3   4
ENDBRANCH   2   3
ENDBRANCH   1   2
BRANCH   1  11
ATOM     11  C   UNL     1      57.221  30.559  52.424  1.00  0.00    -0.031 C 
ATOM     12  C   UNL     1      57.412  29.574  53.322  1.00  0.00    -0.027 C 
BRANCH  12  13
ATOM     13  C   UNL     1      56.996  28.136  53.130  1.00  0.00     0.054 C 
BRANCH  13  14
ATOM     14  C   UNL     1      58.184  27.229  52.925  1.00  0.00    -0.027 C 
ATOM     15  C   UNL     1      58.737  26.947  51.731  1.00  0.00    -0.031 C 
BRANCH  15  16
ATOM     16  C   UNL     1      58.212  27.436  50.403  1.00  0.00     0.027 C 
BRANCH  16  17
ATOM     17  C   UNL     1      59.269  28.234  49.628  1.00  0.00     0.004 C 
BRANCH  17  18
ATOM     18  C   UNL     1      60.609  28.307  50.382  1.00  0.00     0.000 C 
BRANCH  18  19
ATOM     19  C   UNL     1      61.001  29.746  50.750  1.00  0.00    -0.003 C 
ATOM     20  C   UNL     1      60.949  30.004  52.256  1.00  0.00     0.004 C 
ENDBRANCH  18  19
ENDBRANCH  17  18
ENDBRANCH  16  17
ENDBRANCH  15  16
ENDBRANCH  13  14
ENDBRANCH  12  13
ENDBRANCH   1  11
TORSDOF 14
ENDMDL
