MODEL 1
REMARK VINA RESULT:    -5.727      0.000      0.000
REMARK INTER + INTRA:         -17.312
REMARK INTER:                 -13.092
REMARK INTRA:                  -4.219
REMARK UNBOUND:                -4.219
REMARK SMILES CCCCCCCCCCCCCCCCCCCCCCCC(=O)[O-]
REMARK SMILES IDX 13 1 14 2 15 3 16 4 17 5 18 6 19 7 20 8 21 9 22 10 23 11
REMARK SMILES IDX 24 12 25 13 26 14 12 15 11 16 10 17 9 18 8 19 7 20 6 21 5 22
REMARK SMILES IDX 4 23 3 24 2 25 1 26
REMARK H PARENT
REMARK Flexibility Score: inf
ROOT
ATOM      1  C   UNL     1     106.094  22.765 198.993  1.00  0.00     0.000 C 
ENDROOT
BRANCH   1   2
ATOM      2  C   UNL     1     105.178  23.252 200.126  1.00  0.00     0.000 C 
BRANCH   2   3
ATOM      3  C   UNL     1     103.702  22.984 199.795  1.00  0.00     0.000 C 
BRANCH   3   4
ATOM      4  C   UNL     1     102.765  23.259 200.981  1.00  0.00     0.000 C 
BRANCH   4   5
ATOM      5  C   UNL     1     101.351  23.665 200.544  1.00  0.00     0.000 C 
BRANCH   5   6
ATOM      6  C   UNL     1     101.179  23.512 199.027  1.00  0.00     0.000 C 
BRANCH   6   7
ATOM      7  C   UNL     1      99.708  23.263 198.661  1.00  0.00     0.000 C 
BRANCH   7   8
ATOM      8  C   UNL     1      99.559  22.393 197.402  1.00  0.00     0.000 C 
BRANCH   8   9
ATOM      9  C   UNL     1     100.686  22.640 196.385  1.00  0.00     0.000 C 
BRANCH   9  10
ATOM     10  C   UNL     1     101.350  21.328 195.918  1.00  0.00     0.006 C 
BRANCH  10  11
ATOM     11  C   UNL     1     102.154  20.625 197.024  1.00  0.00     0.053 C 
BRANCH  11  12
ATOM     12  C   UNL     1     101.816  19.172 197.135  1.00  0.00     0.041 C 
ATOM     13  O   UNL     1     100.612  18.799 197.138  1.00  0.00    -0.550 OA
ATOM     14  O   UNL     1     102.828  18.231 197.269  1.00  0.00    -0.550 OA
ENDBRANCH  11  12
ENDBRANCH  10  11
ENDBRANCH   9  10
ENDBRANCH   8   9
ENDBRANCH   7   8
ENDBRANCH   6   7
ENDBRANCH   5   6
ENDBRANCH   4   5
ENDBRANCH   3   4
ENDBRANCH   2   3
ENDBRANCH   1   2
BRANCH   1  15
ATOM     15  C   UNL     1     107.063  21.658 199.438  1.00  0.00     0.000 C 
BRANCH  15  16
ATOM     16  C   UNL     1     106.944  20.384 198.585  1.00  0.00     0.000 C 
BRANCH  16  17
ATOM     17  C   UNL     1     105.611  20.304 197.818  1.00  0.00     0.000 C 
BRANCH  17  18
ATOM     18  C   UNL     1     105.736  20.048 196.301  1.00  0.00    -0.000 C 
BRANCH  18  19
ATOM     19  C   UNL     1     106.828  20.866 195.586  1.00  0.00    -0.000 C 
BRANCH  19  20
ATOM     20  C   UNL     1     106.316  21.558 194.313  1.00  0.00    -0.000 C 
BRANCH  20  21
ATOM     21  C   UNL     1     104.785  21.684 194.336  1.00  0.00    -0.000 C 
BRANCH  21  22
ATOM     22  C   UNL     1     104.297  23.076 193.906  1.00  0.00    -0.000 C 
BRANCH  22  23
ATOM     23  C   UNL     1     104.702  24.180 194.894  1.00  0.00    -0.000 C 
BRANCH  23  24
ATOM     24  C   UNL     1     104.009  23.987 196.248  1.00  0.00    -0.000 C 
BRANCH  24  25
ATOM     25  C   UNL     1     103.956  25.302 197.034  1.00  0.00    -0.003 C 
ATOM     26  C   UNL     1     105.335  25.949 197.123  1.00  0.00     0.004 C 
ENDBRANCH  24  25
ENDBRANCH  23  24
ENDBRANCH  22  23
ENDBRANCH  21  22
ENDBRANCH  20  21
ENDBRANCH  19  20
ENDBRANCH  18  19
ENDBRANCH  17  18
ENDBRANCH  16  17
ENDBRANCH  15  16
ENDBRANCH   1  15
TORSDOF 22
ENDMDL
MODEL 2
REMARK VINA RESULT:    -5.647      3.063      5.799
REMARK INTER + INTRA:         -17.130
REMARK INTER:                 -13.292
REMARK INTRA:                  -3.838
REMARK UNBOUND:                -4.219
REMARK SMILES CCCCCCCCCCCCCCCCCCCCCCCC(=O)[O-]
REMARK SMILES IDX 13 1 14 2 15 3 16 4 17 5 18 6 19 7 20 8 21 9 22 10 23 11
REMARK SMILES IDX 24 12 25 13 26 14 12 15 11 16 10 17 9 18 8 19 7 20 6 21 5 22
REMARK SMILES IDX 4 23 3 24 2 25 1 26
REMARK H PARENT
REMARK Flexibility Score: inf
ROOT
ATOM      1  C   UNL     1     104.595  25.554 197.311  1.00  0.00     0.000 C 
ENDROOT
BRANCH   1   2
ATOM      2  C   UNL     1     103.121  25.166 197.117  1.00  0.00     0.000 C 
BRANCH   2   3
ATOM      3  C   UNL     1     102.650  24.220 198.232  1.00  0.00     0.000 C 
BRANCH   3   4
ATOM      4  C   UNL     1     103.675  23.122 198.557  1.00  0.00     0.000 C 
BRANCH   4   5
ATOM      5  C   UNL     1     104.170  23.177 200.009  1.00  0.00     0.000 C 
BRANCH   5   6
ATOM      6  C   UNL     1     105.702  23.190 200.069  1.00  0.00     0.000 C 
BRANCH   6   7
ATOM      7  C   UNL     1     106.308  22.522 198.825  1.00  0.00     0.000 C 
BRANCH   7   8
ATOM      8  C   UNL     1     106.921  21.148 199.140  1.00  0.00     0.000 C 
BRANCH   8   9
ATOM      9  C   UNL     1     107.092  20.282 197.881  1.00  0.00     0.000 C 
BRANCH   9  10
ATOM     10  C   UNL     1     108.085  20.901 196.875  1.00  0.00     0.006 C 
BRANCH  10  11
ATOM     11  C   UNL     1     108.973  19.859 196.176  1.00  0.00     0.053 C 
BRANCH  11  12
ATOM     12  C   UNL     1     110.347  20.381 195.896  1.00  0.00     0.041 C 
ATOM     13  O   UNL     1     111.033  19.892 194.959  1.00  0.00    -0.550 OA
ATOM     14  O   UNL     1     110.884  21.385 196.690  1.00  0.00    -0.550 OA
ENDBRANCH  11  12
ENDBRANCH  10  11
ENDBRANCH   9  10
ENDBRANCH   8   9
ENDBRANCH   7   8
ENDBRANCH   6   7
ENDBRANCH   5   6
ENDBRANCH   4   5
ENDBRANCH   3   4
ENDBRANCH   2   3
ENDBRANCH   1   2
BRANCH   1  15
ATOM     15  C   UNL     1     105.303  25.902 195.991  1.00  0.00     0.000 C 
BRANCH  15  16
ATOM     16  C   UNL     1     105.147  24.804 194.926  1.00  0.00     0.000 C 
BRANCH  16  17
ATOM     17  C   UNL     1     105.810  23.477 195.337  1.00  0.00     0.000 C 
BRANCH  17  18
ATOM     18  C   UNL     1     105.005  22.204 194.996  1.00  0.00    -0.000 C 
BRANCH  18  19
ATOM     19  C   UNL     1     104.303  22.220 193.626  1.00  0.00    -0.000 C 
BRANCH  19  20
ATOM     20  C   UNL     1     102.782  22.408 193.738  1.00  0.00    -0.000 C 
BRANCH  20  21
ATOM     21  C   UNL     1     102.315  22.240 195.192  1.00  0.00    -0.000 C 
BRANCH  21  22
ATOM     22  C   UNL     1     101.042  21.387 195.312  1.00  0.00    -0.000 C 
BRANCH  22  23
ATOM     23  C   UNL     1     101.277  20.073 196.072  1.00  0.00    -0.000 C 
BRANCH  23  24
ATOM     24  C   UNL     1     102.497  20.181 196.994  1.00  0.00    -0.000 C 
BRANCH  24  25
ATOM     25  C   UNL     1     102.884  18.811 197.562  1.00  0.00    -0.003 C 
ATOM     26  C   UNL     1     104.176  18.298 196.934  1.00  0.00     0.004 C 
ENDBRANCH  24  25
ENDBRANCH  23  24
ENDBRANCH  22  23
ENDBRANCH  21  22
ENDBRANCH  20  21
ENDBRANCH  19  20
ENDBRANCH  18  19
ENDBRANCH  17  18
ENDBRANCH  16  17
ENDBRANCH  15  16
ENDBRANCH   1  15
TORSDOF 22
ENDMDL
MODEL 3
REMARK VINA RESULT:    -5.634      1.468      4.658
REMARK INTER + INTRA:         -17.101
REMARK INTER:                 -13.058
REMARK INTRA:                  -4.043
REMARK UNBOUND:                -4.219
REMARK SMILES CCCCCCCCCCCCCCCCCCCCCCCC(=O)[O-]
REMARK SMILES IDX 13 1 14 2 15 3 16 4 17 5 18 6 19 7 20 8 21 9 22 10 23 11
REMARK SMILES IDX 24 12 25 13 26 14 12 15 11 16 10 17 9 18 8 19 7 20 6 21 5 22
REMARK SMILES IDX 4 23 3 24 2 25 1 26
REMARK H PARENT
REMARK Flexibility Score: inf
ROOT
ATOM      1  C   UNL     1     103.594  22.670 199.295  1.00  0.00     0.000 C 
ENDROOT
BRANCH   1   2
ATOM      2  C   UNL     1     104.518  23.213 200.395  1.00  0.00     0.000 C 
BRANCH   2   3
ATOM      3  C   UNL     1     105.892  23.593 199.822  1.00  0.00     0.000 C 
BRANCH   3   4
ATOM      4  C   UNL     1     106.467  22.517 198.888  1.00  0.00     0.000 C 
BRANCH   4   5
ATOM      5  C   UNL     1     107.158  21.375 199.646  1.00  0.00     0.000 C 
BRANCH   5   6
ATOM      6  C   UNL     1     107.119  20.073 198.835  1.00  0.00     0.000 C 
BRANCH   6   7
ATOM      7  C   UNL     1     105.831  19.981 198.003  1.00  0.00     0.000 C 
BRANCH   7   8
ATOM      8  C   UNL     1     105.468  18.529 197.649  1.00  0.00     0.000 C 
BRANCH   8   9
ATOM      9  C   UNL     1     104.135  18.429 196.889  1.00  0.00     0.000 C 
BRANCH   9  10
ATOM     10  C   UNL     1     103.274  19.699 197.049  1.00  0.00     0.006 C 
BRANCH  10  11
ATOM     11  C   UNL     1     101.775  19.401 197.215  1.00  0.00     0.053 C 
BRANCH  11  12
ATOM     12  C   UNL     1     100.918  20.363 196.455  1.00  0.00     0.041 C 
ATOM     13  O   UNL     1      99.859  20.813 196.969  1.00  0.00    -0.550 OA
ATOM     14  O   UNL     1     101.269  20.737 195.165  1.00  0.00    -0.550 OA
ENDBRANCH  11  12
ENDBRANCH  10  11
ENDBRANCH   9  10
ENDBRANCH   8   9
ENDBRANCH   7   8
ENDBRANCH   6   7
ENDBRANCH   5   6
ENDBRANCH   4   5
ENDBRANCH   3   4
ENDBRANCH   2   3
ENDBRANCH   1   2
BRANCH   1  15
ATOM     15  C   UNL     1     102.104  22.907 199.592  1.00  0.00     0.000 C 
BRANCH  15  16
ATOM     16  C   UNL     1     101.381  23.647 198.454  1.00  0.00     0.000 C 
BRANCH  16  17
ATOM     17  C   UNL     1     102.255  23.804 197.196  1.00  0.00     0.000 C 
BRANCH  17  18
ATOM     18  C   UNL     1     102.755  25.237 196.915  1.00  0.00    -0.000 C 
BRANCH  18  19
ATOM     19  C   UNL     1     104.285  25.415 196.945  1.00  0.00    -0.000 C 
BRANCH  19  20
ATOM     20  C   UNL     1     104.944  25.134 195.586  1.00  0.00    -0.000 C 
BRANCH  20  21
ATOM     21  C   UNL     1     105.899  23.935 195.678  1.00  0.00    -0.000 C 
BRANCH  21  22
ATOM     22  C   UNL     1     105.203  22.597 195.382  1.00  0.00    -0.000 C 
BRANCH  22  23
ATOM     23  C   UNL     1     104.398  22.623 194.074  1.00  0.00    -0.000 C 
BRANCH  23  24
ATOM     24  C   UNL     1     105.076  21.773 192.993  1.00  0.00    -0.000 C 
BRANCH  24  25
ATOM     25  C   UNL     1     106.247  20.973 193.574  1.00  0.00    -0.003 C 
ATOM     26  C   UNL     1     107.483  21.080 192.686  1.00  0.00     0.004 C 
ENDBRANCH  24  25
ENDBRANCH  23  24
ENDBRANCH  22  23
ENDBRANCH  21  22
ENDBRANCH  20  21
ENDBRANCH  19  20
ENDBRANCH  18  19
ENDBRANCH  17  18
ENDBRANCH  16  17
ENDBRANCH  15  16
ENDBRANCH   1  15
TORSDOF 22
ENDMDL
MODEL 4
REMARK VINA RESULT:    -5.630      1.066      3.331
REMARK INTER + INTRA:         -17.090
REMARK INTER:                 -12.970
REMARK INTRA:                  -4.120
REMARK UNBOUND:                -4.219
REMARK SMILES CCCCCCCCCCCCCCCCCCCCCCCC(=O)[O-]
REMARK SMILES IDX 13 1 14 2 15 3 16 4 17 5 18 6 19 7 20 8 21 9 22 10 23 11
REMARK SMILES IDX 24 12 25 13 26 14 12 15 11 16 10 17 9 18 8 19 7 20 6 21 5 22
REMARK SMILES IDX 4 23 3 24 2 25 1 26
REMARK H PARENT
REMARK Flexibility Score: inf
ROOT
ATOM      1  C   UNL     1     104.570  24.305 197.890  1.00  0.00     0.000 C 
ENDROOT
BRANCH   1   2
ATOM      2  C   UNL     1     105.470  24.003 199.097  1.00  0.00     0.000 C 
BRANCH   2   3
ATOM      3  C   UNL     1     104.692  23.255 200.191  1.00  0.00     0.000 C 
BRANCH   3   4
ATOM      4  C   UNL     1     103.280  22.846 199.744  1.00  0.00     0.000 C 
BRANCH   4   5
ATOM      5  C   UNL     1     102.175  23.476 200.604  1.00  0.00     0.000 C 
BRANCH   5   6
ATOM      6  C   UNL     1     100.981  23.901 199.741  1.00  0.00     0.000 C 
BRANCH   6   7
ATOM      7  C   UNL     1     100.734  22.894 198.607  1.00  0.00     0.000 C 
BRANCH   7   8
ATOM      8  C   UNL     1     101.065  23.480 197.224  1.00  0.00     0.000 C 
BRANCH   8   9
ATOM      9  C   UNL     1     101.756  22.457 196.307  1.00  0.00     0.000 C 
BRANCH   9  10
ATOM     10  C   UNL     1     101.727  21.030 196.894  1.00  0.00     0.006 C 
BRANCH  10  11
ATOM     11  C   UNL     1     103.107  20.353 196.918  1.00  0.00     0.053 C 
BRANCH  11  12
ATOM     12  C   UNL     1     103.011  18.878 197.142  1.00  0.00     0.041 C 
ATOM     13  O   UNL     1     104.027  18.147 197.000  1.00  0.00    -0.550 OA
ATOM     14  O   UNL     1     101.792  18.303 197.476  1.00  0.00    -0.550 OA
ENDBRANCH  11  12
ENDBRANCH  10  11
ENDBRANCH   9  10
ENDBRANCH   8   9
ENDBRANCH   7   8
ENDBRANCH   6   7
ENDBRANCH   5   6
ENDBRANCH   4   5
ENDBRANCH   3   4
ENDBRANCH   2   3
ENDBRANCH   1   2
BRANCH   1  15
ATOM     15  C   UNL     1     104.955  25.604 197.164  1.00  0.00     0.000 C 
BRANCH  15  16
ATOM     16  C   UNL     1     104.869  25.479 195.634  1.00  0.00     0.000 C 
BRANCH  16  17
ATOM     17  C   UNL     1     105.128  24.045 195.138  1.00  0.00     0.000 C 
BRANCH  17  18
ATOM     18  C   UNL     1     104.276  23.600 193.930  1.00  0.00    -0.000 C 
BRANCH  18  19
ATOM     19  C   UNL     1     104.322  22.093 193.614  1.00  0.00    -0.000 C 
BRANCH  19  20
ATOM     20  C   UNL     1     105.482  21.716 192.680  1.00  0.00    -0.000 C 
BRANCH  20  21
ATOM     21  C   UNL     1     106.469  20.774 193.386  1.00  0.00    -0.000 C 
BRANCH  21  22
ATOM     22  C   UNL     1     106.091  20.508 194.851  1.00  0.00    -0.000 C 
BRANCH  22  23
ATOM     23  C   UNL     1     107.289  20.631 195.806  1.00  0.00    -0.000 C 
BRANCH  23  24
ATOM     24  C   UNL     1     106.923  21.460 197.043  1.00  0.00    -0.000 C 
BRANCH  24  25
ATOM     25  C   UNL     1     106.620  20.556 198.243  1.00  0.00    -0.003 C 
ATOM     26  C   UNL     1     107.215  19.164 198.050  1.00  0.00     0.004 C 
ENDBRANCH  24  25
ENDBRANCH  23  24
ENDBRANCH  22  23
ENDBRANCH  21  22
ENDBRANCH  20  21
ENDBRANCH  19  20
ENDBRANCH  18  19
ENDBRANCH  17  18
ENDBRANCH  16  17
ENDBRANCH  15  16
ENDBRANCH   1  15
TORSDOF 22
ENDMDL
MODEL 5
REMARK VINA RESULT:    -5.617      2.790      5.891
REMARK INTER + INTRA:         -17.061
REMARK INTER:                 -12.719
REMARK INTRA:                  -4.343
REMARK UNBOUND:                -4.219
REMARK SMILES CCCCCCCCCCCCCCCCCCCCCCCC(=O)[O-]
REMARK SMILES IDX 13 1 14 2 15 3 16 4 17 5 18 6 19 7 20 8 21 9 22 10 23 11
REMARK SMILES IDX 24 12 25 13 26 14 12 15 11 16 10 17 9 18 8 19 7 20 6 21 5 22
REMARK SMILES IDX 4 23 3 24 2 25 1 26
REMARK H PARENT
REMARK Flexibility Score: inf
ROOT
ATOM      1  C   UNL     1     101.284  23.173 197.180  1.00  0.00     0.000 C 
ENDROOT
BRANCH   1   2
ATOM      2  C   UNL     1     100.562  21.919 196.665  1.00  0.00     0.000 C 
BRANCH   2   3
ATOM      3  C   UNL     1     101.562  20.907 196.086  1.00  0.00     0.000 C 
BRANCH   3   4
ATOM      4  C   UNL     1     101.476  19.529 196.763  1.00  0.00     0.000 C 
BRANCH   4   5
ATOM      5  C   UNL     1     102.754  19.160 197.529  1.00  0.00     0.000 C 
BRANCH   5   6
ATOM      6  C   UNL     1     103.882  20.154 197.229  1.00  0.00     0.000 C 
BRANCH   6   7
ATOM      7  C   UNL     1     105.068  19.453 196.548  1.00  0.00     0.000 C 
BRANCH   7   8
ATOM      8  C   UNL     1     106.117  18.966 197.561  1.00  0.00     0.000 C 
BRANCH   8   9
ATOM      9  C   UNL     1     107.002  20.110 198.082  1.00  0.00     0.000 C 
BRANCH   9  10
ATOM     10  C   UNL     1     107.640  20.924 196.937  1.00  0.00     0.006 C 
BRANCH  10  11
ATOM     11  C   UNL     1     108.730  20.153 196.176  1.00  0.00     0.053 C 
BRANCH  11  12
ATOM     12  C   UNL     1     110.093  20.727 196.400  1.00  0.00     0.041 C 
ATOM     13  O   UNL     1     111.108  20.159 195.915  1.00  0.00    -0.550 OA
ATOM     14  O   UNL     1     110.248  21.870 197.173  1.00  0.00    -0.550 OA
ENDBRANCH  11  12
ENDBRANCH  10  11
ENDBRANCH   9  10
ENDBRANCH   8   9
ENDBRANCH   7   8
ENDBRANCH   6   7
ENDBRANCH   5   6
ENDBRANCH   4   5
ENDBRANCH   3   4
ENDBRANCH   2   3
ENDBRANCH   1   2
BRANCH   1  15
ATOM     15  C   UNL     1     101.240  23.305 198.712  1.00  0.00     0.000 C 
BRANCH  15  16
ATOM     16  C   UNL     1     102.375  22.536 199.408  1.00  0.00     0.000 C 
BRANCH  16  17
ATOM     17  C   UNL     1     103.513  23.457 199.885  1.00  0.00     0.000 C 
BRANCH  17  18
ATOM     18  C   UNL     1     104.935  23.010 199.485  1.00  0.00    -0.000 C 
BRANCH  18  19
ATOM     19  C   UNL     1     105.387  23.443 198.077  1.00  0.00    -0.000 C 
BRANCH  19  20
ATOM     20  C   UNL     1     104.773  24.782 197.640  1.00  0.00    -0.000 C 
BRANCH  20  21
ATOM     21  C   UNL     1     104.478  24.782 196.133  1.00  0.00    -0.000 C 
BRANCH  21  22
ATOM     22  C   UNL     1     104.454  23.368 195.531  1.00  0.00    -0.000 C 
BRANCH  22  23
ATOM     23  C   UNL     1     103.930  23.345 194.087  1.00  0.00    -0.000 C 
BRANCH  23  24
ATOM     24  C   UNL     1     104.494  22.146 193.317  1.00  0.00    -0.000 C 
BRANCH  24  25
ATOM     25  C   UNL     1     105.878  21.751 193.846  1.00  0.00    -0.003 C 
ATOM     26  C   UNL     1     106.700  21.047 192.770  1.00  0.00     0.004 C 
ENDBRANCH  24  25
ENDBRANCH  23  24
ENDBRANCH  22  23
ENDBRANCH  21  22
ENDBRANCH  20  21
ENDBRANCH  19  20
ENDBRANCH  18  19
ENDBRANCH  17  18
ENDBRANCH  16  17
ENDBRANCH  15  16
ENDBRANCH   1  15
TORSDOF 22
ENDMDL
MODEL 6
REMARK VINA RESULT:    -5.599      1.718      4.913
REMARK INTER + INTRA:         -17.019
REMARK INTER:                 -13.131
REMARK INTRA:                  -3.888
REMARK UNBOUND:                -4.219
REMARK SMILES CCCCCCCCCCCCCCCCCCCCCCCC(=O)[O-]
REMARK SMILES IDX 13 1 14 2 15 3 16 4 17 5 18 6 19 7 20 8 21 9 22 10 23 11
REMARK SMILES IDX 24 12 25 13 26 14 12 15 11 16 10 17 9 18 8 19 7 20 6 21 5 22
REMARK SMILES IDX 4 23 3 24 2 25 1 26
REMARK H PARENT
REMARK Flexibility Score: inf
ROOT
ATOM      1  C   UNL     1     105.300  23.238 194.916  1.00  0.00     0.000 C 
ENDROOT
BRANCH   1   2
ATOM      2  C   UNL     1     104.717  24.658 194.879  1.00  0.00     0.000 C 
BRANCH   2   3
ATOM      3  C   UNL     1     104.364  25.145 196.293  1.00  0.00     0.000 C 
BRANCH   3   4
ATOM      4  C   UNL     1     104.324  24.005 197.324  1.00  0.00     0.000 C 
BRANCH   4   5
ATOM      5  C   UNL     1     105.196  24.284 198.556  1.00  0.00     0.000 C 
BRANCH   5   6
ATOM      6  C   UNL     1     104.635  23.578 199.797  1.00  0.00     0.000 C 
BRANCH   6   7
ATOM      7  C   UNL     1     103.339  22.824 199.464  1.00  0.00     0.000 C 
BRANCH   7   8
ATOM      8  C   UNL     1     102.299  22.924 200.593  1.00  0.00     0.000 C 
BRANCH   8   9
ATOM      9  C   UNL     1     101.461  24.210 200.503  1.00  0.00     0.000 C 
BRANCH   9  10
ATOM     10  C   UNL     1     100.039  23.946 199.965  1.00  0.00     0.006 C 
BRANCH  10  11
ATOM     11  C   UNL     1     100.026  23.182 198.631  1.00  0.00     0.053 C 
BRANCH  11  12
ATOM     12  C   UNL     1      98.653  22.722 198.255  1.00  0.00     0.041 C 
ATOM     13  O   UNL     1      98.498  21.659 197.596  1.00  0.00    -0.550 OA
ATOM     14  O   UNL     1      97.545  23.484 198.603  1.00  0.00    -0.550 OA
ENDBRANCH  11  12
ENDBRANCH  10  11
ENDBRANCH   9  10
ENDBRANCH   8   9
ENDBRANCH   7   8
ENDBRANCH   6   7
ENDBRANCH   5   6
ENDBRANCH   4   5
ENDBRANCH   3   4
ENDBRANCH   2   3
ENDBRANCH   1   2
BRANCH   1  15
ATOM     15  C   UNL     1     104.625  22.286 193.914  1.00  0.00     0.000 C 
BRANCH  15  16
ATOM     16  C   UNL     1     103.407  22.918 193.221  1.00  0.00     0.000 C 
BRANCH  16  17
ATOM     17  C   UNL     1     102.069  22.374 193.753  1.00  0.00     0.000 C 
BRANCH  17  18
ATOM     18  C   UNL     1     102.053  22.015 195.254  1.00  0.00    -0.000 C 
BRANCH  18  19
ATOM     19  C   UNL     1     101.277  20.735 195.615  1.00  0.00    -0.000 C 
BRANCH  19  20
ATOM     20  C   UNL     1     102.037  19.835 196.600  1.00  0.00    -0.000 C 
BRANCH  20  21
ATOM     21  C   UNL     1     103.391  20.455 196.977  1.00  0.00    -0.000 C 
BRANCH  21  22
ATOM     22  C   UNL     1     104.567  19.490 196.761  1.00  0.00    -0.000 C 
BRANCH  22  23
ATOM     23  C   UNL     1     105.774  19.814 197.656  1.00  0.00    -0.000 C 
BRANCH  23  24
ATOM     24  C   UNL     1     106.859  20.557 196.868  1.00  0.00    -0.000 C 
BRANCH  24  25
ATOM     25  C   UNL     1     107.556  21.605 197.743  1.00  0.00    -0.003 C 
ATOM     26  C   UNL     1     107.330  21.325 199.225  1.00  0.00     0.004 C 
ENDBRANCH  24  25
ENDBRANCH  23  24
ENDBRANCH  22  23
ENDBRANCH  21  22
ENDBRANCH  20  21
ENDBRANCH  19  20
ENDBRANCH  18  19
ENDBRANCH  17  18
ENDBRANCH  16  17
ENDBRANCH  15  16
ENDBRANCH   1  15
TORSDOF 22
ENDMDL
MODEL 7
REMARK VINA RESULT:    -5.559      3.064      6.122
REMARK INTER + INTRA:         -16.928
REMARK INTER:                 -12.856
REMARK INTRA:                  -4.072
REMARK UNBOUND:                -4.219
REMARK SMILES CCCCCCCCCCCCCCCCCCCCCCCC(=O)[O-]
REMARK SMILES IDX 13 1 14 2 15 3 16 4 17 5 18 6 19 7 20 8 21 9 22 10 23 11
REMARK SMILES IDX 24 12 25 13 26 14 12 15 11 16 10 17 9 18 8 19 7 20 6 21 5 22
REMARK SMILES IDX 4 23 3 24 2 25 1 26
REMARK H PARENT
REMARK Flexibility Score: inf
ROOT
ATOM      1  C   UNL     1     102.042  22.089 194.117  1.00  0.00     0.000 C 
ENDROOT
BRANCH   1   2
ATOM      2  C   UNL     1     102.131  21.600 195.570  1.00  0.00     0.000 C 
BRANCH   2   3
ATOM      3  C   UNL     1     101.192  20.408 195.808  1.00  0.00     0.000 C 
BRANCH   3   4
ATOM      4  C   UNL     1     101.779  19.370 196.777  1.00  0.00     0.000 C 
BRANCH   4   5
ATOM      5  C   UNL     1     103.077  19.843 197.445  1.00  0.00     0.000 C 
BRANCH   5   6
ATOM      6  C   UNL     1     104.215  18.841 197.208  1.00  0.00     0.000 C 
BRANCH   6   7
ATOM      7  C   UNL     1     105.499  19.560 196.768  1.00  0.00     0.000 C 
BRANCH   7   8
ATOM      8  C   UNL     1     106.301  20.105 197.961  1.00  0.00     0.000 C 
BRANCH   8   9
ATOM      9  C   UNL     1     107.632  20.743 197.528  1.00  0.00     0.000 C 
BRANCH   9  10
ATOM     10  C   UNL     1     108.091  20.253 196.138  1.00  0.00     0.006 C 
BRANCH  10  11
ATOM     11  C   UNL     1     109.424  19.488 196.171  1.00  0.00     0.053 C 
BRANCH  11  12
ATOM     12  C   UNL     1     110.578  20.342 195.753  1.00  0.00     0.041 C 
ATOM     13  O   UNL     1     111.159  20.130 194.655  1.00  0.00    -0.550 OA
ATOM     14  O   UNL     1     111.036  21.351 196.590  1.00  0.00    -0.550 OA
ENDBRANCH  11  12
ENDBRANCH  10  11
ENDBRANCH   9  10
ENDBRANCH   8   9
ENDBRANCH   7   8
ENDBRANCH   6   7
ENDBRANCH   5   6
ENDBRANCH   4   5
ENDBRANCH   3   4
ENDBRANCH   2   3
ENDBRANCH   1   2
BRANCH   1  15
ATOM     15  C   UNL     1     103.289  22.871 193.669  1.00  0.00     0.000 C 
BRANCH  15  16
ATOM     16  C   UNL     1     104.544  21.988 193.579  1.00  0.00     0.000 C 
BRANCH  16  17
ATOM     17  C   UNL     1     105.675  22.462 194.510  1.00  0.00     0.000 C 
BRANCH  17  18
ATOM     18  C   UNL     1     105.212  23.115 195.830  1.00  0.00    -0.000 C 
BRANCH  18  19
ATOM     19  C   UNL     1     105.913  24.440 196.187  1.00  0.00    -0.000 C 
BRANCH  19  20
ATOM     20  C   UNL     1     104.966  25.456 196.843  1.00  0.00    -0.000 C 
BRANCH  20  21
ATOM     21  C   UNL     1     103.502  25.011 196.705  1.00  0.00    -0.000 C 
BRANCH  21  22
ATOM     22  C   UNL     1     102.754  25.005 198.047  1.00  0.00    -0.000 C 
BRANCH  22  23
ATOM     23  C   UNL     1     102.342  23.593 198.491  1.00  0.00    -0.000 C 
BRANCH  23  24
ATOM     24  C   UNL     1     103.571  22.750 198.853  1.00  0.00    -0.000 C 
BRANCH  24  25
ATOM     25  C   UNL     1     104.248  23.279 200.122  1.00  0.00    -0.003 C 
ATOM     26  C   UNL     1     105.768  23.238 199.994  1.00  0.00     0.004 C 
ENDBRANCH  24  25
ENDBRANCH  23  24
ENDBRANCH  22  23
ENDBRANCH  21  22
ENDBRANCH  20  21
ENDBRANCH  19  20
ENDBRANCH  18  19
ENDBRANCH  17  18
ENDBRANCH  16  17
ENDBRANCH  15  16
ENDBRANCH   1  15
TORSDOF 22
ENDMDL
MODEL 8
REMARK VINA RESULT:    -5.546      1.977      4.467
REMARK INTER + INTRA:         -16.899
REMARK INTER:                 -12.799
REMARK INTRA:                  -4.101
REMARK UNBOUND:                -4.219
REMARK SMILES CCCCCCCCCCCCCCCCCCCCCCCC(=O)[O-]
REMARK SMILES IDX 13 1 14 2 15 3 16 4 17 5 18 6 19 7 20 8 21 9 22 10 23 11
REMARK SMILES IDX 24 12 25 13 26 14 12 15 11 16 10 17 9 18 8 19 7 20 6 21 5 22
REMARK SMILES IDX 4 23 3 24 2 25 1 26
REMARK H PARENT
REMARK Flexibility Score: inf
ROOT
ATOM      1  C   UNL     1     105.109  19.496 196.811  1.00  0.00     0.000 C 
ENDROOT
BRANCH   1   2
ATOM      2  C   UNL     1     106.135  19.704 197.936  1.00  0.00     0.000 C 
BRANCH   2   3
ATOM      3  C   UNL     1     107.379  20.439 197.416  1.00  0.00     0.000 C 
BRANCH   3   4
ATOM      4  C   UNL     1     107.553  21.833 198.040  1.00  0.00     0.000 C 
BRANCH   4   5
ATOM      5  C   UNL     1     107.144  21.880 199.519  1.00  0.00     0.000 C 
BRANCH   5   6
ATOM      6  C   UNL     1     106.383  23.173 199.838  1.00  0.00     0.000 C 
BRANCH   6   7
ATOM      7  C   UNL     1     104.907  22.881 200.149  1.00  0.00     0.000 C 
BRANCH   7   8
ATOM      8  C   UNL     1     104.051  22.783 198.875  1.00  0.00     0.000 C 
BRANCH   8   9
ATOM      9  C   UNL     1     103.341  24.108 198.546  1.00  0.00     0.000 C 
BRANCH   9  10
ATOM     10  C   UNL     1     101.825  23.921 198.331  1.00  0.00     0.006 C 
BRANCH  10  11
ATOM     11  C   UNL     1     101.034  23.803 199.644  1.00  0.00     0.053 C 
BRANCH  11  12
ATOM     12  C   UNL     1      99.559  23.717 199.412  1.00  0.00     0.041 C 
ATOM     13  O   UNL     1      98.763  24.379 200.131  1.00  0.00    -0.550 OA
ATOM     14  O   UNL     1      99.058  22.880 198.424  1.00  0.00    -0.550 OA
ENDBRANCH  11  12
ENDBRANCH  10  11
ENDBRANCH   9  10
ENDBRANCH   8   9
ENDBRANCH   7   8
ENDBRANCH   6   7
ENDBRANCH   5   6
ENDBRANCH   4   5
ENDBRANCH   3   4
ENDBRANCH   2   3
ENDBRANCH   1   2
BRANCH   1  15
ATOM     15  C   UNL     1     104.091  18.386 197.125  1.00  0.00     0.000 C 
BRANCH  15  16
ATOM     16  C   UNL     1     102.637  18.882 197.078  1.00  0.00     0.000 C 
BRANCH  16  17
ATOM     17  C   UNL     1     102.529  20.381 196.743  1.00  0.00     0.000 C 
BRANCH  17  18
ATOM     18  C   UNL     1     101.402  20.758 195.758  1.00  0.00    -0.000 C 
BRANCH  18  19
ATOM     19  C   UNL     1     101.493  22.178 195.170  1.00  0.00    -0.000 C 
BRANCH  19  20
ATOM     20  C   UNL     1     101.906  22.186 193.691  1.00  0.00    -0.000 C 
BRANCH  20  21
ATOM     21  C   UNL     1     103.224  22.950 193.494  1.00  0.00    -0.000 C 
BRANCH  21  22
ATOM     22  C   UNL     1     104.433  22.016 193.327  1.00  0.00    -0.000 C 
BRANCH  22  23
ATOM     23  C   UNL     1     105.534  22.276 194.367  1.00  0.00    -0.000 C 
BRANCH  23  24
ATOM     24  C   UNL     1     104.993  23.088 195.549  1.00  0.00    -0.000 C 
BRANCH  24  25
ATOM     25  C   UNL     1     105.865  24.319 195.819  1.00  0.00    -0.003 C 
ATOM     26  C   UNL     1     105.133  25.606 195.454  1.00  0.00     0.004 C 
ENDBRANCH  24  25
ENDBRANCH  23  24
ENDBRANCH  22  23
ENDBRANCH  21  22
ENDBRANCH  20  21
ENDBRANCH  19  20
ENDBRANCH  18  19
ENDBRANCH  17  18
ENDBRANCH  16  17
ENDBRANCH  15  16
ENDBRANCH   1  15
TORSDOF 22
ENDMDL
MODEL 9
REMARK VINA RESULT:    -5.520      1.751      4.367
REMARK INTER + INTRA:         -16.838
REMARK INTER:                 -12.857
REMARK INTRA:                  -3.981
REMARK UNBOUND:                -4.219
REMARK SMILES CCCCCCCCCCCCCCCCCCCCCCCC(=O)[O-]
REMARK SMILES IDX 13 1 14 2 15 3 16 4 17 5 18 6 19 7 20 8 21 9 22 10 23 11
REMARK SMILES IDX 24 12 25 13 26 14 12 15 11 16 10 17 9 18 8 19 7 20 6 21 5 22
REMARK SMILES IDX 4 23 3 24 2 25 1 26
REMARK H PARENT
REMARK Flexibility Score: inf
ROOT
ATOM      1  C   UNL     1     107.450  21.756 198.175  1.00  0.00     0.000 C 
ENDROOT
BRANCH   1   2
ATOM      2  C   UNL     1     107.185  20.423 197.458  1.00  0.00     0.000 C 
BRANCH   2   3
ATOM      3  C   UNL     1     106.075  19.629 198.164  1.00  0.00     0.000 C 
BRANCH   3   4
ATOM      4  C   UNL     1     105.764  18.294 197.470  1.00  0.00     0.000 C 
BRANCH   4   5
ATOM      5  C   UNL     1     104.349  18.245 196.876  1.00  0.00     0.000 C 
BRANCH   5   6
ATOM      6  C   UNL     1     103.378  19.102 197.699  1.00  0.00     0.000 C 
BRANCH   6   7
ATOM      7  C   UNL     1     102.242  19.646 196.818  1.00  0.00     0.000 C 
BRANCH   7   8
ATOM      8  C   UNL     1     102.355  21.163 196.592  1.00  0.00     0.000 C 
BRANCH   8   9
ATOM      9  C   UNL     1     101.352  21.673 195.544  1.00  0.00     0.000 C 
BRANCH   9  10
ATOM     10  C   UNL     1     100.642  22.967 195.994  1.00  0.00     0.006 C 
BRANCH  10  11
ATOM     11  C   UNL     1     100.143  22.913 197.448  1.00  0.00     0.053 C 
BRANCH  11  12
ATOM     12  C   UNL     1      98.716  22.475 197.541  1.00  0.00     0.041 C 
ATOM     13  O   UNL     1      98.434  21.300 197.896  1.00  0.00    -0.550 OA
ATOM     14  O   UNL     1      97.695  23.355 197.204  1.00  0.00    -0.550 OA
ENDBRANCH  11  12
ENDBRANCH  10  11
ENDBRANCH   9  10
ENDBRANCH   8   9
ENDBRANCH   7   8
ENDBRANCH   6   7
ENDBRANCH   5   6
ENDBRANCH   4   5
ENDBRANCH   3   4
ENDBRANCH   2   3
ENDBRANCH   1   2
BRANCH   1  15
ATOM     15  C   UNL     1     106.855  21.803 199.593  1.00  0.00     0.000 C 
BRANCH  15  16
ATOM     16  C   UNL     1     106.332  23.199 199.972  1.00  0.00     0.000 C 
BRANCH  16  17
ATOM     17  C   UNL     1     104.798  23.245 200.100  1.00  0.00     0.000 C 
BRANCH  17  18
ATOM     18  C   UNL     1     104.022  23.171 198.768  1.00  0.00    -0.000 C 
BRANCH  18  19
ATOM     19  C   UNL     1     103.108  24.375 198.473  1.00  0.00    -0.000 C 
BRANCH  19  20
ATOM     20  C   UNL     1     103.473  25.094 197.165  1.00  0.00    -0.000 C 
BRANCH  20  21
ATOM     21  C   UNL     1     104.940  25.547 197.179  1.00  0.00    -0.000 C 
BRANCH  21  22
ATOM     22  C   UNL     1     105.722  25.067 195.946  1.00  0.00    -0.000 C 
BRANCH  22  23
ATOM     23  C   UNL     1     104.894  24.141 195.041  1.00  0.00    -0.000 C 
BRANCH  23  24
ATOM     24  C   UNL     1     105.373  22.689 195.155  1.00  0.00    -0.000 C 
BRANCH  24  25
ATOM     25  C   UNL     1     105.054  21.901 193.880  1.00  0.00    -0.003 C 
ATOM     26  C   UNL     1     103.915  22.550 193.100  1.00  0.00     0.004 C 
ENDBRANCH  24  25
ENDBRANCH  23  24
ENDBRANCH  22  23
ENDBRANCH  21  22
ENDBRANCH  20  21
ENDBRANCH  19  20
ENDBRANCH  18  19
ENDBRANCH  17  18
ENDBRANCH  16  17
ENDBRANCH  15  16
ENDBRANCH   1  15
TORSDOF 22
ENDMDL
