MODEL 1
REMARK VINA RESULT:    -4.884      0.000      0.000
REMARK INTER + INTRA:          -9.132
REMARK INTER:                  -7.454
REMARK INTRA:                  -1.678
REMARK UNBOUND:                -1.678
REMARK SMILES CC(=O)CCC=C(C)CCC=C(C)CCC=C(C)C
REMARK SMILES IDX 10 1 11 2 12 3 13 4 14 5 15 6 16 7 18 8 17 9 19 10 9 11 7 12
REMARK SMILES IDX 6 13 8 14 5 15 4 16 2 17 3 18 1 19
REMARK H PARENT
REMARK Flexibility Score: inf
ROOT
ATOM      1  C   UNL     1       0.871  12.137  18.012  1.00  0.00     0.032 C 
ENDROOT
BRANCH   1   2
ATOM      2  C   UNL     1       1.971  12.815  18.788  1.00  0.00    -0.028 C 
ATOM      3  C   UNL     1       2.055  12.833  20.138  1.00  0.00    -0.077 C 
ATOM      4  C   UNL     1       1.071  12.090  21.010  1.00  0.00     0.039 C 
BRANCH   3   5
ATOM      5  C   UNL     1       3.213  13.553  20.798  1.00  0.00     0.034 C 
BRANCH   5   6
ATOM      6  C   UNL     1       3.275  15.030  20.379  1.00  0.00     0.032 C 
BRANCH   6   7
ATOM      7  C   UNL     1       1.983  15.756  20.673  1.00  0.00    -0.028 C 
ATOM      8  C   UNL     1       2.544  16.136  23.085  1.00  0.00     0.039 C 
ATOM      9  C   UNL     1       1.628  16.230  21.887  1.00  0.00    -0.080 C 
ATOM     10  C   UNL     1       0.280  16.888  22.032  1.00  0.00     0.039 C 
ENDBRANCH   6   7
ENDBRANCH   5   6
ENDBRANCH   3   5
ENDBRANCH   1   2
BRANCH   1  11
ATOM     11  C   UNL     1       1.442  11.061  17.080  1.00  0.00     0.034 C 
BRANCH  11  12
ATOM     12  C   UNL     1       1.421   9.705  17.750  1.00  0.00    -0.077 C 
ATOM     13  C   UNL     1       0.331   9.344  18.466  1.00  0.00    -0.028 C 
ATOM     14  C   UNL     1       2.625   8.803  17.621  1.00  0.00     0.039 C 
BRANCH  13  15
ATOM     15  C   UNL     1       0.151   8.003  19.136  1.00  0.00     0.035 C 
BRANCH  15  16
ATOM     16  C   UNL     1       0.162   8.124  20.665  1.00  0.00     0.079 C 
BRANCH  16  17
ATOM     17  C   UNL     1       1.519   7.818  21.242  1.00  0.00     0.130 C 
ATOM     18  O   UNL     1       2.136   6.836  20.855  1.00  0.00    -0.300 OA
ATOM     19  C   UNL     1       2.107   8.695  22.306  1.00  0.00     0.087 C 
ENDBRANCH  16  17
ENDBRANCH  15  16
ENDBRANCH  13  15
ENDBRANCH  11  12
ENDBRANCH   1  11
TORSDOF 9
ENDMDL
MODEL 2
REMARK VINA RESULT:    -4.861      3.657      6.734
REMARK INTER + INTRA:          -9.097
REMARK INTER:                  -7.401
REMARK INTRA:                  -1.696
REMARK UNBOUND:                -1.678
REMARK SMILES CC(=O)CCC=C(C)CCC=C(C)CCC=C(C)C
REMARK SMILES IDX 10 1 11 2 12 3 13 4 14 5 15 6 16 7 18 8 17 9 19 10 9 11 7 12
REMARK SMILES IDX 6 13 8 14 5 15 4 16 2 17 3 18 1 19
REMARK H PARENT
REMARK Flexibility Score: inf
ROOT
ATOM      1  C   UNL     1       3.550  15.102  22.740  1.00  0.00     0.032 C 
ENDROOT
BRANCH   1   2
ATOM      2  C   UNL     1       3.486  14.123  23.884  1.00  0.00    -0.028 C 
ATOM      3  C   UNL     1       2.612  13.093  23.960  1.00  0.00    -0.077 C 
ATOM      4  C   UNL     1       1.648  12.777  22.840  1.00  0.00     0.039 C 
BRANCH   3   5
ATOM      5  C   UNL     1       2.649  12.179  25.167  1.00  0.00     0.034 C 
BRANCH   5   6
ATOM      6  C   UNL     1       1.491  11.170  25.152  1.00  0.00     0.032 C 
BRANCH   6   7
ATOM      7  C   UNL     1       0.446  11.494  26.194  1.00  0.00    -0.028 C 
ATOM      8  C   UNL     1      -1.458  11.374  24.572  1.00  0.00     0.039 C 
ATOM      9  C   UNL     1      -0.876  11.619  25.944  1.00  0.00    -0.080 C 
ATOM     10  C   UNL     1      -1.787  11.997  27.082  1.00  0.00     0.039 C 
ENDBRANCH   6   7
ENDBRANCH   5   6
ENDBRANCH   3   5
ENDBRANCH   1   2
BRANCH   1  11
ATOM     11  C   UNL     1       2.572  16.263  22.958  1.00  0.00     0.034 C 
BRANCH  11  12
ATOM     12  C   UNL     1       1.684  16.450  21.747  1.00  0.00    -0.077 C 
ATOM     13  C   UNL     1       2.217  16.295  20.513  1.00  0.00    -0.028 C 
ATOM     14  C   UNL     1       0.236  16.827  21.950  1.00  0.00     0.039 C 
BRANCH  13  15
ATOM     15  C   UNL     1       1.436  16.393  19.224  1.00  0.00     0.035 C 
BRANCH  15  16
ATOM     16  C   UNL     1       1.573  15.121  18.377  1.00  0.00     0.079 C 
BRANCH  16  17
ATOM     17  C   UNL     1       0.950  13.928  19.054  1.00  0.00     0.130 C 
ATOM     18  O   UNL     1       1.614  12.918  19.237  1.00  0.00    -0.300 OA
ATOM     19  C   UNL     1      -0.486  13.962  19.481  1.00  0.00     0.087 C 
ENDBRANCH  16  17
ENDBRANCH  15  16
ENDBRANCH  13  15
ENDBRANCH  11  12
ENDBRANCH   1  11
TORSDOF 9
ENDMDL
MODEL 3
REMARK VINA RESULT:    -4.860      2.255      6.653
REMARK INTER + INTRA:          -9.095
REMARK INTER:                  -7.562
REMARK INTRA:                  -1.533
REMARK UNBOUND:                -1.678
REMARK SMILES CC(=O)CCC=C(C)CCC=C(C)CCC=C(C)C
REMARK SMILES IDX 10 1 11 2 12 3 13 4 14 5 15 6 16 7 18 8 17 9 19 10 9 11 7 12
REMARK SMILES IDX 6 13 8 14 5 15 4 16 2 17 3 18 1 19
REMARK H PARENT
REMARK Flexibility Score: inf
ROOT
ATOM      1  C   UNL     1       0.823  16.310  18.924  1.00  0.00     0.032 C 
ENDROOT
BRANCH   1   2
ATOM      2  C   UNL     1       1.462  14.974  18.644  1.00  0.00    -0.028 C 
ATOM      3  C   UNL     1       1.061  13.805  19.194  1.00  0.00    -0.077 C 
ATOM      4  C   UNL     1      -0.142  13.720  20.103  1.00  0.00     0.039 C 
BRANCH   3   5
ATOM      5  C   UNL     1       1.790  12.528  18.831  1.00  0.00     0.034 C 
BRANCH   5   6
ATOM      6  C   UNL     1       0.962  11.651  17.881  1.00  0.00     0.032 C 
BRANCH   6   7
ATOM      7  C   UNL     1       0.392  10.440  18.583  1.00  0.00    -0.028 C 
ATOM      8  C   UNL     1       1.890   8.827  17.387  1.00  0.00     0.039 C 
ATOM      9  C   UNL     1       0.776   9.166  18.350  1.00  0.00    -0.080 C 
ATOM     10  C   UNL     1       0.075   8.059  19.094  1.00  0.00     0.039 C 
ENDBRANCH   6   7
ENDBRANCH   5   6
ENDBRANCH   3   5
ENDBRANCH   1   2
BRANCH   1  11
ATOM     11  C   UNL     1       1.697  17.149  19.863  1.00  0.00     0.034 C 
BRANCH  11  12
ATOM     12  C   UNL     1       1.513  16.712  21.300  1.00  0.00    -0.077 C 
ATOM     13  C   UNL     1       2.537  16.095  21.933  1.00  0.00    -0.028 C 
ATOM     14  C   UNL     1       0.186  16.957  21.978  1.00  0.00     0.039 C 
BRANCH  13  15
ATOM     15  C   UNL     1       2.512  15.660  23.379  1.00  0.00     0.035 C 
BRANCH  15  16
ATOM     16  C   UNL     1       3.569  14.585  23.668  1.00  0.00     0.079 C 
BRANCH  16  17
ATOM     17  C   UNL     1       2.951  13.220  23.827  1.00  0.00     0.130 C 
ATOM     18  O   UNL     1       3.039  12.635  24.897  1.00  0.00    -0.300 OA
ATOM     19  C   UNL     1       2.251  12.565  22.675  1.00  0.00     0.087 C 
ENDBRANCH  16  17
ENDBRANCH  15  16
ENDBRANCH  13  15
ENDBRANCH  11  12
ENDBRANCH   1  11
TORSDOF 9
ENDMDL
MODEL 4
REMARK VINA RESULT:    -4.829      2.707      5.014
REMARK INTER + INTRA:          -9.048
REMARK INTER:                  -6.405
REMARK INTRA:                  -2.643
REMARK UNBOUND:                -1.678
REMARK SMILES CC(=O)CCC=C(C)CCC=C(C)CCC=C(C)C
REMARK SMILES IDX 10 1 11 2 12 3 13 4 14 5 15 6 16 7 18 8 17 9 19 10 9 11 7 12
REMARK SMILES IDX 6 13 8 14 5 15 4 16 2 17 3 18 1 19
REMARK H PARENT
REMARK Flexibility Score: inf
ROOT
ATOM      1  C   UNL     1       1.618   8.558  18.045  1.00  0.00     0.032 C 
ENDROOT
BRANCH   1   2
ATOM      2  C   UNL     1       1.643   9.383  16.784  1.00  0.00    -0.028 C 
ATOM      3  C   UNL     1       2.504  10.402  16.555  1.00  0.00    -0.077 C 
ATOM      4  C   UNL     1       3.594  10.764  17.537  1.00  0.00     0.039 C 
BRANCH   3   5
ATOM      5  C   UNL     1       2.425  11.156  15.244  1.00  0.00     0.034 C 
BRANCH   5   6
ATOM      6  C   UNL     1       1.215  12.101  15.204  1.00  0.00     0.032 C 
BRANCH   6   7
ATOM      7  C   UNL     1       1.439  13.342  16.037  1.00  0.00    -0.028 C 
ATOM      8  C   UNL     1      -0.169  12.641  17.825  1.00  0.00     0.039 C 
ATOM      9  C   UNL     1       0.804  13.612  17.198  1.00  0.00    -0.080 C 
ATOM     10  C   UNL     1       1.097  14.919  17.887  1.00  0.00     0.039 C 
ENDBRANCH   6   7
ENDBRANCH   5   6
ENDBRANCH   3   5
ENDBRANCH   1   2
BRANCH   1  11
ATOM     11  C   UNL     1       0.204   8.507  18.637  1.00  0.00     0.034 C 
BRANCH  11  12
ATOM     12  C   UNL     1       0.062   9.501  19.769  1.00  0.00    -0.077 C 
ATOM     13  C   UNL     1       1.179  10.019  20.330  1.00  0.00    -0.028 C 
ATOM     14  C   UNL     1      -1.320   9.868  20.255  1.00  0.00     0.039 C 
BRANCH  13  15
ATOM     15  C   UNL     1       1.184  11.061  21.424  1.00  0.00     0.035 C 
BRANCH  15  16
ATOM     16  C   UNL     1       1.847  12.366  20.963  1.00  0.00     0.079 C 
BRANCH  16  17
ATOM     17  C   UNL     1       1.015  13.572  21.314  1.00  0.00     0.130 C 
ATOM     18  O   UNL     1       1.556  14.655  21.481  1.00  0.00    -0.300 OA
ATOM     19  C   UNL     1      -0.469  13.446  21.484  1.00  0.00     0.087 C 
ENDBRANCH  16  17
ENDBRANCH  15  16
ENDBRANCH  13  15
ENDBRANCH  11  12
ENDBRANCH   1  11
TORSDOF 9
ENDMDL
MODEL 5
REMARK VINA RESULT:    -4.829      2.854      6.082
REMARK INTER + INTRA:          -9.048
REMARK INTER:                  -6.672
REMARK INTRA:                  -2.376
REMARK UNBOUND:                -1.678
REMARK SMILES CC(=O)CCC=C(C)CCC=C(C)CCC=C(C)C
REMARK SMILES IDX 10 1 11 2 12 3 13 4 14 5 15 6 16 7 18 8 17 9 19 10 9 11 7 12
REMARK SMILES IDX 6 13 8 14 5 15 4 16 2 17 3 18 1 19
REMARK H PARENT
REMARK Flexibility Score: inf
ROOT
ATOM      1  C   UNL     1       2.869  16.526  19.110  1.00  0.00     0.032 C 
ENDROOT
BRANCH   1   2
ATOM      2  C   UNL     1       2.540  15.416  18.145  1.00  0.00    -0.028 C 
ATOM      3  C   UNL     1       2.925  14.128  18.301  1.00  0.00    -0.077 C 
ATOM      4  C   UNL     1       3.674  13.661  19.527  1.00  0.00     0.039 C 
BRANCH   3   5
ATOM      5  C   UNL     1       2.530  13.106  17.256  1.00  0.00     0.034 C 
BRANCH   5   6
ATOM      6  C   UNL     1       1.006  12.950  17.160  1.00  0.00     0.032 C 
BRANCH   6   7
ATOM      7  C   UNL     1       0.476  11.953  18.165  1.00  0.00    -0.028 C 
ATOM      8  C   UNL     1      -0.438  13.716  19.692  1.00  0.00     0.039 C 
ATOM      9  C   UNL     1      -0.146  12.282  19.318  1.00  0.00    -0.080 C 
ATOM     10  C   UNL     1      -0.572  11.172  20.243  1.00  0.00     0.039 C 
ENDBRANCH   6   7
ENDBRANCH   5   6
ENDBRANCH   3   5
ENDBRANCH   1   2
BRANCH   1  11
ATOM     11  C   UNL     1       1.597  17.072  19.771  1.00  0.00     0.034 C 
BRANCH  11  12
ATOM     12  C   UNL     1       1.534  16.668  21.227  1.00  0.00    -0.077 C 
ATOM     13  C   UNL     1       2.655  16.207  21.829  1.00  0.00    -0.028 C 
ATOM     14  C   UNL     1       0.218  16.769  21.961  1.00  0.00     0.039 C 
BRANCH  13  15
ATOM     15  C   UNL     1       2.751  15.825  23.287  1.00  0.00     0.035 C 
BRANCH  15  16
ATOM     16  C   UNL     1       3.596  14.561  23.490  1.00  0.00     0.079 C 
BRANCH  16  17
ATOM     17  C   UNL     1       2.739  13.350  23.750  1.00  0.00     0.130 C 
ATOM     18  O   UNL     1       2.882  12.715  24.785  1.00  0.00    -0.300 OA
ATOM     19  C   UNL     1       1.729  12.903  22.736  1.00  0.00     0.087 C 
ENDBRANCH  16  17
ENDBRANCH  15  16
ENDBRANCH  13  15
ENDBRANCH  11  12
ENDBRANCH   1  11
TORSDOF 9
ENDMDL
MODEL 6
REMARK VINA RESULT:    -4.825      2.742      7.025
REMARK INTER + INTRA:          -9.042
REMARK INTER:                  -7.330
REMARK INTRA:                  -1.711
REMARK UNBOUND:                -1.678
REMARK SMILES CC(=O)CCC=C(C)CCC=C(C)CCC=C(C)C
REMARK SMILES IDX 10 1 11 2 12 3 13 4 14 5 15 6 16 7 18 8 17 9 19 10 9 11 7 12
REMARK SMILES IDX 6 13 8 14 5 15 4 16 2 17 3 18 1 19
REMARK H PARENT
REMARK Flexibility Score: inf
ROOT
ATOM      1  C   UNL     1       1.583  10.581  21.942  1.00  0.00     0.032 C 
ENDROOT
BRANCH   1   2
ATOM      2  C   UNL     1       1.478   9.608  20.796  1.00  0.00    -0.028 C 
ATOM      3  C   UNL     1       0.376   9.451  20.027  1.00  0.00    -0.077 C 
ATOM      4  C   UNL     1      -0.853  10.311  20.204  1.00  0.00     0.039 C 
BRANCH   3   5
ATOM      5  C   UNL     1       0.397   8.436  18.903  1.00  0.00     0.034 C 
BRANCH   5   6
ATOM      6  C   UNL     1       1.732   8.457  18.143  1.00  0.00     0.032 C 
BRANCH   6   7
ATOM      7  C   UNL     1       1.636   9.240  16.854  1.00  0.00    -0.028 C 
ATOM      8  C   UNL     1       2.687  11.296  17.824  1.00  0.00     0.039 C 
ATOM      9  C   UNL     1       2.031  10.523  16.704  1.00  0.00    -0.080 C 
ATOM     10  C   UNL     1       1.822  11.185  15.367  1.00  0.00     0.039 C 
ENDBRANCH   6   7
ENDBRANCH   5   6
ENDBRANCH   3   5
ENDBRANCH   1   2
BRANCH   1  11
ATOM     11  C   UNL     1       2.590  11.693  21.626  1.00  0.00     0.034 C 
BRANCH  11  12
ATOM     12  C   UNL     1       2.039  13.045  22.025  1.00  0.00    -0.077 C 
ATOM     13  C   UNL     1       2.871  13.952  22.586  1.00  0.00    -0.028 C 
ATOM     14  C   UNL     1       0.573  13.333  21.807  1.00  0.00     0.039 C 
BRANCH  13  15
ATOM     15  C   UNL     1       2.471  15.355  22.977  1.00  0.00     0.035 C 
BRANCH  15  16
ATOM     16  C   UNL     1       2.769  16.364  21.860  1.00  0.00     0.079 C 
BRANCH  16  17
ATOM     17  C   UNL     1       1.514  16.799  21.149  1.00  0.00     0.130 C 
ATOM     18  O   UNL     1       1.546  17.032  19.950  1.00  0.00    -0.300 OA
ATOM     19  C   UNL     1       0.233  16.972  21.907  1.00  0.00     0.087 C 
ENDBRANCH  16  17
ENDBRANCH  15  16
ENDBRANCH  13  15
ENDBRANCH  11  12
ENDBRANCH   1  11
TORSDOF 9
ENDMDL
MODEL 7
REMARK VINA RESULT:    -4.812      1.877      4.022
REMARK INTER + INTRA:          -9.021
REMARK INTER:                  -7.279
REMARK INTRA:                  -1.743
REMARK UNBOUND:                -1.678
REMARK SMILES CC(=O)CCC=C(C)CCC=C(C)CCC=C(C)C
REMARK SMILES IDX 10 1 11 2 12 3 13 4 14 5 15 6 16 7 18 8 17 9 19 10 9 11 7 12
REMARK SMILES IDX 6 13 8 14 5 15 4 16 2 17 3 18 1 19
REMARK H PARENT
REMARK Flexibility Score: inf
ROOT
ATOM      1  C   UNL     1       2.117  15.840  19.233  1.00  0.00     0.032 C 
ENDROOT
BRANCH   1   2
ATOM      2  C   UNL     1       2.646  15.756  20.642  1.00  0.00    -0.028 C 
ATOM      3  C   UNL     1       1.970  16.172  21.738  1.00  0.00    -0.077 C 
ATOM      4  C   UNL     1       0.558  16.702  21.654  1.00  0.00     0.039 C 
BRANCH   3   5
ATOM      5  C   UNL     1       2.615  16.035  23.102  1.00  0.00     0.034 C 
BRANCH   5   6
ATOM      6  C   UNL     1       3.665  14.914  23.123  1.00  0.00     0.032 C 
BRANCH   6   7
ATOM      7  C   UNL     1       3.395  13.907  24.218  1.00  0.00    -0.028 C 
ATOM      8  C   UNL     1       1.881  12.507  22.796  1.00  0.00     0.039 C 
ATOM      9  C   UNL     1       2.574  12.841  24.096  1.00  0.00    -0.080 C 
ATOM     10  C   UNL     1       2.367  11.956  25.297  1.00  0.00     0.039 C 
ENDBRANCH   6   7
ENDBRANCH   5   6
ENDBRANCH   3   5
ENDBRANCH   1   2
BRANCH   1  11
ATOM     11  C   UNL     1       2.399  14.543  18.465  1.00  0.00     0.034 C 
BRANCH  11  12
ATOM     12  C   UNL     1       1.423  13.459  18.866  1.00  0.00    -0.077 C 
ATOM     13  C   UNL     1       1.883  12.202  19.061  1.00  0.00    -0.028 C 
ATOM     14  C   UNL     1      -0.039  13.805  19.013  1.00  0.00     0.039 C 
BRANCH  13  15
ATOM     15  C   UNL     1       1.035  11.039  19.518  1.00  0.00     0.035 C 
BRANCH  15  16
ATOM     16  C   UNL     1       0.789  10.034  18.385  1.00  0.00     0.079 C 
BRANCH  16  17
ATOM     17  C   UNL     1       1.843   8.958  18.352  1.00  0.00     0.130 C 
ATOM     18  O   UNL     1       1.840   8.079  19.201  1.00  0.00    -0.300 OA
ATOM     19  C   UNL     1       2.909   8.974  17.300  1.00  0.00     0.087 C 
ENDBRANCH  16  17
ENDBRANCH  15  16
ENDBRANCH  13  15
ENDBRANCH  11  12
ENDBRANCH   1  11
TORSDOF 9
ENDMDL
MODEL 8
REMARK VINA RESULT:    -4.785      2.600      5.098
REMARK INTER + INTRA:          -8.981
REMARK INTER:                  -6.881
REMARK INTRA:                  -2.100
REMARK UNBOUND:                -1.678
REMARK SMILES CC(=O)CCC=C(C)CCC=C(C)CCC=C(C)C
REMARK SMILES IDX 10 1 11 2 12 3 13 4 14 5 15 6 16 7 18 8 17 9 19 10 9 11 7 12
REMARK SMILES IDX 6 13 8 14 5 15 4 16 2 17 3 18 1 19
REMARK H PARENT
REMARK Flexibility Score: inf
ROOT
ATOM      1  C   UNL     1       1.763  16.704  21.624  1.00  0.00     0.032 C 
ENDROOT
BRANCH   1   2
ATOM      2  C   UNL     1       2.481  16.060  22.782  1.00  0.00    -0.028 C 
ATOM      3  C   UNL     1       3.355  15.034  22.663  1.00  0.00    -0.077 C 
ATOM      4  C   UNL     1       3.758  14.478  21.318  1.00  0.00     0.039 C 
BRANCH   3   5
ATOM      5  C   UNL     1       4.010  14.473  23.908  1.00  0.00     0.034 C 
BRANCH   5   6
ATOM      6  C   UNL     1       3.793  12.957  24.031  1.00  0.00     0.032 C 
BRANCH   6   7
ATOM      7  C   UNL     1       2.374  12.620  24.425  1.00  0.00    -0.028 C 
ATOM      8  C   UNL     1       3.070  11.105  26.295  1.00  0.00     0.039 C 
ATOM      9  C   UNL     1       2.034  11.768  25.418  1.00  0.00    -0.080 C 
ATOM     10  C   UNL     1       0.573  11.494  25.657  1.00  0.00     0.039 C 
ENDBRANCH   6   7
ENDBRANCH   5   6
ENDBRANCH   3   5
ENDBRANCH   1   2
BRANCH   1  11
ATOM     11  C   UNL     1       0.292  16.271  21.582  1.00  0.00     0.034 C 
BRANCH  11  12
ATOM     12  C   UNL     1       0.148  14.928  20.902  1.00  0.00    -0.077 C 
ATOM     13  C   UNL     1      -0.078  13.830  21.660  1.00  0.00    -0.028 C 
ATOM     14  C   UNL     1       0.283  14.846  19.401  1.00  0.00     0.039 C 
BRANCH  13  15
ATOM     15  C   UNL     1      -0.300  12.440  21.112  1.00  0.00     0.035 C 
BRANCH  15  16
ATOM     16  C   UNL     1       0.991  11.611  21.124  1.00  0.00     0.079 C 
BRANCH  16  17
ATOM     17  C   UNL     1       1.118  10.754  19.892  1.00  0.00     0.130 C 
ATOM     18  O   UNL     1       1.788   9.732  19.929  1.00  0.00    -0.300 OA
ATOM     19  C   UNL     1       0.449  11.160  18.614  1.00  0.00     0.087 C 
ENDBRANCH  16  17
ENDBRANCH  15  16
ENDBRANCH  13  15
ENDBRANCH  11  12
ENDBRANCH   1  11
TORSDOF 9
ENDMDL
MODEL 9
REMARK VINA RESULT:    -4.750      2.130      3.904
REMARK INTER + INTRA:          -8.927
REMARK INTER:                  -7.020
REMARK INTRA:                  -1.906
REMARK UNBOUND:                -1.678
REMARK SMILES CC(=O)CCC=C(C)CCC=C(C)CCC=C(C)C
REMARK SMILES IDX 10 1 11 2 12 3 13 4 14 5 15 6 16 7 18 8 17 9 19 10 9 11 7 12
REMARK SMILES IDX 6 13 8 14 5 15 4 16 2 17 3 18 1 19
REMARK H PARENT
REMARK Flexibility Score: inf
ROOT
ATOM      1  C   UNL     1      -0.392  13.653  20.601  1.00  0.00     0.032 C 
ENDROOT
BRANCH   1   2
ATOM      2  C   UNL     1       0.379  14.658  21.419  1.00  0.00    -0.028 C 
ATOM      3  C   UNL     1       1.433  15.370  20.959  1.00  0.00    -0.077 C 
ATOM      4  C   UNL     1       1.897  15.276  19.524  1.00  0.00     0.039 C 
BRANCH   3   5
ATOM      5  C   UNL     1       2.126  16.349  21.884  1.00  0.00     0.034 C 
BRANCH   5   6
ATOM      6  C   UNL     1       3.441  15.778  22.434  1.00  0.00     0.032 C 
BRANCH   6   7
ATOM      7  C   UNL     1       3.206  14.819  23.578  1.00  0.00    -0.028 C 
ATOM      8  C   UNL     1       3.652  12.783  22.189  1.00  0.00     0.039 C 
ATOM      9  C   UNL     1       3.267  13.473  23.477  1.00  0.00    -0.080 C 
ATOM     10  C   UNL     1       2.956  12.648  24.698  1.00  0.00     0.039 C 
ENDBRANCH   6   7
ENDBRANCH   5   6
ENDBRANCH   3   5
ENDBRANCH   1   2
BRANCH   1  11
ATOM     11  C   UNL     1       0.155  12.237  20.817  1.00  0.00     0.034 C 
BRANCH  11  12
ATOM     12  C   UNL     1       0.266  11.500  19.500  1.00  0.00    -0.077 C 
ATOM     13  C   UNL     1       0.623  10.195  19.508  1.00  0.00    -0.028 C 
ATOM     14  C   UNL     1      -0.001  12.247  18.215  1.00  0.00     0.039 C 
BRANCH  13  15
ATOM     15  C   UNL     1       0.715   9.324  18.277  1.00  0.00     0.035 C 
BRANCH  15  16
ATOM     16  C   UNL     1       2.171   9.008  17.911  1.00  0.00     0.079 C 
BRANCH  16  17
ATOM     17  C   UNL     1       2.759  10.052  16.999  1.00  0.00     0.130 C 
ATOM     18  O   UNL     1       3.777  10.643  17.329  1.00  0.00    -0.300 OA
ATOM     19  C   UNL     1       2.090  10.389  15.701  1.00  0.00     0.087 C 
ENDBRANCH  16  17
ENDBRANCH  15  16
ENDBRANCH  13  15
ENDBRANCH  11  12
ENDBRANCH   1  11
TORSDOF 9
ENDMDL
