MODEL 1
REMARK VINA RESULT:    -1.294      0.000      0.000
REMARK INTER + INTRA:          -1.944
REMARK INTER:                  -2.353
REMARK INTRA:                   0.409
REMARK UNBOUND:                 0.409
REMARK SMILES CCCCCCCCCCCCCC[C@H](C)C(=O)[O-]
REMARK SMILES IDX 9 1 10 2 11 3 12 4 13 5 14 6 15 7 16 8 17 9 18 10 19 11 8 12
REMARK SMILES IDX 7 13 6 14 5 15 4 16 3 17 2 18 1 19
REMARK H PARENT
REMARK Flexibility Score: inf
ROOT
ATOM      1  C   UNL     1       1.336  -7.721  -5.924  1.00  0.00     0.000 C 
ENDROOT
BRANCH   1   2
ATOM      2  C   UNL     1       2.217  -7.001  -4.885  1.00  0.00     0.000 C 
BRANCH   2   3
ATOM      3  C   UNL     1       3.671  -6.740  -5.322  1.00  0.00     0.000 C 
BRANCH   3   4
ATOM      4  C   UNL     1       4.033  -5.245  -5.335  1.00  0.00     0.000 C 
BRANCH   4   5
ATOM      5  C   UNL     1       5.216  -4.932  -6.265  1.00  0.00     0.001 C 
BRANCH   5   6
ATOM      6  C   UNL     1       6.567  -4.904  -5.526  1.00  0.00     0.009 C 
BRANCH   6   7
ATOM      7  C   UNL     1       7.677  -5.657  -6.290  1.00  0.00     0.032 C 
ATOM      8  C   UNL     1       9.062  -5.449  -5.659  1.00  0.00     0.014 C 
BRANCH   7   9
ATOM      9  C   UNL     1       7.700  -5.215  -7.729  1.00  0.00     0.044 C 
ATOM     10  O   UNL     1       8.793  -4.970  -8.306  1.00  0.00    -0.550 OA
ATOM     11  O   UNL     1       6.508  -5.068  -8.427  1.00  0.00    -0.550 OA
ENDBRANCH   7   9
ENDBRANCH   6   7
ENDBRANCH   5   6
ENDBRANCH   4   5
ENDBRANCH   3   4
ENDBRANCH   2   3
ENDBRANCH   1   2
BRANCH   1  12
ATOM     12  C   UNL     1      -0.012  -7.018  -6.158  1.00  0.00     0.000 C 
BRANCH  12  13
ATOM     13  C   UNL     1      -0.851  -6.907  -4.875  1.00  0.00    -0.000 C 
BRANCH  13  14
ATOM     14  C   UNL     1      -2.362  -6.974  -5.147  1.00  0.00    -0.000 C 
BRANCH  14  15
ATOM     15  C   UNL     1      -2.894  -8.399  -4.928  1.00  0.00    -0.000 C 
BRANCH  15  16
ATOM     16  C   UNL     1      -3.690  -8.928  -6.133  1.00  0.00    -0.000 C 
BRANCH  16  17
ATOM     17  C   UNL     1      -3.882 -10.454  -6.090  1.00  0.00    -0.000 C 
BRANCH  17  18
ATOM     18  C   UNL     1      -5.363 -10.862  -6.141  1.00  0.00    -0.003 C 
ATOM     19  C   UNL     1      -5.559 -12.359  -6.381  1.00  0.00     0.004 C 
ENDBRANCH  17  18
ENDBRANCH  16  17
ENDBRANCH  15  16
ENDBRANCH  14  15
ENDBRANCH  13  14
ENDBRANCH  12  13
ENDBRANCH   1  12
TORSDOF 14
ENDMDL
