MODEL 1
REMARK VINA RESULT:    -5.376      0.000      0.000
REMARK INTER + INTRA:          -7.295
REMARK INTER:                  -6.790
REMARK INTRA:                  -0.504
REMARK UNBOUND:                -0.504
REMARK SMILES Oc1cc(O)cc(CCc2ccccc2O)c1
REMARK SMILES IDX 9 1 10 2 12 3 13 4 11 5 14 6 15 7 16 8 8 10 7 11 6 12 17 13
REMARK SMILES IDX 4 14 2 15 3 16 5 17 1 19
REMARK H PARENT 16 9 5 18 1 20
REMARK Flexibility Score: inf
ROOT
ATOM      1  C   UNL     1     116.177  50.712  -0.504  1.00  0.00     0.044 C 
ENDROOT
BRANCH   1   2
ATOM      2  C   UNL     1     117.537  50.752   0.151  1.00  0.00    -0.006 A 
ATOM      3  C   UNL     1     119.806  49.875   0.278  1.00  0.00     0.001 A 
ATOM      4  C   UNL     1     120.087  50.739   1.336  1.00  0.00     0.004 A 
ATOM      5  C   UNL     1     118.539  49.878  -0.309  1.00  0.00     0.007 A 
ATOM      6  C   UNL     1     119.100  51.602   1.815  1.00  0.00     0.046 A 
ATOM      7  C   UNL     1     117.824  51.614   1.241  1.00  0.00     0.118 A 
BRANCH   7   8
ATOM      8  O   UNL     1     116.872  52.483   1.779  1.00  0.00    -0.508 OA
ATOM      9  H   UNL     1     116.948  53.491   1.737  1.00  0.00     0.293 HD
ENDBRANCH   7   8
ENDBRANCH   1   2
BRANCH   1  10
ATOM     10  C   UNL     1     115.866  52.045  -1.192  1.00  0.00     0.040 C 
BRANCH  10  11
ATOM     11  C   UNL     1     116.805  52.277  -2.345  1.00  0.00    -0.040 A 
ATOM     12  C   UNL     1     117.007  51.272  -3.305  1.00  0.00     0.050 A 
ATOM     13  C   UNL     1     117.441  53.519  -2.503  1.00  0.00     0.050 A 
ATOM     14  C   UNL     1     117.855  51.498  -4.398  1.00  0.00     0.119 A 
ATOM     15  C   UNL     1     118.289  53.746  -3.595  1.00  0.00     0.119 A 
ATOM     16  C   UNL     1     118.496  52.734  -4.538  1.00  0.00     0.092 A 
BRANCH  14  17
ATOM     17  O   UNL     1     118.066  50.504  -5.351  1.00  0.00    -0.508 OA
ATOM     18  H   UNL     1     118.706  50.640  -6.125  1.00  0.00     0.293 HD
ENDBRANCH  14  17
BRANCH  15  19
ATOM     19  O   UNL     1     118.929  54.974  -3.754  1.00  0.00    -0.508 OA
ATOM     20  H   UNL     1     118.954  55.659  -3.007  1.00  0.00     0.293 HD
ENDBRANCH  15  19
ENDBRANCH  10  11
ENDBRANCH   1  10
TORSDOF 6
ENDMDL
MODEL 2
REMARK VINA RESULT:    -5.246      0.229      2.042
REMARK INTER + INTRA:          -7.131
REMARK INTER:                  -6.572
REMARK INTRA:                  -0.558
REMARK UNBOUND:                -0.504
REMARK SMILES Oc1cc(O)cc(CCc2ccccc2O)c1
REMARK SMILES IDX 9 1 10 2 12 3 13 4 11 5 14 6 15 7 16 8 8 10 7 11 6 12 17 13
REMARK SMILES IDX 4 14 2 15 3 16 5 17 1 19
REMARK H PARENT 16 9 5 18 1 20
REMARK Flexibility Score: inf
ROOT
ATOM      1  C   UNL     1     116.124  50.529  -0.461  1.00  0.00     0.044 C 
ENDROOT
BRANCH   1   2
ATOM      2  C   UNL     1     117.458  50.711   0.223  1.00  0.00    -0.006 A 
ATOM      3  C   UNL     1     119.775  50.002   0.472  1.00  0.00     0.001 A 
ATOM      4  C   UNL     1     119.966  50.959   1.469  1.00  0.00     0.004 A 
ATOM      5  C   UNL     1     118.529  49.875  -0.145  1.00  0.00     0.007 A 
ATOM      6  C   UNL     1     118.911  51.786   1.857  1.00  0.00     0.046 A 
ATOM      7  C   UNL     1     117.654  51.668   1.251  1.00  0.00     0.118 A 
BRANCH   7   8
ATOM      8  O   UNL     1     116.631  52.508   1.698  1.00  0.00    -0.508 OA
ATOM      9  H   UNL     1     115.754  52.629   1.210  1.00  0.00     0.293 HD
ENDBRANCH   7   8
ENDBRANCH   1   2
BRANCH   1  10
ATOM     10  C   UNL     1     115.719  51.805  -1.208  1.00  0.00     0.040 C 
BRANCH  10  11
ATOM     11  C   UNL     1     116.672  52.080  -2.340  1.00  0.00    -0.040 A 
ATOM     12  C   UNL     1     117.363  53.301  -2.400  1.00  0.00     0.050 A 
ATOM     13  C   UNL     1     116.922  51.097  -3.311  1.00  0.00     0.050 A 
ATOM     14  C   UNL     1     118.277  53.545  -3.436  1.00  0.00     0.119 A 
ATOM     15  C   UNL     1     117.835  51.340  -4.346  1.00  0.00     0.119 A 
ATOM     16  C   UNL     1     118.508  52.564  -4.407  1.00  0.00     0.092 A 
BRANCH  14  17
ATOM     17  O   UNL     1     118.961  54.756  -3.507  1.00  0.00    -0.508 OA
ATOM     18  H   UNL     1     119.449  55.040  -4.349  1.00  0.00     0.293 HD
ENDBRANCH  14  17
BRANCH  15  19
ATOM     19  O   UNL     1     118.083  50.372  -5.317  1.00  0.00    -0.508 OA
ATOM     20  H   UNL     1     118.430  49.452  -5.071  1.00  0.00     0.293 HD
ENDBRANCH  15  19
ENDBRANCH  10  11
ENDBRANCH   1  10
TORSDOF 6
ENDMDL
MODEL 3
REMARK VINA RESULT:    -4.429      1.840      2.951
REMARK INTER + INTRA:          -6.099
REMARK INTER:                  -5.431
REMARK INTRA:                  -0.667
REMARK UNBOUND:                -0.504
REMARK SMILES Oc1cc(O)cc(CCc2ccccc2O)c1
REMARK SMILES IDX 9 1 10 2 12 3 13 4 11 5 14 6 15 7 16 8 8 10 7 11 6 12 17 13
REMARK SMILES IDX 4 14 2 15 3 16 5 17 1 19
REMARK H PARENT 16 9 5 18 1 20
REMARK Flexibility Score: inf
ROOT
ATOM      1  C   UNL     1     118.392  49.875  -1.002  1.00  0.00     0.044 C 
ENDROOT
BRANCH   1   2
ATOM      2  C   UNL     1     117.255  50.787  -0.605  1.00  0.00    -0.006 A 
ATOM      3  C   UNL     1     116.407  52.515   0.887  1.00  0.00     0.001 A 
ATOM      4  C   UNL     1     115.181  52.495   0.222  1.00  0.00     0.004 A 
ATOM      5  C   UNL     1     117.436  51.664   0.480  1.00  0.00     0.007 A 
ATOM      6  C   UNL     1     114.979  51.619  -0.846  1.00  0.00     0.046 A 
ATOM      7  C   UNL     1     116.000  50.757  -1.263  1.00  0.00     0.118 A 
BRANCH   7   8
ATOM      8  O   UNL     1     115.730  49.888  -2.323  1.00  0.00    -0.508 OA
ATOM      9  H   UNL     1     115.218  49.022  -2.220  1.00  0.00     0.293 HD
ENDBRANCH   7   8
ENDBRANCH   1   2
BRANCH   1  10
ATOM     10  C   UNL     1     119.557  50.681  -1.585  1.00  0.00     0.040 C 
BRANCH  10  11
ATOM     11  C   UNL     1     119.095  51.506  -2.756  1.00  0.00    -0.040 A 
ATOM     12  C   UNL     1     118.579  50.880  -3.902  1.00  0.00     0.050 A 
ATOM     13  C   UNL     1     119.122  52.909  -2.689  1.00  0.00     0.050 A 
ATOM     14  C   UNL     1     118.118  51.649  -4.980  1.00  0.00     0.119 A 
ATOM     15  C   UNL     1     118.661  53.678  -3.766  1.00  0.00     0.119 A 
ATOM     16  C   UNL     1     118.162  53.046  -4.909  1.00  0.00     0.092 A 
BRANCH  14  17
ATOM     17  O   UNL     1     117.611  51.035  -6.123  1.00  0.00    -0.508 OA
ATOM     18  H   UNL     1     116.695  51.272  -6.489  1.00  0.00     0.293 HD
ENDBRANCH  14  17
BRANCH  15  19
ATOM     19  O   UNL     1     118.691  55.070  -3.710  1.00  0.00    -0.508 OA
ATOM     20  H   UNL     1     119.411  55.604  -4.182  1.00  0.00     0.293 HD
ENDBRANCH  15  19
ENDBRANCH  10  11
ENDBRANCH   1  10
TORSDOF 6
ENDMDL
MODEL 4
REMARK VINA RESULT:    -4.347      1.506      3.334
REMARK INTER + INTRA:          -5.994
REMARK INTER:                  -5.549
REMARK INTRA:                  -0.445
REMARK UNBOUND:                -0.504
REMARK SMILES Oc1cc(O)cc(CCc2ccccc2O)c1
REMARK SMILES IDX 9 1 10 2 12 3 13 4 11 5 14 6 15 7 16 8 8 10 7 11 6 12 17 13
REMARK SMILES IDX 4 14 2 15 3 16 5 17 1 19
REMARK H PARENT 16 9 5 18 1 20
REMARK Flexibility Score: inf
ROOT
ATOM      1  C   UNL     1     118.383  49.877  -0.891  1.00  0.00     0.044 C 
ENDROOT
BRANCH   1   2
ATOM      2  C   UNL     1     117.146  50.696  -0.613  1.00  0.00    -0.006 A 
ATOM      3  C   UNL     1     114.805  51.152  -1.108  1.00  0.00     0.001 A 
ATOM      4  C   UNL     1     114.806  52.193  -0.180  1.00  0.00     0.004 A 
ATOM      5  C   UNL     1     115.967  50.410  -1.327  1.00  0.00     0.007 A 
ATOM      6  C   UNL     1     115.970  52.500   0.526  1.00  0.00     0.046 A 
ATOM      7  C   UNL     1     117.145  51.769   0.314  1.00  0.00     0.118 A 
BRANCH   7   8
ATOM      8  O   UNL     1     118.284  52.139   1.034  1.00  0.00    -0.508 OA
ATOM      9  H   UNL     1     118.274  52.808   1.792  1.00  0.00     0.293 HD
ENDBRANCH   7   8
ENDBRANCH   1   2
BRANCH   1  10
ATOM     10  C   UNL     1     119.492  50.753  -1.484  1.00  0.00     0.040 C 
BRANCH  10  11
ATOM     11  C   UNL     1     118.991  51.492  -2.696  1.00  0.00    -0.040 A 
ATOM     12  C   UNL     1     118.968  52.896  -2.708  1.00  0.00     0.050 A 
ATOM     13  C   UNL     1     118.598  50.786  -3.844  1.00  0.00     0.050 A 
ATOM     14  C   UNL     1     118.533  53.587  -3.848  1.00  0.00     0.119 A 
ATOM     15  C   UNL     1     118.163  51.475  -4.984  1.00  0.00     0.119 A 
ATOM     16  C   UNL     1     118.130  52.873  -4.982  1.00  0.00     0.092 A 
BRANCH  14  17
ATOM     17  O   UNL     1     118.502  54.979  -3.866  1.00  0.00    -0.508 OA
ATOM     18  H   UNL     1     117.908  55.503  -3.233  1.00  0.00     0.293 HD
ENDBRANCH  14  17
BRANCH  15  19
ATOM     19  O   UNL     1     117.765  50.781  -6.125  1.00  0.00    -0.508 OA
ATOM     20  H   UNL     1     116.807  50.811  -6.456  1.00  0.00     0.293 HD
ENDBRANCH  15  19
ENDBRANCH  10  11
ENDBRANCH   1  10
TORSDOF 6
ENDMDL
MODEL 5
REMARK VINA RESULT:    -4.331      1.638      5.775
REMARK INTER + INTRA:          -5.975
REMARK INTER:                  -5.405
REMARK INTRA:                  -0.570
REMARK UNBOUND:                -0.504
REMARK SMILES Oc1cc(O)cc(CCc2ccccc2O)c1
REMARK SMILES IDX 9 1 10 2 12 3 13 4 11 5 14 6 15 7 16 8 8 10 7 11 6 12 17 13
REMARK SMILES IDX 4 14 2 15 3 16 5 17 1 19
REMARK H PARENT 16 9 5 18 1 20
REMARK Flexibility Score: inf
ROOT
ATOM      1  C   UNL     1     116.632  50.940  -2.675  1.00  0.00     0.044 C 
ENDROOT
BRANCH   1   2
ATOM      2  C   UNL     1     117.394  51.743  -3.701  1.00  0.00    -0.006 A 
ATOM      3  C   UNL     1     118.434  53.855  -4.327  1.00  0.00     0.001 A 
ATOM      4  C   UNL     1     118.784  53.321  -5.568  1.00  0.00     0.004 A 
ATOM      5  C   UNL     1     117.741  53.074  -3.401  1.00  0.00     0.007 A 
ATOM      6  C   UNL     1     118.434  52.008  -5.888  1.00  0.00     0.046 A 
ATOM      7  C   UNL     1     117.735  51.214  -4.972  1.00  0.00     0.118 A 
BRANCH   7   8
ATOM      8  O   UNL     1     117.393  49.916  -5.358  1.00  0.00    -0.508 OA
ATOM      9  H   UNL     1     118.017  49.299  -5.861  1.00  0.00     0.293 HD
ENDBRANCH   7   8
ENDBRANCH   1   2
BRANCH   1  10
ATOM     10  C   UNL     1     117.535  49.880  -2.034  1.00  0.00     0.040 C 
BRANCH  10  11
ATOM     11  C   UNL     1     118.118  50.392  -0.745  1.00  0.00    -0.040 A 
ATOM     12  C   UNL     1     117.408  51.322   0.032  1.00  0.00     0.050 A 
ATOM     13  C   UNL     1     119.349  49.901  -0.279  1.00  0.00     0.050 A 
ATOM     14  C   UNL     1     117.935  51.774   1.251  1.00  0.00     0.119 A 
ATOM     15  C   UNL     1     119.876  50.353   0.938  1.00  0.00     0.119 A 
ATOM     16  C   UNL     1     119.169  51.290   1.698  1.00  0.00     0.092 A 
BRANCH  14  17
ATOM     17  O   UNL     1     117.240  52.701   2.024  1.00  0.00    -0.508 OA
ATOM     18  H   UNL     1     117.037  53.632   1.679  1.00  0.00     0.293 HD
ENDBRANCH  14  17
BRANCH  15  19
ATOM     19  O   UNL     1     121.100  49.875   1.403  1.00  0.00    -0.508 OA
ATOM     20  H   UNL     1     121.154  49.208   2.164  1.00  0.00     0.293 HD
ENDBRANCH  15  19
ENDBRANCH  10  11
ENDBRANCH   1  10
TORSDOF 6
ENDMDL
MODEL 6
REMARK VINA RESULT:    -4.284      1.926      5.502
REMARK INTER + INTRA:          -5.915
REMARK INTER:                  -5.360
REMARK INTRA:                  -0.555
REMARK UNBOUND:                -0.504
REMARK SMILES Oc1cc(O)cc(CCc2ccccc2O)c1
REMARK SMILES IDX 9 1 10 2 12 3 13 4 11 5 14 6 15 7 16 8 8 10 7 11 6 12 17 13
REMARK SMILES IDX 4 14 2 15 3 16 5 17 1 19
REMARK H PARENT 16 9 5 18 1 20
REMARK Flexibility Score: inf
ROOT
ATOM      1  C   UNL     1     116.526  51.541  -2.463  1.00  0.00     0.044 C 
ENDROOT
BRANCH   1   2
ATOM      2  C   UNL     1     117.316  51.710  -3.738  1.00  0.00    -0.006 A 
ATOM      3  C   UNL     1     118.102  50.750  -5.834  1.00  0.00     0.001 A 
ATOM      4  C   UNL     1     118.792  51.928  -6.121  1.00  0.00     0.004 A 
ATOM      5  C   UNL     1     117.372  50.639  -4.649  1.00  0.00     0.007 A 
ATOM      6  C   UNL     1     118.761  52.994  -5.221  1.00  0.00     0.046 A 
ATOM      7  C   UNL     1     118.037  52.897  -4.027  1.00  0.00     0.118 A 
BRANCH   7   8
ATOM      8  O   UNL     1     118.063  53.989  -3.156  1.00  0.00    -0.508 OA
ATOM      9  H   UNL     1     117.822  54.931  -3.433  1.00  0.00     0.293 HD
ENDBRANCH   7   8
ENDBRANCH   1   2
BRANCH   1  10
ATOM     10  C   UNL     1     116.672  50.116  -1.918  1.00  0.00     0.040 C 
BRANCH  10  11
ATOM     11  C   UNL     1     117.732  50.063  -0.851  1.00  0.00    -0.040 A 
ATOM     12  C   UNL     1     117.369  50.010   0.504  1.00  0.00     0.050 A 
ATOM     13  C   UNL     1     119.090  50.008  -1.204  1.00  0.00     0.050 A 
ATOM     14  C   UNL     1     118.355  49.927   1.498  1.00  0.00     0.119 A 
ATOM     15  C   UNL     1     120.076  49.925  -0.212  1.00  0.00     0.119 A 
ATOM     16  C   UNL     1     119.706  49.888   1.136  1.00  0.00     0.092 A 
BRANCH  14  17
ATOM     17  O   UNL     1     118.003  49.880   2.844  1.00  0.00    -0.508 OA
ATOM     18  H   UNL     1     117.476  49.104   3.227  1.00  0.00     0.293 HD
ENDBRANCH  14  17
BRANCH  15  19
ATOM     19  O   UNL     1     121.426  49.877  -0.555  1.00  0.00    -0.508 OA
ATOM     20  H   UNL     1     122.110  50.469  -0.098  1.00  0.00     0.293 HD
ENDBRANCH  15  19
ENDBRANCH  10  11
ENDBRANCH   1  10
TORSDOF 6
ENDMDL
MODEL 7
REMARK VINA RESULT:    -3.735      8.055      9.247
REMARK INTER + INTRA:          -5.221
REMARK INTER:                  -4.726
REMARK INTRA:                  -0.495
REMARK UNBOUND:                -0.504
REMARK SMILES Oc1cc(O)cc(CCc2ccccc2O)c1
REMARK SMILES IDX 9 1 10 2 12 3 13 4 11 5 14 6 15 7 16 8 8 10 7 11 6 12 17 13
REMARK SMILES IDX 4 14 2 15 3 16 5 17 1 19
REMARK H PARENT 16 9 5 18 1 20
REMARK Flexibility Score: inf
ROOT
ATOM      1  C   UNL     1     125.187  55.467  -0.867  1.00  0.00     0.044 C 
ENDROOT
BRANCH   1   2
ATOM      2  C   UNL     1     125.857  56.121   0.318  1.00  0.00    -0.006 A 
ATOM      3  C   UNL     1     126.696  58.154   1.366  1.00  0.00     0.001 A 
ATOM      4  C   UNL     1     127.125  57.415   2.468  1.00  0.00     0.004 A 
ATOM      5  C   UNL     1     126.069  57.512   0.296  1.00  0.00     0.007 A 
ATOM      6  C   UNL     1     126.936  56.032   2.500  1.00  0.00     0.046 A 
ATOM      7  C   UNL     1     126.314  55.374   1.433  1.00  0.00     0.118 A 
BRANCH   7   8
ATOM      8  O   UNL     1     126.174  53.986   1.513  1.00  0.00    -0.508 OA
ATOM      9  H   UNL     1     125.473  53.464   1.004  1.00  0.00     0.293 HD
ENDBRANCH   7   8
ENDBRANCH   1   2
BRANCH   1  10
ATOM     10  C   UNL     1     126.231  54.949  -1.862  1.00  0.00     0.040 C 
BRANCH  10  11
ATOM     11  C   UNL     1     125.944  53.520  -2.234  1.00  0.00    -0.040 A 
ATOM     12  C   UNL     1     126.584  52.933  -3.337  1.00  0.00     0.050 A 
ATOM     13  C   UNL     1     125.079  52.743  -1.446  1.00  0.00     0.050 A 
ATOM     14  C   UNL     1     126.343  51.591  -3.664  1.00  0.00     0.119 A 
ATOM     15  C   UNL     1     124.837  51.401  -1.772  1.00  0.00     0.119 A 
ATOM     16  C   UNL     1     125.468  50.830  -2.881  1.00  0.00     0.092 A 
BRANCH  14  17
ATOM     17  O   UNL     1     126.969  51.005  -4.761  1.00  0.00    -0.508 OA
ATOM     18  H   UNL     1     126.868  51.386  -5.695  1.00  0.00     0.293 HD
ENDBRANCH  14  17
BRANCH  15  19
ATOM     19  O   UNL     1     123.974  50.627  -0.998  1.00  0.00    -0.508 OA
ATOM     20  H   UNL     1     123.715  49.687  -1.275  1.00  0.00     0.293 HD
ENDBRANCH  15  19
ENDBRANCH  10  11
ENDBRANCH   1  10
TORSDOF 6
ENDMDL
