MODEL 1
REMARK VINA RESULT:    -2.987      0.000      0.000
REMARK INTER + INTRA:          -5.400
REMARK INTER:                  -4.384
REMARK INTRA:                  -1.015
REMARK UNBOUND:                -1.015
REMARK SMILES CCCCCC(=O)CCCCC
REMARK SMILES IDX 6 1 7 2 5 3 4 4 3 5 2 6 1 7 8 8 9 9 10 10 11 11 12 12
REMARK H PARENT
REMARK Flexibility Score: inf
ROOT
ATOM      1  C   UNL     1     172.230 159.268 169.285  1.00  0.00     0.132 C 
ATOM      2  O   UNL     1     172.696 159.994 168.420  1.00  0.00    -0.300 OA
ENDROOT
BRANCH   1   3
ATOM      3  C   UNL     1     171.426 159.874 170.407  1.00  0.00     0.075 C 
BRANCH   3   4
ATOM      4  C   UNL     1     170.013 159.280 170.483  1.00  0.00     0.008 C 
BRANCH   4   5
ATOM      5  C   UNL     1     169.217 159.518 169.189  1.00  0.00     0.000 C 
BRANCH   5   6
ATOM      6  C   UNL     1     167.743 159.104 169.319  1.00  0.00    -0.003 C 
ATOM      7  C   UNL     1     167.561 157.796 170.090  1.00  0.00     0.004 C 
ENDBRANCH   5   6
ENDBRANCH   4   5
ENDBRANCH   3   4
ENDBRANCH   1   3
BRANCH   1   8
ATOM      8  C   UNL     1     172.471 157.783 169.214  1.00  0.00     0.075 C 
BRANCH   8   9
ATOM      9  C   UNL     1     172.869 157.368 167.792  1.00  0.00     0.008 C 
BRANCH   9  10
ATOM     10  C   UNL     1     171.790 156.527 167.087  1.00  0.00     0.000 C 
BRANCH  10  11
ATOM     11  C   UNL     1     170.497 156.322 167.896  1.00  0.00    -0.003 C 
ATOM     12  C   UNL     1     169.235 156.392 167.038  1.00  0.00     0.004 C 
ENDBRANCH  10  11
ENDBRANCH   9  10
ENDBRANCH   8   9
ENDBRANCH   1   8
TORSDOF 8
ENDMDL
MODEL 2
REMARK VINA RESULT:    -2.936      2.104      3.720
REMARK INTER + INTRA:          -5.325
REMARK INTER:                  -4.299
REMARK INTRA:                  -1.026
REMARK UNBOUND:                -1.015
REMARK SMILES CCCCCC(=O)CCCCC
REMARK SMILES IDX 6 1 7 2 5 3 4 4 3 5 2 6 1 7 8 8 9 9 10 10 11 11 12 12
REMARK H PARENT
REMARK Flexibility Score: inf
ROOT
ATOM      1  C   UNL     1     168.280 157.022 167.114  1.00  0.00     0.132 C 
ATOM      2  O   UNL     1     167.364 157.100 166.307  1.00  0.00    -0.300 OA
ENDROOT
BRANCH   1   3
ATOM      3  C   UNL     1     168.161 157.729 168.439  1.00  0.00     0.075 C 
BRANCH   3   4
ATOM      4  C   UNL     1     168.159 159.255 168.276  1.00  0.00     0.008 C 
BRANCH   4   5
ATOM      5  C   UNL     1     168.227 159.980 169.630  1.00  0.00     0.000 C 
BRANCH   5   6
ATOM      6  C   UNL     1     169.242 159.343 170.590  1.00  0.00    -0.003 C 
ATOM      7  C   UNL     1     170.156 160.374 171.255  1.00  0.00     0.004 C 
ENDBRANCH   5   6
ENDBRANCH   4   5
ENDBRANCH   3   4
ENDBRANCH   1   3
BRANCH   1   8
ATOM      8  C   UNL     1     169.507 156.222 166.765  1.00  0.00     0.075 C 
BRANCH   8   9
ATOM      9  C   UNL     1     170.491 156.201 167.941  1.00  0.00     0.008 C 
BRANCH   9  10
ATOM     10  C   UNL     1     171.762 157.028 167.675  1.00  0.00     0.000 C 
BRANCH  10  11
ATOM     11  C   UNL     1     172.205 157.926 168.844  1.00  0.00    -0.003 C 
ATOM     12  C   UNL     1     172.338 159.397 168.451  1.00  0.00     0.004 C 
ENDBRANCH  10  11
ENDBRANCH   9  10
ENDBRANCH   8   9
ENDBRANCH   1   8
TORSDOF 8
ENDMDL
MODEL 3
REMARK VINA RESULT:    -2.933     16.084     18.194
REMARK INTER + INTRA:          -5.320
REMARK INTER:                  -4.375
REMARK INTRA:                  -0.945
REMARK UNBOUND:                -1.015
REMARK SMILES CCCCCC(=O)CCCCC
REMARK SMILES IDX 6 1 7 2 5 3 4 4 3 5 2 6 1 7 8 8 9 9 10 10 11 11 12 12
REMARK H PARENT
REMARK Flexibility Score: inf
ROOT
ATOM      1  C   UNL     1     162.114 174.872 166.679  1.00  0.00     0.132 C 
ATOM      2  O   UNL     1     162.186 175.424 165.591  1.00  0.00    -0.300 OA
ENDROOT
BRANCH   1   3
ATOM      3  C   UNL     1     163.168 173.870 167.072  1.00  0.00     0.075 C 
BRANCH   3   4
ATOM      4  C   UNL     1     163.019 173.425 168.534  1.00  0.00     0.008 C 
BRANCH   4   5
ATOM      5  C   UNL     1     162.774 171.912 168.654  1.00  0.00     0.000 C 
BRANCH   5   6
ATOM      6  C   UNL     1     163.178 171.356 170.028  1.00  0.00    -0.003 C 
ATOM      7  C   UNL     1     161.974 170.982 170.893  1.00  0.00     0.004 C 
ENDBRANCH   5   6
ENDBRANCH   4   5
ENDBRANCH   3   4
ENDBRANCH   1   3
BRANCH   1   8
ATOM      8  C   UNL     1     160.972 175.205 167.603  1.00  0.00     0.075 C 
BRANCH   8   9
ATOM      9  C   UNL     1     159.629 175.063 166.876  1.00  0.00     0.008 C 
BRANCH   9  10
ATOM     10  C   UNL     1     158.720 173.987 167.496  1.00  0.00     0.000 C 
BRANCH  10  11
ATOM     11  C   UNL     1     159.294 173.298 168.748  1.00  0.00    -0.003 C 
ATOM     12  C   UNL     1     159.024 171.794 168.781  1.00  0.00     0.004 C 
ENDBRANCH  10  11
ENDBRANCH   9  10
ENDBRANCH   8   9
ENDBRANCH   1   8
TORSDOF 8
ENDMDL
MODEL 4
REMARK VINA RESULT:    -2.912     16.067     18.259
REMARK INTER + INTRA:          -5.290
REMARK INTER:                  -4.416
REMARK INTRA:                  -0.874
REMARK UNBOUND:                -1.015
REMARK SMILES CCCCCC(=O)CCCCC
REMARK SMILES IDX 6 1 7 2 5 3 4 4 3 5 2 6 1 7 8 8 9 9 10 10 11 11 12 12
REMARK H PARENT
REMARK Flexibility Score: inf
ROOT
ATOM      1  C   UNL     1     158.925 171.928 169.180  1.00  0.00     0.132 C 
ATOM      2  O   UNL     1     158.469 171.205 168.306  1.00  0.00    -0.300 OA
ENDROOT
BRANCH   1   3
ATOM      3  C   UNL     1     158.797 173.424 169.046  1.00  0.00     0.075 C 
BRANCH   3   4
ATOM      4  C   UNL     1     158.374 173.838 167.630  1.00  0.00     0.008 C 
BRANCH   4   5
ATOM      5  C   UNL     1     159.369 174.825 166.997  1.00  0.00     0.000 C 
BRANCH   5   6
ATOM      6  C   UNL     1     160.762 174.753 167.640  1.00  0.00    -0.003 C 
ATOM      7  C   UNL     1     161.891 174.974 166.632  1.00  0.00     0.004 C 
ENDBRANCH   5   6
ENDBRANCH   4   5
ENDBRANCH   3   4
ENDBRANCH   1   3
BRANCH   1   8
ATOM      8  C   UNL     1     159.608 171.309 170.371  1.00  0.00     0.075 C 
BRANCH   8   9
ATOM      9  C   UNL     1     161.035 171.850 170.519  1.00  0.00     0.008 C 
BRANCH   9  10
ATOM     10  C   UNL     1     161.903 171.606 169.271  1.00  0.00     0.000 C 
BRANCH  10  11
ATOM     11  C   UNL     1     163.393 171.954 169.441  1.00  0.00    -0.003 C 
ATOM     12  C   UNL     1     163.642 173.450 169.624  1.00  0.00     0.004 C 
ENDBRANCH  10  11
ENDBRANCH   9  10
ENDBRANCH   8   9
ENDBRANCH   1   8
TORSDOF 8
ENDMDL
MODEL 5
REMARK VINA RESULT:    -2.905     16.013     18.283
REMARK INTER + INTRA:          -5.279
REMARK INTER:                  -4.238
REMARK INTRA:                  -1.041
REMARK UNBOUND:                -1.015
REMARK SMILES CCCCCC(=O)CCCCC
REMARK SMILES IDX 6 1 7 2 5 3 4 4 3 5 2 6 1 7 8 8 9 9 10 10 11 11 12 12
REMARK H PARENT
REMARK Flexibility Score: inf
ROOT
ATOM      1  C   UNL     1     159.006 172.223 169.008  1.00  0.00     0.132 C 
ATOM      2  O   UNL     1     158.486 171.253 168.476  1.00  0.00    -0.300 OA
ENDROOT
BRANCH   1   3
ATOM      3  C   UNL     1     159.550 172.097 170.407  1.00  0.00     0.075 C 
BRANCH   3   4
ATOM      4  C   UNL     1     160.795 171.200 170.460  1.00  0.00     0.008 C 
BRANCH   4   5
ATOM      5  C   UNL     1     162.089 172.018 170.609  1.00  0.00     0.000 C 
BRANCH   5   6
ATOM      6  C   UNL     1     163.188 171.566 169.636  1.00  0.00    -0.003 C 
ATOM      7  C   UNL     1     162.991 172.118 168.224  1.00  0.00     0.004 C 
ENDBRANCH   5   6
ENDBRANCH   4   5
ENDBRANCH   3   4
ENDBRANCH   1   3
BRANCH   1   8
ATOM      8  C   UNL     1     159.091 173.523 168.253  1.00  0.00     0.075 C 
BRANCH   8   9
ATOM      9  C   UNL     1     159.844 174.577 169.074  1.00  0.00     0.008 C 
BRANCH   9  10
ATOM     10  C   UNL     1     160.963 175.273 168.278  1.00  0.00     0.000 C 
BRANCH  10  11
ATOM     11  C   UNL     1     160.940 175.008 166.762  1.00  0.00    -0.003 C 
ATOM     12  C   UNL     1     162.314 175.152 166.108  1.00  0.00     0.004 C 
ENDBRANCH  10  11
ENDBRANCH   9  10
ENDBRANCH   8   9
ENDBRANCH   1   8
TORSDOF 8
ENDMDL
MODEL 6
REMARK VINA RESULT:    -2.887      1.130      3.680
REMARK INTER + INTRA:          -5.253
REMARK INTER:                  -4.188
REMARK INTRA:                  -1.065
REMARK UNBOUND:                -1.015
REMARK SMILES CCCCCC(=O)CCCCC
REMARK SMILES IDX 6 1 7 2 5 3 4 4 3 5 2 6 1 7 8 8 9 9 10 10 11 11 12 12
REMARK H PARENT
REMARK Flexibility Score: inf
ROOT
ATOM      1  C   UNL     1     172.306 159.585 169.879  1.00  0.00     0.132 C 
ATOM      2  O   UNL     1     173.360 159.366 170.460  1.00  0.00    -0.300 OA
ENDROOT
BRANCH   1   3
ATOM      3  C   UNL     1     172.221 159.366 168.391  1.00  0.00     0.075 C 
BRANCH   3   4
ATOM      4  C   UNL     1     172.681 157.957 167.992  1.00  0.00     0.008 C 
BRANCH   4   5
ATOM      5  C   UNL     1     171.591 156.902 168.242  1.00  0.00     0.000 C 
BRANCH   5   6
ATOM      6  C   UNL     1     171.079 156.263 166.943  1.00  0.00    -0.003 C 
ATOM      7  C   UNL     1     169.553 156.186 166.882  1.00  0.00     0.004 C 
ENDBRANCH   5   6
ENDBRANCH   4   5
ENDBRANCH   3   4
ENDBRANCH   1   3
BRANCH   1   8
ATOM      8  C   UNL     1     171.116 160.069 170.665  1.00  0.00     0.075 C 
BRANCH   8   9
ATOM      9  C   UNL     1     170.353 158.887 171.275  1.00  0.00     0.008 C 
BRANCH   9  10
ATOM     10  C   UNL     1     169.102 158.497 170.466  1.00  0.00     0.000 C 
BRANCH  10  11
ATOM     11  C   UNL     1     168.458 159.650 169.675  1.00  0.00    -0.003 C 
ATOM     12  C   UNL     1     168.055 159.251 168.256  1.00  0.00     0.004 C 
ENDBRANCH  10  11
ENDBRANCH   9  10
ENDBRANCH   8   9
ENDBRANCH   1   8
TORSDOF 8
ENDMDL
MODEL 7
REMARK VINA RESULT:    -2.887     15.656     17.581
REMARK INTER + INTRA:          -5.253
REMARK INTER:                  -4.261
REMARK INTRA:                  -0.991
REMARK UNBOUND:                -1.015
REMARK SMILES CCCCCC(=O)CCCCC
REMARK SMILES IDX 6 1 7 2 5 3 4 4 3 5 2 6 1 7 8 8 9 9 10 10 11 11 12 12
REMARK H PARENT
REMARK Flexibility Score: inf
ROOT
ATOM      1  C   UNL     1     163.038 174.235 166.927  1.00  0.00     0.132 C 
ATOM      2  O   UNL     1     163.905 174.182 166.067  1.00  0.00    -0.300 OA
ENDROOT
BRANCH   1   3
ATOM      3  C   UNL     1     161.758 174.978 166.645  1.00  0.00     0.075 C 
BRANCH   3   4
ATOM      4  C   UNL     1     160.822 174.991 167.861  1.00  0.00     0.008 C 
BRANCH   4   5
ATOM      5  C   UNL     1     159.500 174.256 167.581  1.00  0.00     0.000 C 
BRANCH   5   6
ATOM      6  C   UNL     1     159.024 173.421 168.779  1.00  0.00    -0.003 C 
ATOM      7  C   UNL     1     158.826 171.945 168.429  1.00  0.00     0.004 C 
ENDBRANCH   5   6
ENDBRANCH   4   5
ENDBRANCH   3   4
ENDBRANCH   1   3
BRANCH   1   8
ATOM      8  C   UNL     1     163.268 173.557 168.252  1.00  0.00     0.075 C 
BRANCH   8   9
ATOM      9  C   UNL     1     163.035 172.045 168.134  1.00  0.00     0.008 C 
BRANCH   9  10
ATOM     10  C   UNL     1     162.999 171.334 169.499  1.00  0.00     0.000 C 
BRANCH  10  11
ATOM     11  C   UNL     1     161.973 171.900 170.497  1.00  0.00    -0.003 C 
ATOM     12  C   UNL     1     161.098 170.820 171.133  1.00  0.00     0.004 C 
ENDBRANCH  10  11
ENDBRANCH   9  10
ENDBRANCH   8   9
ENDBRANCH   1   8
TORSDOF 8
ENDMDL
MODEL 8
REMARK VINA RESULT:    -2.849     16.036     18.013
REMARK INTER + INTRA:          -5.197
REMARK INTER:                  -4.006
REMARK INTRA:                  -1.191
REMARK UNBOUND:                -1.015
REMARK SMILES CCCCCC(=O)CCCCC
REMARK SMILES IDX 6 1 7 2 5 3 4 4 3 5 2 6 1 7 8 8 9 9 10 10 11 11 12 12
REMARK H PARENT
REMARK Flexibility Score: inf
ROOT
ATOM      1  C   UNL     1     162.994 173.528 168.741  1.00  0.00     0.132 C 
ATOM      2  O   UNL     1     163.856 173.924 169.511  1.00  0.00    -0.300 OA
ENDROOT
BRANCH   1   3
ATOM      3  C   UNL     1     162.087 174.526 168.066  1.00  0.00     0.075 C 
BRANCH   3   4
ATOM      4  C   UNL     1     161.266 175.331 169.082  1.00  0.00     0.008 C 
BRANCH   4   5
ATOM      5  C   UNL     1     159.778 175.398 168.698  1.00  0.00     0.000 C 
BRANCH   5   6
ATOM      6  C   UNL     1     159.457 174.580 167.438  1.00  0.00    -0.003 C 
ATOM      7  C   UNL     1     157.968 174.260 167.304  1.00  0.00     0.004 C 
ENDBRANCH   5   6
ENDBRANCH   4   5
ENDBRANCH   3   4
ENDBRANCH   1   3
BRANCH   1   8
ATOM      8  C   UNL     1     162.854 172.051 168.483  1.00  0.00     0.075 C 
BRANCH   8   9
ATOM      9  C   UNL     1     162.547 171.301 169.785  1.00  0.00     0.008 C 
BRANCH   9  10
ATOM     10  C   UNL     1     161.204 171.714 170.414  1.00  0.00     0.000 C 
BRANCH  10  11
ATOM     11  C   UNL     1     159.981 171.554 169.492  1.00  0.00    -0.003 C 
ATOM     12  C   UNL     1     158.669 171.958 170.162  1.00  0.00     0.004 C 
ENDBRANCH  10  11
ENDBRANCH   9  10
ENDBRANCH   8   9
ENDBRANCH   1   8
TORSDOF 8
ENDMDL
MODEL 9
REMARK VINA RESULT:    -2.813     16.243     18.429
REMARK INTER + INTRA:          -5.144
REMARK INTER:                  -4.069
REMARK INTRA:                  -1.075
REMARK UNBOUND:                -1.015
REMARK SMILES CCCCCC(=O)CCCCC
REMARK SMILES IDX 6 1 7 2 5 3 4 4 3 5 2 6 1 7 8 8 9 9 10 10 11 11 12 12
REMARK H PARENT
REMARK Flexibility Score: inf
ROOT
ATOM      1  C   UNL     1     160.754 175.052 166.828  1.00  0.00     0.132 C 
ATOM      2  O   UNL     1     161.014 175.490 165.716  1.00  0.00    -0.300 OA
ENDROOT
BRANCH   1   3
ATOM      3  C   UNL     1     161.875 174.767 167.793  1.00  0.00     0.075 C 
BRANCH   3   4
ATOM      4  C   UNL     1     163.017 173.985 167.129  1.00  0.00     0.008 C 
BRANCH   4   5
ATOM      5  C   UNL     1     163.259 172.627 167.809  1.00  0.00     0.000 C 
BRANCH   5   6
ATOM      6  C   UNL     1     162.608 172.538 169.197  1.00  0.00    -0.003 C 
ATOM      7  C   UNL     1     162.693 171.136 169.802  1.00  0.00     0.004 C 
ENDBRANCH   5   6
ENDBRANCH   4   5
ENDBRANCH   3   4
ENDBRANCH   1   3
BRANCH   1   8
ATOM      8  C   UNL     1     159.318 174.807 167.208  1.00  0.00     0.075 C 
BRANCH   8   9
ATOM      9  C   UNL     1     159.233 173.984 168.500  1.00  0.00     0.008 C 
BRANCH   9  10
ATOM     10  C   UNL     1     158.839 172.517 168.254  1.00  0.00     0.000 C 
BRANCH  10  11
ATOM     11  C   UNL     1     159.015 171.587 169.468  1.00  0.00    -0.003 C 
ATOM     12  C   UNL     1     159.197 172.346 170.782  1.00  0.00     0.004 C 
ENDBRANCH  10  11
ENDBRANCH   9  10
ENDBRANCH   8   9
ENDBRANCH   1   8
TORSDOF 8
ENDMDL
