MODEL 1
REMARK VINA RESULT:    -4.627      0.000      0.000
REMARK INTER + INTRA:          -5.776
REMARK INTER:                  -5.708
REMARK INTRA:                  -0.068
REMARK UNBOUND:                -0.068
REMARK SMILES CCCCCC(=O)[O-]
REMARK SMILES IDX 4 1 5 2 6 3 7 4 8 5 3 6 2 7 1 8
REMARK H PARENT
REMARK Flexibility Score: inf
ROOT
ATOM      1  C   UNL     1      19.186  25.142   1.290  1.00  0.00     0.006 C 
ENDROOT
BRANCH   1   2
ATOM      2  C   UNL     1      18.568  26.216   0.391  1.00  0.00     0.053 C 
BRANCH   2   3
ATOM      3  C   UNL     1      18.322  25.673  -0.982  1.00  0.00     0.041 C 
ATOM      4  O   UNL     1      19.237  25.067  -1.598  1.00  0.00    -0.550 OA
ATOM      5  O   UNL     1      17.095  25.881  -1.601  1.00  0.00    -0.550 OA
ENDBRANCH   2   3
ENDBRANCH   1   2
BRANCH   1   6
ATOM      6  C   UNL     1      19.230  25.606   2.751  1.00  0.00     0.000 C 
BRANCH   6   7
ATOM      7  C   UNL     1      19.723  24.484   3.670  1.00  0.00    -0.003 C 
ATOM      8  C   UNL     1      21.136  24.044   3.296  1.00  0.00     0.004 C 
ENDBRANCH   6   7
ENDBRANCH   1   6
TORSDOF 4
ENDMDL
MODEL 2
REMARK VINA RESULT:    -4.604      2.672      4.636
REMARK INTER + INTRA:          -5.748
REMARK INTER:                  -5.632
REMARK INTRA:                  -0.116
REMARK UNBOUND:                -0.068
REMARK SMILES CCCCCC(=O)[O-]
REMARK SMILES IDX 4 1 5 2 6 3 7 4 8 5 3 6 2 7 1 8
REMARK H PARENT
REMARK Flexibility Score: inf
ROOT
ATOM      1  C   UNL     1      18.835  26.482   0.643  1.00  0.00     0.006 C 
ENDROOT
BRANCH   1   2
ATOM      2  C   UNL     1      18.925  25.013   1.064  1.00  0.00     0.053 C 
BRANCH   2   3
ATOM      3  C   UNL     1      19.610  24.887   2.389  1.00  0.00     0.041 C 
ATOM      4  O   UNL     1      19.209  25.557   3.375  1.00  0.00    -0.550 OA
ATOM      5  O   UNL     1      20.723  24.067   2.520  1.00  0.00    -0.550 OA
ENDBRANCH   2   3
ENDBRANCH   1   2
BRANCH   1   6
ATOM      6  C   UNL     1      17.773  26.679  -0.445  1.00  0.00     0.000 C 
BRANCH   6   7
ATOM      7  C   UNL     1      17.513  25.373  -1.203  1.00  0.00    -0.003 C 
ATOM      8  C   UNL     1      16.093  25.330  -1.758  1.00  0.00     0.004 C 
ENDBRANCH   6   7
ENDBRANCH   1   6
TORSDOF 4
ENDMDL
MODEL 3
REMARK VINA RESULT:    -4.518      1.857      2.868
REMARK INTER + INTRA:          -5.642
REMARK INTER:                  -5.528
REMARK INTRA:                  -0.114
REMARK UNBOUND:                -0.068
REMARK SMILES CCCCCC(=O)[O-]
REMARK SMILES IDX 4 1 5 2 6 3 7 4 8 5 3 6 2 7 1 8
REMARK H PARENT
REMARK Flexibility Score: inf
ROOT
ATOM      1  C   UNL     1      17.502  26.541  -0.744  1.00  0.00     0.006 C 
ENDROOT
BRANCH   1   2
ATOM      2  C   UNL     1      16.951  25.123  -0.914  1.00  0.00     0.053 C 
BRANCH   2   3
ATOM      3  C   UNL     1      15.764  25.128  -1.825  1.00  0.00     0.041 C 
ATOM      4  O   UNL     1      15.819  25.719  -2.935  1.00  0.00    -0.550 OA
ATOM      5  O   UNL     1      14.580  24.521  -1.426  1.00  0.00    -0.550 OA
ENDBRANCH   2   3
ENDBRANCH   1   2
BRANCH   1   6
ATOM      6  C   UNL     1      18.534  26.599   0.389  1.00  0.00     0.000 C 
BRANCH   6   7
ATOM      7  C   UNL     1      18.963  25.190   0.814  1.00  0.00    -0.003 C 
ATOM      8  C   UNL     1      19.347  25.152   2.290  1.00  0.00     0.004 C 
ENDBRANCH   6   7
ENDBRANCH   1   6
TORSDOF 4
ENDMDL
MODEL 4
REMARK VINA RESULT:    -4.510     11.001     12.285
REMARK INTER + INTRA:          -5.633
REMARK INTER:                  -5.563
REMARK INTRA:                  -0.069
REMARK UNBOUND:                -0.068
REMARK SMILES CCCCCC(=O)[O-]
REMARK SMILES IDX 4 1 5 2 6 3 7 4 8 5 3 6 2 7 1 8
REMARK H PARENT
REMARK Flexibility Score: inf
ROOT
ATOM      1  C   UNL     1      17.324  24.464  11.599  1.00  0.00     0.006 C 
ENDROOT
BRANCH   1   2
ATOM      2  C   UNL     1      16.928  23.555  12.765  1.00  0.00     0.053 C 
BRANCH   2   3
ATOM      3  C   UNL     1      16.551  24.371  13.962  1.00  0.00     0.041 C 
ATOM      4  O   UNL     1      15.948  25.466  13.818  1.00  0.00    -0.550 OA
ATOM      5  O   UNL     1      16.911  23.945  15.234  1.00  0.00    -0.550 OA
ENDBRANCH   2   3
ENDBRANCH   1   2
BRANCH   1   6
ATOM      6  C   UNL     1      18.397  23.803  10.726  1.00  0.00     0.000 C 
BRANCH   6   7
ATOM      7  C   UNL     1      19.546  24.774  10.436  1.00  0.00    -0.003 C 
ATOM      8  C   UNL     1      20.892  24.171  10.829  1.00  0.00     0.004 C 
ENDBRANCH   6   7
ENDBRANCH   1   6
TORSDOF 4
ENDMDL
MODEL 5
REMARK VINA RESULT:    -4.437      2.941      4.651
REMARK INTER + INTRA:          -5.542
REMARK INTER:                  -5.455
REMARK INTRA:                  -0.087
REMARK UNBOUND:                -0.068
REMARK SMILES CCCCCC(=O)[O-]
REMARK SMILES IDX 4 1 5 2 6 3 7 4 8 5 3 6 2 7 1 8
REMARK H PARENT
REMARK Flexibility Score: inf
ROOT
ATOM      1  C   UNL     1      18.794  26.054   1.167  1.00  0.00     0.006 C 
ENDROOT
BRANCH   1   2
ATOM      2  C   UNL     1      19.323  24.694   1.631  1.00  0.00     0.053 C 
BRANCH   2   3
ATOM      3  C   UNL     1      19.833  24.781   3.035  1.00  0.00     0.041 C 
ATOM      4  O   UNL     1      20.901  24.199   3.359  1.00  0.00    -0.550 OA
ATOM      5  O   UNL     1      19.101  25.464   3.999  1.00  0.00    -0.550 OA
ENDBRANCH   2   3
ENDBRANCH   1   2
BRANCH   1   6
ATOM      6  C   UNL     1      18.673  26.105  -0.360  1.00  0.00     0.000 C 
BRANCH   6   7
ATOM      7  C   UNL     1      17.237  26.426  -0.789  1.00  0.00    -0.003 C 
ATOM      8  C   UNL     1      16.577  25.221  -1.452  1.00  0.00     0.004 C 
ENDBRANCH   6   7
ENDBRANCH   1   6
TORSDOF 4
ENDMDL
MODEL 6
REMARK VINA RESULT:    -4.418      2.445      4.532
REMARK INTER + INTRA:          -5.519
REMARK INTER:                  -5.384
REMARK INTRA:                  -0.135
REMARK UNBOUND:                -0.068
REMARK SMILES CCCCCC(=O)[O-]
REMARK SMILES IDX 4 1 5 2 6 3 7 4 8 5 3 6 2 7 1 8
REMARK H PARENT
REMARK Flexibility Score: inf
ROOT
ATOM      1  C   UNL     1      18.469  26.334  -0.668  1.00  0.00     0.006 C 
ENDROOT
BRANCH   1   2
ATOM      2  C   UNL     1      18.786  26.718   0.780  1.00  0.00     0.053 C 
BRANCH   2   3
ATOM      3  C   UNL     1      19.194  25.512   1.566  1.00  0.00     0.041 C 
ATOM      4  O   UNL     1      19.451  24.430   0.978  1.00  0.00    -0.550 OA
ATOM      5  O   UNL     1      19.240  25.570   2.953  1.00  0.00    -0.550 OA
ENDBRANCH   2   3
ENDBRANCH   1   2
BRANCH   1   6
ATOM      6  C   UNL     1      16.958  26.362  -0.926  1.00  0.00     0.000 C 
BRANCH   6   7
ATOM      7  C   UNL     1      16.419  24.953  -1.196  1.00  0.00    -0.003 C 
ATOM      8  C   UNL     1      15.013  25.003  -1.788  1.00  0.00     0.004 C 
ENDBRANCH   6   7
ENDBRANCH   1   6
TORSDOF 4
ENDMDL
MODEL 7
REMARK VINA RESULT:    -3.926      9.924     11.270
REMARK INTER + INTRA:          -4.912
REMARK INTER:                  -4.831
REMARK INTRA:                  -0.081
REMARK UNBOUND:                -0.068
REMARK SMILES CCCCCC(=O)[O-]
REMARK SMILES IDX 4 1 5 2 6 3 7 4 8 5 3 6 2 7 1 8
REMARK H PARENT
REMARK Flexibility Score: inf
ROOT
ATOM      1  C   UNL     1      17.390  24.244  11.367  1.00  0.00     0.006 C 
ENDROOT
BRANCH   1   2
ATOM      2  C   UNL     1      18.510  23.627  10.524  1.00  0.00     0.053 C 
BRANCH   2   3
ATOM      3  C   UNL     1      19.731  24.490  10.562  1.00  0.00     0.041 C 
ATOM      4  O   UNL     1      19.642  25.725  10.333  1.00  0.00    -0.550 OA
ATOM      5  O   UNL     1      20.977  23.922  10.799  1.00  0.00    -0.550 OA
ENDBRANCH   2   3
ENDBRANCH   1   2
BRANCH   1   6
ATOM      6  C   UNL     1      16.631  23.165  12.148  1.00  0.00     0.000 C 
BRANCH   6   7
ATOM      7  C   UNL     1      16.701  23.425  13.656  1.00  0.00    -0.003 C 
ATOM      8  C   UNL     1      16.344  24.872  13.984  1.00  0.00     0.004 C 
ENDBRANCH   6   7
ENDBRANCH   1   6
TORSDOF 4
ENDMDL
MODEL 8
REMARK VINA RESULT:    -3.506     10.154     11.067
REMARK INTER + INTRA:          -4.394
REMARK INTER:                  -4.552
REMARK INTRA:                   0.158
REMARK UNBOUND:                -0.068
REMARK SMILES CCCCCC(=O)[O-]
REMARK SMILES IDX 4 1 5 2 6 3 7 4 8 5 3 6 2 7 1 8
REMARK H PARENT
REMARK Flexibility Score: inf
ROOT
ATOM      1  C   UNL     1      17.566  24.509  11.518  1.00  0.00     0.006 C 
ENDROOT
BRANCH   1   2
ATOM      2  C   UNL     1      17.073  23.389  12.438  1.00  0.00     0.053 C 
BRANCH   2   3
ATOM      3  C   UNL     1      16.109  22.502  11.715  1.00  0.00     0.041 C 
ATOM      4  O   UNL     1      16.511  21.744  10.795  1.00  0.00    -0.550 OA
ATOM      5  O   UNL     1      14.755  22.551  12.024  1.00  0.00    -0.550 OA
ENDBRANCH   2   3
ENDBRANCH   1   2
BRANCH   1   6
ATOM      6  C   UNL     1      18.586  23.980  10.503  1.00  0.00     0.000 C 
BRANCH   6   7
ATOM      7  C   UNL     1      19.822  24.884  10.443  1.00  0.00    -0.003 C 
ATOM      8  C   UNL     1      21.079  24.130  10.865  1.00  0.00     0.004 C 
ENDBRANCH   6   7
ENDBRANCH   1   6
TORSDOF 4
ENDMDL
MODEL 9
REMARK VINA RESULT:    -2.983     15.156     16.120
REMARK INTER + INTRA:          -3.748
REMARK INTER:                  -3.526
REMARK INTRA:                  -0.222
REMARK UNBOUND:                -0.068
REMARK SMILES CCCCCC(=O)[O-]
REMARK SMILES IDX 4 1 5 2 6 3 7 4 8 5 3 6 2 7 1 8
REMARK H PARENT
REMARK Flexibility Score: inf
ROOT
ATOM      1  C   UNL     1      22.740  32.761  14.146  1.00  0.00     0.006 C 
ENDROOT
BRANCH   1   2
ATOM      2  C   UNL     1      23.340  32.844  12.740  1.00  0.00     0.053 C 
BRANCH   2   3
ATOM      3  C   UNL     1      24.799  33.173  12.811  1.00  0.00     0.041 C 
ATOM      4  O   UNL     1      25.590  32.735  11.936  1.00  0.00    -0.550 OA
ATOM      5  O   UNL     1      25.291  33.920  13.873  1.00  0.00    -0.550 OA
ENDBRANCH   2   3
ENDBRANCH   1   2
BRANCH   1   6
ATOM      6  C   UNL     1      21.439  33.568  14.238  1.00  0.00     0.000 C 
BRANCH   6   7
ATOM      7  C   UNL     1      21.608  34.957  13.615  1.00  0.00    -0.003 C 
ATOM      8  C   UNL     1      22.328  35.906  14.569  1.00  0.00     0.004 C 
ENDBRANCH   6   7
ENDBRANCH   1   6
TORSDOF 4
ENDMDL
