MODEL 1
REMARK VINA RESULT:    -4.394      0.000      0.000
REMARK INTER + INTRA:          -5.153
REMARK INTER:                  -5.422
REMARK INTRA:                   0.269
REMARK UNBOUND:                 0.269
REMARK SMILES C=C1[C@@H]2CC[C@H]3[C@H]2C(C)(C)CCC[C@@]13C
REMARK SMILES IDX 14 1 6 2 7 3 3 4 2 5 1 6 4 7 5 8 15 9 8 10 9 11 10 12 11 13
REMARK SMILES IDX 13 15 12 16
REMARK H PARENT
REMARK Flexibility Score: 80.00
ROOT
ATOM      1  C   UNL     1       6.273   6.572  12.878  1.00  0.00    -0.008 C 
ATOM      2  C   UNL     1       6.685   6.584  14.348  1.00  0.00     0.003 C 
ATOM      3  C   UNL     1       6.385   8.065  14.634  1.00  0.00     0.006 C 
ATOM      4  C   UNL     1       7.494   8.576  13.727  1.00  0.00     0.019 C 
ATOM      5  C   UNL     1       7.057   7.826  12.445  1.00  0.00    -0.068 C 
ATOM      6  C   UNL     1       7.260   8.246  11.193  1.00  0.00     0.009 C 
ATOM      7  C   UNL     1       8.736   7.875  14.252  1.00  0.00     0.008 C 
ATOM      8  C   UNL     1       8.209   6.488  14.617  1.00  0.00     0.005 C 
ATOM      9  C   UNL     1       6.726   5.301  12.132  1.00  0.00     0.016 C 
ENDROOT
BRANCH   3  10
ATOM     10  C   UNL     1       5.423   8.234  15.829  1.00  0.00    -0.032 C 
ATOM     11  C   UNL     1       5.876   7.446  17.081  1.00  0.00     0.011 C 
ATOM     12  C   UNL     1       5.357   9.729  16.229  1.00  0.00     0.011 C 
BRANCH  10  13
ATOM     13  C   UNL     1       3.983   7.735  15.330  1.00  0.00     0.007 CG0
ATOM     14  G   UNL     1       3.884   6.609  14.206  1.00  0.00     0.000 G0
ENDBRANCH  10  13
ENDBRANCH   3  10
BRANCH   1  15
ATOM     15  C   UNL     1       4.681   6.749  12.832  1.00  0.00     0.011 C 
BRANCH  15  16
ATOM     16  C   UNL     1       3.880   6.612  14.207  1.00  0.00     0.001 CG0
ATOM     17  G   UNL     1       3.986   7.737  15.331  1.00  0.00     0.000 G0
ENDBRANCH  15  16
ENDBRANCH   1  15
TORSDOF 0
ENDMDL
MODEL 2
REMARK VINA RESULT:    -4.310     11.499     13.415
REMARK INTER + INTRA:          -5.049
REMARK INTER:                  -5.317
REMARK INTRA:                   0.268
REMARK UNBOUND:                 0.269
REMARK SMILES C=C1[C@@H]2CC[C@H]3[C@H]2C(C)(C)CCC[C@@]13C
REMARK SMILES IDX 14 1 6 2 7 3 3 4 2 5 1 6 4 7 5 8 15 9 8 10 9 11 10 12 11 13
REMARK SMILES IDX 13 15 12 16
REMARK H PARENT
REMARK Flexibility Score: 80.00
ROOT
ATOM      1  C   UNL     1      15.088   7.958  25.504  1.00  0.00    -0.008 C 
ATOM      2  C   UNL     1      14.003   8.917  25.023  1.00  0.00     0.003 C 
ATOM      3  C   UNL     1      13.378   8.003  23.956  1.00  0.00     0.006 C 
ATOM      4  C   UNL     1      14.604   8.032  23.057  1.00  0.00     0.019 C 
ATOM      5  C   UNL     1      15.632   7.566  24.117  1.00  0.00    -0.068 C 
ATOM      6  C   UNL     1      16.747   6.876  23.864  1.00  0.00     0.009 C 
ATOM      7  C   UNL     1      14.842   9.516  22.827  1.00  0.00     0.008 C 
ATOM      8  C   UNL     1      14.499  10.125  24.186  1.00  0.00     0.005 C 
ATOM      9  C   UNL     1      16.151   8.640  26.388  1.00  0.00     0.016 C 
ENDROOT
BRANCH   3  10
ATOM     10  C   UNL     1      11.861   7.818  24.177  1.00  0.00    -0.032 C 
ATOM     11  C   UNL     1      11.111   9.161  24.348  1.00  0.00     0.011 C 
ATOM     12  C   UNL     1      11.245   7.103  22.949  1.00  0.00     0.011 C 
BRANCH  10  13
ATOM     13  C   UNL     1      11.698   6.903  25.484  1.00  0.00     0.007 CG0
ATOM     14  G   UNL     1      12.809   6.954  26.626  1.00  0.00     0.000 G0
ENDBRANCH  10  13
ENDBRANCH   3  10
BRANCH   1  15
ATOM     15  C   UNL     1      14.353   6.763  26.279  1.00  0.00     0.011 C 
BRANCH  15  16
ATOM     16  C   UNL     1      12.806   6.949  26.631  1.00  0.00     0.001 CG0
ATOM     17  G   UNL     1      11.697   6.909  25.488  1.00  0.00     0.000 G0
ENDBRANCH  15  16
ENDBRANCH   1  15
TORSDOF 0
ENDMDL
MODEL 3
REMARK VINA RESULT:    -4.256      1.366      3.933
REMARK INTER + INTRA:          -4.983
REMARK INTER:                  -5.252
REMARK INTRA:                   0.269
REMARK UNBOUND:                 0.269
REMARK SMILES C=C1[C@@H]2CC[C@H]3[C@H]2C(C)(C)CCC[C@@]13C
REMARK SMILES IDX 14 1 6 2 7 3 3 4 2 5 1 6 4 7 5 8 15 9 8 10 9 11 10 12 11 13
REMARK SMILES IDX 13 15 12 16
REMARK H PARENT
REMARK Flexibility Score: 80.00
ROOT
ATOM      1  C   UNL     1       4.239   7.563  14.984  1.00  0.00    -0.008 C 
ATOM      2  C   UNL     1       5.620   8.158  14.719  1.00  0.00     0.003 C 
ATOM      3  C   UNL     1       6.434   6.862  14.861  1.00  0.00     0.006 C 
ATOM      4  C   UNL     1       6.151   6.719  16.348  1.00  0.00     0.019 C 
ATOM      5  C   UNL     1       4.607   6.777  16.257  1.00  0.00    -0.068 C 
ATOM      6  C   UNL     1       3.757   6.179  17.097  1.00  0.00     0.009 C 
ATOM      7  C   UNL     1       6.614   8.046  16.929  1.00  0.00     0.008 C 
ATOM      8  C   UNL     1       6.195   9.047  15.852  1.00  0.00     0.005 C 
ATOM      9  C   UNL     1       3.157   8.631  15.235  1.00  0.00     0.016 C 
ENDROOT
BRANCH   3  10
ATOM     10  C   UNL     1       7.299   6.589  13.612  1.00  0.00    -0.032 C 
ATOM     11  C   UNL     1       8.158   7.808  13.198  1.00  0.00     0.011 C 
ATOM     12  C   UNL     1       8.275   5.422  13.906  1.00  0.00     0.011 C 
BRANCH  10  13
ATOM     13  C   UNL     1       6.288   6.177  12.437  1.00  0.00     0.007 CG0
ATOM     14  G   UNL     1       4.801   6.751  12.439  1.00  0.00     0.000 G0
ENDBRANCH  10  13
ENDBRANCH   3  10
BRANCH   1  15
ATOM     15  C   UNL     1       3.875   6.637  13.727  1.00  0.00     0.011 C 
BRANCH  15  16
ATOM     16  C   UNL     1       4.804   6.745  12.433  1.00  0.00     0.001 CG0
ATOM     17  G   UNL     1       6.292   6.175  12.444  1.00  0.00     0.000 G0
ENDBRANCH  15  16
ENDBRANCH   1  15
TORSDOF 0
ENDMDL
MODEL 4
REMARK VINA RESULT:    -4.231     12.389     14.221
REMARK INTER + INTRA:          -4.952
REMARK INTER:                  -5.222
REMARK INTRA:                   0.270
REMARK UNBOUND:                 0.269
REMARK SMILES C=C1[C@@H]2CC[C@H]3[C@H]2C(C)(C)CCC[C@@]13C
REMARK SMILES IDX 14 1 6 2 7 3 3 4 2 5 1 6 4 7 5 8 15 9 8 10 9 11 10 12 11 13
REMARK SMILES IDX 13 15 12 16
REMARK H PARENT
REMARK Flexibility Score: 80.00
ROOT
ATOM      1  C   UNL     1      13.034   7.943  24.699  1.00  0.00    -0.008 C 
ATOM      2  C   UNL     1      14.443   7.876  24.115  1.00  0.00     0.003 C 
ATOM      3  C   UNL     1      15.051   9.044  24.909  1.00  0.00     0.006 C 
ATOM      4  C   UNL     1      14.198  10.097  24.221  1.00  0.00     0.019 C 
ATOM      5  C   UNL     1      12.821   9.458  24.521  1.00  0.00    -0.068 C 
ATOM      6  C   UNL     1      11.673  10.125  24.676  1.00  0.00     0.009 C 
ATOM      7  C   UNL     1      14.480   9.876  22.744  1.00  0.00     0.008 C 
ATOM      8  C   UNL     1      14.583   8.354  22.647  1.00  0.00     0.005 C 
ATOM      9  C   UNL     1      12.011   7.101  23.911  1.00  0.00     0.016 C 
ENDROOT
BRANCH   3  10
ATOM     10  C   UNL     1      16.317   8.614  25.681  1.00  0.00    -0.032 C 
ATOM     11  C   UNL     1      17.339   7.868  24.788  1.00  0.00     0.011 C 
ATOM     12  C   UNL     1      17.030   9.870  26.240  1.00  0.00     0.011 C 
BRANCH  10  13
ATOM     13  C   UNL     1      15.823   7.679  26.886  1.00  0.00     0.007 CG0
ATOM     14  G   UNL     1      14.504   6.801  26.713  1.00  0.00     0.000 G0
ENDBRANCH  10  13
ENDBRANCH   3  10
BRANCH   1  15
ATOM     15  C   UNL     1      13.134   7.472  26.228  1.00  0.00     0.011 C 
BRANCH  15  16
ATOM     16  C   UNL     1      14.502   6.804  26.710  1.00  0.00     0.001 CG0
ATOM     17  G   UNL     1      15.824   7.676  26.877  1.00  0.00     0.000 G0
ENDBRANCH  15  16
ENDBRANCH   1  15
TORSDOF 0
ENDMDL
MODEL 5
REMARK VINA RESULT:    -4.117     12.957     15.476
REMARK INTER + INTRA:          -4.811
REMARK INTER:                  -5.082
REMARK INTRA:                   0.270
REMARK UNBOUND:                 0.269
REMARK SMILES C=C1[C@@H]2CC[C@H]3[C@H]2C(C)(C)CCC[C@@]13C
REMARK SMILES IDX 14 1 6 2 7 3 3 4 2 5 1 6 4 7 5 8 15 9 8 10 9 11 10 12 11 13
REMARK SMILES IDX 13 15 12 16
REMARK H PARENT
REMARK Flexibility Score: 80.00
ROOT
ATOM      1  C   UNL     1      10.880   5.087  29.254  1.00  0.00    -0.008 C 
ATOM      2  C   UNL     1      10.580   5.251  27.766  1.00  0.00     0.003 C 
ATOM      3  C   UNL     1      10.897   6.751  27.655  1.00  0.00     0.006 C 
ATOM      4  C   UNL     1       9.722   7.174  28.524  1.00  0.00     0.019 C 
ATOM      5  C   UNL     1      10.064   6.295  29.752  1.00  0.00    -0.068 C 
ATOM      6  C   UNL     1       9.767   6.588  31.021  1.00  0.00     0.009 C 
ATOM      7  C   UNL     1       8.524   6.537  27.839  1.00  0.00     0.008 C 
ATOM      8  C   UNL     1       9.081   5.191  27.375  1.00  0.00     0.005 C 
ATOM      9  C   UNL     1      10.376   3.750  29.831  1.00  0.00     0.016 C 
ENDROOT
BRANCH   3  10
ATOM     10  C   UNL     1      11.946   7.036  26.559  1.00  0.00    -0.032 C 
ATOM     11  C   UNL     1      11.592   6.375  25.204  1.00  0.00     0.011 C 
ATOM     12  C   UNL     1      12.033   8.563  26.313  1.00  0.00     0.011 C 
BRANCH  10  13
ATOM     13  C   UNL     1      13.347   6.487  27.114  1.00  0.00     0.007 CG0
ATOM     14  G   UNL     1      13.368   5.246  28.113  1.00  0.00     0.000 G0
ENDBRANCH  10  13
ENDBRANCH   3  10
BRANCH   1  15
ATOM     15  C   UNL     1      12.465   5.250  29.436  1.00  0.00     0.011 C 
BRANCH  15  16
ATOM     16  C   UNL     1      13.367   5.249  28.118  1.00  0.00     0.001 CG0
ATOM     17  G   UNL     1      13.345   6.485  27.112  1.00  0.00     0.000 G0
ENDBRANCH  15  16
ENDBRANCH   1  15
TORSDOF 0
ENDMDL
MODEL 6
REMARK VINA RESULT:    -3.993      1.862      4.323
REMARK INTER + INTRA:          -4.658
REMARK INTER:                  -4.927
REMARK INTRA:                   0.270
REMARK UNBOUND:                 0.269
REMARK SMILES C=C1[C@@H]2CC[C@H]3[C@H]2C(C)(C)CCC[C@@]13C
REMARK SMILES IDX 14 1 6 2 7 3 3 4 2 5 1 6 4 7 5 8 15 9 8 10 9 11 10 12 11 13
REMARK SMILES IDX 13 15 12 16
REMARK H PARENT
REMARK Flexibility Score: 80.00
ROOT
ATOM      1  C   UNL     1       6.356   8.366  15.435  1.00  0.00    -0.008 C 
ATOM      2  C   UNL     1       6.571   6.935  14.949  1.00  0.00     0.003 C 
ATOM      3  C   UNL     1       5.647   6.993  13.721  1.00  0.00     0.006 C 
ATOM      4  C   UNL     1       4.379   7.130  14.548  1.00  0.00     0.019 C 
ATOM      5  C   UNL     1       4.817   8.364  15.373  1.00  0.00    -0.068 C 
ATOM      6  C   UNL     1       3.998   9.297  15.867  1.00  0.00     0.009 C 
ATOM      7  C   UNL     1       4.429   5.930  15.480  1.00  0.00     0.008 C 
ATOM      8  C   UNL     1       5.917   5.828  15.815  1.00  0.00     0.005 C 
ATOM      9  C   UNL     1       6.894   8.610  16.859  1.00  0.00     0.016 C 
ENDROOT
BRANCH   3  10
ATOM     10  C   UNL     1       6.388   6.591  12.427  1.00  0.00    -0.032 C 
ATOM     11  C   UNL     1       7.146   5.249  12.562  1.00  0.00     0.011 C 
ATOM     12  C   UNL     1       5.363   6.424  11.278  1.00  0.00     0.011 C 
BRANCH  10  13
ATOM     13  C   UNL     1       7.401   7.788  12.091  1.00  0.00     0.007 CG0
ATOM     14  G   UNL     1       7.998   8.672  13.274  1.00  0.00     0.000 G0
ENDBRANCH  10  13
ENDBRANCH   3  10
BRANCH   1  15
ATOM     15  C   UNL     1       7.052   9.338  14.366  1.00  0.00     0.011 C 
BRANCH  15  16
ATOM     16  C   UNL     1       8.005   8.673  13.271  1.00  0.00     0.001 CG0
ATOM     17  G   UNL     1       7.403   7.782  12.095  1.00  0.00     0.000 G0
ENDBRANCH  15  16
ENDBRANCH   1  15
TORSDOF 0
ENDMDL
MODEL 7
REMARK VINA RESULT:    -3.923     11.210     13.341
REMARK INTER + INTRA:          -4.572
REMARK INTER:                  -4.842
REMARK INTRA:                   0.270
REMARK UNBOUND:                 0.269
REMARK SMILES C=C1[C@@H]2CC[C@H]3[C@H]2C(C)(C)CCC[C@@]13C
REMARK SMILES IDX 14 1 6 2 7 3 3 4 2 5 1 6 4 7 5 8 15 9 8 10 9 11 10 12 11 13
REMARK SMILES IDX 13 15 12 16
REMARK H PARENT
REMARK Flexibility Score: 80.00
ROOT
ATOM      1  C   UNL     1      12.920   7.269  24.912  1.00  0.00    -0.008 C 
ATOM      2  C   UNL     1      12.218   8.188  25.909  1.00  0.00     0.003 C 
ATOM      3  C   UNL     1      10.862   7.464  25.938  1.00  0.00     0.006 C 
ATOM      4  C   UNL     1      10.521   7.817  24.499  1.00  0.00     0.019 C 
ATOM      5  C   UNL     1      11.805   7.246  23.850  1.00  0.00    -0.068 C 
ATOM      6  C   UNL     1      11.893   6.750  22.612  1.00  0.00     0.009 C 
ATOM      7  C   UNL     1      10.640   9.332  24.466  1.00  0.00     0.008 C 
ATOM      8  C   UNL     1      11.841   9.594  25.374  1.00  0.00     0.005 C 
ATOM      9  C   UNL     1      14.241   7.854  24.376  1.00  0.00     0.016 C 
ENDROOT
BRANCH   3  10
ATOM     10  C   UNL     1      10.450   7.074  27.374  1.00  0.00    -0.032 C 
ATOM     11  C   UNL     1      10.533   8.261  28.365  1.00  0.00     0.011 C 
ATOM     12  C   UNL     1       8.982   6.580  27.373  1.00  0.00     0.011 C 
BRANCH  10  13
ATOM     13  C   UNL     1      11.430   5.886  27.824  1.00  0.00     0.007 CG0
ATOM     14  G   UNL     1      12.905   5.812  27.226  1.00  0.00     0.000 G0
ENDBRANCH  10  13
ENDBRANCH   3  10
BRANCH   1  15
ATOM     15  C   UNL     1      13.151   5.863  25.647  1.00  0.00     0.011 C 
BRANCH  15  16
ATOM     16  C   UNL     1      12.904   5.802  27.224  1.00  0.00     0.001 CG0
ATOM     17  G   UNL     1      11.430   5.890  27.825  1.00  0.00     0.000 G0
ENDBRANCH  15  16
ENDBRANCH   1  15
TORSDOF 0
ENDMDL
MODEL 8
REMARK VINA RESULT:    -3.922      1.191      2.415
REMARK INTER + INTRA:          -4.569
REMARK INTER:                  -4.840
REMARK INTRA:                   0.270
REMARK UNBOUND:                 0.269
REMARK SMILES C=C1[C@@H]2CC[C@H]3[C@H]2C(C)(C)CCC[C@@]13C
REMARK SMILES IDX 14 1 6 2 7 3 3 4 2 5 1 6 4 7 5 8 15 9 8 10 9 11 10 12 11 13
REMARK SMILES IDX 13 15 12 16
REMARK H PARENT
REMARK Flexibility Score: 80.00
ROOT
ATOM      1  C   UNL     1       6.847   7.688  14.300  1.00  0.00    -0.008 C 
ATOM      2  C   UNL     1       6.073   7.312  15.562  1.00  0.00     0.003 C 
ATOM      3  C   UNL     1       4.909   8.301  15.392  1.00  0.00     0.006 C 
ATOM      4  C   UNL     1       5.780   9.530  15.602  1.00  0.00     0.019 C 
ATOM      5  C   UNL     1       6.826   9.214  14.506  1.00  0.00    -0.068 C 
ATOM      6  C   UNL     1       7.523  10.121  13.815  1.00  0.00     0.009 C 
ATOM      7  C   UNL     1       6.446   9.270  16.944  1.00  0.00     0.008 C 
ATOM      8  C   UNL     1       6.713   7.766  16.900  1.00  0.00     0.005 C 
ATOM      9  C   UNL     1       8.275   7.110  14.270  1.00  0.00     0.016 C 
ENDROOT
BRANCH   3  10
ATOM     10  C   UNL     1       3.540   7.586  15.421  1.00  0.00    -0.032 C 
ATOM     11  C   UNL     1       3.383   6.641  16.636  1.00  0.00     0.011 C 
ATOM     12  C   UNL     1       2.410   8.641  15.513  1.00  0.00     0.011 C 
BRANCH  10  13
ATOM     13  C   UNL     1       3.422   6.772  14.044  1.00  0.00     0.007 CG0
ATOM     14  G   UNL     1       4.740   6.226  13.335  1.00  0.00     0.000 G0
ENDBRANCH  10  13
ENDBRANCH   3  10
BRANCH   1  15
ATOM     15  C   UNL     1       5.980   7.186  13.048  1.00  0.00     0.011 C 
BRANCH  15  16
ATOM     16  C   UNL     1       4.743   6.219  13.342  1.00  0.00     0.001 CG0
ATOM     17  G   UNL     1       3.429   6.767  14.058  1.00  0.00     0.000 G0
ENDBRANCH  15  16
ENDBRANCH   1  15
TORSDOF 0
ENDMDL
MODEL 9
REMARK VINA RESULT:    -3.817      9.904     11.883
REMARK INTER + INTRA:          -4.441
REMARK INTER:                  -4.709
REMARK INTRA:                   0.269
REMARK UNBOUND:                 0.269
REMARK SMILES C=C1[C@@H]2CC[C@H]3[C@H]2C(C)(C)CCC[C@@]13C
REMARK SMILES IDX 14 1 6 2 7 3 3 4 2 5 1 6 4 7 5 8 15 9 8 10 9 11 10 12 11 13
REMARK SMILES IDX 13 15 12 16
REMARK H PARENT
REMARK Flexibility Score: 80.00
ROOT
ATOM      1  C   UNL     1      12.883   8.816  22.235  1.00  0.00    -0.008 C 
ATOM      2  C   UNL     1      11.956   9.304  23.345  1.00  0.00     0.003 C 
ATOM      3  C   UNL     1      11.599   7.930  23.936  1.00  0.00     0.006 C 
ATOM      4  C   UNL     1      10.827   7.481  22.705  1.00  0.00     0.019 C 
ATOM      5  C   UNL     1      11.953   7.724  21.671  1.00  0.00    -0.068 C 
ATOM      6  C   UNL     1      12.122   7.043  20.534  1.00  0.00     0.009 C 
ATOM      7  C   UNL     1       9.796   8.581  22.509  1.00  0.00     0.008 C 
ATOM      8  C   UNL     1      10.578   9.842  22.880  1.00  0.00     0.005 C 
ATOM      9  C   UNL     1      13.215   9.907  21.199  1.00  0.00     0.016 C 
ENDROOT
BRANCH   3  10
ATOM     10  C   UNL     1      11.904   7.860  25.448  1.00  0.00    -0.032 C 
ATOM     11  C   UNL     1      11.291   9.041  26.239  1.00  0.00     0.011 C 
ATOM     12  C   UNL     1      11.304   6.557  26.034  1.00  0.00     0.011 C 
BRANCH  10  13
ATOM     13  C   UNL     1      13.501   7.844  25.592  1.00  0.00     0.007 CG0
ATOM     14  G   UNL     1      14.400   8.558  24.487  1.00  0.00     0.000 G0
ENDBRANCH  10  13
ENDBRANCH   3  10
BRANCH   1  15
ATOM     15  C   UNL     1      14.205   8.248  22.940  1.00  0.00     0.011 C 
BRANCH  15  16
ATOM     16  C   UNL     1      14.408   8.555  24.494  1.00  0.00     0.001 CG0
ATOM     17  G   UNL     1      13.504   7.840  25.594  1.00  0.00     0.000 G0
ENDBRANCH  15  16
ENDBRANCH   1  15
TORSDOF 0
ENDMDL
