MODEL 1
REMARK VINA RESULT:    -5.892      0.000      0.000
REMARK INTER + INTRA:         -12.437
REMARK INTER:                 -10.713
REMARK INTRA:                  -1.724
REMARK UNBOUND:                -1.724
REMARK SMILES CCCCCCCCCCCCCC[C@@H](C)C(=O)[O-]
REMARK SMILES IDX 9 1 10 2 11 3 12 4 13 5 14 6 15 7 16 8 17 9 18 10 19 11 8 12
REMARK SMILES IDX 7 13 6 14 5 15 4 16 3 17 2 18 1 19
REMARK H PARENT
REMARK Flexibility Score: inf
ROOT
ATOM      1  C   UNL     1     131.813 135.803 133.189  1.00  0.00     0.000 C 
ENDROOT
BRANCH   1   2
ATOM      2  C   UNL     1     133.244 136.269 133.494  1.00  0.00     0.000 C 
BRANCH   2   3
ATOM      3  C   UNL     1     134.302 135.589 132.606  1.00  0.00     0.000 C 
BRANCH   3   4
ATOM      4  C   UNL     1     135.732 135.585 133.178  1.00  0.00     0.000 C 
BRANCH   4   5
ATOM      5  C   UNL     1     136.262 134.169 133.461  1.00  0.00     0.001 C 
BRANCH   5   6
ATOM      6  C   UNL     1     135.145 133.107 133.484  1.00  0.00     0.009 C 
BRANCH   6   7
ATOM      7  C   UNL     1     135.554 131.743 132.883  1.00  0.00     0.032 C 
ATOM      8  C   UNL     1     134.854 130.599 133.626  1.00  0.00     0.014 C 
BRANCH   7   9
ATOM      9  C   UNL     1     135.239 131.666 131.413  1.00  0.00     0.044 C 
ATOM     10  O   UNL     1     135.726 130.748 130.701  1.00  0.00    -0.550 OA
ATOM     11  O   UNL     1     134.399 132.610 130.835  1.00  0.00    -0.550 OA
ENDBRANCH   7   9
ENDBRANCH   6   7
ENDBRANCH   5   6
ENDBRANCH   4   5
ENDBRANCH   3   4
ENDBRANCH   2   3
ENDBRANCH   1   2
BRANCH   1  12
ATOM     12  C   UNL     1     131.808 134.386 132.607  1.00  0.00     0.000 C 
BRANCH  12  13
ATOM     13  C   UNL     1     131.505 133.346 133.695  1.00  0.00    -0.000 C 
BRANCH  13  14
ATOM     14  C   UNL     1     131.477 131.905 133.155  1.00  0.00    -0.000 C 
BRANCH  14  15
ATOM     15  C   UNL     1     130.071 131.285 133.015  1.00  0.00    -0.000 C 
BRANCH  15  16
ATOM     16  C   UNL     1     129.418 131.462 131.632  1.00  0.00    -0.000 C 
BRANCH  16  17
ATOM     17  C   UNL     1     130.449 131.544 130.494  1.00  0.00    -0.000 C 
BRANCH  17  18
ATOM     18  C   UNL     1     130.013 130.756 129.249  1.00  0.00    -0.003 C 
ATOM     19  C   UNL     1     131.199 130.218 128.447  1.00  0.00     0.004 C 
ENDBRANCH  17  18
ENDBRANCH  16  17
ENDBRANCH  15  16
ENDBRANCH  14  15
ENDBRANCH  13  14
ENDBRANCH  12  13
ENDBRANCH   1  12
TORSDOF 14
ENDMDL
MODEL 2
REMARK VINA RESULT:    -5.809      3.521      5.304
REMARK INTER + INTRA:         -12.288
REMARK INTER:                 -10.805
REMARK INTRA:                  -1.483
REMARK UNBOUND:                -1.724
REMARK SMILES CCCCCCCCCCCCCC[C@@H](C)C(=O)[O-]
REMARK SMILES IDX 9 1 10 2 11 3 12 4 13 5 14 6 15 7 16 8 17 9 18 10 19 11 8 12
REMARK SMILES IDX 7 13 6 14 5 15 4 16 3 17 2 18 1 19
REMARK H PARENT
REMARK Flexibility Score: inf
ROOT
ATOM      1  C   UNL     1     135.579 133.055 132.677  1.00  0.00     0.000 C 
ENDROOT
BRANCH   1   2
ATOM      2  C   UNL     1     135.961 134.173 133.657  1.00  0.00     0.000 C 
BRANCH   2   3
ATOM      3  C   UNL     1     136.150 135.538 132.972  1.00  0.00     0.000 C 
BRANCH   3   4
ATOM      4  C   UNL     1     136.068 135.516 131.434  1.00  0.00     0.000 C 
BRANCH   4   5
ATOM      5  C   UNL     1     137.422 135.782 130.757  1.00  0.00     0.001 C 
BRANCH   5   6
ATOM      6  C   UNL     1     137.582 135.026 129.423  1.00  0.00     0.009 C 
BRANCH   6   7
ATOM      7  C   UNL     1     138.390 135.793 128.353  1.00  0.00     0.032 C 
ATOM      8  C   UNL     1     138.241 137.306 128.550  1.00  0.00     0.014 C 
BRANCH   7   9
ATOM      9  C   UNL     1     139.848 135.416 128.381  1.00  0.00     0.044 C 
ATOM     10  O   UNL     1     140.702 136.118 127.778  1.00  0.00    -0.550 OA
ATOM     11  O   UNL     1     140.257 134.288 129.080  1.00  0.00    -0.550 OA
ENDBRANCH   7   9
ENDBRANCH   6   7
ENDBRANCH   5   6
ENDBRANCH   4   5
ENDBRANCH   3   4
ENDBRANCH   2   3
ENDBRANCH   1   2
BRANCH   1  12
ATOM     12  C   UNL     1     135.630 131.684 133.359  1.00  0.00     0.000 C 
BRANCH  12  13
ATOM     13  C   UNL     1     134.238 131.037 133.396  1.00  0.00    -0.000 C 
BRANCH  13  14
ATOM     14  C   UNL     1     133.210 131.776 132.520  1.00  0.00    -0.000 C 
BRANCH  14  15
ATOM     15  C   UNL     1     131.765 131.770 133.060  1.00  0.00    -0.000 C 
BRANCH  15  16
ATOM     16  C   UNL     1     131.295 133.102 133.673  1.00  0.00    -0.000 C 
BRANCH  16  17
ATOM     17  C   UNL     1     132.308 134.242 133.466  1.00  0.00    -0.000 C 
BRANCH  17  18
ATOM     18  C   UNL     1     131.630 135.571 133.101  1.00  0.00    -0.003 C 
ATOM     19  C   UNL     1     132.470 136.788 133.490  1.00  0.00     0.004 C 
ENDBRANCH  17  18
ENDBRANCH  16  17
ENDBRANCH  15  16
ENDBRANCH  14  15
ENDBRANCH  13  14
ENDBRANCH  12  13
ENDBRANCH   1  12
TORSDOF 14
ENDMDL
MODEL 3
REMARK VINA RESULT:    -5.710      3.200      5.549
REMARK INTER + INTRA:         -12.107
REMARK INTER:                 -10.638
REMARK INTRA:                  -1.469
REMARK UNBOUND:                -1.724
REMARK SMILES CCCCCCCCCCCCCC[C@@H](C)C(=O)[O-]
REMARK SMILES IDX 9 1 10 2 11 3 12 4 13 5 14 6 15 7 16 8 17 9 18 10 19 11 8 12
REMARK SMILES IDX 7 13 6 14 5 15 4 16 3 17 2 18 1 19
REMARK H PARENT
REMARK Flexibility Score: inf
ROOT
ATOM      1  C   UNL     1     135.452 135.783 133.280  1.00  0.00     0.000 C 
ENDROOT
BRANCH   1   2
ATOM      2  C   UNL     1     134.069 135.544 132.660  1.00  0.00     0.000 C 
BRANCH   2   3
ATOM      3  C   UNL     1     132.915 135.754 133.658  1.00  0.00     0.000 C 
BRANCH   3   4
ATOM      4  C   UNL     1     131.565 136.142 133.026  1.00  0.00     0.000 C 
BRANCH   4   5
ATOM      5  C   UNL     1     131.646 137.417 132.171  1.00  0.00     0.001 C 
BRANCH   5   6
ATOM      6  C   UNL     1     131.433 137.144 130.670  1.00  0.00     0.009 C 
BRANCH   6   7
ATOM      7  C   UNL     1     132.518 137.754 129.754  1.00  0.00     0.032 C 
ATOM      8  C   UNL     1     133.299 136.645 129.038  1.00  0.00     0.014 C 
BRANCH   7   9
ATOM      9  C   UNL     1     131.925 138.697 128.741  1.00  0.00     0.044 C 
ATOM     10  O   UNL     1     131.276 138.253 127.757  1.00  0.00    -0.550 OA
ATOM     11  O   UNL     1     132.089 140.068 128.892  1.00  0.00    -0.550 OA
ENDBRANCH   7   9
ENDBRANCH   6   7
ENDBRANCH   5   6
ENDBRANCH   4   5
ENDBRANCH   3   4
ENDBRANCH   2   3
ENDBRANCH   1   2
BRANCH   1  12
ATOM     12  C   UNL     1     136.243 134.475 133.383  1.00  0.00     0.000 C 
BRANCH  12  13
ATOM     13  C   UNL     1     135.607 133.379 132.515  1.00  0.00    -0.000 C 
BRANCH  13  14
ATOM     14  C   UNL     1     135.784 131.969 133.106  1.00  0.00    -0.000 C 
BRANCH  14  15
ATOM     15  C   UNL     1     134.476 131.266 133.527  1.00  0.00    -0.000 C 
BRANCH  15  16
ATOM     16  C   UNL     1     133.213 132.142 133.446  1.00  0.00    -0.000 C 
BRANCH  16  17
ATOM     17  C   UNL     1     131.918 131.313 133.379  1.00  0.00    -0.000 C 
BRANCH  17  18
ATOM     18  C   UNL     1     130.749 132.097 132.763  1.00  0.00    -0.003 C 
ATOM     19  C   UNL     1     129.400 131.413 132.983  1.00  0.00     0.004 C 
ENDBRANCH  17  18
ENDBRANCH  16  17
ENDBRANCH  15  16
ENDBRANCH  14  15
ENDBRANCH  13  14
ENDBRANCH  12  13
ENDBRANCH   1  12
TORSDOF 14
ENDMDL
MODEL 4
REMARK VINA RESULT:    -5.697      1.972      4.189
REMARK INTER + INTRA:         -12.084
REMARK INTER:                  -9.867
REMARK INTRA:                  -2.217
REMARK UNBOUND:                -1.724
REMARK SMILES CCCCCCCCCCCCCC[C@@H](C)C(=O)[O-]
REMARK SMILES IDX 9 1 10 2 11 3 12 4 13 5 14 6 15 7 16 8 17 9 18 10 19 11 8 12
REMARK SMILES IDX 7 13 6 14 5 15 4 16 3 17 2 18 1 19
REMARK H PARENT
REMARK Flexibility Score: inf
ROOT
ATOM      1  C   UNL     1     133.638 131.341 133.445  1.00  0.00     0.000 C 
ENDROOT
BRANCH   1   2
ATOM      2  C   UNL     1     135.030 131.159 132.824  1.00  0.00     0.000 C 
BRANCH   2   3
ATOM      3  C   UNL     1     135.995 132.312 133.157  1.00  0.00     0.000 C 
BRANCH   3   4
ATOM      4  C   UNL     1     135.341 133.545 133.809  1.00  0.00     0.000 C 
BRANCH   4   5
ATOM      5  C   UNL     1     136.013 134.867 133.400  1.00  0.00     0.001 C 
BRANCH   5   6
ATOM      6  C   UNL     1     135.250 135.603 132.281  1.00  0.00     0.009 C 
BRANCH   6   7
ATOM      7  C   UNL     1     135.971 135.599 130.914  1.00  0.00     0.032 C 
ATOM      8  C   UNL     1     137.483 135.768 131.106  1.00  0.00     0.014 C 
BRANCH   7   9
ATOM      9  C   UNL     1     135.692 134.337 130.142  1.00  0.00     0.044 C 
ATOM     10  O   UNL     1     136.626 133.721 129.564  1.00  0.00    -0.550 OA
ATOM     11  O   UNL     1     134.397 133.842 130.070  1.00  0.00    -0.550 OA
ENDBRANCH   7   9
ENDBRANCH   6   7
ENDBRANCH   5   6
ENDBRANCH   4   5
ENDBRANCH   3   4
ENDBRANCH   2   3
ENDBRANCH   1   2
BRANCH   1  12
ATOM     12  C   UNL     1     132.605 131.722 132.380  1.00  0.00     0.000 C 
BRANCH  12  13
ATOM     13  C   UNL     1     131.222 131.944 133.009  1.00  0.00    -0.000 C 
BRANCH  13  14
ATOM     14  C   UNL     1     131.024 133.379 133.528  1.00  0.00    -0.000 C 
BRANCH  14  15
ATOM     15  C   UNL     1     131.847 134.460 132.795  1.00  0.00    -0.000 C 
BRANCH  15  16
ATOM     16  C   UNL     1     131.564 135.906 133.242  1.00  0.00    -0.000 C 
BRANCH  16  17
ATOM     17  C   UNL     1     131.805 136.932 132.121  1.00  0.00    -0.000 C 
BRANCH  17  18
ATOM     18  C   UNL     1     131.773 136.295 130.724  1.00  0.00    -0.003 C 
ATOM     19  C   UNL     1     132.666 137.026 129.721  1.00  0.00     0.004 C 
ENDBRANCH  17  18
ENDBRANCH  16  17
ENDBRANCH  15  16
ENDBRANCH  14  15
ENDBRANCH  13  14
ENDBRANCH  12  13
ENDBRANCH   1  12
TORSDOF 14
ENDMDL
MODEL 5
REMARK VINA RESULT:    -5.647      3.448      6.359
REMARK INTER + INTRA:         -11.993
REMARK INTER:                 -10.410
REMARK INTRA:                  -1.583
REMARK UNBOUND:                -1.724
REMARK SMILES CCCCCCCCCCCCCC[C@@H](C)C(=O)[O-]
REMARK SMILES IDX 9 1 10 2 11 3 12 4 13 5 14 6 15 7 16 8 17 9 18 10 19 11 8 12
REMARK SMILES IDX 7 13 6 14 5 15 4 16 3 17 2 18 1 19
REMARK H PARENT
REMARK Flexibility Score: inf
ROOT
ATOM      1  C   UNL     1     131.087 133.615 133.359  1.00  0.00     0.000 C 
ENDROOT
BRANCH   1   2
ATOM      2  C   UNL     1     132.169 134.576 132.848  1.00  0.00     0.000 C 
BRANCH   2   3
ATOM      3  C   UNL     1     132.026 136.001 133.412  1.00  0.00     0.000 C 
BRANCH   3   4
ATOM      4  C   UNL     1     131.700 137.089 132.371  1.00  0.00     0.000 C 
BRANCH   4   5
ATOM      5  C   UNL     1     132.218 136.748 130.964  1.00  0.00     0.001 C 
BRANCH   5   6
ATOM      6  C   UNL     1     131.485 137.525 129.854  1.00  0.00     0.009 C 
BRANCH   6   7
ATOM      7  C   UNL     1     130.860 136.629 128.760  1.00  0.00     0.032 C 
ATOM      8  C   UNL     1     130.809 135.170 129.227  1.00  0.00     0.014 C 
BRANCH   7   9
ATOM      9  C   UNL     1     129.478 137.093 128.384  1.00  0.00     0.044 C 
ATOM     10  O   UNL     1     128.991 138.135 128.897  1.00  0.00    -0.550 OA
ATOM     11  O   UNL     1     128.733 136.372 127.460  1.00  0.00    -0.550 OA
ENDBRANCH   7   9
ENDBRANCH   6   7
ENDBRANCH   5   6
ENDBRANCH   4   5
ENDBRANCH   3   4
ENDBRANCH   2   3
ENDBRANCH   1   2
BRANCH   1  12
ATOM     12  C   UNL     1     131.595 132.169 133.367  1.00  0.00     0.000 C 
BRANCH  12  13
ATOM     13  C   UNL     1     132.925 132.049 132.609  1.00  0.00    -0.000 C 
BRANCH  13  14
ATOM     14  C   UNL     1     134.017 131.334 133.424  1.00  0.00    -0.000 C 
BRANCH  14  15
ATOM     15  C   UNL     1     135.452 131.849 133.191  1.00  0.00    -0.000 C 
BRANCH  15  16
ATOM     16  C   UNL     1     135.546 133.271 132.607  1.00  0.00    -0.000 C 
BRANCH  16  17
ATOM     17  C   UNL     1     135.700 134.350 133.692  1.00  0.00    -0.000 C 
BRANCH  17  18
ATOM     18  C   UNL     1     136.072 135.722 133.107  1.00  0.00    -0.003 C 
ATOM     19  C   UNL     1     137.580 135.973 133.106  1.00  0.00     0.004 C 
ENDBRANCH  17  18
ENDBRANCH  16  17
ENDBRANCH  15  16
ENDBRANCH  14  15
ENDBRANCH  13  14
ENDBRANCH  12  13
ENDBRANCH   1  12
TORSDOF 14
ENDMDL
MODEL 6
REMARK VINA RESULT:    -5.633      3.576      4.947
REMARK INTER + INTRA:         -11.967
REMARK INTER:                 -10.329
REMARK INTRA:                  -1.638
REMARK UNBOUND:                -1.724
REMARK SMILES CCCCCCCCCCCCCC[C@@H](C)C(=O)[O-]
REMARK SMILES IDX 9 1 10 2 11 3 12 4 13 5 14 6 15 7 16 8 17 9 18 10 19 11 8 12
REMARK SMILES IDX 7 13 6 14 5 15 4 16 3 17 2 18 1 19
REMARK H PARENT
REMARK Flexibility Score: inf
ROOT
ATOM      1  C   UNL     1     134.596 136.077 133.372  1.00  0.00     0.000 C 
ENDROOT
BRANCH   1   2
ATOM      2  C   UNL     1     135.760 135.077 133.328  1.00  0.00     0.000 C 
BRANCH   2   3
ATOM      3  C   UNL     1     137.124 135.749 133.091  1.00  0.00     0.000 C 
BRANCH   3   4
ATOM      4  C   UNL     1     137.520 135.926 131.613  1.00  0.00     0.000 C 
BRANCH   4   5
ATOM      5  C   UNL     1     136.848 134.901 130.685  1.00  0.00     0.001 C 
BRANCH   5   6
ATOM      6  C   UNL     1     137.500 134.843 129.289  1.00  0.00     0.009 C 
BRANCH   6   7
ATOM      7  C   UNL     1     138.835 135.613 129.180  1.00  0.00     0.032 C 
ATOM      8  C   UNL     1     140.001 134.637 128.981  1.00  0.00     0.014 C 
BRANCH   7   9
ATOM      9  C   UNL     1     138.809 136.614 128.056  1.00  0.00     0.044 C 
ATOM     10  O   UNL     1     139.049 136.254 126.873  1.00  0.00    -0.550 OA
ATOM     11  O   UNL     1     138.514 137.945 128.321  1.00  0.00    -0.550 OA
ENDBRANCH   7   9
ENDBRANCH   6   7
ENDBRANCH   5   6
ENDBRANCH   4   5
ENDBRANCH   3   4
ENDBRANCH   2   3
ENDBRANCH   1   2
BRANCH   1  12
ATOM     12  C   UNL     1     133.464 135.645 132.434  1.00  0.00     0.000 C 
BRANCH  12  13
ATOM     13  C   UNL     1     132.153 135.448 133.209  1.00  0.00    -0.000 C 
BRANCH  13  14
ATOM     14  C   UNL     1     131.707 133.976 133.269  1.00  0.00    -0.000 C 
BRANCH  14  15
ATOM     15  C   UNL     1     132.686 133.023 133.987  1.00  0.00    -0.000 C 
BRANCH  15  16
ATOM     16  C   UNL     1     133.031 131.740 133.210  1.00  0.00    -0.000 C 
BRANCH  16  17
ATOM     17  C   UNL     1     134.120 131.962 132.147  1.00  0.00    -0.000 C 
BRANCH  17  18
ATOM     18  C   UNL     1     135.506 131.495 132.618  1.00  0.00    -0.003 C 
ATOM     19  C   UNL     1     135.464 130.136 133.316  1.00  0.00     0.004 C 
ENDBRANCH  17  18
ENDBRANCH  16  17
ENDBRANCH  15  16
ENDBRANCH  14  15
ENDBRANCH  13  14
ENDBRANCH  12  13
ENDBRANCH   1  12
TORSDOF 14
ENDMDL
MODEL 7
REMARK VINA RESULT:    -5.629      2.094      4.680
REMARK INTER + INTRA:         -11.960
REMARK INTER:                  -9.417
REMARK INTRA:                  -2.542
REMARK UNBOUND:                -1.724
REMARK SMILES CCCCCCCCCCCCCC[C@@H](C)C(=O)[O-]
REMARK SMILES IDX 9 1 10 2 11 3 12 4 13 5 14 6 15 7 16 8 17 9 18 10 19 11 8 12
REMARK SMILES IDX 7 13 6 14 5 15 4 16 3 17 2 18 1 19
REMARK H PARENT
REMARK Flexibility Score: inf
ROOT
ATOM      1  C   UNL     1     132.769 131.438 133.365  1.00  0.00     0.000 C 
ENDROOT
BRANCH   1   2
ATOM      2  C   UNL     1     133.950 132.279 133.870  1.00  0.00     0.000 C 
BRANCH   2   3
ATOM      3  C   UNL     1     135.301 131.836 133.280  1.00  0.00     0.000 C 
BRANCH   3   4
ATOM      4  C   UNL     1     135.493 130.313 133.154  1.00  0.00     0.000 C 
BRANCH   4   5
ATOM      5  C   UNL     1     135.834 129.868 131.722  1.00  0.00     0.001 C 
BRANCH   5   6
ATOM      6  C   UNL     1     135.613 130.983 130.681  1.00  0.00     0.009 C 
BRANCH   6   7
ATOM      7  C   UNL     1     134.258 130.901 129.942  1.00  0.00     0.032 C 
ATOM      8  C   UNL     1     133.724 132.308 129.646  1.00  0.00     0.014 C 
BRANCH   7   9
ATOM      9  C   UNL     1     134.370 130.118 128.661  1.00  0.00     0.044 C 
ATOM     10  O   UNL     1     133.614 129.134 128.445  1.00  0.00    -0.550 OA
ATOM     11  O   UNL     1     135.309 130.484 127.706  1.00  0.00    -0.550 OA
ENDBRANCH   7   9
ENDBRANCH   6   7
ENDBRANCH   5   6
ENDBRANCH   4   5
ENDBRANCH   3   4
ENDBRANCH   2   3
ENDBRANCH   1   2
BRANCH   1  12
ATOM     12  C   UNL     1     131.479 132.266 133.331  1.00  0.00     0.000 C 
BRANCH  12  13
ATOM     13  C   UNL     1     131.633 133.486 132.413  1.00  0.00    -0.000 C 
BRANCH  13  14
ATOM     14  C   UNL     1     131.371 134.818 133.137  1.00  0.00    -0.000 C 
BRANCH  14  15
ATOM     15  C   UNL     1     132.266 135.994 132.691  1.00  0.00    -0.000 C 
BRANCH  15  16
ATOM     16  C   UNL     1     133.427 136.325 133.646  1.00  0.00    -0.000 C 
BRANCH  16  17
ATOM     17  C   UNL     1     134.775 135.768 133.159  1.00  0.00    -0.000 C 
BRANCH  17  18
ATOM     18  C   UNL     1     134.747 135.378 131.673  1.00  0.00    -0.003 C 
ATOM     19  C   UNL     1     136.106 134.893 131.166  1.00  0.00     0.004 C 
ENDBRANCH  17  18
ENDBRANCH  16  17
ENDBRANCH  15  16
ENDBRANCH  14  15
ENDBRANCH  13  14
ENDBRANCH  12  13
ENDBRANCH   1  12
TORSDOF 14
ENDMDL
MODEL 8
REMARK VINA RESULT:    -5.583      1.253      2.542
REMARK INTER + INTRA:         -11.875
REMARK INTER:                  -9.696
REMARK INTRA:                  -2.180
REMARK UNBOUND:                -1.724
REMARK SMILES CCCCCCCCCCCCCC[C@@H](C)C(=O)[O-]
REMARK SMILES IDX 9 1 10 2 11 3 12 4 13 5 14 6 15 7 16 8 17 9 18 10 19 11 8 12
REMARK SMILES IDX 7 13 6 14 5 15 4 16 3 17 2 18 1 19
REMARK H PARENT
REMARK Flexibility Score: inf
ROOT
ATOM      1  C   UNL     1     134.177 135.492 132.391  1.00  0.00     0.000 C 
ENDROOT
BRANCH   1   2
ATOM      2  C   UNL     1     135.650 135.608 132.806  1.00  0.00     0.000 C 
BRANCH   2   3
ATOM      3  C   UNL     1     136.132 134.421 133.660  1.00  0.00     0.000 C 
BRANCH   3   4
ATOM      4  C   UNL     1     135.153 133.235 133.744  1.00  0.00     0.000 C 
BRANCH   4   5
ATOM      5  C   UNL     1     135.584 132.039 132.879  1.00  0.00     0.001 C 
BRANCH   5   6
ATOM      6  C   UNL     1     134.539 131.670 131.808  1.00  0.00     0.009 C 
BRANCH   6   7
ATOM      7  C   UNL     1     135.067 131.739 130.357  1.00  0.00     0.032 C 
ATOM      8  C   UNL     1     135.918 132.999 130.156  1.00  0.00     0.014 C 
BRANCH   7   9
ATOM      9  C   UNL     1     135.871 130.518 129.999  1.00  0.00     0.044 C 
ATOM     10  O   UNL     1     136.714 130.558 129.064  1.00  0.00    -0.550 OA
ATOM     11  O   UNL     1     135.688 129.336 130.707  1.00  0.00    -0.550 OA
ENDBRANCH   7   9
ENDBRANCH   6   7
ENDBRANCH   5   6
ENDBRANCH   4   5
ENDBRANCH   3   4
ENDBRANCH   2   3
ENDBRANCH   1   2
BRANCH   1  12
ATOM     12  C   UNL     1     133.267 136.226 133.381  1.00  0.00     0.000 C 
BRANCH  12  13
ATOM     13  C   UNL     1     131.826 135.703 133.296  1.00  0.00    -0.000 C 
BRANCH  13  14
ATOM     14  C   UNL     1     131.734 134.298 132.673  1.00  0.00    -0.000 C 
BRANCH  14  15
ATOM     15  C   UNL     1     131.382 133.166 133.660  1.00  0.00    -0.000 C 
BRANCH  15  16
ATOM     16  C   UNL     1     131.194 131.780 133.018  1.00  0.00    -0.000 C 
BRANCH  16  17
ATOM     17  C   UNL     1     130.063 131.756 131.975  1.00  0.00    -0.000 C 
BRANCH  17  18
ATOM     18  C   UNL     1     130.579 131.478 130.554  1.00  0.00    -0.003 C 
ATOM     19  C   UNL     1     130.414 132.678 129.622  1.00  0.00     0.004 C 
ENDBRANCH  17  18
ENDBRANCH  16  17
ENDBRANCH  15  16
ENDBRANCH  14  15
ENDBRANCH  13  14
ENDBRANCH  12  13
ENDBRANCH   1  12
TORSDOF 14
ENDMDL
MODEL 9
REMARK VINA RESULT:    -5.576      2.278      3.687
REMARK INTER + INTRA:         -11.863
REMARK INTER:                  -9.006
REMARK INTRA:                  -2.856
REMARK UNBOUND:                -1.724
REMARK SMILES CCCCCCCCCCCCCC[C@@H](C)C(=O)[O-]
REMARK SMILES IDX 9 1 10 2 11 3 12 4 13 5 14 6 15 7 16 8 17 9 18 10 19 11 8 12
REMARK SMILES IDX 7 13 6 14 5 15 4 16 3 17 2 18 1 19
REMARK H PARENT
REMARK Flexibility Score: inf
ROOT
ATOM      1  C   UNL     1     132.841 135.987 133.764  1.00  0.00     0.000 C 
ENDROOT
BRANCH   1   2
ATOM      2  C   UNL     1     131.869 136.213 132.597  1.00  0.00     0.000 C 
BRANCH   2   3
ATOM      3  C   UNL     1     132.485 135.880 131.226  1.00  0.00     0.000 C 
BRANCH   3   4
ATOM      4  C   UNL     1     132.080 134.513 130.642  1.00  0.00     0.000 C 
BRANCH   4   5
ATOM      5  C   UNL     1     133.252 133.776 129.972  1.00  0.00     0.001 C 
BRANCH   5   6
ATOM      6  C   UNL     1     134.488 134.675 129.773  1.00  0.00     0.009 C 
BRANCH   6   7
ATOM      7  C   UNL     1     135.808 134.063 130.294  1.00  0.00     0.032 C 
ATOM      8  C   UNL     1     135.754 132.533 130.220  1.00  0.00     0.014 C 
BRANCH   7   9
ATOM      9  C   UNL     1     136.998 134.570 129.523  1.00  0.00     0.044 C 
ATOM     10  O   UNL     1     137.809 135.374 130.054  1.00  0.00    -0.550 OA
ATOM     11  O   UNL     1     137.208 134.146 128.217  1.00  0.00    -0.550 OA
ENDBRANCH   7   9
ENDBRANCH   6   7
ENDBRANCH   5   6
ENDBRANCH   4   5
ENDBRANCH   3   4
ENDBRANCH   2   3
ENDBRANCH   1   2
BRANCH   1  12
ATOM     12  C   UNL     1     134.290 135.926 133.270  1.00  0.00     0.000 C 
BRANCH  12  13
ATOM     13  C   UNL     1     134.948 134.594 133.659  1.00  0.00    -0.000 C 
BRANCH  13  14
ATOM     14  C   UNL     1     133.942 133.567 134.208  1.00  0.00    -0.000 C 
BRANCH  14  15
ATOM     15  C   UNL     1     134.006 132.172 133.552  1.00  0.00    -0.000 C 
BRANCH  15  16
ATOM     16  C   UNL     1     132.640 131.555 133.201  1.00  0.00    -0.000 C 
BRANCH  16  17
ATOM     17  C   UNL     1     131.465 132.503 133.500  1.00  0.00    -0.000 C 
BRANCH  17  18
ATOM     18  C   UNL     1     130.104 131.877 133.158  1.00  0.00    -0.003 C 
ATOM     19  C   UNL     1     129.928 131.633 131.659  1.00  0.00     0.004 C 
ENDBRANCH  17  18
ENDBRANCH  16  17
ENDBRANCH  15  16
ENDBRANCH  14  15
ENDBRANCH  13  14
ENDBRANCH  12  13
ENDBRANCH   1  12
TORSDOF 14
ENDMDL
