MODEL 1
REMARK VINA RESULT:    -3.492      0.000      0.000
REMARK INTER + INTRA:          -5.937
REMARK INTER:                  -5.329
REMARK INTRA:                  -0.608
REMARK UNBOUND:                -0.608
REMARK SMILES O=C([O-])CCCCCCCCC(=O)[O-]
REMARK SMILES IDX 7 1 6 2 5 3 4 4 2 5 1 6 3 7 8 8 9 9 10 10 11 11 12 12 13 13
REMARK SMILES IDX 14 14
REMARK H PARENT
REMARK Flexibility Score: inf
ROOT
ATOM      1  C   UNL     1      61.655  33.671  60.316  1.00  0.00     0.000 C 
ENDROOT
BRANCH   1   2
ATOM      2  C   UNL     1      61.245  35.153  60.394  1.00  0.00     0.000 C 
BRANCH   2   3
ATOM      3  C   UNL     1      62.420  36.083  60.741  1.00  0.00     0.006 C 
BRANCH   3   4
ATOM      4  C   UNL     1      63.745  35.320  60.870  1.00  0.00     0.053 C 
BRANCH   4   5
ATOM      5  C   UNL     1      64.805  36.153  61.525  1.00  0.00     0.041 C 
ATOM      6  O   UNL     1      66.017  35.992  61.220  1.00  0.00    -0.550 OA
ATOM      7  O   UNL     1      64.452  37.125  62.451  1.00  0.00    -0.550 OA
ENDBRANCH   4   5
ENDBRANCH   3   4
ENDBRANCH   2   3
ENDBRANCH   1   2
BRANCH   1   8
ATOM      8  C   UNL     1      60.808  32.803  59.367  1.00  0.00     0.000 C 
BRANCH   8   9
ATOM      9  C   UNL     1      60.670  31.348  59.847  1.00  0.00     0.000 C 
BRANCH   9  10
ATOM     10  C   UNL     1      61.013  31.180  61.339  1.00  0.00     0.006 C 
BRANCH  10  11
ATOM     11  C   UNL     1      62.031  30.066  61.636  1.00  0.00     0.053 C 
BRANCH  11  12
ATOM     12  C   UNL     1      63.328  30.283  60.920  1.00  0.00     0.041 C 
ATOM     13  O   UNL     1      64.082  31.236  61.250  1.00  0.00    -0.550 OA
ATOM     14  O   UNL     1      63.689  29.453  59.866  1.00  0.00    -0.550 OA
ENDBRANCH  11  12
ENDBRANCH  10  11
ENDBRANCH   9  10
ENDBRANCH   8   9
ENDBRANCH   1   8
TORSDOF 9
ENDMDL
MODEL 2
REMARK VINA RESULT:    -3.478     12.869     14.736
REMARK INTER + INTRA:          -5.915
REMARK INTER:                  -5.438
REMARK INTRA:                  -0.477
REMARK UNBOUND:                -0.608
REMARK SMILES O=C([O-])CCCCCCCCC(=O)[O-]
REMARK SMILES IDX 7 1 6 2 5 3 4 4 2 5 1 6 3 7 8 8 9 9 10 10 11 11 12 12 13 13
REMARK SMILES IDX 14 14
REMARK H PARENT
REMARK Flexibility Score: inf
ROOT
ATOM      1  C   UNL     1      57.591  28.718  50.963  1.00  0.00     0.000 C 
ENDROOT
BRANCH   1   2
ATOM      2  C   UNL     1      56.075  28.713  50.698  1.00  0.00     0.000 C 
BRANCH   2   3
ATOM      3  C   UNL     1      55.560  27.358  50.187  1.00  0.00     0.006 C 
BRANCH   3   4
ATOM      4  C   UNL     1      54.055  27.386  49.887  1.00  0.00     0.053 C 
BRANCH   4   5
ATOM      5  C   UNL     1      53.541  26.032  49.498  1.00  0.00     0.041 C 
ATOM      6  O   UNL     1      53.155  25.816  48.318  1.00  0.00    -0.550 OA
ATOM      7  O   UNL     1      53.513  25.004  50.430  1.00  0.00    -0.550 OA
ENDBRANCH   4   5
ENDBRANCH   3   4
ENDBRANCH   2   3
ENDBRANCH   1   2
BRANCH   1   8
ATOM      8  C   UNL     1      58.454  29.319  49.838  1.00  0.00     0.000 C 
BRANCH   8   9
ATOM      9  C   UNL     1      59.464  28.315  49.256  1.00  0.00     0.000 C 
BRANCH   9  10
ATOM     10  C   UNL     1      59.186  26.867  49.701  1.00  0.00     0.006 C 
BRANCH  10  11
ATOM     11  C   UNL     1      60.443  25.993  49.844  1.00  0.00     0.053 C 
BRANCH  11  12
ATOM     12  C   UNL     1      60.116  24.611  50.321  1.00  0.00     0.041 C 
ATOM     13  O   UNL     1      59.227  24.436  51.195  1.00  0.00    -0.550 OA
ATOM     14  O   UNL     1      60.817  23.519  49.825  1.00  0.00    -0.550 OA
ENDBRANCH  11  12
ENDBRANCH  10  11
ENDBRANCH   9  10
ENDBRANCH   8   9
ENDBRANCH   1   8
TORSDOF 9
ENDMDL
MODEL 3
REMARK VINA RESULT:    -3.465      1.360      2.040
REMARK INTER + INTRA:          -5.896
REMARK INTER:                  -5.351
REMARK INTRA:                  -0.545
REMARK UNBOUND:                -0.608
REMARK SMILES O=C([O-])CCCCCCCCC(=O)[O-]
REMARK SMILES IDX 7 1 6 2 5 3 4 4 2 5 1 6 3 7 8 8 9 9 10 10 11 11 12 12 13 13
REMARK SMILES IDX 14 14
REMARK H PARENT
REMARK Flexibility Score: inf
ROOT
ATOM      1  C   UNL     1      61.633  32.431  60.048  1.00  0.00     0.000 C 
ENDROOT
BRANCH   1   2
ATOM      2  C   UNL     1      61.725  33.919  60.432  1.00  0.00     0.000 C 
BRANCH   2   3
ATOM      3  C   UNL     1      63.063  34.561  60.031  1.00  0.00     0.006 C 
BRANCH   3   4
ATOM      4  C   UNL     1      64.106  34.476  61.154  1.00  0.00     0.053 C 
BRANCH   4   5
ATOM      5  C   UNL     1      64.727  35.811  61.437  1.00  0.00     0.041 C 
ATOM      6  O   UNL     1      64.055  36.716  62.000  1.00  0.00    -0.550 OA
ATOM      7  O   UNL     1      66.054  36.045  61.105  1.00  0.00    -0.550 OA
ENDBRANCH   4   5
ENDBRANCH   3   4
ENDBRANCH   2   3
ENDBRANCH   1   2
BRANCH   1   8
ATOM      8  C   UNL     1      60.888  31.536  61.055  1.00  0.00     0.000 C 
BRANCH   8   9
ATOM      9  C   UNL     1      61.798  30.477  61.702  1.00  0.00     0.000 C 
BRANCH   9  10
ATOM     10  C   UNL     1      63.227  30.491  61.129  1.00  0.00     0.006 C 
BRANCH  10  11
ATOM     11  C   UNL     1      63.859  29.099  60.960  1.00  0.00     0.053 C 
BRANCH  11  12
ATOM     12  C   UNL     1      65.306  29.180  60.585  1.00  0.00     0.041 C 
ATOM     13  O   UNL     1      65.731  30.149  59.903  1.00  0.00    -0.550 OA
ATOM     14  O   UNL     1      66.181  28.168  60.961  1.00  0.00    -0.550 OA
ENDBRANCH  11  12
ENDBRANCH  10  11
ENDBRANCH   9  10
ENDBRANCH   8   9
ENDBRANCH   1   8
TORSDOF 9
ENDMDL
MODEL 4
REMARK VINA RESULT:    -3.462      1.514      5.224
REMARK INTER + INTRA:          -5.892
REMARK INTER:                  -5.174
REMARK INTRA:                  -0.718
REMARK UNBOUND:                -0.608
REMARK SMILES O=C([O-])CCCCCCCCC(=O)[O-]
REMARK SMILES IDX 7 1 6 2 5 3 4 4 2 5 1 6 3 7 8 8 9 9 10 10 11 11 12 12 13 13
REMARK SMILES IDX 14 14
REMARK H PARENT
REMARK Flexibility Score: inf
ROOT
ATOM      1  C   UNL     1      60.813  31.425  61.347  1.00  0.00     0.000 C 
ENDROOT
BRANCH   1   2
ATOM      2  C   UNL     1      61.660  30.160  61.578  1.00  0.00     0.000 C 
BRANCH   2   3
ATOM      3  C   UNL     1      63.172  30.427  61.497  1.00  0.00     0.006 C 
BRANCH   3   4
ATOM      4  C   UNL     1      63.929  29.275  60.824  1.00  0.00     0.053 C 
BRANCH   4   5
ATOM      5  C   UNL     1      65.284  29.703  60.347  1.00  0.00     0.041 C 
ATOM      6  O   UNL     1      66.316  29.097  60.741  1.00  0.00    -0.550 OA
ATOM      7  O   UNL     1      65.404  30.753  59.447  1.00  0.00    -0.550 OA
ENDBRANCH   4   5
ENDBRANCH   3   4
ENDBRANCH   2   3
ENDBRANCH   1   2
BRANCH   1   8
ATOM      8  C   UNL     1      61.087  32.169  60.027  1.00  0.00     0.000 C 
BRANCH   8   9
ATOM      9  C   UNL     1      61.665  33.578  60.242  1.00  0.00     0.000 C 
BRANCH   9  10
ATOM     10  C   UNL     1      63.135  33.693  59.795  1.00  0.00     0.006 C 
BRANCH  10  11
ATOM     11  C   UNL     1      64.131  33.941  60.939  1.00  0.00     0.053 C 
BRANCH  11  12
ATOM     12  C   UNL     1      64.387  35.401  61.155  1.00  0.00     0.041 C 
ATOM     13  O   UNL     1      64.886  35.803  62.238  1.00  0.00    -0.550 OA
ATOM     14  O   UNL     1      64.044  36.321  60.172  1.00  0.00    -0.550 OA
ENDBRANCH  11  12
ENDBRANCH  10  11
ENDBRANCH   9  10
ENDBRANCH   8   9
ENDBRANCH   1   8
TORSDOF 9
ENDMDL
MODEL 5
REMARK VINA RESULT:    -3.455     12.617     14.107
REMARK INTER + INTRA:          -5.881
REMARK INTER:                  -5.230
REMARK INTRA:                  -0.651
REMARK UNBOUND:                -0.608
REMARK SMILES O=C([O-])CCCCCCCCC(=O)[O-]
REMARK SMILES IDX 7 1 6 2 5 3 4 4 2 5 1 6 3 7 8 8 9 9 10 10 11 11 12 12 13 13
REMARK SMILES IDX 14 14
REMARK H PARENT
REMARK Flexibility Score: inf
ROOT
ATOM      1  C   UNL     1      58.614  29.553  50.846  1.00  0.00     0.000 C 
ENDROOT
BRANCH   1   2
ATOM      2  C   UNL     1      58.907  29.199  49.377  1.00  0.00     0.000 C 
BRANCH   2   3
ATOM      3  C   UNL     1      59.895  28.031  49.226  1.00  0.00     0.006 C 
BRANCH   3   4
ATOM      4  C   UNL     1      59.950  27.152  50.482  1.00  0.00     0.053 C 
BRANCH   4   5
ATOM      5  C   UNL     1      59.380  25.788  50.231  1.00  0.00     0.041 C 
ATOM      6  O   UNL     1      60.141  24.827  49.939  1.00  0.00    -0.550 OA
ATOM      7  O   UNL     1      58.014  25.574  50.345  1.00  0.00    -0.550 OA
ENDBRANCH   4   5
ENDBRANCH   3   4
ENDBRANCH   2   3
ENDBRANCH   1   2
BRANCH   1   8
ATOM      8  C   UNL     1      57.122  29.632  51.220  1.00  0.00     0.000 C 
BRANCH   8   9
ATOM      9  C   UNL     1      56.285  28.508  50.586  1.00  0.00     0.000 C 
BRANCH   9  10
ATOM     10  C   UNL     1      54.770  28.733  50.746  1.00  0.00     0.006 C 
BRANCH  10  11
ATOM     11  C   UNL     1      53.897  27.870  49.821  1.00  0.00     0.053 C 
BRANCH  11  12
ATOM     12  C   UNL     1      54.224  26.413  49.935  1.00  0.00     0.041 C 
ATOM     13  O   UNL     1      54.558  25.756  48.914  1.00  0.00    -0.550 OA
ATOM     14  O   UNL     1      54.128  25.772  51.164  1.00  0.00    -0.550 OA
ENDBRANCH  11  12
ENDBRANCH  10  11
ENDBRANCH   9  10
ENDBRANCH   8   9
ENDBRANCH   1   8
TORSDOF 9
ENDMDL
MODEL 6
REMARK VINA RESULT:    -3.395      1.418      2.101
REMARK INTER + INTRA:          -5.789
REMARK INTER:                  -5.115
REMARK INTRA:                  -0.674
REMARK UNBOUND:                -0.608
REMARK SMILES O=C([O-])CCCCCCCCC(=O)[O-]
REMARK SMILES IDX 7 1 6 2 5 3 4 4 2 5 1 6 3 7 8 8 9 9 10 10 11 11 12 12 13 13
REMARK SMILES IDX 14 14
REMARK H PARENT
REMARK Flexibility Score: inf
ROOT
ATOM      1  C   UNL     1      62.104  33.166  60.293  1.00  0.00     0.000 C 
ENDROOT
BRANCH   1   2
ATOM      2  C   UNL     1      61.648  34.622  60.088  1.00  0.00     0.000 C 
BRANCH   2   3
ATOM      3  C   UNL     1      62.533  35.638  60.829  1.00  0.00     0.006 C 
BRANCH   3   4
ATOM      4  C   UNL     1      63.876  35.034  61.256  1.00  0.00     0.053 C 
BRANCH   4   5
ATOM      5  C   UNL     1      64.867  36.093  61.634  1.00  0.00     0.041 C 
ATOM      6  O   UNL     1      64.578  36.947  62.515  1.00  0.00    -0.550 OA
ATOM      7  O   UNL     1      66.119  36.121  61.034  1.00  0.00    -0.550 OA
ENDBRANCH   4   5
ENDBRANCH   3   4
ENDBRANCH   2   3
ENDBRANCH   1   2
BRANCH   1   8
ATOM      8  C   UNL     1      62.496  32.412  59.009  1.00  0.00     0.000 C 
BRANCH   8   9
ATOM      9  C   UNL     1      63.758  31.549  59.182  1.00  0.00     0.000 C 
BRANCH   9  10
ATOM     10  C   UNL     1      64.143  31.350  60.660  1.00  0.00     0.006 C 
BRANCH  10  11
ATOM     11  C   UNL     1      64.068  29.894  61.147  1.00  0.00     0.053 C 
BRANCH  11  12
ATOM     12  C   UNL     1      62.655  29.433  61.327  1.00  0.00     0.041 C 
ATOM     13  O   UNL     1      62.303  28.294  60.922  1.00  0.00    -0.550 OA
ATOM     14  O   UNL     1      61.716  30.274  61.912  1.00  0.00    -0.550 OA
ENDBRANCH  11  12
ENDBRANCH  10  11
ENDBRANCH   9  10
ENDBRANCH   8   9
ENDBRANCH   1   8
TORSDOF 9
ENDMDL
MODEL 7
REMARK VINA RESULT:    -3.350     12.523     13.857
REMARK INTER + INTRA:          -5.720
REMARK INTER:                  -5.237
REMARK INTRA:                  -0.483
REMARK UNBOUND:                -0.608
REMARK SMILES O=C([O-])CCCCCCCCC(=O)[O-]
REMARK SMILES IDX 7 1 6 2 5 3 4 4 2 5 1 6 3 7 8 8 9 9 10 10 11 11 12 12 13 13
REMARK SMILES IDX 14 14
REMARK H PARENT
REMARK Flexibility Score: inf
ROOT
ATOM      1  C   UNL     1      59.380  28.343  49.197  1.00  0.00     0.000 C 
ENDROOT
BRANCH   1   2
ATOM      2  C   UNL     1      59.803  27.118  50.028  1.00  0.00     0.000 C 
BRANCH   2   3
ATOM      3  C   UNL     1      61.315  26.842  49.963  1.00  0.00     0.006 C 
BRANCH   3   4
ATOM      4  C   UNL     1      62.114  28.086  49.552  1.00  0.00     0.053 C 
BRANCH   4   5
ATOM      5  C   UNL     1      63.507  27.735  49.124  1.00  0.00     0.041 C 
ATOM      6  O   UNL     1      64.045  28.338  48.157  1.00  0.00    -0.550 OA
ATOM      7  O   UNL     1      64.220  26.761  49.810  1.00  0.00    -0.550 OA
ENDBRANCH   4   5
ENDBRANCH   3   4
ENDBRANCH   2   3
ENDBRANCH   1   2
BRANCH   1   8
ATOM      8  C   UNL     1      58.331  29.256  49.858  1.00  0.00     0.000 C 
BRANCH   8   9
ATOM      9  C   UNL     1      57.516  28.541  50.950  1.00  0.00     0.000 C 
BRANCH   9  10
ATOM     10  C   UNL     1      56.068  28.247  50.515  1.00  0.00     0.006 C 
BRANCH  10  11
ATOM     11  C   UNL     1      55.792  26.774  50.173  1.00  0.00     0.053 C 
BRANCH  11  12
ATOM     12  C   UNL     1      54.426  26.578  49.592  1.00  0.00     0.041 C 
ATOM     13  O   UNL     1      53.624  27.545  49.516  1.00  0.00    -0.550 OA
ATOM     14  O   UNL     1      54.025  25.318  49.164  1.00  0.00    -0.550 OA
ENDBRANCH  11  12
ENDBRANCH  10  11
ENDBRANCH   9  10
ENDBRANCH   8   9
ENDBRANCH   1   8
TORSDOF 9
ENDMDL
MODEL 8
REMARK VINA RESULT:    -3.316      2.105      3.034
REMARK INTER + INTRA:          -5.668
REMARK INTER:                  -5.091
REMARK INTRA:                  -0.577
REMARK UNBOUND:                -0.608
REMARK SMILES O=C([O-])CCCCCCCCC(=O)[O-]
REMARK SMILES IDX 7 1 6 2 5 3 4 4 2 5 1 6 3 7 8 8 9 9 10 10 11 11 12 12 13 13
REMARK SMILES IDX 14 14
REMARK H PARENT
REMARK Flexibility Score: inf
ROOT
ATOM      1  C   UNL     1      61.119  31.845  61.060  1.00  0.00     0.000 C 
ENDROOT
BRANCH   1   2
ATOM      2  C   UNL     1      62.023  32.522  60.014  1.00  0.00     0.000 C 
BRANCH   2   3
ATOM      3  C   UNL     1      62.575  33.878  60.485  1.00  0.00     0.006 C 
BRANCH   3   4
ATOM      4  C   UNL     1      64.074  33.814  60.804  1.00  0.00     0.053 C 
BRANCH   4   5
ATOM      5  C   UNL     1      64.670  35.182  60.951  1.00  0.00     0.041 C 
ATOM      6  O   UNL     1      64.765  35.713  62.090  1.00  0.00    -0.550 OA
ATOM      7  O   UNL     1      65.143  35.858  59.835  1.00  0.00    -0.550 OA
ENDBRANCH   4   5
ENDBRANCH   3   4
ENDBRANCH   2   3
ENDBRANCH   1   2
BRANCH   1   8
ATOM      8  C   UNL     1      61.617  30.482  61.577  1.00  0.00     0.000 C 
BRANCH   8   9
ATOM      9  C   UNL     1      63.135  30.296  61.410  1.00  0.00     0.000 C 
BRANCH   9  10
ATOM     10  C   UNL     1      63.493  29.040  60.595  1.00  0.00     0.006 C 
BRANCH  10  11
ATOM     11  C   UNL     1      62.341  28.035  60.432  1.00  0.00     0.053 C 
BRANCH  11  12
ATOM     12  C   UNL     1      62.564  26.788  61.231  1.00  0.00     0.041 C 
ATOM     13  O   UNL     1      63.462  25.973  60.894  1.00  0.00    -0.550 OA
ATOM     14  O   UNL     1      61.758  26.509  62.328  1.00  0.00    -0.550 OA
ENDBRANCH  11  12
ENDBRANCH  10  11
ENDBRANCH   9  10
ENDBRANCH   8   9
ENDBRANCH   1   8
TORSDOF 9
ENDMDL
MODEL 9
REMARK VINA RESULT:    -3.217      1.658      6.061
REMARK INTER + INTRA:          -5.517
REMARK INTER:                  -5.023
REMARK INTRA:                  -0.493
REMARK UNBOUND:                -0.608
REMARK SMILES O=C([O-])CCCCCCCCC(=O)[O-]
REMARK SMILES IDX 7 1 6 2 5 3 4 4 2 5 1 6 3 7 8 8 9 9 10 10 11 11 12 12 13 13
REMARK SMILES IDX 14 14
REMARK H PARENT
REMARK Flexibility Score: inf
ROOT
ATOM      1  C   UNL     1      62.104  32.425  60.070  1.00  0.00     0.000 C 
ENDROOT
BRANCH   1   2
ATOM      2  C   UNL     1      61.071  31.738  60.981  1.00  0.00     0.000 C 
BRANCH   2   3
ATOM      3  C   UNL     1      61.592  30.429  61.598  1.00  0.00     0.006 C 
BRANCH   3   4
ATOM      4  C   UNL     1      63.100  30.246  61.382  1.00  0.00     0.053 C 
BRANCH   4   5
ATOM      5  C   UNL     1      63.415  28.921  60.756  1.00  0.00     0.041 C 
ATOM      6  O   UNL     1      64.231  28.850  59.798  1.00  0.00    -0.550 OA
ATOM      7  O   UNL     1      62.829  27.763  61.248  1.00  0.00    -0.550 OA
ENDBRANCH   4   5
ENDBRANCH   3   4
ENDBRANCH   2   3
ENDBRANCH   1   2
BRANCH   1   8
ATOM      8  C   UNL     1      62.572  33.816  60.537  1.00  0.00     0.000 C 
BRANCH   8   9
ATOM      9  C   UNL     1      64.086  33.882  60.799  1.00  0.00     0.000 C 
BRANCH   9  10
ATOM     10  C   UNL     1      64.500  35.144  61.580  1.00  0.00     0.006 C 
BRANCH  10  11
ATOM     11  C   UNL     1      63.959  36.459  60.996  1.00  0.00     0.053 C 
BRANCH  11  12
ATOM     12  C   UNL     1      64.490  36.725  59.621  1.00  0.00     0.041 C 
ATOM     13  O   UNL     1      63.716  37.114  58.707  1.00  0.00    -0.550 OA
ATOM     14  O   UNL     1      65.833  36.510  59.339  1.00  0.00    -0.550 OA
ENDBRANCH  11  12
ENDBRANCH  10  11
ENDBRANCH   9  10
ENDBRANCH   8   9
ENDBRANCH   1   8
TORSDOF 9
ENDMDL
