MODEL 1
REMARK VINA RESULT:    -3.000      0.000      0.000
REMARK INTER + INTRA:         -14.347
REMARK INTER:                  -7.910
REMARK INTRA:                  -6.437
REMARK UNBOUND:                -6.437
REMARK SMILES CCCCCCCCCCCCCCCCCCCCCCCCCCCCCC(=O)[O-]
REMARK SMILES IDX 16 1 17 2 18 3 19 4 20 5 21 6 22 7 23 8 24 9 25 10 26 11
REMARK SMILES IDX 27 12 28 13 29 14 30 15 31 16 32 17 15 18 14 19 13 20 12 21
REMARK SMILES IDX 11 22 10 23 9 24 8 25 7 26 6 27 5 28 4 29 3 30 2 31 1 32
REMARK H PARENT
REMARK Flexibility Score: inf
ROOT
ATOM      1  C   UNL     1      -4.309  26.873  44.616  1.00  0.00     0.000 C 
ENDROOT
BRANCH   1   2
ATOM      2  C   UNL     1      -4.681  26.167  43.299  1.00  0.00     0.000 C 
BRANCH   2   3
ATOM      3  C   UNL     1      -5.747  25.077  43.493  1.00  0.00     0.000 C 
BRANCH   3   4
ATOM      4  C   UNL     1      -6.766  25.031  42.339  1.00  0.00     0.000 C 
BRANCH   4   5
ATOM      5  C   UNL     1      -6.485  26.092  41.263  1.00  0.00     0.000 C 
BRANCH   5   6
ATOM      6  C   UNL     1      -7.730  26.421  40.422  1.00  0.00     0.000 C 
BRANCH   6   7
ATOM      7  C   UNL     1      -7.997  27.931  40.316  1.00  0.00     0.000 C 
BRANCH   7   8
ATOM      8  C   UNL     1      -6.773  28.776  40.703  1.00  0.00     0.000 C 
BRANCH   8   9
ATOM      9  C   UNL     1      -7.077  29.779  41.832  1.00  0.00     0.000 C 
BRANCH   9  10
ATOM     10  C   UNL     1      -6.780  29.270  43.257  1.00  0.00     0.000 C 
BRANCH  10  11
ATOM     11  C   UNL     1      -8.017  29.090  44.159  1.00  0.00     0.000 C 
BRANCH  11  12
ATOM     12  C   UNL     1      -8.588  27.661  44.200  1.00  0.00     0.000 C 
BRANCH  12  13
ATOM     13  C   UNL     1     -10.126  27.636  44.174  1.00  0.00     0.006 C 
BRANCH  13  14
ATOM     14  C   UNL     1     -10.689  27.846  42.762  1.00  0.00     0.053 C 
BRANCH  14  15
ATOM     15  C   UNL     1     -11.454  26.652  42.275  1.00  0.00     0.041 C 
ATOM     16  O   UNL     1     -12.706  26.712  42.136  1.00  0.00    -0.550 OA
ATOM     17  O   UNL     1     -10.782  25.470  41.973  1.00  0.00    -0.550 OA
ENDBRANCH  14  15
ENDBRANCH  13  14
ENDBRANCH  12  13
ENDBRANCH  11  12
ENDBRANCH  10  11
ENDBRANCH   9  10
ENDBRANCH   8   9
ENDBRANCH   7   8
ENDBRANCH   6   7
ENDBRANCH   5   6
ENDBRANCH   4   5
ENDBRANCH   3   4
ENDBRANCH   2   3
ENDBRANCH   1   2
BRANCH   1  18
ATOM     18  C   UNL     1      -5.312  26.585  45.744  1.00  0.00     0.000 C 
BRANCH  18  19
ATOM     19  C   UNL     1      -5.666  27.845  46.552  1.00  0.00     0.000 C 
BRANCH  19  20
ATOM     20  C   UNL     1      -4.546  28.897  46.536  1.00  0.00     0.000 C 
BRANCH  20  21
ATOM     21  C   UNL     1      -5.090  30.336  46.478  1.00  0.00     0.000 C 
BRANCH  21  22
ATOM     22  C   UNL     1      -6.469  30.486  47.144  1.00  0.00     0.000 C 
BRANCH  22  23
ATOM     23  C   UNL     1      -6.924  31.939  47.405  1.00  0.00     0.000 C 
BRANCH  23  24
ATOM     24  C   UNL     1      -5.996  32.768  48.310  1.00  0.00    -0.000 C 
BRANCH  24  25
ATOM     25  C   UNL     1      -5.288  33.911  47.561  1.00  0.00    -0.000 C 
BRANCH  25  26
ATOM     26  C   UNL     1      -6.265  34.775  46.749  1.00  0.00    -0.000 C 
BRANCH  26  27
ATOM     27  C   UNL     1      -5.824  34.960  45.287  1.00  0.00    -0.000 C 
BRANCH  27  28
ATOM     28  C   UNL     1      -5.108  33.720  44.722  1.00  0.00    -0.000 C 
BRANCH  28  29
ATOM     29  C   UNL     1      -5.984  32.815  43.835  1.00  0.00    -0.000 C 
BRANCH  29  30
ATOM     30  C   UNL     1      -7.327  33.467  43.460  1.00  0.00    -0.000 C 
BRANCH  30  31
ATOM     31  C   UNL     1      -8.530  32.728  44.067  1.00  0.00    -0.003 C 
ATOM     32  C   UNL     1      -9.548  32.292  43.014  1.00  0.00     0.004 C 
ENDBRANCH  30  31
ENDBRANCH  29  30
ENDBRANCH  28  29
ENDBRANCH  27  28
ENDBRANCH  26  27
ENDBRANCH  25  26
ENDBRANCH  24  25
ENDBRANCH  23  24
ENDBRANCH  22  23
ENDBRANCH  21  22
ENDBRANCH  20  21
ENDBRANCH  19  20
ENDBRANCH  18  19
ENDBRANCH   1  18
TORSDOF 28
ENDMDL
MODEL 2
REMARK VINA RESULT:    -2.955      1.452      3.651
REMARK INTER + INTRA:         -14.229
REMARK INTER:                  -7.744
REMARK INTRA:                  -6.485
REMARK UNBOUND:                -6.437
REMARK SMILES CCCCCCCCCCCCCCCCCCCCCCCCCCCCCC(=O)[O-]
REMARK SMILES IDX 16 1 17 2 18 3 19 4 20 5 21 6 22 7 23 8 24 9 25 10 26 11
REMARK SMILES IDX 27 12 28 13 29 14 30 15 31 16 32 17 15 18 14 19 13 20 12 21
REMARK SMILES IDX 11 22 10 23 9 24 8 25 7 26 6 27 5 28 4 29 3 30 2 31 1 32
REMARK H PARENT
REMARK Flexibility Score: inf
ROOT
ATOM      1  C   UNL     1      -8.373  29.493  44.113  1.00  0.00     0.000 C 
ENDROOT
BRANCH   1   2
ATOM      2  C   UNL     1      -7.687  28.879  45.347  1.00  0.00     0.000 C 
BRANCH   2   3
ATOM      3  C   UNL     1      -7.813  27.348  45.393  1.00  0.00     0.000 C 
BRANCH   3   4
ATOM      4  C   UNL     1      -6.607  26.672  46.072  1.00  0.00     0.000 C 
BRANCH   4   5
ATOM      5  C   UNL     1      -5.472  27.663  46.375  1.00  0.00     0.000 C 
BRANCH   5   6
ATOM      6  C   UNL     1      -4.276  27.498  45.421  1.00  0.00     0.000 C 
BRANCH   6   7
ATOM      7  C   UNL     1      -4.489  26.382  44.385  1.00  0.00     0.000 C 
BRANCH   7   8
ATOM      8  C   UNL     1      -4.511  26.911  42.942  1.00  0.00     0.000 C 
BRANCH   8   9
ATOM      9  C   UNL     1      -5.889  26.755  42.273  1.00  0.00     0.000 C 
BRANCH   9  10
ATOM     10  C   UNL     1      -6.590  25.404  42.524  1.00  0.00     0.000 C 
BRANCH  10  11
ATOM     11  C   UNL     1      -7.822  25.131  41.639  1.00  0.00     0.000 C 
BRANCH  11  12
ATOM     12  C   UNL     1      -8.250  26.306  40.742  1.00  0.00     0.000 C 
BRANCH  12  13
ATOM     13  C   UNL     1      -9.778  26.479  40.680  1.00  0.00     0.006 C 
BRANCH  13  14
ATOM     14  C   UNL     1     -10.459  26.124  42.008  1.00  0.00     0.053 C 
BRANCH  14  15
ATOM     15  C   UNL     1     -10.931  27.341  42.745  1.00  0.00     0.041 C 
ATOM     16  O   UNL     1     -11.143  28.418  42.123  1.00  0.00    -0.550 OA
ATOM     17  O   UNL     1     -11.139  27.287  44.120  1.00  0.00    -0.550 OA
ENDBRANCH  14  15
ENDBRANCH  13  14
ENDBRANCH  12  13
ENDBRANCH  11  12
ENDBRANCH  10  11
ENDBRANCH   9  10
ENDBRANCH   8   9
ENDBRANCH   7   8
ENDBRANCH   6   7
ENDBRANCH   5   6
ENDBRANCH   4   5
ENDBRANCH   3   4
ENDBRANCH   2   3
ENDBRANCH   1   2
BRANCH   1  18
ATOM     18  C   UNL     1      -7.366  30.038  43.087  1.00  0.00     0.000 C 
BRANCH  18  19
ATOM     19  C   UNL     1      -5.964  30.234  43.688  1.00  0.00     0.000 C 
BRANCH  19  20
ATOM     20  C   UNL     1      -5.347  31.595  43.330  1.00  0.00     0.000 C 
BRANCH  20  21
ATOM     21  C   UNL     1      -4.534  32.197  44.490  1.00  0.00     0.000 C 
BRANCH  21  22
ATOM     22  C   UNL     1      -3.981  31.133  45.455  1.00  0.00     0.000 C 
BRANCH  22  23
ATOM     23  C   UNL     1      -4.272  31.381  46.951  1.00  0.00     0.000 C 
BRANCH  23  24
ATOM     24  C   UNL     1      -5.761  31.428  47.335  1.00  0.00    -0.000 C 
BRANCH  24  25
ATOM     25  C   UNL     1      -6.215  32.816  47.820  1.00  0.00    -0.000 C 
BRANCH  25  26
ATOM     26  C   UNL     1      -7.227  33.470  46.866  1.00  0.00    -0.000 C 
BRANCH  26  27
ATOM     27  C   UNL     1      -7.982  32.444  46.003  1.00  0.00    -0.000 C 
BRANCH  27  28
ATOM     28  C   UNL     1      -8.928  33.105  44.985  1.00  0.00    -0.000 C 
BRANCH  28  29
ATOM     29  C   UNL     1      -8.232  33.698  43.746  1.00  0.00    -0.000 C 
BRANCH  29  30
ATOM     30  C   UNL     1      -9.004  33.431  42.442  1.00  0.00    -0.000 C 
BRANCH  30  31
ATOM     31  C   UNL     1      -8.072  33.211  41.239  1.00  0.00    -0.003 C 
ATOM     32  C   UNL     1      -6.864  34.148  41.249  1.00  0.00     0.004 C 
ENDBRANCH  30  31
ENDBRANCH  29  30
ENDBRANCH  28  29
ENDBRANCH  27  28
ENDBRANCH  26  27
ENDBRANCH  25  26
ENDBRANCH  24  25
ENDBRANCH  23  24
ENDBRANCH  22  23
ENDBRANCH  21  22
ENDBRANCH  20  21
ENDBRANCH  19  20
ENDBRANCH  18  19
ENDBRANCH   1  18
TORSDOF 28
ENDMDL
MODEL 3
REMARK VINA RESULT:    -2.917     13.174     16.312
REMARK INTER + INTRA:         -14.127
REMARK INTER:                 -10.199
REMARK INTRA:                  -3.928
REMARK UNBOUND:                -6.437
REMARK SMILES CCCCCCCCCCCCCCCCCCCCCCCCCCCCCC(=O)[O-]
REMARK SMILES IDX 16 1 17 2 18 3 19 4 20 5 21 6 22 7 23 8 24 9 25 10 26 11
REMARK SMILES IDX 27 12 28 13 29 14 30 15 31 16 32 17 15 18 14 19 13 20 12 21
REMARK SMILES IDX 11 22 10 23 9 24 8 25 7 26 6 27 5 28 4 29 3 30 2 31 1 32
REMARK H PARENT
REMARK Flexibility Score: inf
ROOT
ATOM      1  C   UNL     1     -19.104  23.508  34.215  1.00  0.00     0.000 C 
ENDROOT
BRANCH   1   2
ATOM      2  C   UNL     1     -20.146  23.201  35.306  1.00  0.00     0.000 C 
BRANCH   2   3
ATOM      3  C   UNL     1     -21.129  22.095  34.891  1.00  0.00     0.000 C 
BRANCH   3   4
ATOM      4  C   UNL     1     -21.915  21.520  36.084  1.00  0.00     0.000 C 
BRANCH   4   5
ATOM      5  C   UNL     1     -21.540  22.193  37.415  1.00  0.00     0.000 C 
BRANCH   5   6
ATOM      6  C   UNL     1     -22.063  21.416  38.635  1.00  0.00     0.000 C 
BRANCH   6   7
ATOM      7  C   UNL     1     -22.571  22.335  39.757  1.00  0.00     0.000 C 
BRANCH   7   8
ATOM      8  C   UNL     1     -21.802  22.141  41.074  1.00  0.00     0.000 C 
BRANCH   8   9
ATOM      9  C   UNL     1     -20.516  21.315  40.895  1.00  0.00     0.000 C 
BRANCH   9  10
ATOM     10  C   UNL     1     -19.204  22.074  41.184  1.00  0.00     0.000 C 
BRANCH  10  11
ATOM     11  C   UNL     1     -18.055  21.209  41.738  1.00  0.00     0.000 C 
BRANCH  11  12
ATOM     12  C   UNL     1     -18.392  19.716  41.913  1.00  0.00     0.000 C 
BRANCH  12  13
ATOM     13  C   UNL     1     -17.149  18.814  41.825  1.00  0.00     0.006 C 
BRANCH  13  14
ATOM     14  C   UNL     1     -17.322  17.680  40.807  1.00  0.00     0.053 C 
BRANCH  14  15
ATOM     15  C   UNL     1     -16.444  16.504  41.116  1.00  0.00     0.041 C 
ATOM     16  O   UNL     1     -16.931  15.472  41.653  1.00  0.00    -0.550 OA
ATOM     17  O   UNL     1     -15.088  16.546  40.808  1.00  0.00    -0.550 OA
ENDBRANCH  14  15
ENDBRANCH  13  14
ENDBRANCH  12  13
ENDBRANCH  11  12
ENDBRANCH  10  11
ENDBRANCH   9  10
ENDBRANCH   8   9
ENDBRANCH   7   8
ENDBRANCH   6   7
ENDBRANCH   5   6
ENDBRANCH   4   5
ENDBRANCH   3   4
ENDBRANCH   2   3
ENDBRANCH   1   2
BRANCH   1  18
ATOM     18  C   UNL     1     -19.661  23.314  32.796  1.00  0.00     0.000 C 
BRANCH  18  19
ATOM     19  C   UNL     1     -19.793  24.642  32.030  1.00  0.00     0.000 C 
BRANCH  19  20
ATOM     20  C   UNL     1     -20.666  25.670  32.765  1.00  0.00     0.000 C 
BRANCH  20  21
ATOM     21  C   UNL     1     -19.951  27.019  32.960  1.00  0.00     0.000 C 
BRANCH  21  22
ATOM     22  C   UNL     1     -18.434  26.938  32.713  1.00  0.00     0.000 C 
BRANCH  22  23
ATOM     23  C   UNL     1     -17.547  27.416  33.883  1.00  0.00     0.000 C 
BRANCH  23  24
ATOM     24  C   UNL     1     -17.170  26.334  34.911  1.00  0.00    -0.000 C 
BRANCH  24  25
ATOM     25  C   UNL     1     -16.475  26.906  36.159  1.00  0.00    -0.000 C 
BRANCH  25  26
ATOM     26  C   UNL     1     -17.433  27.048  37.352  1.00  0.00    -0.000 C 
BRANCH  26  27
ATOM     27  C   UNL     1     -18.714  26.211  37.191  1.00  0.00    -0.000 C 
BRANCH  27  28
ATOM     28  C   UNL     1     -18.716  24.951  38.075  1.00  0.00    -0.000 C 
BRANCH  28  29
ATOM     29  C   UNL     1     -19.865  24.881  39.099  1.00  0.00    -0.000 C 
BRANCH  29  30
ATOM     30  C   UNL     1     -19.587  25.708  40.367  1.00  0.00    -0.000 C 
BRANCH  30  31
ATOM     31  C   UNL     1     -20.872  26.070  41.128  1.00  0.00    -0.003 C 
ATOM     32  C   UNL     1     -22.119  26.009  40.245  1.00  0.00     0.004 C 
ENDBRANCH  30  31
ENDBRANCH  29  30
ENDBRANCH  28  29
ENDBRANCH  27  28
ENDBRANCH  26  27
ENDBRANCH  25  26
ENDBRANCH  24  25
ENDBRANCH  23  24
ENDBRANCH  22  23
ENDBRANCH  21  22
ENDBRANCH  20  21
ENDBRANCH  19  20
ENDBRANCH  18  19
ENDBRANCH   1  18
TORSDOF 28
ENDMDL
MODEL 4
REMARK VINA RESULT:    -2.900     11.211     15.609
REMARK INTER + INTRA:         -14.083
REMARK INTER:                  -8.957
REMARK INTRA:                  -5.126
REMARK UNBOUND:                -6.437
REMARK SMILES CCCCCCCCCCCCCCCCCCCCCCCCCCCCCC(=O)[O-]
REMARK SMILES IDX 16 1 17 2 18 3 19 4 20 5 21 6 22 7 23 8 24 9 25 10 26 11
REMARK SMILES IDX 27 12 28 13 29 14 30 15 31 16 32 17 15 18 14 19 13 20 12 21
REMARK SMILES IDX 11 22 10 23 9 24 8 25 7 26 6 27 5 28 4 29 3 30 2 31 1 32
REMARK H PARENT
REMARK Flexibility Score: inf
ROOT
ATOM      1  C   UNL     1     -17.921  26.249  36.190  1.00  0.00     0.000 C 
ENDROOT
BRANCH   1   2
ATOM      2  C   UNL     1     -18.288  24.797  36.547  1.00  0.00     0.000 C 
BRANCH   2   3
ATOM      3  C   UNL     1     -19.603  24.696  37.336  1.00  0.00     0.000 C 
BRANCH   3   4
ATOM      4  C   UNL     1     -19.375  24.532  38.850  1.00  0.00     0.000 C 
BRANCH   4   5
ATOM      5  C   UNL     1     -20.150  25.570  39.678  1.00  0.00     0.000 C 
BRANCH   5   6
ATOM      6  C   UNL     1     -19.615  25.693  41.116  1.00  0.00     0.000 C 
BRANCH   6   7
ATOM      7  C   UNL     1     -20.618  25.196  42.170  1.00  0.00     0.000 C 
BRANCH   7   8
ATOM      8  C   UNL     1     -22.054  25.667  41.888  1.00  0.00     0.000 C 
BRANCH   8   9
ATOM      9  C   UNL     1     -23.071  24.511  41.896  1.00  0.00     0.000 C 
BRANCH   9  10
ATOM     10  C   UNL     1     -22.454  23.097  41.892  1.00  0.00     0.000 C 
BRANCH  10  11
ATOM     11  C   UNL     1     -22.177  22.508  40.494  1.00  0.00     0.000 C 
BRANCH  11  12
ATOM     12  C   UNL     1     -20.907  21.644  40.394  1.00  0.00     0.000 C 
BRANCH  12  13
ATOM     13  C   UNL     1     -20.561  20.942  41.719  1.00  0.00     0.006 C 
BRANCH  13  14
ATOM     14  C   UNL     1     -19.247  21.453  42.324  1.00  0.00     0.053 C 
BRANCH  14  15
ATOM     15  C   UNL     1     -18.049  20.973  41.561  1.00  0.00     0.041 C 
ATOM     16  O   UNL     1     -17.381  21.778  40.857  1.00  0.00    -0.550 OA
ATOM     17  O   UNL     1     -17.668  19.636  41.630  1.00  0.00    -0.550 OA
ENDBRANCH  14  15
ENDBRANCH  13  14
ENDBRANCH  12  13
ENDBRANCH  11  12
ENDBRANCH  10  11
ENDBRANCH   9  10
ENDBRANCH   8   9
ENDBRANCH   7   8
ENDBRANCH   6   7
ENDBRANCH   5   6
ENDBRANCH   4   5
ENDBRANCH   3   4
ENDBRANCH   2   3
ENDBRANCH   1   2
BRANCH   1  18
ATOM     18  C   UNL     1     -17.911  26.500  34.674  1.00  0.00     0.000 C 
BRANCH  18  19
ATOM     19  C   UNL     1     -19.045  25.757  33.947  1.00  0.00     0.000 C 
BRANCH  19  20
ATOM     20  C   UNL     1     -18.620  25.216  32.574  1.00  0.00     0.000 C 
BRANCH  20  21
ATOM     21  C   UNL     1     -19.193  23.816  32.288  1.00  0.00     0.000 C 
BRANCH  21  22
ATOM     22  C   UNL     1     -19.708  23.106  33.552  1.00  0.00     0.000 C 
BRANCH  22  23
ATOM     23  C   UNL     1     -18.745  22.067  34.166  1.00  0.00     0.000 C 
BRANCH  23  24
ATOM     24  C   UNL     1     -17.304  22.102  33.625  1.00  0.00    -0.000 C 
BRANCH  24  25
ATOM     25  C   UNL     1     -16.328  22.840  34.559  1.00  0.00    -0.000 C 
BRANCH  25  26
ATOM     26  C   UNL     1     -15.412  23.813  33.801  1.00  0.00    -0.000 C 
BRANCH  26  27
ATOM     27  C   UNL     1     -14.534  24.659  34.739  1.00  0.00    -0.000 C 
BRANCH  27  28
ATOM     28  C   UNL     1     -13.641  23.800  35.652  1.00  0.00    -0.000 C 
BRANCH  28  29
ATOM     29  C   UNL     1     -13.430  24.365  37.069  1.00  0.00    -0.000 C 
BRANCH  29  30
ATOM     30  C   UNL     1     -14.573  25.294  37.517  1.00  0.00    -0.000 C 
BRANCH  30  31
ATOM     31  C   UNL     1     -15.308  24.767  38.759  1.00  0.00    -0.003 C 
ATOM     32  C   UNL     1     -16.087  25.859  39.492  1.00  0.00     0.004 C 
ENDBRANCH  30  31
ENDBRANCH  29  30
ENDBRANCH  28  29
ENDBRANCH  27  28
ENDBRANCH  26  27
ENDBRANCH  25  26
ENDBRANCH  24  25
ENDBRANCH  23  24
ENDBRANCH  22  23
ENDBRANCH  21  22
ENDBRANCH  20  21
ENDBRANCH  19  20
ENDBRANCH  18  19
ENDBRANCH   1  18
TORSDOF 28
ENDMDL
MODEL 5
REMARK VINA RESULT:    -2.888      3.714      7.766
REMARK INTER + INTRA:         -14.051
REMARK INTER:                  -8.996
REMARK INTRA:                  -5.055
REMARK UNBOUND:                -6.437
REMARK SMILES CCCCCCCCCCCCCCCCCCCCCCCCCCCCCC(=O)[O-]
REMARK SMILES IDX 16 1 17 2 18 3 19 4 20 5 21 6 22 7 23 8 24 9 25 10 26 11
REMARK SMILES IDX 27 12 28 13 29 14 30 15 31 16 32 17 15 18 14 19 13 20 12 21
REMARK SMILES IDX 11 22 10 23 9 24 8 25 7 26 6 27 5 28 4 29 3 30 2 31 1 32
REMARK H PARENT
REMARK Flexibility Score: inf
ROOT
ATOM      1  C   UNL     1      -4.447  29.536  42.875  1.00  0.00     0.000 C 
ENDROOT
BRANCH   1   2
ATOM      2  C   UNL     1      -4.036  28.704  44.103  1.00  0.00     0.000 C 
BRANCH   2   3
ATOM      3  C   UNL     1      -4.419  29.377  45.430  1.00  0.00     0.000 C 
BRANCH   3   4
ATOM      4  C   UNL     1      -4.961  28.378  46.468  1.00  0.00     0.000 C 
BRANCH   4   5
ATOM      5  C   UNL     1      -5.036  26.943  45.922  1.00  0.00     0.000 C 
BRANCH   5   6
ATOM      6  C   UNL     1      -6.444  26.336  46.053  1.00  0.00     0.000 C 
BRANCH   6   7
ATOM      7  C   UNL     1      -7.561  27.346  45.743  1.00  0.00     0.000 C 
BRANCH   7   8
ATOM      8  C   UNL     1      -7.774  27.546  44.234  1.00  0.00     0.000 C 
BRANCH   8   9
ATOM      9  C   UNL     1      -8.013  29.020  43.858  1.00  0.00     0.000 C 
BRANCH   9  10
ATOM     10  C   UNL     1      -8.774  29.850  44.913  1.00  0.00     0.000 C 
BRANCH  10  11
ATOM     11  C   UNL     1      -7.980  31.022  45.522  1.00  0.00     0.000 C 
BRANCH  11  12
ATOM     12  C   UNL     1      -7.710  30.908  47.034  1.00  0.00     0.000 C 
BRANCH  12  13
ATOM     13  C   UNL     1      -6.409  31.611  47.459  1.00  0.00     0.006 C 
BRANCH  13  14
ATOM     14  C   UNL     1      -6.659  33.026  47.994  1.00  0.00     0.053 C 
BRANCH  14  15
ATOM     15  C   UNL     1      -5.625  33.442  48.997  1.00  0.00     0.041 C 
ATOM     16  O   UNL     1      -5.926  33.536  50.218  1.00  0.00    -0.550 OA
ATOM     17  O   UNL     1      -4.327  33.726  48.583  1.00  0.00    -0.550 OA
ENDBRANCH  14  15
ENDBRANCH  13  14
ENDBRANCH  12  13
ENDBRANCH  11  12
ENDBRANCH  10  11
ENDBRANCH   9  10
ENDBRANCH   8   9
ENDBRANCH   7   8
ENDBRANCH   6   7
ENDBRANCH   5   6
ENDBRANCH   4   5
ENDBRANCH   3   4
ENDBRANCH   2   3
ENDBRANCH   1   2
BRANCH   1  18
ATOM     18  C   UNL     1      -5.089  30.879  43.260  1.00  0.00     0.000 C 
BRANCH  18  19
ATOM     19  C   UNL     1      -5.694  31.609  42.049  1.00  0.00     0.000 C 
BRANCH  19  20
ATOM     20  C   UNL     1      -6.164  30.648  40.947  1.00  0.00     0.000 C 
BRANCH  20  21
ATOM     21  C   UNL     1      -7.674  30.760  40.670  1.00  0.00     0.000 C 
BRANCH  21  22
ATOM     22  C   UNL     1      -8.217  29.606  39.809  1.00  0.00     0.000 C 
BRANCH  22  23
ATOM     23  C   UNL     1      -9.325  28.755  40.465  1.00  0.00     0.000 C 
BRANCH  23  24
ATOM     24  C   UNL     1     -10.745  29.343  40.385  1.00  0.00    -0.000 C 
BRANCH  24  25
ATOM     25  C   UNL     1     -11.758  28.593  41.268  1.00  0.00    -0.000 C 
BRANCH  25  26
ATOM     26  C   UNL     1     -11.086  27.849  42.432  1.00  0.00    -0.000 C 
BRANCH  26  27
ATOM     27  C   UNL     1     -12.024  26.840  43.115  1.00  0.00    -0.000 C 
BRANCH  27  28
ATOM     28  C   UNL     1     -13.239  26.474  42.245  1.00  0.00    -0.000 C 
BRANCH  28  29
ATOM     29  C   UNL     1     -13.110  25.144  41.479  1.00  0.00    -0.000 C 
BRANCH  29  30
ATOM     30  C   UNL     1     -12.006  24.234  42.046  1.00  0.00    -0.000 C 
BRANCH  30  31
ATOM     31  C   UNL     1     -10.981  23.816  40.979  1.00  0.00    -0.003 C 
ATOM     32  C   UNL     1     -10.309  25.012  40.304  1.00  0.00     0.004 C 
ENDBRANCH  30  31
ENDBRANCH  29  30
ENDBRANCH  28  29
ENDBRANCH  27  28
ENDBRANCH  26  27
ENDBRANCH  25  26
ENDBRANCH  24  25
ENDBRANCH  23  24
ENDBRANCH  22  23
ENDBRANCH  21  22
ENDBRANCH  20  21
ENDBRANCH  19  20
ENDBRANCH  18  19
ENDBRANCH   1  18
TORSDOF 28
ENDMDL
MODEL 6
REMARK VINA RESULT:    -2.858      1.455      3.339
REMARK INTER + INTRA:         -13.974
REMARK INTER:                  -7.973
REMARK INTRA:                  -6.001
REMARK UNBOUND:                -6.437
REMARK SMILES CCCCCCCCCCCCCCCCCCCCCCCCCCCCCC(=O)[O-]
REMARK SMILES IDX 16 1 17 2 18 3 19 4 20 5 21 6 22 7 23 8 24 9 25 10 26 11
REMARK SMILES IDX 27 12 28 13 29 14 30 15 31 16 32 17 15 18 14 19 13 20 12 21
REMARK SMILES IDX 11 22 10 23 9 24 8 25 7 26 6 27 5 28 4 29 3 30 2 31 1 32
REMARK H PARENT
REMARK Flexibility Score: inf
ROOT
ATOM      1  C   UNL     1      -8.143  29.337  44.236  1.00  0.00     0.000 C 
ENDROOT
BRANCH   1   2
ATOM      2  C   UNL     1      -7.287  28.762  45.379  1.00  0.00     0.000 C 
BRANCH   2   3
ATOM      3  C   UNL     1      -7.660  27.312  45.725  1.00  0.00     0.000 C 
BRANCH   3   4
ATOM      4  C   UNL     1      -6.426  26.406  45.897  1.00  0.00     0.000 C 
BRANCH   4   5
ATOM      5  C   UNL     1      -5.138  27.061  45.374  1.00  0.00     0.000 C 
BRANCH   5   6
ATOM      6  C   UNL     1      -4.639  26.419  44.068  1.00  0.00     0.000 C 
BRANCH   6   7
ATOM      7  C   UNL     1      -5.725  25.601  43.353  1.00  0.00     0.000 C 
BRANCH   7   8
ATOM      8  C   UNL     1      -6.421  26.392  42.233  1.00  0.00     0.000 C 
BRANCH   8   9
ATOM      9  C   UNL     1      -7.953  26.233  42.256  1.00  0.00     0.000 C 
BRANCH   9  10
ATOM     10  C   UNL     1      -8.706  26.986  41.140  1.00  0.00     0.000 C 
BRANCH  10  11
ATOM     11  C   UNL     1     -10.084  27.547  41.544  1.00  0.00     0.000 C 
BRANCH  11  12
ATOM     12  C   UNL     1     -10.515  27.233  42.988  1.00  0.00     0.000 C 
BRANCH  12  13
ATOM     13  C   UNL     1     -12.006  26.867  43.095  1.00  0.00     0.006 C 
BRANCH  13  14
ATOM     14  C   UNL     1     -12.650  26.635  41.723  1.00  0.00     0.053 C 
BRANCH  14  15
ATOM     15  C   UNL     1     -13.068  25.209  41.528  1.00  0.00     0.041 C 
ATOM     16  O   UNL     1     -12.540  24.292  42.214  1.00  0.00    -0.550 OA
ATOM     17  O   UNL     1     -14.045  24.891  40.588  1.00  0.00    -0.550 OA
ENDBRANCH  14  15
ENDBRANCH  13  14
ENDBRANCH  12  13
ENDBRANCH  11  12
ENDBRANCH  10  11
ENDBRANCH   9  10
ENDBRANCH   8   9
ENDBRANCH   7   8
ENDBRANCH   6   7
ENDBRANCH   5   6
ENDBRANCH   4   5
ENDBRANCH   3   4
ENDBRANCH   2   3
ENDBRANCH   1   2
BRANCH   1  18
ATOM     18  C   UNL     1      -7.293  29.910  43.091  1.00  0.00     0.000 C 
BRANCH  18  19
ATOM     19  C   UNL     1      -5.817  30.087  43.488  1.00  0.00     0.000 C 
BRANCH  19  20
ATOM     20  C   UNL     1      -5.334  31.539  43.352  1.00  0.00     0.000 C 
BRANCH  20  21
ATOM     21  C   UNL     1      -4.404  31.962  44.504  1.00  0.00     0.000 C 
BRANCH  21  22
ATOM     22  C   UNL     1      -4.058  30.802  45.455  1.00  0.00     0.000 C 
BRANCH  22  23
ATOM     23  C   UNL     1      -4.350  31.062  46.948  1.00  0.00     0.000 C 
BRANCH  23  24
ATOM     24  C   UNL     1      -5.840  31.156  47.323  1.00  0.00    -0.000 C 
BRANCH  24  25
ATOM     25  C   UNL     1      -6.250  32.555  47.816  1.00  0.00    -0.000 C 
BRANCH  25  26
ATOM     26  C   UNL     1      -7.095  33.318  46.783  1.00  0.00    -0.000 C 
BRANCH  26  27
ATOM     27  C   UNL     1      -7.956  32.386  45.913  1.00  0.00    -0.000 C 
BRANCH  27  28
ATOM     28  C   UNL     1      -8.987  33.151  45.064  1.00  0.00    -0.000 C 
BRANCH  28  29
ATOM     29  C   UNL     1      -8.497  33.555  43.660  1.00  0.00    -0.000 C 
BRANCH  29  30
ATOM     30  C   UNL     1      -9.611  33.500  42.600  1.00  0.00    -0.000 C 
BRANCH  30  31
ATOM     31  C   UNL     1      -9.358  32.421  41.535  1.00  0.00    -0.003 C 
ATOM     32  C   UNL     1     -10.405  31.306  41.563  1.00  0.00     0.004 C 
ENDBRANCH  30  31
ENDBRANCH  29  30
ENDBRANCH  28  29
ENDBRANCH  27  28
ENDBRANCH  26  27
ENDBRANCH  25  26
ENDBRANCH  24  25
ENDBRANCH  23  24
ENDBRANCH  22  23
ENDBRANCH  21  22
ENDBRANCH  20  21
ENDBRANCH  19  20
ENDBRANCH  18  19
ENDBRANCH   1  18
TORSDOF 28
ENDMDL
MODEL 7
REMARK VINA RESULT:    -2.858      1.882      5.023
REMARK INTER + INTRA:         -13.973
REMARK INTER:                  -8.547
REMARK INTRA:                  -5.426
REMARK UNBOUND:                -6.437
REMARK SMILES CCCCCCCCCCCCCCCCCCCCCCCCCCCCCC(=O)[O-]
REMARK SMILES IDX 16 1 17 2 18 3 19 4 20 5 21 6 22 7 23 8 24 9 25 10 26 11
REMARK SMILES IDX 27 12 28 13 29 14 30 15 31 16 32 17 15 18 14 19 13 20 12 21
REMARK SMILES IDX 11 22 10 23 9 24 8 25 7 26 6 27 5 28 4 29 3 30 2 31 1 32
REMARK H PARENT
REMARK Flexibility Score: inf
ROOT
ATOM      1  C   UNL     1      -7.074  30.851  42.844  1.00  0.00     0.000 C 
ENDROOT
BRANCH   1   2
ATOM      2  C   UNL     1      -8.534  30.376  42.740  1.00  0.00     0.000 C 
BRANCH   2   3
ATOM      3  C   UNL     1      -9.080  29.843  44.075  1.00  0.00     0.000 C 
BRANCH   3   4
ATOM      4  C   UNL     1      -9.005  28.309  44.177  1.00  0.00     0.000 C 
BRANCH   4   5
ATOM      5  C   UNL     1     -10.369  27.672  44.487  1.00  0.00     0.000 C 
BRANCH   5   6
ATOM      6  C   UNL     1     -11.083  27.166  43.222  1.00  0.00     0.000 C 
BRANCH   6   7
ATOM      7  C   UNL     1     -10.150  27.077  42.004  1.00  0.00     0.000 C 
BRANCH   7   8
ATOM      8  C   UNL     1     -10.619  27.957  40.834  1.00  0.00     0.000 C 
BRANCH   8   9
ATOM      9  C   UNL     1     -11.774  28.898  41.224  1.00  0.00     0.000 C 
BRANCH   9  10
ATOM     10  C   UNL     1     -13.111  28.624  40.506  1.00  0.00     0.000 C 
BRANCH  10  11
ATOM     11  C   UNL     1     -14.237  28.078  41.406  1.00  0.00     0.000 C 
BRANCH  11  12
ATOM     12  C   UNL     1     -14.246  26.548  41.578  1.00  0.00     0.000 C 
BRANCH  12  13
ATOM     13  C   UNL     1     -13.838  25.804  40.294  1.00  0.00     0.006 C 
BRANCH  13  14
ATOM     14  C   UNL     1     -12.658  24.852  40.522  1.00  0.00     0.053 C 
BRANCH  14  15
ATOM     15  C   UNL     1     -13.013  23.720  41.439  1.00  0.00     0.041 C 
ATOM     16  O   UNL     1     -14.159  23.197  41.387  1.00  0.00    -0.550 OA
ATOM     17  O   UNL     1     -12.077  23.242  42.351  1.00  0.00    -0.550 OA
ENDBRANCH  14  15
ENDBRANCH  13  14
ENDBRANCH  12  13
ENDBRANCH  11  12
ENDBRANCH  10  11
ENDBRANCH   9  10
ENDBRANCH   8   9
ENDBRANCH   7   8
ENDBRANCH   6   7
ENDBRANCH   5   6
ENDBRANCH   4   5
ENDBRANCH   3   4
ENDBRANCH   2   3
ENDBRANCH   1   2
BRANCH   1  18
ATOM     18  C   UNL     1      -6.076  29.819  42.295  1.00  0.00     0.000 C 
BRANCH  18  19
ATOM     19  C   UNL     1      -6.739  28.813  41.338  1.00  0.00     0.000 C 
BRANCH  19  20
ATOM     20  C   UNL     1      -6.354  27.358  41.643  1.00  0.00     0.000 C 
BRANCH  20  21
ATOM     21  C   UNL     1      -5.638  27.208  42.997  1.00  0.00     0.000 C 
BRANCH  21  22
ATOM     22  C   UNL     1      -6.232  26.090  43.872  1.00  0.00     0.000 C 
BRANCH  22  23
ATOM     23  C   UNL     1      -5.751  26.071  45.339  1.00  0.00     0.000 C 
BRANCH  23  24
ATOM     24  C   UNL     1      -6.257  27.231  46.215  1.00  0.00    -0.000 C 
BRANCH  24  25
ATOM     25  C   UNL     1      -5.138  28.200  46.636  1.00  0.00    -0.000 C 
BRANCH  25  26
ATOM     26  C   UNL     1      -5.530  29.673  46.436  1.00  0.00    -0.000 C 
BRANCH  26  27
ATOM     27  C   UNL     1      -7.011  29.943  46.754  1.00  0.00    -0.000 C 
BRANCH  27  28
ATOM     28  C   UNL     1      -7.262  31.383  47.236  1.00  0.00    -0.000 C 
BRANCH  28  29
ATOM     29  C   UNL     1      -5.997  32.153  47.660  1.00  0.00    -0.000 C 
BRANCH  29  30
ATOM     30  C   UNL     1      -5.805  33.463  46.875  1.00  0.00    -0.000 C 
BRANCH  30  31
ATOM     31  C   UNL     1      -5.886  33.256  45.354  1.00  0.00    -0.003 C 
ATOM     32  C   UNL     1      -4.536  32.894  44.734  1.00  0.00     0.004 C 
ENDBRANCH  30  31
ENDBRANCH  29  30
ENDBRANCH  28  29
ENDBRANCH  27  28
ENDBRANCH  26  27
ENDBRANCH  25  26
ENDBRANCH  24  25
ENDBRANCH  23  24
ENDBRANCH  22  23
ENDBRANCH  21  22
ENDBRANCH  20  21
ENDBRANCH  19  20
ENDBRANCH  18  19
ENDBRANCH   1  18
TORSDOF 28
ENDMDL
MODEL 8
REMARK VINA RESULT:    -2.852      1.553      3.551
REMARK INTER + INTRA:         -13.958
REMARK INTER:                  -7.628
REMARK INTRA:                  -6.330
REMARK UNBOUND:                -6.437
REMARK SMILES CCCCCCCCCCCCCCCCCCCCCCCCCCCCCC(=O)[O-]
REMARK SMILES IDX 16 1 17 2 18 3 19 4 20 5 21 6 22 7 23 8 24 9 25 10 26 11
REMARK SMILES IDX 27 12 28 13 29 14 30 15 31 16 32 17 15 18 14 19 13 20 12 21
REMARK SMILES IDX 11 22 10 23 9 24 8 25 7 26 6 27 5 28 4 29 3 30 2 31 1 32
REMARK H PARENT
REMARK Flexibility Score: inf
ROOT
ATOM      1  C   UNL     1      -8.526  29.732  42.854  1.00  0.00     0.000 C 
ENDROOT
BRANCH   1   2
ATOM      2  C   UNL     1      -7.306  30.407  42.200  1.00  0.00     0.000 C 
BRANCH   2   3
ATOM      3  C   UNL     1      -6.329  30.991  43.232  1.00  0.00     0.000 C 
BRANCH   3   4
ATOM      4  C   UNL     1      -4.919  30.382  43.127  1.00  0.00     0.000 C 
BRANCH   4   5
ATOM      5  C   UNL     1      -4.812  29.337  42.004  1.00  0.00     0.000 C 
BRANCH   5   6
ATOM      6  C   UNL     1      -4.597  27.912  42.545  1.00  0.00     0.000 C 
BRANCH   6   7
ATOM      7  C   UNL     1      -4.927  26.825  41.511  1.00  0.00     0.000 C 
BRANCH   7   8
ATOM      8  C   UNL     1      -6.025  27.259  40.526  1.00  0.00     0.000 C 
BRANCH   8   9
ATOM      9  C   UNL     1      -7.428  26.794  40.958  1.00  0.00     0.000 C 
BRANCH   9  10
ATOM     10  C   UNL     1      -8.581  27.251  40.040  1.00  0.00     0.000 C 
BRANCH  10  11
ATOM     11  C   UNL     1      -9.996  27.042  40.613  1.00  0.00     0.000 C 
BRANCH  11  12
ATOM     12  C   UNL     1     -10.042  26.412  42.018  1.00  0.00     0.000 C 
BRANCH  12  13
ATOM     13  C   UNL     1     -11.225  26.924  42.858  1.00  0.00     0.006 C 
BRANCH  13  14
ATOM     14  C   UNL     1     -12.281  27.639  42.005  1.00  0.00     0.053 C 
BRANCH  14  15
ATOM     15  C   UNL     1     -13.556  26.855  41.910  1.00  0.00     0.041 C 
ATOM     16  O   UNL     1     -13.557  25.705  41.394  1.00  0.00    -0.550 OA
ATOM     17  O   UNL     1     -14.744  27.396  42.393  1.00  0.00    -0.550 OA
ENDBRANCH  14  15
ENDBRANCH  13  14
ENDBRANCH  12  13
ENDBRANCH  11  12
ENDBRANCH  10  11
ENDBRANCH   9  10
ENDBRANCH   8   9
ENDBRANCH   7   8
ENDBRANCH   6   7
ENDBRANCH   5   6
ENDBRANCH   4   5
ENDBRANCH   3   4
ENDBRANCH   2   3
ENDBRANCH   1   2
BRANCH   1  18
ATOM     18  C   UNL     1      -8.635  30.038  44.356  1.00  0.00     0.000 C 
BRANCH  18  19
ATOM     19  C   UNL     1      -8.568  28.768  45.221  1.00  0.00     0.000 C 
BRANCH  19  20
ATOM     20  C   UNL     1      -7.805  27.622  44.539  1.00  0.00     0.000 C 
BRANCH  20  21
ATOM     21  C   UNL     1      -6.585  27.158  45.354  1.00  0.00     0.000 C 
BRANCH  21  22
ATOM     22  C   UNL     1      -6.253  28.095  46.529  1.00  0.00     0.000 C 
BRANCH  22  23
ATOM     23  C   UNL     1      -4.876  28.788  46.455  1.00  0.00     0.000 C 
BRANCH  23  24
ATOM     24  C   UNL     1      -4.868  30.284  46.816  1.00  0.00    -0.000 C 
BRANCH  24  25
ATOM     25  C   UNL     1      -6.248  30.803  47.258  1.00  0.00    -0.000 C 
BRANCH  25  26
ATOM     26  C   UNL     1      -6.163  32.159  47.977  1.00  0.00    -0.000 C 
BRANCH  26  27
ATOM     27  C   UNL     1      -6.992  33.254  47.284  1.00  0.00    -0.000 C 
BRANCH  27  28
ATOM     28  C   UNL     1      -6.707  33.348  45.774  1.00  0.00    -0.000 C 
BRANCH  28  29
ATOM     29  C   UNL     1      -7.700  34.221  44.982  1.00  0.00    -0.000 C 
BRANCH  29  30
ATOM     30  C   UNL     1      -9.110  33.609  44.915  1.00  0.00    -0.000 C 
BRANCH  30  31
ATOM     31  C   UNL     1      -9.582  33.372  43.471  1.00  0.00    -0.003 C 
ATOM     32  C   UNL     1      -8.650  34.001  42.435  1.00  0.00     0.004 C 
ENDBRANCH  30  31
ENDBRANCH  29  30
ENDBRANCH  28  29
ENDBRANCH  27  28
ENDBRANCH  26  27
ENDBRANCH  25  26
ENDBRANCH  24  25
ENDBRANCH  23  24
ENDBRANCH  22  23
ENDBRANCH  21  22
ENDBRANCH  20  21
ENDBRANCH  19  20
ENDBRANCH  18  19
ENDBRANCH   1  18
TORSDOF 28
ENDMDL
MODEL 9
REMARK VINA RESULT:    -2.814      2.046      4.625
REMARK INTER + INTRA:         -13.856
REMARK INTER:                  -7.850
REMARK INTRA:                  -6.006
REMARK UNBOUND:                -6.437
REMARK SMILES CCCCCCCCCCCCCCCCCCCCCCCCCCCCCC(=O)[O-]
REMARK SMILES IDX 16 1 17 2 18 3 19 4 20 5 21 6 22 7 23 8 24 9 25 10 26 11
REMARK SMILES IDX 27 12 28 13 29 14 30 15 31 16 32 17 15 18 14 19 13 20 12 21
REMARK SMILES IDX 11 22 10 23 9 24 8 25 7 26 6 27 5 28 4 29 3 30 2 31 1 32
REMARK H PARENT
REMARK Flexibility Score: inf
ROOT
ATOM      1  C   UNL     1      -7.351  28.719  44.991  1.00  0.00     0.000 C 
ENDROOT
BRANCH   1   2
ATOM      2  C   UNL     1      -7.668  27.270  45.403  1.00  0.00     0.000 C 
BRANCH   2   3
ATOM      3  C   UNL     1      -6.462  26.557  46.034  1.00  0.00     0.000 C 
BRANCH   3   4
ATOM      4  C   UNL     1      -5.123  27.230  45.681  1.00  0.00     0.000 C 
BRANCH   4   5
ATOM      5  C   UNL     1      -4.329  26.444  44.625  1.00  0.00     0.000 C 
BRANCH   5   6
ATOM      6  C   UNL     1      -4.765  26.783  43.189  1.00  0.00     0.000 C 
BRANCH   6   7
ATOM      7  C   UNL     1      -4.926  25.536  42.305  1.00  0.00     0.000 C 
BRANCH   7   8
ATOM      8  C   UNL     1      -6.278  24.834  42.512  1.00  0.00     0.000 C 
BRANCH   8   9
ATOM      9  C   UNL     1      -7.476  25.738  42.166  1.00  0.00     0.000 C 
BRANCH   9  10
ATOM     10  C   UNL     1      -7.802  25.846  40.662  1.00  0.00     0.000 C 
BRANCH  10  11
ATOM     11  C   UNL     1      -8.845  24.835  40.145  1.00  0.00     0.000 C 
BRANCH  11  12
ATOM     12  C   UNL     1      -9.363  23.839  41.198  1.00  0.00     0.000 C 
BRANCH  12  13
ATOM     13  C   UNL     1     -10.823  24.109  41.602  1.00  0.00     0.006 C 
BRANCH  13  14
ATOM     14  C   UNL     1     -11.768  24.126  40.394  1.00  0.00     0.053 C 
BRANCH  14  15
ATOM     15  C   UNL     1     -12.852  23.097  40.510  1.00  0.00     0.041 C 
ATOM     16  O   UNL     1     -13.982  23.413  40.974  1.00  0.00    -0.550 OA
ATOM     17  O   UNL     1     -12.615  21.786  40.105  1.00  0.00    -0.550 OA
ENDBRANCH  14  15
ENDBRANCH  13  14
ENDBRANCH  12  13
ENDBRANCH  11  12
ENDBRANCH  10  11
ENDBRANCH   9  10
ENDBRANCH   8   9
ENDBRANCH   7   8
ENDBRANCH   6   7
ENDBRANCH   5   6
ENDBRANCH   4   5
ENDBRANCH   3   4
ENDBRANCH   2   3
ENDBRANCH   1   2
BRANCH   1  18
ATOM     18  C   UNL     1      -8.458  29.705  45.398  1.00  0.00     0.000 C 
BRANCH  18  19
ATOM     19  C   UNL     1      -7.984  30.718  46.454  1.00  0.00     0.000 C 
BRANCH  19  20
ATOM     20  C   UNL     1      -6.777  30.217  47.260  1.00  0.00     0.000 C 
BRANCH  20  21
ATOM     21  C   UNL     1      -5.627  31.241  47.300  1.00  0.00     0.000 C 
BRANCH  21  22
ATOM     22  C   UNL     1      -5.129  31.641  45.900  1.00  0.00     0.000 C 
BRANCH  22  23
ATOM     23  C   UNL     1      -4.016  30.747  45.313  1.00  0.00     0.000 C 
BRANCH  23  24
ATOM     24  C   UNL     1      -4.174  30.387  43.825  1.00  0.00    -0.000 C 
BRANCH  24  25
ATOM     25  C   UNL     1      -5.318  31.154  43.138  1.00  0.00    -0.000 C 
BRANCH  25  26
ATOM     26  C   UNL     1      -5.958  30.353  41.993  1.00  0.00    -0.000 C 
BRANCH  26  27
ATOM     27  C   UNL     1      -7.456  30.656  41.819  1.00  0.00    -0.000 C 
BRANCH  27  28
ATOM     28  C   UNL     1      -8.280  29.401  41.477  1.00  0.00    -0.000 C 
BRANCH  28  29
ATOM     29  C   UNL     1      -9.775  29.491  41.837  1.00  0.00    -0.000 C 
BRANCH  29  30
ATOM     30  C   UNL     1     -10.489  28.130  41.764  1.00  0.00    -0.000 C 
BRANCH  30  31
ATOM     31  C   UNL     1     -10.648  27.473  43.144  1.00  0.00    -0.003 C 
ATOM     32  C   UNL     1     -12.068  26.965  43.396  1.00  0.00     0.004 C 
ENDBRANCH  30  31
ENDBRANCH  29  30
ENDBRANCH  28  29
ENDBRANCH  27  28
ENDBRANCH  26  27
ENDBRANCH  25  26
ENDBRANCH  24  25
ENDBRANCH  23  24
ENDBRANCH  22  23
ENDBRANCH  21  22
ENDBRANCH  20  21
ENDBRANCH  19  20
ENDBRANCH  18  19
ENDBRANCH   1  18
TORSDOF 28
ENDMDL
