MODEL 1
REMARK VINA RESULT:    -6.107      0.000      0.000
REMARK INTER + INTRA:          -9.648
REMARK INTER:                  -8.249
REMARK INTRA:                  -1.399
REMARK UNBOUND:                -1.399
REMARK SMILES CC[C@@H](CC[C@H](C)[C@H]1CC[C@H]2[C@H]3CC(=O)C4=CC(=O)CC[C@@]4(C)[C@@H]3CC[C@@]12C)C(C)C
REMARK SMILES IDX 4 1 3 2 2 3 1 4 29 5 30 6 31 7 5 8 6 9 7 10 8 11 9 12 27 13
REMARK SMILES IDX 10 14 11 15 26 16 28 17 12 18 25 19 24 20 13 21 22 22 14 23
REMARK SMILES IDX 16 24 21 25 23 26 15 27 17 28 20 29 18 30 19 31
REMARK H PARENT
REMARK Flexibility Score: inf
ROOT
ATOM      1  C   UNL     1      11.656  64.930  23.448  1.00  0.00     0.004 C 
ENDROOT
BRANCH   1   2
ATOM      2  C   UNL     1      11.224  66.365  23.872  1.00  0.00    -0.009 C 
BRANCH   2   3
ATOM      3  C   UNL     1      12.433  67.125  24.496  1.00  0.00     0.000 C 
ATOM      4  C   UNL     1      13.488  66.228  25.139  1.00  0.00     0.004 C 
ENDBRANCH   2   3
BRANCH   2   5
ATOM      5  C   UNL     1       9.949  66.288  24.788  1.00  0.00    -0.014 C 
ATOM      6  C   UNL     1      10.068  67.104  26.085  1.00  0.00     0.007 C 
ATOM      7  C   UNL     1       8.641  66.621  24.048  1.00  0.00     0.007 C 
ENDBRANCH   2   5
ENDBRANCH   1   2
BRANCH   1   8
ATOM      8  C   UNL     1      11.062  63.820  24.344  1.00  0.00     0.004 C 
BRANCH   8   9
ATOM      9  C   UNL     1      11.986  62.588  24.549  1.00  0.00    -0.011 C 
ATOM     10  C   UNL     1      12.099  62.266  26.057  1.00  0.00     0.008 C 
BRANCH   9  11
ATOM     11  C   UNL     1      13.409  62.697  23.883  1.00  0.00    -0.002 C 
ATOM     12  C   UNL     1      14.517  62.835  24.947  1.00  0.00     0.005 C 
ATOM     13  C   UNL     1      13.901  61.529  22.960  1.00  0.00    -0.026 C 
ATOM     14  C   UNL     1      15.775  62.176  24.396  1.00  0.00     0.005 C 
ATOM     15  C   UNL     1      15.437  61.723  22.974  1.00  0.00    -0.001 C 
ATOM     16  C   UNL     1      13.530  60.140  23.556  1.00  0.00     0.007 C 
ATOM     17  C   UNL     1      13.383  61.673  21.505  1.00  0.00     0.012 C 
ATOM     18  C   UNL     1      16.265  60.508  22.445  1.00  0.00     0.004 C 
ATOM     19  C   UNL     1      14.292  58.984  22.906  1.00  0.00     0.005 C 
ATOM     20  C   UNL     1      15.825  59.147  23.059  1.00  0.00     0.003 C 
ATOM     21  C   UNL     1      17.772  60.755  22.639  1.00  0.00     0.085 C 
ATOM     22  C   UNL     1      16.635  57.912  22.480  1.00  0.00    -0.000 C 
ATOM     23  C   UNL     1      18.582  59.600  22.158  1.00  0.00     0.159 C 
ATOM     24  C   UNL     1      18.137  58.223  22.453  1.00  0.00     0.005 C 
ATOM     25  C   UNL     1      16.386  56.667  23.392  1.00  0.00     0.020 C 
ATOM     26  C   UNL     1      16.205  57.576  21.026  1.00  0.00     0.017 C 
ATOM     27  O   UNL     1      19.685  59.813  21.584  1.00  0.00    -0.295 OA
ATOM     28  C   UNL     1      19.061  57.251  22.583  1.00  0.00     0.055 C 
ATOM     29  C   UNL     1      17.258  55.461  23.021  1.00  0.00     0.081 C 
ATOM     30  C   UNL     1      18.692  55.860  22.874  1.00  0.00     0.156 C 
ATOM     31  O   UNL     1      19.593  54.984  22.964  1.00  0.00    -0.295 OA
ENDBRANCH   9  11
ENDBRANCH   8   9
ENDBRANCH   1   8
TORSDOF 6
ENDMDL
MODEL 2
REMARK VINA RESULT:    -6.032      9.892     13.234
REMARK INTER + INTRA:          -9.547
REMARK INTER:                  -7.414
REMARK INTRA:                  -2.134
REMARK UNBOUND:                -1.399
REMARK SMILES CC[C@@H](CC[C@H](C)[C@H]1CC[C@H]2[C@H]3CC(=O)C4=CC(=O)CC[C@@]4(C)[C@@H]3CC[C@@]12C)C(C)C
REMARK SMILES IDX 4 1 3 2 2 3 1 4 29 5 30 6 31 7 5 8 6 9 7 10 8 11 9 12 27 13
REMARK SMILES IDX 10 14 11 15 26 16 28 17 12 18 25 19 24 20 13 21 22 22 14 23
REMARK SMILES IDX 16 24 21 25 23 26 15 27 17 28 20 29 18 30 19 31
REMARK H PARENT
REMARK Flexibility Score: inf
ROOT
ATOM      1  C   UNL     1      15.563  52.054  33.811  1.00  0.00     0.004 C 
ENDROOT
BRANCH   1   2
ATOM      2  C   UNL     1      16.383  51.930  35.130  1.00  0.00    -0.009 C 
BRANCH   2   3
ATOM      3  C   UNL     1      15.753  52.828  36.237  1.00  0.00     0.000 C 
ATOM      4  C   UNL     1      15.138  52.063  37.407  1.00  0.00     0.004 C 
ENDBRANCH   2   3
BRANCH   2   5
ATOM      5  C   UNL     1      17.903  52.207  34.840  1.00  0.00    -0.014 C 
ATOM      6  C   UNL     1      18.297  52.023  33.366  1.00  0.00     0.007 C 
ATOM      7  C   UNL     1      18.391  53.566  35.373  1.00  0.00     0.007 C 
ENDBRANCH   2   5
ENDBRANCH   1   2
BRANCH   1   8
ATOM      8  C   UNL     1      14.395  53.061  33.907  1.00  0.00     0.004 C 
BRANCH   8   9
ATOM      9  C   UNL     1      14.552  54.322  33.014  1.00  0.00    -0.011 C 
ATOM     10  C   UNL     1      14.167  53.979  31.557  1.00  0.00     0.008 C 
BRANCH   9  11
ATOM     11  C   UNL     1      15.960  55.022  33.080  1.00  0.00    -0.002 C 
ATOM     12  C   UNL     1      16.664  54.995  31.708  1.00  0.00     0.005 C 
ATOM     13  C   UNL     1      16.036  56.524  33.526  1.00  0.00    -0.026 C 
ATOM     14  C   UNL     1      17.528  56.246  31.604  1.00  0.00     0.005 C 
ATOM     15  C   UNL     1      17.401  56.970  32.946  1.00  0.00    -0.001 C 
ATOM     16  C   UNL     1      14.886  57.361  32.895  1.00  0.00     0.007 C 
ATOM     17  C   UNL     1      16.063  56.677  35.069  1.00  0.00     0.012 C 
ATOM     18  C   UNL     1      17.627  58.516  32.896  1.00  0.00     0.004 C 
ATOM     19  C   UNL     1      15.119  58.870  32.990  1.00  0.00     0.005 C 
ATOM     20  C   UNL     1      16.428  59.296  32.281  1.00  0.00     0.003 C 
ATOM     21  C   UNL     1      18.947  58.845  32.174  1.00  0.00     0.085 C 
ATOM     22  C   UNL     1      16.644  60.868  32.280  1.00  0.00    -0.000 C 
ATOM     23  C   UNL     1      19.175  60.317  32.097  1.00  0.00     0.159 C 
ATOM     24  C   UNL     1      18.049  61.215  31.771  1.00  0.00     0.005 C 
ATOM     25  C   UNL     1      15.582  61.526  31.340  1.00  0.00     0.020 C 
ATOM     26  C   UNL     1      16.507  61.466  33.707  1.00  0.00     0.017 C 
ATOM     27  O   UNL     1      20.345  60.769  32.223  1.00  0.00    -0.295 OA
ATOM     28  C   UNL     1      18.300  62.371  31.128  1.00  0.00     0.055 C 
ATOM     29  C   UNL     1      15.808  63.029  31.131  1.00  0.00     0.081 C 
ATOM     30  C   UNL     1      17.231  63.313  30.773  1.00  0.00     0.156 C 
ATOM     31  O   UNL     1      17.522  64.392  30.191  1.00  0.00    -0.295 OA
ENDBRANCH   9  11
ENDBRANCH   8   9
ENDBRANCH   1   8
TORSDOF 6
ENDMDL
MODEL 3
REMARK VINA RESULT:    -6.015      9.540     10.871
REMARK INTER + INTRA:          -9.524
REMARK INTER:                  -7.782
REMARK INTRA:                  -1.741
REMARK UNBOUND:                -1.399
REMARK SMILES CC[C@@H](CC[C@H](C)[C@H]1CC[C@H]2[C@H]3CC(=O)C4=CC(=O)CC[C@@]4(C)[C@@H]3CC[C@@]12C)C(C)C
REMARK SMILES IDX 4 1 3 2 2 3 1 4 29 5 30 6 31 7 5 8 6 9 7 10 8 11 9 12 27 13
REMARK SMILES IDX 10 14 11 15 26 16 28 17 12 18 25 19 24 20 13 21 22 22 14 23
REMARK SMILES IDX 16 24 21 25 23 26 15 27 17 28 20 29 18 30 19 31
REMARK H PARENT
REMARK Flexibility Score: inf
ROOT
ATOM      1  C   UNL     1      11.705  63.827  34.982  1.00  0.00     0.004 C 
ENDROOT
BRANCH   1   2
ATOM      2  C   UNL     1      12.069  65.283  35.396  1.00  0.00    -0.009 C 
BRANCH   2   3
ATOM      3  C   UNL     1      10.942  66.263  34.952  1.00  0.00     0.000 C 
ATOM      4  C   UNL     1       9.600  66.052  35.653  1.00  0.00     0.004 C 
ENDBRANCH   2   3
BRANCH   2   5
ATOM      5  C   UNL     1      13.504  65.645  34.866  1.00  0.00    -0.014 C 
ATOM      6  C   UNL     1      13.745  65.240  33.403  1.00  0.00     0.007 C 
ATOM      7  C   UNL     1      13.891  67.116  35.099  1.00  0.00     0.007 C 
ENDBRANCH   2   5
ENDBRANCH   1   2
BRANCH   1   8
ATOM      8  C   UNL     1      11.679  62.839  36.170  1.00  0.00     0.004 C 
BRANCH   8   9
ATOM      9  C   UNL     1      12.956  61.966  36.315  1.00  0.00    -0.011 C 
ATOM     10  C   UNL     1      13.648  62.275  37.663  1.00  0.00     0.008 C 
BRANCH   9  11
ATOM     11  C   UNL     1      13.974  62.061  35.119  1.00  0.00    -0.002 C 
ATOM     12  C   UNL     1      15.366  62.518  35.602  1.00  0.00     0.005 C 
ATOM     13  C   UNL     1      14.262  60.775  34.269  1.00  0.00    -0.026 C 
ATOM     14  C   UNL     1      16.408  61.874  34.696  1.00  0.00     0.005 C 
ATOM     15  C   UNL     1      15.631  61.105  33.625  1.00  0.00    -0.001 C 
ATOM     16  C   UNL     1      14.386  59.514  35.174  1.00  0.00     0.007 C 
ATOM     17  C   UNL     1      13.210  60.563  33.150  1.00  0.00     0.012 C 
ATOM     18  C   UNL     1      16.383  59.885  33.000  1.00  0.00     0.004 C 
ATOM     19  C   UNL     1      15.021  58.321  34.458  1.00  0.00     0.005 C 
ATOM     20  C   UNL     1      16.445  58.649  33.944  1.00  0.00     0.003 C 
ATOM     21  C   UNL     1      17.785  60.303  32.521  1.00  0.00     0.085 C 
ATOM     22  C   UNL     1      17.165  57.399  33.285  1.00  0.00    -0.000 C 
ATOM     23  C   UNL     1      18.529  59.150  31.938  1.00  0.00     0.159 C 
ATOM     24  C   UNL     1      18.467  57.831  32.599  1.00  0.00     0.005 C 
ATOM     25  C   UNL     1      17.496  56.355  34.401  1.00  0.00     0.020 C 
ATOM     26  C   UNL     1      16.273  56.728  32.205  1.00  0.00     0.017 C 
ATOM     27  O   UNL     1      19.275  59.336  30.938  1.00  0.00    -0.295 OA
ATOM     28  C   UNL     1      19.518  56.996  32.490  1.00  0.00     0.055 C 
ATOM     29  C   UNL     1      18.347  55.181  33.899  1.00  0.00     0.081 C 
ATOM     30  C   UNL     1      19.526  55.669  33.120  1.00  0.00     0.156 C 
ATOM     31  O   UNL     1      20.526  54.916  32.969  1.00  0.00    -0.295 OA
ENDBRANCH   9  11
ENDBRANCH   8   9
ENDBRANCH   1   8
TORSDOF 6
ENDMDL
MODEL 4
REMARK VINA RESULT:    -5.934      3.788      5.835
REMARK INTER + INTRA:          -9.414
REMARK INTER:                  -7.390
REMARK INTRA:                  -2.025
REMARK UNBOUND:                -1.399
REMARK SMILES CC[C@@H](CC[C@H](C)[C@H]1CC[C@H]2[C@H]3CC(=O)C4=CC(=O)CC[C@@]4(C)[C@@H]3CC[C@@]12C)C(C)C
REMARK SMILES IDX 4 1 3 2 2 3 1 4 29 5 30 6 31 7 5 8 6 9 7 10 8 11 9 12 27 13
REMARK SMILES IDX 10 14 11 15 26 16 28 17 12 18 25 19 24 20 13 21 22 22 14 23
REMARK SMILES IDX 16 24 21 25 23 26 15 27 17 28 20 29 18 30 19 31
REMARK H PARENT
REMARK Flexibility Score: inf
ROOT
ATOM      1  C   UNL     1      14.159  59.845  21.194  1.00  0.00     0.004 C 
ENDROOT
BRANCH   1   2
ATOM      2  C   UNL     1      14.333  61.390  21.291  1.00  0.00    -0.009 C 
BRANCH   2   3
ATOM      3  C   UNL     1      13.212  62.105  20.478  1.00  0.00     0.000 C 
ATOM      4  C   UNL     1      12.756  61.358  19.226  1.00  0.00     0.004 C 
ENDBRANCH   2   3
BRANCH   2   5
ATOM      5  C   UNL     1      15.799  61.788  20.888  1.00  0.00    -0.014 C 
ATOM      6  C   UNL     1      16.688  62.169  22.082  1.00  0.00     0.007 C 
ATOM      7  C   UNL     1      16.495  60.746  19.996  1.00  0.00     0.007 C 
ENDBRANCH   2   5
ENDBRANCH   1   2
BRANCH   1   8
ATOM      8  C   UNL     1      13.604  59.207  22.487  1.00  0.00     0.004 C 
BRANCH   8   9
ATOM      9  C   UNL     1      14.679  58.570  23.409  1.00  0.00    -0.011 C 
ATOM     10  C   UNL     1      14.581  59.183  24.825  1.00  0.00     0.008 C 
BRANCH   9  11
ATOM     11  C   UNL     1      16.155  58.632  22.864  1.00  0.00    -0.002 C 
ATOM     12  C   UNL     1      17.125  59.172  23.934  1.00  0.00     0.005 C 
ATOM     13  C   UNL     1      16.829  57.309  22.360  1.00  0.00    -0.026 C 
ATOM     14  C   UNL     1      18.481  58.516  23.705  1.00  0.00     0.005 C 
ATOM     15  C   UNL     1      18.336  57.654  22.449  1.00  0.00    -0.001 C 
ATOM     16  C   UNL     1      16.497  56.111  23.296  1.00  0.00     0.007 C 
ATOM     17  C   UNL     1      16.466  56.990  20.886  1.00  0.00     0.012 C 
ATOM     18  C   UNL     1      19.304  56.429  22.363  1.00  0.00     0.004 C 
ATOM     19  C   UNL     1      17.408  54.903  23.072  1.00  0.00     0.005 C 
ATOM     20  C   UNL     1      18.898  55.255  23.302  1.00  0.00     0.003 C 
ATOM     21  C   UNL     1      20.758  56.872  22.606  1.00  0.00     0.085 C 
ATOM     22  C   UNL     1      19.855  53.997  23.173  1.00  0.00    -0.000 C 
ATOM     23  C   UNL     1      21.698  55.716  22.547  1.00  0.00     0.159 C 
ATOM     24  C   UNL     1      21.324  54.437  23.186  1.00  0.00     0.005 C 
ATOM     25  C   UNL     1      19.598  53.036  24.379  1.00  0.00     0.020 C 
ATOM     26  C   UNL     1      19.613  53.228  21.845  1.00  0.00     0.017 C 
ATOM     27  O   UNL     1      22.839  55.871  22.033  1.00  0.00    -0.295 OA
ATOM     28  C   UNL     1      22.296  53.639  23.667  1.00  0.00     0.055 C 
ATOM     29  C   UNL     1      20.591  51.868  24.446  1.00  0.00     0.081 C 
ATOM     30  C   UNL     1      21.999  52.353  24.313  1.00  0.00     0.156 C 
ATOM     31  O   UNL     1      22.946  51.633  24.727  1.00  0.00    -0.295 OA
ENDBRANCH   9  11
ENDBRANCH   8   9
ENDBRANCH   1   8
TORSDOF 6
ENDMDL
MODEL 5
REMARK VINA RESULT:    -5.930     11.289     13.259
REMARK INTER + INTRA:          -9.410
REMARK INTER:                  -7.467
REMARK INTRA:                  -1.942
REMARK UNBOUND:                -1.399
REMARK SMILES CC[C@@H](CC[C@H](C)[C@H]1CC[C@H]2[C@H]3CC(=O)C4=CC(=O)CC[C@@]4(C)[C@@H]3CC[C@@]12C)C(C)C
REMARK SMILES IDX 4 1 3 2 2 3 1 4 29 5 30 6 31 7 5 8 6 9 7 10 8 11 9 12 27 13
REMARK SMILES IDX 10 14 11 15 26 16 28 17 12 18 25 19 24 20 13 21 22 22 14 23
REMARK SMILES IDX 16 24 21 25 23 26 15 27 17 28 20 29 18 30 19 31
REMARK H PARENT
REMARK Flexibility Score: inf
ROOT
ATOM      1  C   UNL     1      17.473  52.156  34.882  1.00  0.00     0.004 C 
ENDROOT
BRANCH   1   2
ATOM      2  C   UNL     1      15.925  52.052  35.014  1.00  0.00    -0.009 C 
BRANCH   2   3
ATOM      3  C   UNL     1      15.246  52.458  33.671  1.00  0.00     0.000 C 
ATOM      4  C   UNL     1      15.809  51.759  32.434  1.00  0.00     0.004 C 
ENDBRANCH   2   3
BRANCH   2   5
ATOM      5  C   UNL     1      15.441  52.865  36.270  1.00  0.00    -0.014 C 
ATOM      6  C   UNL     1      14.367  53.916  35.951  1.00  0.00     0.007 C 
ATOM      7  C   UNL     1      15.005  51.974  37.446  1.00  0.00     0.007 C 
ENDBRANCH   2   5
ENDBRANCH   1   2
BRANCH   1   8
ATOM      8  C   UNL     1      18.051  53.471  35.453  1.00  0.00     0.004 C 
BRANCH   8   9
ATOM      9  C   UNL     1      18.440  54.526  34.382  1.00  0.00    -0.011 C 
ATOM     10  C   UNL     1      17.292  55.548  34.216  1.00  0.00     0.008 C 
BRANCH   9  11
ATOM     11  C   UNL     1      18.885  53.939  32.990  1.00  0.00    -0.002 C 
ATOM     12  C   UNL     1      18.062  54.550  31.837  1.00  0.00     0.005 C 
ATOM     13  C   UNL     1      20.376  54.115  32.539  1.00  0.00    -0.026 C 
ATOM     14  C   UNL     1      18.956  54.597  30.604  1.00  0.00     0.005 C 
ATOM     15  C   UNL     1      20.278  53.939  31.004  1.00  0.00    -0.001 C 
ATOM     16  C   UNL     1      20.909  55.537  32.882  1.00  0.00     0.007 C 
ATOM     17  C   UNL     1      21.299  53.012  33.121  1.00  0.00     0.012 C 
ATOM     18  C   UNL     1      21.531  54.413  30.199  1.00  0.00     0.004 C 
ATOM     19  C   UNL     1      22.205  55.886  32.150  1.00  0.00     0.005 C 
ATOM     20  C   UNL     1      22.030  55.829  30.612  1.00  0.00     0.003 C 
ATOM     21  C   UNL     1      21.267  54.325  28.685  1.00  0.00     0.085 C 
ATOM     22  C   UNL     1      23.332  56.283  29.827  1.00  0.00    -0.000 C 
ATOM     23  C   UNL     1      22.443  54.790  27.897  1.00  0.00     0.159 C 
ATOM     24  C   UNL     1      23.181  55.995  28.328  1.00  0.00     0.005 C 
ATOM     25  C   UNL     1      23.543  57.818  30.035  1.00  0.00     0.020 C 
ATOM     26  C   UNL     1      24.593  55.521  30.321  1.00  0.00     0.017 C 
ATOM     27  O   UNL     1      22.740  54.203  26.821  1.00  0.00    -0.295 OA
ATOM     28  C   UNL     1      23.796  56.752  27.399  1.00  0.00     0.055 C 
ATOM     29  C   UNL     1      24.678  58.395  29.180  1.00  0.00     0.081 C 
ATOM     30  C   UNL     1      24.549  57.962  27.755  1.00  0.00     0.156 C 
ATOM     31  O   UNL     1      25.125  58.623  26.849  1.00  0.00    -0.295 OA
ENDBRANCH   9  11
ENDBRANCH   8   9
ENDBRANCH   1   8
TORSDOF 6
ENDMDL
MODEL 6
REMARK VINA RESULT:    -5.853      2.787      6.225
REMARK INTER + INTRA:          -9.306
REMARK INTER:                  -7.684
REMARK INTRA:                  -1.622
REMARK UNBOUND:                -1.399
REMARK SMILES CC[C@@H](CC[C@H](C)[C@H]1CC[C@H]2[C@H]3CC(=O)C4=CC(=O)CC[C@@]4(C)[C@@H]3CC[C@@]12C)C(C)C
REMARK SMILES IDX 4 1 3 2 2 3 1 4 29 5 30 6 31 7 5 8 6 9 7 10 8 11 9 12 27 13
REMARK SMILES IDX 10 14 11 15 26 16 28 17 12 18 25 19 24 20 13 21 22 22 14 23
REMARK SMILES IDX 16 24 21 25 23 26 15 27 17 28 20 29 18 30 19 31
REMARK H PARENT
REMARK Flexibility Score: inf
ROOT
ATOM      1  C   UNL     1      14.924  61.233  23.015  1.00  0.00     0.004 C 
ENDROOT
BRANCH   1   2
ATOM      2  C   UNL     1      13.595  61.931  22.603  1.00  0.00    -0.009 C 
BRANCH   2   3
ATOM      3  C   UNL     1      12.683  62.124  23.853  1.00  0.00     0.000 C 
ATOM      4  C   UNL     1      11.859  63.410  23.850  1.00  0.00     0.004 C 
ENDBRANCH   2   3
BRANCH   2   5
ATOM      5  C   UNL     1      12.928  61.150  21.414  1.00  0.00    -0.014 C 
ATOM      6  C   UNL     1      13.108  61.830  20.047  1.00  0.00     0.007 C 
ATOM      7  C   UNL     1      13.338  59.668  21.347  1.00  0.00     0.007 C 
ENDBRANCH   2   5
ENDBRANCH   1   2
BRANCH   1   8
ATOM      8  C   UNL     1      16.176  61.862  22.362  1.00  0.00     0.004 C 
BRANCH   8   9
ATOM      9  C   UNL     1      17.099  60.854  21.625  1.00  0.00    -0.011 C 
ATOM     10  C   UNL     1      16.679  60.752  20.141  1.00  0.00     0.008 C 
BRANCH   9  11
ATOM     11  C   UNL     1      17.200  59.428  22.286  1.00  0.00    -0.002 C 
ATOM     12  C   UNL     1      16.854  58.316  21.275  1.00  0.00     0.005 C 
ATOM     13  C   UNL     1      18.569  58.979  22.904  1.00  0.00    -0.026 C 
ATOM     14  C   UNL     1      17.668  57.082  21.645  1.00  0.00     0.005 C 
ATOM     15  C   UNL     1      18.431  57.437  22.923  1.00  0.00    -0.001 C 
ATOM     16  C   UNL     1      19.764  59.399  22.001  1.00  0.00     0.007 C 
ATOM     17  C   UNL     1      18.753  59.492  24.357  1.00  0.00     0.012 C 
ATOM     18  C   UNL     1      19.765  56.653  23.145  1.00  0.00     0.004 C 
ATOM     19  C   UNL     1      21.067  58.680  22.355  1.00  0.00     0.005 C 
ATOM     20  C   UNL     1      20.927  57.142  22.231  1.00  0.00     0.003 C 
ATOM     21  C   UNL     1      19.532  55.138  23.002  1.00  0.00     0.085 C 
ATOM     22  C   UNL     1      22.291  56.377  22.497  1.00  0.00    -0.000 C 
ATOM     23  C   UNL     1      20.796  54.370  23.191  1.00  0.00     0.159 C 
ATOM     24  C   UNL     1      22.048  54.865  22.584  1.00  0.00     0.005 C 
ATOM     25  C   UNL     1      23.277  56.671  21.320  1.00  0.00     0.020 C 
ATOM     26  C   UNL     1      22.945  56.820  23.835  1.00  0.00     0.017 C 
ATOM     27  O   UNL     1      20.763  53.261  23.790  1.00  0.00    -0.295 OA
ATOM     28  C   UNL     1      22.994  53.977  22.221  1.00  0.00     0.055 C 
ATOM     29  C   UNL     1      24.567  55.843  21.389  1.00  0.00     0.081 C 
ATOM     30  C   UNL     1      24.264  54.396  21.614  1.00  0.00     0.156 C 
ATOM     31  O   UNL     1      25.125  53.526  21.313  1.00  0.00    -0.295 OA
ENDBRANCH   9  11
ENDBRANCH   8   9
ENDBRANCH   1   8
TORSDOF 6
ENDMDL
MODEL 7
REMARK VINA RESULT:    -5.805     10.743     12.981
REMARK INTER + INTRA:          -9.240
REMARK INTER:                  -7.178
REMARK INTRA:                  -2.063
REMARK UNBOUND:                -1.399
REMARK SMILES CC[C@@H](CC[C@H](C)[C@H]1CC[C@H]2[C@H]3CC(=O)C4=CC(=O)CC[C@@]4(C)[C@@H]3CC[C@@]12C)C(C)C
REMARK SMILES IDX 4 1 3 2 2 3 1 4 29 5 30 6 31 7 5 8 6 9 7 10 8 11 9 12 27 13
REMARK SMILES IDX 10 14 11 15 26 16 28 17 12 18 25 19 24 20 13 21 22 22 14 23
REMARK SMILES IDX 16 24 21 25 23 26 15 27 17 28 20 29 18 30 19 31
REMARK H PARENT
REMARK Flexibility Score: inf
ROOT
ATOM      1  C   UNL     1      16.898  52.397  35.426  1.00  0.00     0.004 C 
ENDROOT
BRANCH   1   2
ATOM      2  C   UNL     1      15.526  53.059  35.749  1.00  0.00    -0.009 C 
BRANCH   2   3
ATOM      3  C   UNL     1      15.003  52.559  37.130  1.00  0.00     0.000 C 
ATOM      4  C   UNL     1      14.993  51.041  37.297  1.00  0.00     0.004 C 
ENDBRANCH   2   3
BRANCH   2   5
ATOM      5  C   UNL     1      14.534  52.841  34.550  1.00  0.00    -0.014 C 
ATOM      6  C   UNL     1      14.206  54.128  33.776  1.00  0.00     0.007 C 
ATOM      7  C   UNL     1      14.968  51.720  33.590  1.00  0.00     0.007 C 
ENDBRANCH   2   5
ENDBRANCH   1   2
BRANCH   1   8
ATOM      8  C   UNL     1      18.101  53.343  35.644  1.00  0.00     0.004 C 
BRANCH   8   9
ATOM      9  C   UNL     1      18.426  54.266  34.438  1.00  0.00    -0.011 C 
ATOM     10  C   UNL     1      17.944  55.704  34.737  1.00  0.00     0.008 C 
BRANCH   9  11
ATOM     11  C   UNL     1      17.890  53.765  33.045  1.00  0.00    -0.002 C 
ATOM     12  C   UNL     1      17.461  54.948  32.152  1.00  0.00     0.005 C 
ATOM     13  C   UNL     1      18.840  52.915  32.132  1.00  0.00    -0.026 C 
ATOM     14  C   UNL     1      17.710  54.550  30.703  1.00  0.00     0.005 C 
ATOM     15  C   UNL     1      18.206  53.103  30.732  1.00  0.00    -0.001 C 
ATOM     16  C   UNL     1      20.291  53.478  32.143  1.00  0.00     0.007 C 
ATOM     17  C   UNL     1      18.818  51.409  32.504  1.00  0.00     0.012 C 
ATOM     18  C   UNL     1      19.113  52.682  29.530  1.00  0.00     0.004 C 
ATOM     19  C   UNL     1      21.158  52.929  31.009  1.00  0.00     0.005 C 
ATOM     20  C   UNL     1      20.559  53.255  29.618  1.00  0.00     0.003 C 
ATOM     21  C   UNL     1      18.441  53.045  28.193  1.00  0.00     0.085 C 
ATOM     22  C   UNL     1      21.488  52.783  28.422  1.00  0.00    -0.000 C 
ATOM     23  C   UNL     1      19.297  52.670  27.032  1.00  0.00     0.159 C 
ATOM     24  C   UNL     1      20.751  52.924  27.084  1.00  0.00     0.005 C 
ATOM     25  C   UNL     1      22.774  53.672  28.395  1.00  0.00     0.020 C 
ATOM     26  C   UNL     1      21.899  51.292  28.570  1.00  0.00     0.017 C 
ATOM     27  O   UNL     1      18.758  52.223  25.984  1.00  0.00    -0.295 OA
ATOM     28  C   UNL     1      21.414  53.168  25.937  1.00  0.00     0.055 C 
ATOM     29  C   UNL     1      23.663  53.414  27.172  1.00  0.00     0.081 C 
ATOM     30  C   UNL     1      22.859  53.428  25.912  1.00  0.00     0.156 C 
ATOM     31  O   UNL     1      23.435  53.628  24.809  1.00  0.00    -0.295 OA
ENDBRANCH   9  11
ENDBRANCH   8   9
ENDBRANCH   1   8
TORSDOF 6
ENDMDL
MODEL 8
REMARK VINA RESULT:    -5.736      4.204      6.630
REMARK INTER + INTRA:          -9.147
REMARK INTER:                  -7.113
REMARK INTRA:                  -2.034
REMARK UNBOUND:                -1.399
REMARK SMILES CC[C@@H](CC[C@H](C)[C@H]1CC[C@H]2[C@H]3CC(=O)C4=CC(=O)CC[C@@]4(C)[C@@H]3CC[C@@]12C)C(C)C
REMARK SMILES IDX 4 1 3 2 2 3 1 4 29 5 30 6 31 7 5 8 6 9 7 10 8 11 9 12 27 13
REMARK SMILES IDX 10 14 11 15 26 16 28 17 12 18 25 19 24 20 13 21 22 22 14 23
REMARK SMILES IDX 16 24 21 25 23 26 15 27 17 28 20 29 18 30 19 31
REMARK H PARENT
REMARK Flexibility Score: inf
ROOT
ATOM      1  C   UNL     1      14.872  61.432  20.572  1.00  0.00     0.004 C 
ENDROOT
BRANCH   1   2
ATOM      2  C   UNL     1      13.493  60.709  20.562  1.00  0.00    -0.009 C 
BRANCH   2   3
ATOM      3  C   UNL     1      12.643  61.196  19.350  1.00  0.00     0.000 C 
ATOM      4  C   UNL     1      12.370  62.699  19.324  1.00  0.00     0.004 C 
ENDBRANCH   2   3
BRANCH   2   5
ATOM      5  C   UNL     1      12.797  60.868  21.963  1.00  0.00    -0.014 C 
ATOM      6  C   UNL     1      12.657  59.549  22.738  1.00  0.00     0.007 C 
ATOM      7  C   UNL     1      13.434  61.957  22.844  1.00  0.00     0.007 C 
ENDBRANCH   2   5
ENDBRANCH   1   2
BRANCH   1   8
ATOM      8  C   UNL     1      16.040  60.530  20.113  1.00  0.00     0.004 C 
BRANCH   8   9
ATOM      9  C   UNL     1      16.718  59.718  21.251  1.00  0.00    -0.011 C 
ATOM     10  C   UNL     1      16.283  58.237  21.163  1.00  0.00     0.008 C 
BRANCH   9  11
ATOM     11  C   UNL     1      16.504  60.288  22.702  1.00  0.00    -0.002 C 
ATOM     12  C   UNL     1      16.213  59.157  23.711  1.00  0.00     0.005 C 
ATOM     13  C   UNL     1      17.660  61.113  23.367  1.00  0.00    -0.026 C 
ATOM     14  C   UNL     1      16.773  59.584  25.062  1.00  0.00     0.005 C 
ATOM     15  C   UNL     1      17.320  61.001  24.873  1.00  0.00    -0.001 C 
ATOM     16  C   UNL     1      19.049  60.472  23.083  1.00  0.00     0.007 C 
ATOM     17  C   UNL     1      17.632  62.606  22.947  1.00  0.00     0.012 C 
ATOM     18  C   UNL     1      18.473  61.407  25.847  1.00  0.00     0.004 C 
ATOM     19  C   UNL     1      20.156  61.007  23.993  1.00  0.00     0.005 C 
ATOM     20  C   UNL     1      19.841  60.756  25.489  1.00  0.00     0.003 C 
ATOM     21  C   UNL     1      18.074  61.122  27.306  1.00  0.00     0.085 C 
ATOM     22  C   UNL     1      21.017  61.212  26.450  1.00  0.00    -0.000 C 
ATOM     23  C   UNL     1      19.168  61.485  28.253  1.00  0.00     0.159 C 
ATOM     24  C   UNL     1      20.567  61.151  27.915  1.00  0.00     0.005 C 
ATOM     25  C   UNL     1      22.239  60.257  26.250  1.00  0.00     0.020 C 
ATOM     26  C   UNL     1      21.458  62.674  26.162  1.00  0.00     0.017 C 
ATOM     27  O   UNL     1      18.877  61.991  29.370  1.00  0.00    -0.295 OA
ATOM     28  C   UNL     1      21.439  60.906  28.912  1.00  0.00     0.055 C 
ATOM     29  C   UNL     1      23.371  60.503  27.254  1.00  0.00     0.081 C 
ATOM     30  C   UNL     1      22.844  60.570  28.652  1.00  0.00     0.156 C 
ATOM     31  O   UNL     1      23.625  60.372  29.621  1.00  0.00    -0.295 OA
ENDBRANCH   9  11
ENDBRANCH   8   9
ENDBRANCH   1   8
TORSDOF 6
ENDMDL
MODEL 9
REMARK VINA RESULT:    -5.717      3.503      5.840
REMARK INTER + INTRA:          -9.122
REMARK INTER:                  -7.312
REMARK INTRA:                  -1.810
REMARK UNBOUND:                -1.399
REMARK SMILES CC[C@@H](CC[C@H](C)[C@H]1CC[C@H]2[C@H]3CC(=O)C4=CC(=O)CC[C@@]4(C)[C@@H]3CC[C@@]12C)C(C)C
REMARK SMILES IDX 4 1 3 2 2 3 1 4 29 5 30 6 31 7 5 8 6 9 7 10 8 11 9 12 27 13
REMARK SMILES IDX 10 14 11 15 26 16 28 17 12 18 25 19 24 20 13 21 22 22 14 23
REMARK SMILES IDX 16 24 21 25 23 26 15 27 17 28 20 29 18 30 19 31
REMARK H PARENT
REMARK Flexibility Score: inf
ROOT
ATOM      1  C   UNL     1      14.523  61.878  20.968  1.00  0.00     0.004 C 
ENDROOT
BRANCH   1   2
ATOM      2  C   UNL     1      13.536  60.723  20.627  1.00  0.00    -0.009 C 
BRANCH   2   3
ATOM      3  C   UNL     1      12.668  61.109  19.391  1.00  0.00     0.000 C 
ATOM      4  C   UNL     1      12.354  62.599  19.272  1.00  0.00     0.004 C 
ENDBRANCH   2   3
BRANCH   2   5
ATOM      5  C   UNL     1      12.719  60.324  21.909  1.00  0.00    -0.014 C 
ATOM      6  C   UNL     1      12.746  58.819  22.218  1.00  0.00     0.007 C 
ATOM      7  C   UNL     1      13.091  61.147  23.154  1.00  0.00     0.007 C 
ENDBRANCH   2   5
ENDBRANCH   1   2
BRANCH   1   8
ATOM      8  C   UNL     1      16.009  61.478  20.822  1.00  0.00     0.004 C 
BRANCH   8   9
ATOM      9  C   UNL     1      16.563  60.607  21.982  1.00  0.00    -0.011 C 
ATOM     10  C   UNL     1      17.387  61.489  22.948  1.00  0.00     0.008 C 
BRANCH   9  11
ATOM     11  C   UNL     1      17.378  59.335  21.539  1.00  0.00    -0.002 C 
ATOM     12  C   UNL     1      18.797  59.340  22.144  1.00  0.00     0.005 C 
ATOM     13  C   UNL     1      16.811  57.915  21.890  1.00  0.00    -0.026 C 
ATOM     14  C   UNL     1      19.213  57.891  22.363  1.00  0.00     0.005 C 
ATOM     15  C   UNL     1      18.077  57.027  21.811  1.00  0.00    -0.001 C 
ATOM     16  C   UNL     1      16.221  57.881  23.329  1.00  0.00     0.007 C 
ATOM     17  C   UNL     1      15.776  57.422  20.845  1.00  0.00     0.012 C 
ATOM     18  C   UNL     1      17.937  55.612  22.459  1.00  0.00     0.004 C 
ATOM     19  C   UNL     1      15.997  56.461  23.853  1.00  0.00     0.005 C 
ATOM     20  C   UNL     1      17.313  55.645  23.885  1.00  0.00     0.003 C 
ATOM     21  C   UNL     1      19.290  54.877  22.450  1.00  0.00     0.085 C 
ATOM     22  C   UNL     1      17.127  54.202  24.516  1.00  0.00    -0.000 C 
ATOM     23  C   UNL     1      19.184  53.530  23.081  1.00  0.00     0.159 C 
ATOM     24  C   UNL     1      18.396  53.364  24.319  1.00  0.00     0.005 C 
ATOM     25  C   UNL     1      16.843  54.348  26.047  1.00  0.00     0.020 C 
ATOM     26  C   UNL     1      15.955  53.432  23.849  1.00  0.00     0.017 C 
ATOM     27  O   UNL     1      19.843  52.568  22.601  1.00  0.00    -0.295 OA
ATOM     28  C   UNL     1      18.751  52.404  25.195  1.00  0.00     0.055 C 
ATOM     29  C   UNL     1      16.816  53.006  26.789  1.00  0.00     0.081 C 
ATOM     30  C   UNL     1      18.013  52.179  26.445  1.00  0.00     0.156 C 
ATOM     31  O   UNL     1      18.372  51.253  27.220  1.00  0.00    -0.295 OA
ENDBRANCH   9  11
ENDBRANCH   8   9
ENDBRANCH   1   8
TORSDOF 6
ENDMDL
