MODEL 1
REMARK VINA RESULT:    -3.638      0.000      0.000
REMARK INTER + INTRA:          -4.693
REMARK INTER:                  -4.488
REMARK INTRA:                  -0.205
REMARK UNBOUND:                -0.205
REMARK SMILES CCCCC=CC(C)=O
REMARK SMILES IDX 4 1 3 2 2 3 1 4 5 5 6 6 7 7 9 8 8 9
REMARK H PARENT
REMARK Flexibility Score: inf
ROOT
ATOM      1  C   UNL     1      54.143  66.283  34.823  1.00  0.00     0.027 C 
ENDROOT
BRANCH   1   2
ATOM      2  C   UNL     1      53.791  64.918  34.211  1.00  0.00     0.004 C 
BRANCH   2   3
ATOM      3  C   UNL     1      53.275  63.929  35.267  1.00  0.00    -0.003 C 
ATOM      4  C   UNL     1      53.089  64.614  36.618  1.00  0.00     0.004 C 
ENDBRANCH   2   3
ENDBRANCH   1   2
BRANCH   1   5
ATOM      5  C   UNL     1      53.430  67.421  34.137  1.00  0.00    -0.023 C 
ATOM      6  C   UNL     1      53.896  68.672  33.997  1.00  0.00     0.042 C 
BRANCH   6   7
ATOM      7  C   UNL     1      55.172  69.203  34.528  1.00  0.00     0.152 C 
ATOM      8  O   UNL     1      55.362  69.354  35.764  1.00  0.00    -0.295 OA
ATOM      9  C   UNL     1      56.236  69.639  33.573  1.00  0.00     0.093 C 
ENDBRANCH   6   7
ENDBRANCH   1   5
TORSDOF 4
ENDMDL
MODEL 2
REMARK VINA RESULT:    -3.635     14.318     15.332
REMARK INTER + INTRA:          -4.690
REMARK INTER:                  -4.372
REMARK INTRA:                  -0.317
REMARK UNBOUND:                -0.205
REMARK SMILES CCCCC=CC(C)=O
REMARK SMILES IDX 4 1 3 2 2 3 1 4 5 5 6 6 7 7 9 8 8 9
REMARK H PARENT
REMARK Flexibility Score: inf
ROOT
ATOM      1  C   UNL     1      66.897  68.232  41.578  1.00  0.00     0.027 C 
ENDROOT
BRANCH   1   2
ATOM      2  C   UNL     1      66.827  67.594  40.182  1.00  0.00     0.004 C 
BRANCH   2   3
ATOM      3  C   UNL     1      65.569  66.729  40.006  1.00  0.00    -0.003 C 
ATOM      4  C   UNL     1      64.325  67.595  39.840  1.00  0.00     0.004 C 
ENDBRANCH   2   3
ENDBRANCH   1   2
BRANCH   1   5
ATOM      5  C   UNL     1      66.632  67.237  42.679  1.00  0.00    -0.023 C 
ATOM      6  C   UNL     1      67.564  66.613  43.418  1.00  0.00     0.042 C 
BRANCH   6   7
ATOM      7  C   UNL     1      69.032  66.732  43.270  1.00  0.00     0.152 C 
ATOM      8  O   UNL     1      69.640  66.235  42.285  1.00  0.00    -0.295 OA
ATOM      9  C   UNL     1      69.824  67.393  44.352  1.00  0.00     0.093 C 
ENDBRANCH   6   7
ENDBRANCH   1   5
TORSDOF 4
ENDMDL
MODEL 3
REMARK VINA RESULT:    -3.607     14.278     15.340
REMARK INTER + INTRA:          -4.656
REMARK INTER:                  -4.408
REMARK INTRA:                  -0.248
REMARK UNBOUND:                -0.205
REMARK SMILES CCCCC=CC(C)=O
REMARK SMILES IDX 4 1 3 2 2 3 1 4 5 5 6 6 7 7 9 8 8 9
REMARK H PARENT
REMARK Flexibility Score: inf
ROOT
ATOM      1  C   UNL     1      67.029  66.901  43.010  1.00  0.00     0.027 C 
ENDROOT
BRANCH   1   2
ATOM      2  C   UNL     1      68.329  66.503  43.726  1.00  0.00     0.004 C 
BRANCH   2   3
ATOM      3  C   UNL     1      69.338  67.661  43.773  1.00  0.00    -0.003 C 
ATOM      4  C   UNL     1      70.148  67.633  45.066  1.00  0.00     0.004 C 
ENDBRANCH   2   3
ENDBRANCH   1   2
BRANCH   1   5
ATOM      5  C   UNL     1      67.265  67.890  41.897  1.00  0.00    -0.023 C 
ATOM      6  C   UNL     1      66.660  67.887  40.698  1.00  0.00     0.042 C 
BRANCH   6   7
ATOM      7  C   UNL     1      65.685  66.888  40.205  1.00  0.00     0.152 C 
ATOM      8  O   UNL     1      66.044  65.738  39.837  1.00  0.00    -0.295 OA
ATOM      9  C   UNL     1      64.247  67.275  40.071  1.00  0.00     0.093 C 
ENDBRANCH   6   7
ENDBRANCH   1   5
TORSDOF 4
ENDMDL
MODEL 4
REMARK VINA RESULT:    -3.422     13.495     14.511
REMARK INTER + INTRA:          -4.428
REMARK INTER:                  -3.846
REMARK INTRA:                  -0.581
REMARK UNBOUND:                -0.205
REMARK SMILES CCCCC=CC(C)=O
REMARK SMILES IDX 4 1 3 2 2 3 1 4 5 5 6 6 7 7 9 8 8 9
REMARK H PARENT
REMARK Flexibility Score: inf
ROOT
ATOM      1  C   UNL     1      66.646  67.839  41.271  1.00  0.00     0.027 C 
ENDROOT
BRANCH   1   2
ATOM      2  C   UNL     1      66.600  67.396  42.742  1.00  0.00     0.004 C 
BRANCH   2   3
ATOM      3  C   UNL     1      67.751  66.441  43.091  1.00  0.00    -0.003 C 
ATOM      4  C   UNL     1      68.932  66.633  42.144  1.00  0.00     0.004 C 
ENDBRANCH   2   3
ENDBRANCH   1   2
BRANCH   1   5
ATOM      5  C   UNL     1      65.516  67.258  40.460  1.00  0.00    -0.023 C 
ATOM      6  C   UNL     1      65.572  66.141  39.717  1.00  0.00     0.042 C 
BRANCH   6   7
ATOM      7  C   UNL     1      66.760  65.285  39.501  1.00  0.00     0.152 C 
ATOM      8  O   UNL     1      66.974  64.260  40.202  1.00  0.00    -0.295 OA
ATOM      9  C   UNL     1      67.772  65.684  38.475  1.00  0.00     0.093 C 
ENDBRANCH   6   7
ENDBRANCH   1   5
TORSDOF 4
ENDMDL
MODEL 5
REMARK VINA RESULT:    -3.396     13.282     14.575
REMARK INTER + INTRA:          -4.395
REMARK INTER:                  -3.783
REMARK INTRA:                  -0.613
REMARK UNBOUND:                -0.205
REMARK SMILES CCCCC=CC(C)=O
REMARK SMILES IDX 4 1 3 2 2 3 1 4 5 5 6 6 7 7 9 8 8 9
REMARK H PARENT
REMARK Flexibility Score: inf
ROOT
ATOM      1  C   UNL     1      68.689  67.750  40.816  1.00  0.00     0.027 C 
ENDROOT
BRANCH   1   2
ATOM      2  C   UNL     1      68.151  68.892  41.692  1.00  0.00     0.004 C 
BRANCH   2   3
ATOM      3  C   UNL     1      67.165  68.386  42.757  1.00  0.00    -0.003 C 
ATOM      4  C   UNL     1      67.367  66.898  43.029  1.00  0.00     0.004 C 
ENDBRANCH   2   3
ENDBRANCH   1   2
BRANCH   1   5
ATOM      5  C   UNL     1      68.223  67.854  39.386  1.00  0.00    -0.023 C 
ATOM      6  C   UNL     1      67.059  67.394  38.901  1.00  0.00     0.042 C 
BRANCH   6   7
ATOM      7  C   UNL     1      66.024  66.648  39.653  1.00  0.00     0.152 C 
ATOM      8  O   UNL     1      66.155  65.424  39.922  1.00  0.00    -0.295 OA
ATOM      9  C   UNL     1      64.759  67.343  40.040  1.00  0.00     0.093 C 
ENDBRANCH   6   7
ENDBRANCH   1   5
TORSDOF 4
ENDMDL
MODEL 6
REMARK VINA RESULT:    -3.350     13.487     14.572
REMARK INTER + INTRA:          -4.338
REMARK INTER:                  -3.816
REMARK INTRA:                  -0.522
REMARK UNBOUND:                -0.205
REMARK SMILES CCCCC=CC(C)=O
REMARK SMILES IDX 4 1 3 2 2 3 1 4 5 5 6 6 7 7 9 8 8 9
REMARK H PARENT
REMARK Flexibility Score: inf
ROOT
ATOM      1  C   UNL     1      68.408  66.103  41.516  1.00  0.00     0.027 C 
ENDROOT
BRANCH   1   2
ATOM      2  C   UNL     1      67.842  66.393  42.916  1.00  0.00     0.004 C 
BRANCH   2   3
ATOM      3  C   UNL     1      66.925  67.626  42.923  1.00  0.00    -0.003 C 
ATOM      4  C   UNL     1      67.589  68.809  42.224  1.00  0.00     0.004 C 
ENDBRANCH   2   3
ENDBRANCH   1   2
BRANCH   1   5
ATOM      5  C   UNL     1      67.587  65.090  40.763  1.00  0.00    -0.023 C 
ATOM      6  C   UNL     1      66.583  65.363  39.913  1.00  0.00     0.042 C 
BRANCH   6   7
ATOM      7  C   UNL     1      66.046  66.703  39.586  1.00  0.00     0.152 C 
ATOM      8  O   UNL     1      66.734  67.558  38.967  1.00  0.00    -0.295 OA
ATOM      9  C   UNL     1      64.680  67.079  40.063  1.00  0.00     0.093 C 
ENDBRANCH   6   7
ENDBRANCH   1   5
TORSDOF 4
ENDMDL
MODEL 7
REMARK VINA RESULT:    -3.331     10.107     12.236
REMARK INTER + INTRA:          -4.315
REMARK INTER:                  -3.825
REMARK INTRA:                  -0.489
REMARK UNBOUND:                -0.205
REMARK SMILES CCCCC=CC(C)=O
REMARK SMILES IDX 4 1 3 2 2 3 1 4 5 5 6 6 7 7 9 8 8 9
REMARK H PARENT
REMARK Flexibility Score: inf
ROOT
ATOM      1  C   UNL     1      53.108  79.599  35.504  1.00  0.00     0.027 C 
ENDROOT
BRANCH   1   2
ATOM      2  C   UNL     1      53.644  78.478  34.599  1.00  0.00     0.004 C 
BRANCH   2   3
ATOM      3  C   UNL     1      53.319  77.083  35.155  1.00  0.00    -0.003 C 
ATOM      4  C   UNL     1      54.568  76.208  35.206  1.00  0.00     0.004 C 
ENDBRANCH   2   3
ENDBRANCH   1   2
BRANCH   1   5
ATOM      5  C   UNL     1      54.212  80.368  36.182  1.00  0.00    -0.023 C 
ATOM      6  C   UNL     1      54.556  80.279  37.477  1.00  0.00     0.042 C 
BRANCH   6   7
ATOM      7  C   UNL     1      53.892  79.453  38.510  1.00  0.00     0.152 C 
ATOM      8  O   UNL     1      52.951  79.906  39.216  1.00  0.00    -0.295 OA
ATOM      9  C   UNL     1      54.396  78.071  38.776  1.00  0.00     0.093 C 
ENDBRANCH   6   7
ENDBRANCH   1   5
TORSDOF 4
ENDMDL
MODEL 8
REMARK VINA RESULT:    -3.326      3.181      5.026
REMARK INTER + INTRA:          -4.309
REMARK INTER:                  -3.997
REMARK INTRA:                  -0.312
REMARK UNBOUND:                -0.205
REMARK SMILES CCCCC=CC(C)=O
REMARK SMILES IDX 4 1 3 2 2 3 1 4 5 5 6 6 7 7 9 8 8 9
REMARK H PARENT
REMARK Flexibility Score: inf
ROOT
ATOM      1  C   UNL     1      53.660  70.636  32.492  1.00  0.00     0.027 C 
ENDROOT
BRANCH   1   2
ATOM      2  C   UNL     1      52.978  69.480  31.742  1.00  0.00     0.004 C 
BRANCH   2   3
ATOM      3  C   UNL     1      52.433  69.922  30.375  1.00  0.00    -0.003 C 
ATOM      4  C   UNL     1      53.567  70.169  29.385  1.00  0.00     0.004 C 
ENDBRANCH   2   3
ENDBRANCH   1   2
BRANCH   1   5
ATOM      5  C   UNL     1      55.128  70.386  32.718  1.00  0.00    -0.023 C 
ATOM      6  C   UNL     1      55.659  69.637  33.699  1.00  0.00     0.042 C 
BRANCH   6   7
ATOM      7  C   UNL     1      54.919  68.952  34.783  1.00  0.00     0.152 C 
ATOM      8  O   UNL     1      54.479  67.780  34.644  1.00  0.00    -0.295 OA
ATOM      9  C   UNL     1      54.622  69.692  36.047  1.00  0.00     0.093 C 
ENDBRANCH   6   7
ENDBRANCH   1   5
TORSDOF 4
ENDMDL
MODEL 9
REMARK VINA RESULT:    -3.268      2.565      4.754
REMARK INTER + INTRA:          -4.237
REMARK INTER:                  -3.805
REMARK INTRA:                  -0.432
REMARK UNBOUND:                -0.205
REMARK SMILES CCCCC=CC(C)=O
REMARK SMILES IDX 4 1 3 2 2 3 1 4 5 5 6 6 7 7 9 8 8 9
REMARK H PARENT
REMARK Flexibility Score: inf
ROOT
ATOM      1  C   UNL     1      54.295  64.557  35.444  1.00  0.00     0.027 C 
ENDROOT
BRANCH   1   2
ATOM      2  C   UNL     1      54.121  65.655  34.383  1.00  0.00     0.004 C 
BRANCH   2   3
ATOM      3  C   UNL     1      53.743  67.006  35.008  1.00  0.00    -0.003 C 
ATOM      4  C   UNL     1      53.144  67.946  33.967  1.00  0.00     0.004 C 
ENDBRANCH   2   3
ENDBRANCH   1   2
BRANCH   1   5
ATOM      5  C   UNL     1      52.994  63.875  35.785  1.00  0.00    -0.023 C 
ATOM      6  C   UNL     1      52.266  64.076  36.895  1.00  0.00     0.042 C 
BRANCH   6   7
ATOM      7  C   UNL     1      52.614  64.961  38.030  1.00  0.00     0.152 C 
ATOM      8  O   UNL     1      53.415  64.598  38.931  1.00  0.00    -0.295 OA
ATOM      9  C   UNL     1      51.944  66.292  38.150  1.00  0.00     0.093 C 
ENDBRANCH   6   7
ENDBRANCH   1   5
TORSDOF 4
ENDMDL
