MODEL 1
REMARK VINA RESULT:     8.542      0.000      0.000
REMARK INTER + INTRA:          14.099
REMARK INTER:                  11.039
REMARK INTRA:                   3.060
REMARK UNBOUND:                 3.060
REMARK SMILES CCO[C@@H]1O[C@@H](CO)[C@@H](O)[C@@H](O)[C@@H]1O
REMARK SMILES IDX 4 1 13 2 11 3 9 4 6 5 5 6 3 7 2 8 1 9 14 10 12 12 7 14 8 15
REMARK SMILES IDX 10 17
REMARK H PARENT 14 11 12 13 8 16 10 18
REMARK Flexibility Score: inf
ROOT
ATOM      1  C   UNL     1      92.957 117.771 112.969  1.00  0.00     0.281 C 
ATOM      2  C   UNL     1      92.988 119.234 112.463  1.00  0.00     0.202 C 
ATOM      3  C   UNL     1      93.835 119.382 111.170  1.00  0.00     0.179 C 
ATOM      4  C   UNL     1      94.915 118.291 111.079  1.00  0.00     0.177 C 
ATOM      5  C   UNL     1      94.306 116.858 111.257  1.00  0.00     0.178 C 
ATOM      6  O   UNL     1      93.022 116.869 111.874  1.00  0.00    -0.341 OA
ENDROOT
BRANCH   1   7
ATOM      7  O   UNL     1      94.010 117.536 113.895  1.00  0.00    -0.350 OA
BRANCH   7   8
ATOM      8  C   UNL     1      94.878 118.651 113.978  1.00  0.00     0.160 C 
ATOM      9  C   UNL     1      96.139 118.280 114.747  1.00  0.00     0.035 C 
ENDBRANCH   7   8
ENDBRANCH   1   7
BRANCH   2  10
ATOM     10  O   UNL     1      93.491 120.070 113.476  1.00  0.00    -0.385 OA
ATOM     11  H   UNL     1      93.783 120.910 113.037  1.00  0.00     0.211 HD
ENDBRANCH   2  10
BRANCH   3  12
ATOM     12  O   UNL     1      93.023 119.384 110.018  1.00  0.00    -0.387 OA
ATOM     13  H   UNL     1      93.135 120.258 109.560  1.00  0.00     0.211 HD
ENDBRANCH   3  12
BRANCH   5  14
ATOM     14  C   UNL     1      94.188 116.089 109.930  1.00  0.00     0.191 C 
BRANCH  14  15
ATOM     15  O   UNL     1      92.959 115.418 109.878  1.00  0.00    -0.394 OA
ATOM     16  H   UNL     1      92.822 115.025 110.778  1.00  0.00     0.210 HD
ENDBRANCH  14  15
ENDBRANCH   5  14
BRANCH   4  17
ATOM     17  O   UNL     1      95.627 118.429 109.875  1.00  0.00    -0.387 OA
ATOM     18  H   UNL     1      95.526 117.573 109.383  1.00  0.00     0.211 HD
ENDBRANCH   4  17
TORSDOF 7
ENDMDL
MODEL 2
REMARK VINA RESULT:     9.146      1.526      2.474
REMARK INTER + INTRA:          14.879
REMARK INTER:                  15.488
REMARK INTRA:                  -0.609
REMARK UNBOUND:                 3.060
REMARK SMILES CCO[C@@H]1O[C@@H](CO)[C@@H](O)[C@@H](O)[C@@H]1O
REMARK SMILES IDX 4 1 13 2 11 3 9 4 6 5 5 6 3 7 2 8 1 9 14 10 12 12 7 14 8 15
REMARK SMILES IDX 10 17
REMARK H PARENT 14 11 12 13 8 16 10 18
REMARK Flexibility Score: inf
ROOT
ATOM      1  C   UNL     1      95.426 117.649 113.807  1.00  0.00     0.281 C 
ATOM      2  C   UNL     1      93.900 117.418 113.929  1.00  0.00     0.202 C 
ATOM      3  C   UNL     1      93.144 117.855 112.644  1.00  0.00     0.179 C 
ATOM      4  C   UNL     1      93.913 118.951 111.887  1.00  0.00     0.177 C 
ATOM      5  C   UNL     1      95.399 118.534 111.617  1.00  0.00     0.178 C 
ATOM      6  O   UNL     1      95.845 117.478 112.462  1.00  0.00    -0.341 OA
ENDROOT
BRANCH   1   7
ATOM      7  O   UNL     1      95.782 118.933 114.301  1.00  0.00    -0.350 OA
BRANCH   7   8
ATOM      8  C   UNL     1      96.858 118.849 115.217  1.00  0.00     0.160 C 
ATOM      9  C   UNL     1      97.013 120.166 115.969  1.00  0.00     0.035 C 
ENDBRANCH   7   8
ENDBRANCH   1   7
BRANCH   2  10
ATOM     10  O   UNL     1      93.408 118.114 115.047  1.00  0.00    -0.385 OA
ATOM     11  H   UNL     1      93.906 118.971 115.095  1.00  0.00     0.211 HD
ENDBRANCH   2  10
BRANCH   3  12
ATOM     12  O   UNL     1      92.876 116.756 111.804  1.00  0.00    -0.387 OA
ATOM     13  H   UNL     1      92.837 117.083 110.867  1.00  0.00     0.211 HD
ENDBRANCH   3  12
BRANCH   5  14
ATOM     14  C   UNL     1      95.646 118.113 110.158  1.00  0.00     0.191 C 
BRANCH  14  15
ATOM     15  O   UNL     1      94.937 116.938 109.878  1.00  0.00    -0.394 OA
ATOM     16  H   UNL     1      95.571 116.190 110.032  1.00  0.00     0.210 HD
ENDBRANCH  14  15
ENDBRANCH   5  14
BRANCH   4  17
ATOM     17  O   UNL     1      93.223 119.284 110.709  1.00  0.00    -0.387 OA
ATOM     18  H   UNL     1      92.419 119.799 110.984  1.00  0.00     0.211 HD
ENDBRANCH   4  17
TORSDOF 7
ENDMDL
MODEL 3
REMARK VINA RESULT:    10.291      1.430      4.123
REMARK INTER + INTRA:          16.359
REMARK INTER:                  14.047
REMARK INTRA:                   2.312
REMARK UNBOUND:                 3.060
REMARK SMILES CCO[C@@H]1O[C@@H](CO)[C@@H](O)[C@@H](O)[C@@H]1O
REMARK SMILES IDX 4 1 13 2 11 3 9 4 6 5 5 6 3 7 2 8 1 9 14 10 12 12 7 14 8 15
REMARK SMILES IDX 10 17
REMARK H PARENT 14 11 12 13 8 16 10 18
REMARK Flexibility Score: inf
ROOT
ATOM      1  C   UNL     1      95.280 118.072 111.056  1.00  0.00     0.281 C 
ATOM      2  C   UNL     1      94.027 118.971 110.912  1.00  0.00     0.202 C 
ATOM      3  C   UNL     1      93.281 119.144 112.263  1.00  0.00     0.179 C 
ATOM      4  C   UNL     1      93.526 117.946 113.196  1.00  0.00     0.177 C 
ATOM      5  C   UNL     1      95.056 117.652 113.370  1.00  0.00     0.178 C 
ATOM      6  O   UNL     1      95.856 118.231 112.343  1.00  0.00    -0.341 OA
ENDROOT
BRANCH   1   7
ATOM      7  O   UNL     1      94.956 116.712 110.798  1.00  0.00    -0.350 OA
BRANCH   7   8
ATOM      8  C   UNL     1      93.880 116.606 109.885  1.00  0.00     0.160 C 
ATOM      9  C   UNL     1      93.087 115.332 110.151  1.00  0.00     0.035 C 
ENDBRANCH   7   8
ENDBRANCH   1   7
BRANCH   2  10
ATOM     10  O   UNL     1      93.167 118.425 109.944  1.00  0.00    -0.385 OA
ATOM     11  H   UNL     1      92.827 119.182 109.400  1.00  0.00     0.211 HD
ENDBRANCH   2  10
BRANCH   3  12
ATOM     12  O   UNL     1      93.630 120.355 112.894  1.00  0.00    -0.387 OA
ATOM     13  H   UNL     1      92.871 120.987 112.795  1.00  0.00     0.211 HD
ENDBRANCH   3  12
BRANCH   5  14
ATOM     14  C   UNL     1      95.606 118.127 114.726  1.00  0.00     0.191 C 
BRANCH  14  15
ATOM     15  O   UNL     1      97.006 118.082 114.711  1.00  0.00    -0.394 OA
ATOM     16  H   UNL     1      97.283 117.805 115.622  1.00  0.00     0.210 HD
ENDBRANCH  14  15
ENDBRANCH   5  14
BRANCH   4  17
ATOM     17  O   UNL     1      92.875 118.163 114.423  1.00  0.00    -0.387 OA
ATOM     18  H   UNL     1      92.515 117.285 114.714  1.00  0.00     0.211 HD
ENDBRANCH   4  17
TORSDOF 7
ENDMDL
MODEL 4
REMARK VINA RESULT:    10.539      1.583      4.492
REMARK INTER + INTRA:          16.680
REMARK INTER:                  14.152
REMARK INTRA:                   2.528
REMARK UNBOUND:                 3.060
REMARK SMILES CCO[C@@H]1O[C@@H](CO)[C@@H](O)[C@@H](O)[C@@H]1O
REMARK SMILES IDX 4 1 13 2 11 3 9 4 6 5 5 6 3 7 2 8 1 9 14 10 12 12 7 14 8 15
REMARK SMILES IDX 10 17
REMARK H PARENT 14 11 12 13 8 16 10 18
REMARK Flexibility Score: inf
ROOT
ATOM      1  C   UNL     1      94.130 119.132 111.998  1.00  0.00     0.281 C 
ATOM      2  C   UNL     1      93.125 118.099 112.564  1.00  0.00     0.202 C 
ATOM      3  C   UNL     1      93.638 117.453 113.880  1.00  0.00     0.179 C 
ATOM      4  C   UNL     1      95.175 117.464 113.948  1.00  0.00     0.177 C 
ATOM      5  C   UNL     1      95.754 118.899 113.698  1.00  0.00     0.178 C 
ATOM      6  O   UNL     1      94.828 119.771 113.055  1.00  0.00    -0.341 OA
ENDROOT
BRANCH   1   7
ATOM      7  O   UNL     1      95.026 118.514 111.084  1.00  0.00    -0.350 OA
BRANCH   7   8
ATOM      8  C   UNL     1      94.352 118.086 109.915  1.00  0.00     0.160 C 
ATOM      9  C   UNL     1      94.271 116.565 109.882  1.00  0.00     0.035 C 
ENDBRANCH   7   8
ENDBRANCH   1   7
BRANCH   2  10
ATOM     10  O   UNL     1      92.875 117.109 111.597  1.00  0.00    -0.385 OA
ATOM     11  H   UNL     1      93.591 117.186 110.914  1.00  0.00     0.211 HD
ENDBRANCH   2  10
BRANCH   3  12
ATOM     12  O   UNL     1      93.079 118.075 115.014  1.00  0.00    -0.387 OA
ATOM     13  H   UNL     1      92.206 118.468 114.754  1.00  0.00     0.211 HD
ENDBRANCH   3  12
BRANCH   5  14
ATOM     14  C   UNL     1      96.233 119.583 114.990  1.00  0.00     0.191 C 
BRANCH  14  15
ATOM     15  O   UNL     1      97.324 118.882 115.521  1.00  0.00    -0.394 OA
ATOM     16  H   UNL     1      98.054 119.546 115.624  1.00  0.00     0.210 HD
ENDBRANCH  14  15
ENDBRANCH   5  14
BRANCH   4  17
ATOM     17  O   UNL     1      95.598 116.917 115.170  1.00  0.00    -0.387 OA
ATOM     18  H   UNL     1      96.510 117.269 115.341  1.00  0.00     0.211 HD
ENDBRANCH   4  17
TORSDOF 7
ENDMDL
MODEL 5
REMARK VINA RESULT:    10.641      1.749      3.880
REMARK INTER + INTRA:          16.811
REMARK INTER:                  17.053
REMARK INTRA:                  -0.242
REMARK UNBOUND:                 3.060
REMARK SMILES CCO[C@@H]1O[C@@H](CO)[C@@H](O)[C@@H](O)[C@@H]1O
REMARK SMILES IDX 4 1 13 2 11 3 9 4 6 5 5 6 3 7 2 8 1 9 14 10 12 12 7 14 8 15
REMARK SMILES IDX 10 17
REMARK H PARENT 14 11 12 13 8 16 10 18
REMARK Flexibility Score: inf
ROOT
ATOM      1  C   UNL     1      93.783 119.692 111.313  1.00  0.00     0.281 C 
ATOM      2  C   UNL     1      94.358 118.464 110.566  1.00  0.00     0.202 C 
ATOM      3  C   UNL     1      94.657 117.286 111.534  1.00  0.00     0.179 C 
ATOM      4  C   UNL     1      94.944 117.790 112.958  1.00  0.00     0.177 C 
ATOM      5  C   UNL     1      93.810 118.741 113.475  1.00  0.00     0.178 C 
ATOM      6  O   UNL     1      93.008 119.275 112.426  1.00  0.00    -0.341 OA
ENDROOT
BRANCH   1   7
ATOM      7  O   UNL     1      94.826 120.574 111.709  1.00  0.00    -0.350 OA
BRANCH   7   8
ATOM      8  C   UNL     1      94.355 121.903 111.828  1.00  0.00     0.160 C 
ATOM      9  C   UNL     1      95.524 122.859 112.030  1.00  0.00     0.035 C 
ENDBRANCH   7   8
ENDBRANCH   1   7
BRANCH   2  10
ATOM     10  O   UNL     1      95.523 118.837 109.875  1.00  0.00    -0.385 OA
ATOM     11  H   UNL     1      96.274 118.330 110.280  1.00  0.00     0.211 HD
ENDBRANCH   2  10
BRANCH   3  12
ATOM     12  O   UNL     1      93.612 116.340 111.535  1.00  0.00    -0.387 OA
ATOM     13  H   UNL     1      92.799 116.775 111.903  1.00  0.00     0.211 HD
ENDBRANCH   3  12
BRANCH   5  14
ATOM     14  C   UNL     1      92.875 118.059 114.489  1.00  0.00     0.191 C 
BRANCH  14  15
ATOM     15  O   UNL     1      93.586 117.752 115.657  1.00  0.00    -0.394 OA
ATOM     16  H   UNL     1      93.406 116.795 115.845  1.00  0.00     0.210 HD
ENDBRANCH  14  15
ENDBRANCH   5  14
BRANCH   4  17
ATOM     17  O   UNL     1      95.162 116.695 113.812  1.00  0.00    -0.387 OA
ATOM     18  H   UNL     1      95.186 117.055 114.737  1.00  0.00     0.211 HD
ENDBRANCH   4  17
TORSDOF 7
ENDMDL
