MODEL 1
REMARK VINA RESULT:    -2.644      0.000      0.000
REMARK INTER + INTRA:          -4.131
REMARK INTER:                  -3.571
REMARK INTRA:                  -0.561
REMARK UNBOUND:                -0.561
REMARK SMILES CCCCCCCC=O
REMARK SMILES IDX 5 1 4 2 3 3 2 4 1 5 6 6 7 7 8 8 9 9
REMARK H PARENT
REMARK Flexibility Score: inf
ROOT
ATOM      1  C   UNL     1     168.230 167.546 168.058  1.00  0.00     0.000 C 
ENDROOT
BRANCH   1   2
ATOM      2  C   UNL     1     168.561 168.923 168.661  1.00  0.00     0.000 C 
BRANCH   2   3
ATOM      3  C   UNL     1     167.936 170.086 167.875  1.00  0.00    -0.000 C 
BRANCH   3   4
ATOM      4  C   UNL     1     167.088 170.973 168.792  1.00  0.00    -0.003 C 
ATOM      5  C   UNL     1     166.900 170.330 170.163  1.00  0.00     0.004 C 
ENDBRANCH   3   4
ENDBRANCH   2   3
ENDBRANCH   1   2
BRANCH   1   6
ATOM      6  C   UNL     1     167.098 166.777 168.769  1.00  0.00     0.008 C 
BRANCH   6   7
ATOM      7  C   UNL     1     165.818 166.612 167.933  1.00  0.00     0.072 C 
BRANCH   7   8
ATOM      8  C   UNL     1     164.698 167.478 168.430  1.00  0.00     0.224 C 
ATOM      9  O   UNL     1     164.577 168.625 168.029  1.00  0.00    -0.303 OA
ENDBRANCH   7   8
ENDBRANCH   6   7
ENDBRANCH   1   6
TORSDOF 6
ENDMDL
MODEL 2
REMARK VINA RESULT:    -2.641      2.033      3.556
REMARK INTER + INTRA:          -4.128
REMARK INTER:                  -3.604
REMARK INTRA:                  -0.525
REMARK UNBOUND:                -0.561
REMARK SMILES CCCCCCCC=O
REMARK SMILES IDX 5 1 4 2 3 3 2 4 1 5 6 6 7 7 8 8 9 9
REMARK H PARENT
REMARK Flexibility Score: inf
ROOT
ATOM      1  C   UNL     1     167.214 167.138 169.164  1.00  0.00     0.000 C 
ENDROOT
BRANCH   1   2
ATOM      2  C   UNL     1     168.026 166.884 167.882  1.00  0.00     0.000 C 
BRANCH   2   3
ATOM      3  C   UNL     1     169.499 166.550 168.162  1.00  0.00    -0.000 C 
BRANCH   3   4
ATOM      4  C   UNL     1     170.397 167.763 167.894  1.00  0.00    -0.003 C 
ATOM      5  C   UNL     1     170.715 168.511 169.185  1.00  0.00     0.004 C 
ENDBRANCH   3   4
ENDBRANCH   2   3
ENDBRANCH   1   2
BRANCH   1   6
ATOM      6  C   UNL     1     166.752 168.595 169.368  1.00  0.00     0.008 C 
BRANCH   6   7
ATOM      7  C   UNL     1     166.857 169.477 168.113  1.00  0.00     0.072 C 
BRANCH   7   8
ATOM      8  C   UNL     1     167.770 170.650 168.316  1.00  0.00     0.224 C 
ATOM      9  O   UNL     1     167.366 171.788 168.137  1.00  0.00    -0.303 OA
ENDBRANCH   7   8
ENDBRANCH   6   7
ENDBRANCH   1   6
TORSDOF 6
ENDMDL
MODEL 3
REMARK VINA RESULT:    -2.626      3.901      6.013
REMARK INTER + INTRA:          -4.108
REMARK INTER:                  -3.897
REMARK INTRA:                  -0.211
REMARK UNBOUND:                -0.561
REMARK SMILES CCCCCCCC=O
REMARK SMILES IDX 5 1 4 2 3 3 2 4 1 5 6 6 7 7 8 8 9 9
REMARK H PARENT
REMARK Flexibility Score: inf
ROOT
ATOM      1  C   UNL     1     168.895 166.302 168.797  1.00  0.00     0.000 C 
ENDROOT
BRANCH   1   2
ATOM      2  C   UNL     1     168.264 165.190 167.941  1.00  0.00     0.000 C 
BRANCH   2   3
ATOM      3  C   UNL     1     168.388 163.799 168.580  1.00  0.00    -0.000 C 
BRANCH   3   4
ATOM      4  C   UNL     1     169.103 163.880 169.933  1.00  0.00    -0.003 C 
ATOM      5  C   UNL     1     169.859 162.589 170.235  1.00  0.00     0.004 C 
ENDBRANCH   3   4
ENDBRANCH   2   3
ENDBRANCH   1   2
BRANCH   1   6
ATOM      6  C   UNL     1     169.671 167.376 168.007  1.00  0.00     0.008 C 
BRANCH   6   7
ATOM      7  C   UNL     1     170.248 168.509 168.870  1.00  0.00     0.072 C 
BRANCH   7   8
ATOM      8  C   UNL     1     171.749 168.513 168.874  1.00  0.00     0.224 C 
ATOM      9  O   UNL     1     172.372 168.096 167.910  1.00  0.00    -0.303 OA
ENDBRANCH   7   8
ENDBRANCH   6   7
ENDBRANCH   1   6
TORSDOF 6
ENDMDL
MODEL 4
REMARK VINA RESULT:    -2.615      3.180      3.998
REMARK INTER + INTRA:          -4.093
REMARK INTER:                  -3.624
REMARK INTRA:                  -0.469
REMARK UNBOUND:                -0.561
REMARK SMILES CCCCCCCC=O
REMARK SMILES IDX 5 1 4 2 3 3 2 4 1 5 6 6 7 7 8 8 9 9
REMARK H PARENT
REMARK Flexibility Score: inf
ROOT
ATOM      1  C   UNL     1     167.796 166.093 170.262  1.00  0.00     0.000 C 
ENDROOT
BRANCH   1   2
ATOM      2  C   UNL     1     168.941 167.086 170.533  1.00  0.00     0.000 C 
BRANCH   2   3
ATOM      3  C   UNL     1     168.827 168.371 169.699  1.00  0.00    -0.000 C 
BRANCH   3   4
ATOM      4  C   UNL     1     170.187 168.768 169.115  1.00  0.00    -0.003 C 
ATOM      5  C   UNL     1     170.747 167.665 168.222  1.00  0.00     0.004 C 
ENDBRANCH   3   4
ENDBRANCH   2   3
ENDBRANCH   1   2
BRANCH   1   6
ATOM      6  C   UNL     1     167.253 166.101 168.819  1.00  0.00     0.008 C 
BRANCH   6   7
ATOM      7  C   UNL     1     167.935 165.096 167.876  1.00  0.00     0.072 C 
BRANCH   7   8
ATOM      8  C   UNL     1     168.400 163.865 168.597  1.00  0.00     0.224 C 
ATOM      9  O   UNL     1     168.320 162.768 168.065  1.00  0.00    -0.303 OA
ENDBRANCH   7   8
ENDBRANCH   6   7
ENDBRANCH   1   6
TORSDOF 6
ENDMDL
MODEL 5
REMARK VINA RESULT:    -2.576      1.858      4.079
REMARK INTER + INTRA:          -4.040
REMARK INTER:                  -3.635
REMARK INTRA:                  -0.405
REMARK UNBOUND:                -0.561
REMARK SMILES CCCCCCCC=O
REMARK SMILES IDX 5 1 4 2 3 3 2 4 1 5 6 6 7 7 8 8 9 9
REMARK H PARENT
REMARK Flexibility Score: inf
ROOT
ATOM      1  C   UNL     1     165.140 167.376 168.211  1.00  0.00     0.000 C 
ENDROOT
BRANCH   1   2
ATOM      2  C   UNL     1     166.146 166.481 168.957  1.00  0.00     0.000 C 
BRANCH   2   3
ATOM      3  C   UNL     1     166.717 165.360 168.076  1.00  0.00    -0.000 C 
BRANCH   3   4
ATOM      4  C   UNL     1     168.229 165.219 168.279  1.00  0.00    -0.003 C 
ATOM      5  C   UNL     1     168.885 166.579 168.501  1.00  0.00     0.004 C 
ENDBRANCH   3   4
ENDBRANCH   2   3
ENDBRANCH   1   2
BRANCH   1   6
ATOM      6  C   UNL     1     165.650 168.793 167.875  1.00  0.00     0.008 C 
BRANCH   6   7
ATOM      7  C   UNL     1     166.552 169.416 168.952  1.00  0.00     0.072 C 
BRANCH   7   8
ATOM      8  C   UNL     1     167.574 170.347 168.369  1.00  0.00     0.224 C 
ATOM      9  O   UNL     1     167.328 171.536 168.238  1.00  0.00    -0.303 OA
ENDBRANCH   7   8
ENDBRANCH   6   7
ENDBRANCH   1   6
TORSDOF 6
ENDMDL
MODEL 6
REMARK VINA RESULT:    -2.568      2.067      4.111
REMARK INTER + INTRA:          -4.030
REMARK INTER:                  -3.623
REMARK INTRA:                  -0.407
REMARK UNBOUND:                -0.561
REMARK SMILES CCCCCCCC=O
REMARK SMILES IDX 5 1 4 2 3 3 2 4 1 5 6 6 7 7 8 8 9 9
REMARK H PARENT
REMARK Flexibility Score: inf
ROOT
ATOM      1  C   UNL     1     169.557 167.954 168.684  1.00  0.00     0.000 C 
ENDROOT
BRANCH   1   2
ATOM      2  C   UNL     1     169.748 166.538 168.113  1.00  0.00     0.000 C 
BRANCH   2   3
ATOM      3  C   UNL     1     169.134 165.446 169.003  1.00  0.00    -0.000 C 
BRANCH   3   4
ATOM      4  C   UNL     1     168.021 164.697 168.263  1.00  0.00    -0.003 C 
ATOM      5  C   UNL     1     166.681 165.413 168.412  1.00  0.00     0.004 C 
ENDBRANCH   3   4
ENDBRANCH   2   3
ENDBRANCH   1   2
BRANCH   1   6
ATOM      6  C   UNL     1     168.442 168.783 168.016  1.00  0.00     0.008 C 
BRANCH   6   7
ATOM      7  C   UNL     1     167.322 169.230 168.970  1.00  0.00     0.072 C 
BRANCH   7   8
ATOM      8  C   UNL     1     167.086 170.711 168.916  1.00  0.00     0.224 C 
ATOM      9  O   UNL     1     167.680 171.404 168.106  1.00  0.00    -0.303 OA
ENDBRANCH   7   8
ENDBRANCH   6   7
ENDBRANCH   1   6
TORSDOF 6
ENDMDL
MODEL 7
REMARK VINA RESULT:    -2.538      1.364      2.713
REMARK INTER + INTRA:          -3.989
REMARK INTER:                  -3.551
REMARK INTRA:                  -0.438
REMARK UNBOUND:                -0.561
REMARK SMILES CCCCCCCC=O
REMARK SMILES IDX 5 1 4 2 3 3 2 4 1 5 6 6 7 7 8 8 9 9
REMARK H PARENT
REMARK Flexibility Score: inf
ROOT
ATOM      1  C   UNL     1     167.277 169.934 168.892  1.00  0.00     0.000 C 
ENDROOT
BRANCH   1   2
ATOM      2  C   UNL     1     168.557 169.595 168.108  1.00  0.00     0.000 C 
BRANCH   2   3
ATOM      3  C   UNL     1     169.700 169.108 169.011  1.00  0.00    -0.000 C 
BRANCH   3   4
ATOM      4  C   UNL     1     169.580 167.604 169.284  1.00  0.00    -0.003 C 
ATOM      5  C   UNL     1     169.326 166.828 167.995  1.00  0.00     0.004 C 
ENDBRANCH   3   4
ENDBRANCH   2   3
ENDBRANCH   1   2
BRANCH   1   6
ATOM      6  C   UNL     1     166.017 169.161 168.452  1.00  0.00     0.008 C 
BRANCH   6   7
ATOM      7  C   UNL     1     165.793 167.834 169.195  1.00  0.00     0.072 C 
BRANCH   7   8
ATOM      8  C   UNL     1     164.770 166.969 168.519  1.00  0.00     0.224 C 
ATOM      9  O   UNL     1     163.862 167.471 167.876  1.00  0.00    -0.303 OA
ENDBRANCH   7   8
ENDBRANCH   6   7
ENDBRANCH   1   6
TORSDOF 6
ENDMDL
MODEL 8
REMARK VINA RESULT:    -2.520      2.463      3.252
REMARK INTER + INTRA:          -3.965
REMARK INTER:                  -3.630
REMARK INTRA:                  -0.335
REMARK UNBOUND:                -0.561
REMARK SMILES CCCCCCCC=O
REMARK SMILES IDX 5 1 4 2 3 3 2 4 1 5 6 6 7 7 8 8 9 9
REMARK H PARENT
REMARK Flexibility Score: inf
ROOT
ATOM      1  C   UNL     1     165.419 167.121 168.727  1.00  0.00     0.000 C 
ENDROOT
BRANCH   1   2
ATOM      2  C   UNL     1     166.042 168.242 167.876  1.00  0.00     0.000 C 
BRANCH   2   3
ATOM      3  C   UNL     1     166.366 169.502 168.691  1.00  0.00    -0.000 C 
BRANCH   3   4
ATOM      4  C   UNL     1     167.548 170.263 168.080  1.00  0.00    -0.003 C 
ATOM      5  C   UNL     1     168.749 169.344 167.875  1.00  0.00     0.004 C 
ENDBRANCH   3   4
ENDBRANCH   2   3
ENDBRANCH   1   2
BRANCH   1   6
ATOM      6  C   UNL     1     166.118 165.751 168.616  1.00  0.00     0.008 C 
BRANCH   6   7
ATOM      7  C   UNL     1     167.479 165.787 167.902  1.00  0.00     0.072 C 
BRANCH   7   8
ATOM      8  C   UNL     1     168.368 164.650 168.313  1.00  0.00     0.224 C 
ATOM      9  O   UNL     1     167.977 163.496 168.230  1.00  0.00    -0.303 OA
ENDBRANCH   7   8
ENDBRANCH   6   7
ENDBRANCH   1   6
TORSDOF 6
ENDMDL
MODEL 9
REMARK VINA RESULT:    -1.658      2.237      3.466
REMARK INTER + INTRA:          -2.801
REMARK INTER:                  -2.238
REMARK INTRA:                  -0.562
REMARK UNBOUND:                -0.561
REMARK SMILES CCCCCCCC=O
REMARK SMILES IDX 5 1 4 2 3 3 2 4 1 5 6 6 7 7 8 8 9 9
REMARK H PARENT
REMARK Flexibility Score: inf
ROOT
ATOM      1  C   UNL     1     167.833 168.595 168.868  1.00  0.00     0.000 C 
ENDROOT
BRANCH   1   2
ATOM      2  C   UNL     1     166.690 168.872 167.875  1.00  0.00     0.000 C 
BRANCH   2   3
ATOM      3  C   UNL     1     165.298 168.702 168.503  1.00  0.00    -0.000 C 
BRANCH   3   4
ATOM      4  C   UNL     1     164.775 167.276 168.299  1.00  0.00    -0.003 C 
ATOM      5  C   UNL     1     164.755 166.502 169.614  1.00  0.00     0.004 C 
ENDBRANCH   3   4
ENDBRANCH   2   3
ENDBRANCH   1   2
BRANCH   1   6
ATOM      6  C   UNL     1     168.820 167.492 168.435  1.00  0.00     0.008 C 
BRANCH   6   7
ATOM      7  C   UNL     1     168.501 166.096 168.995  1.00  0.00     0.072 C 
BRANCH   7   8
ATOM      8  C   UNL     1     167.954 165.173 167.945  1.00  0.00     0.224 C 
ATOM      9  O   UNL     1     167.176 164.283 168.247  1.00  0.00    -0.303 OA
ENDBRANCH   7   8
ENDBRANCH   6   7
ENDBRANCH   1   6
TORSDOF 6
ENDMDL
