MODEL 1
REMARK VINA RESULT:    -5.238      0.000      0.000
REMARK INTER + INTRA:          -8.382
REMARK INTER:                  -7.534
REMARK INTRA:                  -0.848
REMARK UNBOUND:                -0.848
REMARK SMILES O=C(CO)[C@@H](O)[C@@H](O)[C@@H](O)CO
REMARK SMILES IDX 7 1 9 2 11 3 12 4 10 6 5 8 2 9 1 10 3 11 4 12 6 14 8 16
REMARK H PARENT 12 5 10 7 4 13 6 15 8 17
REMARK Flexibility Score: inf
ROOT
ATOM      1  C   UNL     1      12.879  58.709  74.490  1.00  0.00     0.181 C 
ENDROOT
BRANCH   1   2
ATOM      2  C   UNL     1      13.565  59.890  73.724  1.00  0.00     0.171 C 
BRANCH   2   3
ATOM      3  C   UNL     1      13.357  61.282  74.355  1.00  0.00     0.190 C 
BRANCH   3   4
ATOM      4  O   UNL     1      14.005  61.368  75.592  1.00  0.00    -0.394 OA
ATOM      5  H   UNL     1      13.563  60.705  76.182  1.00  0.00     0.210 HD
ENDBRANCH   3   4
ENDBRANCH   2   3
BRANCH   2   6
ATOM      6  O   UNL     1      13.122  59.917  72.389  1.00  0.00    -0.388 OA
ATOM      7  H   UNL     1      12.178  59.606  72.383  1.00  0.00     0.211 HD
ENDBRANCH   2   6
ENDBRANCH   1   2
BRANCH   1   8
ATOM      8  C   UNL     1      13.193  57.314  73.879  1.00  0.00     0.214 C 
BRANCH   8   9
ATOM      9  C   UNL     1      12.618  56.153  74.664  1.00  0.00     0.189 C 
ATOM     10  O   UNL     1      11.869  56.385  75.602  1.00  0.00    -0.294 OA
BRANCH   9  11
ATOM     11  C   UNL     1      12.926  54.719  74.327  1.00  0.00     0.234 C 
BRANCH  11  12
ATOM     12  O   UNL     1      14.144  54.657  73.638  1.00  0.00    -0.388 OA
ATOM     13  H   UNL     1      14.107  55.370  72.948  1.00  0.00     0.211 HD
ENDBRANCH  11  12
ENDBRANCH   9  11
ENDBRANCH   8   9
BRANCH   8  14
ATOM     14  O   UNL     1      12.798  57.239  72.530  1.00  0.00    -0.382 OA
ATOM     15  H   UNL     1      12.297  56.394  72.396  1.00  0.00     0.211 HD
ENDBRANCH   8  14
ENDBRANCH   1   8
BRANCH   1  16
ATOM     16  O   UNL     1      13.190  58.729  75.861  1.00  0.00    -0.387 OA
ATOM     17  H   UNL     1      13.973  59.331  75.970  1.00  0.00     0.211 HD
ENDBRANCH   1  16
TORSDOF 10
ENDMDL
MODEL 2
REMARK VINA RESULT:    -5.114      1.271      2.432
REMARK INTER + INTRA:          -8.205
REMARK INTER:                  -7.322
REMARK INTRA:                  -0.883
REMARK UNBOUND:                -0.848
REMARK SMILES O=C(CO)[C@@H](O)[C@@H](O)[C@@H](O)CO
REMARK SMILES IDX 7 1 9 2 11 3 12 4 10 6 5 8 2 9 1 10 3 11 4 12 6 14 8 16
REMARK H PARENT 12 5 10 7 4 13 6 15 8 17
REMARK Flexibility Score: inf
ROOT
ATOM      1  C   UNL     1      13.270  58.411  73.876  1.00  0.00     0.181 C 
ENDROOT
BRANCH   1   2
ATOM      2  C   UNL     1      12.880  59.612  74.802  1.00  0.00     0.171 C 
BRANCH   2   3
ATOM      3  C   UNL     1      13.420  60.985  74.348  1.00  0.00     0.190 C 
BRANCH   3   4
ATOM      4  O   UNL     1      12.883  61.344  73.107  1.00  0.00    -0.394 OA
ATOM      5  H   UNL     1      12.849  62.335  73.097  1.00  0.00     0.210 HD
ENDBRANCH   3   4
ENDBRANCH   2   3
BRANCH   2   6
ATOM      6  O   UNL     1      13.305  59.361  76.119  1.00  0.00    -0.388 OA
ATOM      7  H   UNL     1      13.891  60.116  76.392  1.00  0.00     0.211 HD
ENDBRANCH   2   6
ENDBRANCH   1   2
BRANCH   1   8
ATOM      8  C   UNL     1      12.715  57.046  74.374  1.00  0.00     0.214 C 
BRANCH   8   9
ATOM      9  C   UNL     1      12.912  55.907  73.395  1.00  0.00     0.189 C 
ATOM     10  O   UNL     1      13.713  56.042  72.482  1.00  0.00    -0.294 OA
BRANCH   9  11
ATOM     11  C   UNL     1      12.165  54.605  73.509  1.00  0.00     0.234 C 
BRANCH  11  12
ATOM     12  O   UNL     1      11.347  54.640  74.646  1.00  0.00    -0.388 OA
ATOM     13  H   UNL     1      11.309  55.590  74.928  1.00  0.00     0.211 HD
ENDBRANCH  11  12
ENDBRANCH   9  11
ENDBRANCH   8   9
BRANCH   8  14
ATOM     14  O   UNL     1      13.234  56.705  75.637  1.00  0.00    -0.382 OA
ATOM     15  H   UNL     1      13.192  55.720  75.738  1.00  0.00     0.211 HD
ENDBRANCH   8  14
ENDBRANCH   1   8
BRANCH   1  16
ATOM     16  O   UNL     1      12.894  58.640  72.541  1.00  0.00    -0.387 OA
ATOM     17  H   UNL     1      13.430  58.019  71.981  1.00  0.00     0.211 HD
ENDBRANCH   1  16
TORSDOF 10
ENDMDL
MODEL 3
REMARK VINA RESULT:    -4.989      0.875      4.965
REMARK INTER + INTRA:          -8.025
REMARK INTER:                  -7.186
REMARK INTRA:                  -0.839
REMARK UNBOUND:                -0.848
REMARK SMILES O=C(CO)[C@@H](O)[C@@H](O)[C@@H](O)CO
REMARK SMILES IDX 7 1 9 2 11 3 12 4 10 6 5 8 2 9 1 10 3 11 4 12 6 14 8 16
REMARK H PARENT 12 5 10 7 4 13 6 15 8 17
REMARK Flexibility Score: inf
ROOT
ATOM      1  C   UNL     1      13.020  57.764  73.966  1.00  0.00     0.181 C 
ENDROOT
BRANCH   1   2
ATOM      2  C   UNL     1      12.884  56.409  74.741  1.00  0.00     0.171 C 
BRANCH   2   3
ATOM      3  C   UNL     1      12.837  55.151  73.848  1.00  0.00     0.190 C 
BRANCH   3   4
ATOM      4  O   UNL     1      14.119  54.621  73.671  1.00  0.00    -0.394 OA
ATOM      5  H   UNL     1      14.727  55.177  74.223  1.00  0.00     0.210 HD
ENDBRANCH   3   4
ENDBRANCH   2   3
BRANCH   2   6
ATOM      6  O   UNL     1      11.741  56.438  75.559  1.00  0.00    -0.388 OA
ATOM      7  H   UNL     1      11.442  57.384  75.620  1.00  0.00     0.211 HD
ENDBRANCH   2   6
ENDBRANCH   1   2
BRANCH   1   8
ATOM      8  C   UNL     1      12.932  59.012  74.890  1.00  0.00     0.214 C 
BRANCH   8   9
ATOM      9  C   UNL     1      13.354  60.304  74.221  1.00  0.00     0.189 C 
ATOM     10  O   UNL     1      13.353  60.368  73.001  1.00  0.00    -0.294 OA
BRANCH   9  11
ATOM     11  C   UNL     1      13.767  61.521  75.004  1.00  0.00     0.234 C 
BRANCH  11  12
ATOM     12  O   UNL     1      13.382  61.363  76.341  1.00  0.00    -0.388 OA
ATOM     13  H   UNL     1      12.654  62.020  76.498  1.00  0.00     0.211 HD
ENDBRANCH  11  12
ENDBRANCH   9  11
ENDBRANCH   8   9
BRANCH   8  14
ATOM     14  O   UNL     1      11.651  59.147  75.457  1.00  0.00    -0.382 OA
ATOM     15  H   UNL     1      11.587  60.042  75.879  1.00  0.00     0.211 HD
ENDBRANCH   8  14
ENDBRANCH   1   8
BRANCH   1  16
ATOM     16  O   UNL     1      14.193  57.804  73.192  1.00  0.00    -0.387 OA
ATOM     17  H   UNL     1      14.103  58.577  72.574  1.00  0.00     0.211 HD
ENDBRANCH   1  16
TORSDOF 10
ENDMDL
MODEL 4
REMARK VINA RESULT:    -4.944      1.292      4.633
REMARK INTER + INTRA:          -7.960
REMARK INTER:                  -7.066
REMARK INTRA:                  -0.894
REMARK UNBOUND:                -0.848
REMARK SMILES O=C(CO)[C@@H](O)[C@@H](O)[C@@H](O)CO
REMARK SMILES IDX 7 1 9 2 11 3 12 4 10 6 5 8 2 9 1 10 3 11 4 12 6 14 8 16
REMARK H PARENT 12 5 10 7 4 13 6 15 8 17
REMARK Flexibility Score: inf
ROOT
ATOM      1  C   UNL     1      12.947  57.447  74.394  1.00  0.00     0.181 C 
ENDROOT
BRANCH   1   2
ATOM      2  C   UNL     1      12.833  56.210  73.441  1.00  0.00     0.171 C 
BRANCH   2   3
ATOM      3  C   UNL     1      12.665  54.853  74.154  1.00  0.00     0.190 C 
BRANCH   3   4
ATOM      4  O   UNL     1      11.339  54.669  74.563  1.00  0.00    -0.394 OA
ATOM      5  H   UNL     1      11.169  53.693  74.519  1.00  0.00     0.210 HD
ENDBRANCH   3   4
ENDBRANCH   2   3
BRANCH   2   6
ATOM      6  O   UNL     1      13.956  56.152  72.595  1.00  0.00    -0.388 OA
ATOM      7  H   UNL     1      14.146  57.077  72.288  1.00  0.00     0.211 HD
ENDBRANCH   2   6
ENDBRANCH   1   2
BRANCH   1   8
ATOM      8  C   UNL     1      13.267  58.773  73.646  1.00  0.00     0.214 C 
BRANCH   8   9
ATOM      9  C   UNL     1      13.094  60.016  74.494  1.00  0.00     0.189 C 
ATOM     10  O   UNL     1      13.105  59.909  75.712  1.00  0.00    -0.294 OA
BRANCH   9  11
ATOM     11  C   UNL     1      12.920  61.385  73.894  1.00  0.00     0.234 C 
BRANCH  11  12
ATOM     12  O   UNL     1      13.318  61.356  72.552  1.00  0.00    -0.388 OA
ATOM     13  H   UNL     1      14.152  61.891  72.499  1.00  0.00     0.211 HD
ENDBRANCH  11  12
ENDBRANCH   9  11
ENDBRANCH   8   9
BRANCH   8  14
ATOM     14  O   UNL     1      14.551  58.745  73.070  1.00  0.00    -0.382 OA
ATOM     15  H   UNL     1      14.461  58.496  72.114  1.00  0.00     0.211 HD
ENDBRANCH   8  14
ENDBRANCH   1   8
BRANCH   1  16
ATOM     16  O   UNL     1      11.800  57.595  75.192  1.00  0.00    -0.387 OA
ATOM     17  H   UNL     1      12.037  57.269  76.100  1.00  0.00     0.211 HD
ENDBRANCH   1  16
TORSDOF 10
ENDMDL
MODEL 5
REMARK VINA RESULT:    -4.614      2.843      4.361
REMARK INTER + INTRA:          -7.486
REMARK INTER:                  -6.930
REMARK INTRA:                  -0.556
REMARK UNBOUND:                -0.848
REMARK SMILES O=C(CO)[C@@H](O)[C@@H](O)[C@@H](O)CO
REMARK SMILES IDX 7 1 9 2 11 3 12 4 10 6 5 8 2 9 1 10 3 11 4 12 6 14 8 16
REMARK H PARENT 12 5 10 7 4 13 6 15 8 17
REMARK Flexibility Score: inf
ROOT
ATOM      1  C   UNL     1      13.248  61.746  72.839  1.00  0.00     0.181 C 
ENDROOT
BRANCH   1   2
ATOM      2  C   UNL     1      14.060  61.801  71.501  1.00  0.00     0.171 C 
BRANCH   2   3
ATOM      3  C   UNL     1      13.661  62.944  70.544  1.00  0.00     0.190 C 
BRANCH   3   4
ATOM      4  O   UNL     1      13.265  62.436  69.302  1.00  0.00    -0.394 OA
ATOM      5  H   UNL     1      12.274  62.483  69.287  1.00  0.00     0.210 HD
ENDBRANCH   3   4
ENDBRANCH   2   3
BRANCH   2   6
ATOM      6  O   UNL     1      13.952  60.573  70.824  1.00  0.00    -0.388 OA
ATOM      7  H   UNL     1      14.261  59.862  71.446  1.00  0.00     0.211 HD
ENDBRANCH   2   6
ENDBRANCH   1   2
BRANCH   1   8
ATOM      8  C   UNL     1      13.605  60.519  73.726  1.00  0.00     0.214 C 
BRANCH   8   9
ATOM      9  C   UNL     1      13.336  60.727  75.202  1.00  0.00     0.189 C 
ATOM     10  O   UNL     1      13.862  61.671  75.773  1.00  0.00    -0.294 OA
BRANCH   9  11
ATOM     11  C   UNL     1      12.435  59.818  75.994  1.00  0.00     0.234 C 
BRANCH  11  12
ATOM     12  O   UNL     1      13.120  58.634  76.293  1.00  0.00    -0.388 OA
ATOM     13  H   UNL     1      12.580  58.169  76.984  1.00  0.00     0.211 HD
ENDBRANCH  11  12
ENDBRANCH   9  11
ENDBRANCH   8   9
BRANCH   8  14
ATOM     14  O   UNL     1      12.971  59.349  73.270  1.00  0.00    -0.382 OA
ATOM     15  H   UNL     1      12.580  58.879  74.050  1.00  0.00     0.211 HD
ENDBRANCH   8  14
ENDBRANCH   1   8
BRANCH   1  16
ATOM     16  O   UNL     1      13.374  62.939  73.572  1.00  0.00    -0.387 OA
ATOM     17  H   UNL     1      13.152  62.721  74.516  1.00  0.00     0.211 HD
ENDBRANCH   1  16
TORSDOF 10
ENDMDL
MODEL 6
REMARK VINA RESULT:    -4.552      1.680      4.744
REMARK INTER + INTRA:          -7.397
REMARK INTER:                  -7.231
REMARK INTRA:                  -0.165
REMARK UNBOUND:                -0.848
REMARK SMILES O=C(CO)[C@@H](O)[C@@H](O)[C@@H](O)CO
REMARK SMILES IDX 7 1 9 2 11 3 12 4 10 6 5 8 2 9 1 10 3 11 4 12 6 14 8 16
REMARK H PARENT 12 5 10 7 4 13 6 15 8 17
REMARK Flexibility Score: inf
ROOT
ATOM      1  C   UNL     1      12.983  59.268  75.979  1.00  0.00     0.181 C 
ENDROOT
BRANCH   1   2
ATOM      2  C   UNL     1      12.082  57.992  76.085  1.00  0.00     0.171 C 
BRANCH   2   3
ATOM      3  C   UNL     1      12.541  56.797  75.224  1.00  0.00     0.190 C 
BRANCH   3   4
ATOM      4  O   UNL     1      13.335  55.922  75.973  1.00  0.00    -0.394 OA
ATOM      5  H   UNL     1      14.182  55.815  75.468  1.00  0.00     0.210 HD
ENDBRANCH   3   4
ENDBRANCH   2   3
BRANCH   2   6
ATOM      6  O   UNL     1      10.753  58.314  75.756  1.00  0.00    -0.388 OA
ATOM      7  H   UNL     1      10.285  57.465  75.542  1.00  0.00     0.211 HD
ENDBRANCH   2   6
ENDBRANCH   1   2
BRANCH   1   8
ATOM      8  C   UNL     1      13.076  59.837  74.534  1.00  0.00     0.214 C 
BRANCH   8   9
ATOM      9  C   UNL     1      13.464  61.300  74.471  1.00  0.00     0.189 C 
ATOM     10  O   UNL     1      14.088  61.787  75.402  1.00  0.00    -0.294 OA
BRANCH   9  11
ATOM     11  C   UNL     1      13.120  62.177  73.298  1.00  0.00     0.234 C 
BRANCH  11  12
ATOM     12  O   UNL     1      13.506  61.537  72.113  1.00  0.00    -0.388 OA
ATOM     13  H   UNL     1      14.139  62.153  71.660  1.00  0.00     0.211 HD
ENDBRANCH  11  12
ENDBRANCH   9  11
ENDBRANCH   8   9
BRANCH   8  14
ATOM     14  O   UNL     1      13.934  59.065  73.728  1.00  0.00    -0.382 OA
ATOM     15  H   UNL     1      13.449  58.247  73.446  1.00  0.00     0.211 HD
ENDBRANCH   8  14
ENDBRANCH   1   8
BRANCH   1  16
ATOM     16  O   UNL     1      12.575  60.269  76.878  1.00  0.00    -0.387 OA
ATOM     17  H   UNL     1      11.908  59.855  77.486  1.00  0.00     0.211 HD
ENDBRANCH   1  16
TORSDOF 10
ENDMDL
MODEL 7
REMARK VINA RESULT:    -4.438      1.110      2.353
REMARK INTER + INTRA:          -7.232
REMARK INTER:                  -7.251
REMARK INTRA:                   0.019
REMARK UNBOUND:                -0.848
REMARK SMILES O=C(CO)[C@@H](O)[C@@H](O)[C@@H](O)CO
REMARK SMILES IDX 7 1 9 2 11 3 12 4 10 6 5 8 2 9 1 10 3 11 4 12 6 14 8 16
REMARK H PARENT 12 5 10 7 4 13 6 15 8 17
REMARK Flexibility Score: inf
ROOT
ATOM      1  C   UNL     1      13.256  59.459  74.171  1.00  0.00     0.181 C 
ENDROOT
BRANCH   1   2
ATOM      2  C   UNL     1      13.287  60.990  74.500  1.00  0.00     0.171 C 
BRANCH   2   3
ATOM      3  C   UNL     1      13.456  61.915  73.276  1.00  0.00     0.190 C 
BRANCH   3   4
ATOM      4  O   UNL     1      12.224  62.454  72.889  1.00  0.00    -0.394 OA
ATOM      5  H   UNL     1      11.706  62.587  73.724  1.00  0.00     0.210 HD
ENDBRANCH   3   4
ENDBRANCH   2   3
BRANCH   2   6
ATOM      6  O   UNL     1      14.308  61.260  75.428  1.00  0.00    -0.388 OA
ATOM      7  H   UNL     1      14.320  60.514  76.084  1.00  0.00     0.211 HD
ENDBRANCH   2   6
ENDBRANCH   1   2
BRANCH   1   8
ATOM      8  C   UNL     1      12.482  58.619  75.226  1.00  0.00     0.214 C 
BRANCH   8   9
ATOM      9  C   UNL     1      12.545  57.123  74.990  1.00  0.00     0.189 C 
ATOM     10  O   UNL     1      12.090  56.370  75.839  1.00  0.00    -0.294 OA
BRANCH   9  11
ATOM     11  C   UNL     1      13.138  56.527  73.743  1.00  0.00     0.234 C 
BRANCH  11  12
ATOM     12  O   UNL     1      14.083  55.557  74.098  1.00  0.00    -0.388 OA
ATOM     13  H   UNL     1      13.731  55.115  74.915  1.00  0.00     0.211 HD
ENDBRANCH  11  12
ENDBRANCH   9  11
ENDBRANCH   8   9
BRANCH   8  14
ATOM     14  O   UNL     1      12.893  58.928  76.536  1.00  0.00    -0.382 OA
ATOM     15  H   UNL     1      12.258  58.508  77.172  1.00  0.00     0.211 HD
ENDBRANCH   8  14
ENDBRANCH   1   8
BRANCH   1  16
ATOM     16  O   UNL     1      12.754  59.215  72.881  1.00  0.00    -0.387 OA
ATOM     17  H   UNL     1      13.219  58.406  72.539  1.00  0.00     0.211 HD
ENDBRANCH   1  16
TORSDOF 10
ENDMDL
MODEL 8
REMARK VINA RESULT:    -4.437      2.462      4.980
REMARK INTER + INTRA:          -7.231
REMARK INTER:                  -6.829
REMARK INTRA:                  -0.402
REMARK UNBOUND:                -0.848
REMARK SMILES O=C(CO)[C@@H](O)[C@@H](O)[C@@H](O)CO
REMARK SMILES IDX 7 1 9 2 11 3 12 4 10 6 5 8 2 9 1 10 3 11 4 12 6 14 8 16
REMARK H PARENT 12 5 10 7 4 13 6 15 8 17
REMARK Flexibility Score: inf
ROOT
ATOM      1  C   UNL     1      13.820  60.825  74.344  1.00  0.00     0.181 C 
ENDROOT
BRANCH   1   2
ATOM      2  C   UNL     1      12.793  59.645  74.420  1.00  0.00     0.171 C 
BRANCH   2   3
ATOM      3  C   UNL     1      12.258  59.338  75.835  1.00  0.00     0.190 C 
BRANCH   3   4
ATOM      4  O   UNL     1      13.189  58.593  76.566  1.00  0.00    -0.394 OA
ATOM      5  H   UNL     1      12.948  57.640  76.431  1.00  0.00     0.210 HD
ENDBRANCH   3   4
ENDBRANCH   2   3
BRANCH   2   6
ATOM      6  O   UNL     1      13.361  58.479  73.878  1.00  0.00    -0.388 OA
ATOM      7  H   UNL     1      12.624  57.828  73.734  1.00  0.00     0.211 HD
ENDBRANCH   2   6
ENDBRANCH   1   2
BRANCH   1   8
ATOM      8  C   UNL     1      13.484  61.862  73.235  1.00  0.00     0.214 C 
BRANCH   8   9
ATOM      9  C   UNL     1      13.920  61.443  71.846  1.00  0.00     0.189 C 
ATOM     10  O   UNL     1      14.079  60.254  71.609  1.00  0.00    -0.294 OA
BRANCH   9  11
ATOM     11  C   UNL     1      14.155  62.435  70.739  1.00  0.00     0.234 C 
BRANCH  11  12
ATOM     12  O   UNL     1      15.099  61.915  69.845  1.00  0.00    -0.388 OA
ATOM     13  H   UNL     1      14.991  60.929  69.872  1.00  0.00     0.211 HD
ENDBRANCH  11  12
ENDBRANCH   9  11
ENDBRANCH   8   9
BRANCH   8  14
ATOM     14  O   UNL     1      12.118  62.201  73.240  1.00  0.00    -0.382 OA
ATOM     15  H   UNL     1      12.036  63.180  73.102  1.00  0.00     0.211 HD
ENDBRANCH   8  14
ENDBRANCH   1   8
BRANCH   1  16
ATOM     16  O   UNL     1      13.971  61.463  75.587  1.00  0.00    -0.387 OA
ATOM     17  H   UNL     1      14.059  60.746  76.269  1.00  0.00     0.211 HD
ENDBRANCH   1  16
TORSDOF 10
ENDMDL
MODEL 9
REMARK VINA RESULT:    -4.354      1.933      3.601
REMARK INTER + INTRA:          -7.111
REMARK INTER:                  -6.637
REMARK INTRA:                  -0.475
REMARK UNBOUND:                -0.848
REMARK SMILES O=C(CO)[C@@H](O)[C@@H](O)[C@@H](O)CO
REMARK SMILES IDX 7 1 9 2 11 3 12 4 10 6 5 8 2 9 1 10 3 11 4 12 6 14 8 16
REMARK H PARENT 12 5 10 7 4 13 6 15 8 17
REMARK Flexibility Score: inf
ROOT
ATOM      1  C   UNL     1      13.561  60.608  73.114  1.00  0.00     0.181 C 
ENDROOT
BRANCH   1   2
ATOM      2  C   UNL     1      13.219  62.092  72.747  1.00  0.00     0.171 C 
BRANCH   2   3
ATOM      3  C   UNL     1      13.941  62.636  71.496  1.00  0.00     0.190 C 
BRANCH   3   4
ATOM      4  O   UNL     1      13.614  61.878  70.366  1.00  0.00    -0.394 OA
ATOM      5  H   UNL     1      14.472  61.533  70.007  1.00  0.00     0.210 HD
ENDBRANCH   3   4
ENDBRANCH   2   3
BRANCH   2   6
ATOM      6  O   UNL     1      13.493  62.932  73.840  1.00  0.00    -0.388 OA
ATOM      7  H   UNL     1      12.818  63.661  73.832  1.00  0.00     0.211 HD
ENDBRANCH   2   6
ENDBRANCH   1   2
BRANCH   1   8
ATOM      8  C   UNL     1      12.940  60.150  74.464  1.00  0.00     0.214 C 
BRANCH   8   9
ATOM      9  C   UNL     1      12.828  58.647  74.613  1.00  0.00     0.189 C 
ATOM     10  O   UNL     1      13.221  57.931  73.703  1.00  0.00    -0.294 OA
BRANCH   9  11
ATOM     11  C   UNL     1      12.261  57.997  75.846  1.00  0.00     0.234 C 
BRANCH  11  12
ATOM     12  O   UNL     1      13.271  57.869  76.807  1.00  0.00    -0.388 OA
ATOM     13  H   UNL     1      12.895  58.229  77.652  1.00  0.00     0.211 HD
ENDBRANCH  11  12
ENDBRANCH   9  11
ENDBRANCH   8   9
BRANCH   8  14
ATOM     14  O   UNL     1      13.624  60.703  75.563  1.00  0.00    -0.382 OA
ATOM     15  H   UNL     1      14.555  60.903  75.286  1.00  0.00     0.211 HD
ENDBRANCH   8  14
ENDBRANCH   1   8
BRANCH   1  16
ATOM     16  O   UNL     1      13.207  59.722  72.082  1.00  0.00    -0.387 OA
ATOM     17  H   UNL     1      14.055  59.398  71.678  1.00  0.00     0.211 HD
ENDBRANCH   1  16
TORSDOF 10
ENDMDL
