MODEL 1
REMARK VINA RESULT:     7.281      0.000      0.000
REMARK INTER + INTRA:          11.846
REMARK INTER:                  12.389
REMARK INTRA:                  -0.543
REMARK UNBOUND:                -0.543
REMARK SMILES CCCCCCCCCCCCCC(=O)[O-]
REMARK SMILES IDX 8 1 9 2 10 3 11 4 12 5 13 6 14 7 15 8 16 9 7 10 6 11 5 12
REMARK SMILES IDX 4 13 3 14 2 15 1 16
REMARK H PARENT
REMARK Flexibility Score: inf
ROOT
ATOM      1  C   UNL     1     -34.380  14.557  17.853  1.00  0.00     0.000 C 
ENDROOT
BRANCH   1   2
ATOM      2  C   UNL     1     -34.312  13.291  16.984  1.00  0.00     0.000 C 
BRANCH   2   3
ATOM      3  C   UNL     1     -32.872  12.752  16.840  1.00  0.00     0.000 C 
BRANCH   3   4
ATOM      4  C   UNL     1     -32.244  12.296  18.170  1.00  0.00     0.000 C 
BRANCH   4   5
ATOM      5  C   UNL     1     -33.155  11.423  19.054  1.00  0.00     0.006 C 
BRANCH   5   6
ATOM      6  C   UNL     1     -33.751  12.155  20.267  1.00  0.00     0.053 C 
BRANCH   6   7
ATOM      7  C   UNL     1     -34.110  11.211  21.373  1.00  0.00     0.041 C 
ATOM      8  O   UNL     1     -34.165   9.972  21.155  1.00  0.00    -0.550 OA
ATOM      9  O   UNL     1     -34.350  11.697  22.652  1.00  0.00    -0.550 OA
ENDBRANCH   6   7
ENDBRANCH   5   6
ENDBRANCH   4   5
ENDBRANCH   3   4
ENDBRANCH   2   3
ENDBRANCH   1   2
BRANCH   1  10
ATOM     10  C   UNL     1     -34.987  15.730  17.068  1.00  0.00     0.000 C 
BRANCH  10  11
ATOM     11  C   UNL     1     -35.165  16.990  17.930  1.00  0.00    -0.000 C 
BRANCH  11  12
ATOM     12  C   UNL     1     -36.641  17.281  18.255  1.00  0.00    -0.000 C 
BRANCH  12  13
ATOM     13  C   UNL     1     -37.568  16.141  17.796  1.00  0.00    -0.000 C 
BRANCH  13  14
ATOM     14  C   UNL     1     -38.536  15.660  18.901  1.00  0.00    -0.000 C 
BRANCH  14  15
ATOM     15  C   UNL     1     -40.000  15.574  18.438  1.00  0.00    -0.003 C 
ATOM     16  C   UNL     1     -40.383  16.690  17.467  1.00  0.00     0.004 C 
ENDBRANCH  14  15
ENDBRANCH  13  14
ENDBRANCH  12  13
ENDBRANCH  11  12
ENDBRANCH  10  11
ENDBRANCH   1  10
TORSDOF 12
ENDMDL
MODEL 2
REMARK VINA RESULT:     7.842      2.807      6.369
REMARK INTER + INTRA:          12.800
REMARK INTER:                  12.922
REMARK INTRA:                  -0.122
REMARK UNBOUND:                -0.543
REMARK SMILES CCCCCCCCCCCCCC(=O)[O-]
REMARK SMILES IDX 8 1 9 2 10 3 11 4 12 5 13 6 14 7 15 8 16 9 7 10 6 11 5 12
REMARK SMILES IDX 4 13 3 14 2 15 1 16
REMARK H PARENT
REMARK Flexibility Score: inf
ROOT
ATOM      1  C   UNL     1     -34.334  13.311  17.123  1.00  0.00     0.000 C 
ENDROOT
BRANCH   1   2
ATOM      2  C   UNL     1     -34.452  14.609  17.938  1.00  0.00     0.000 C 
BRANCH   2   3
ATOM      3  C   UNL     1     -34.785  15.831  17.054  1.00  0.00     0.000 C 
BRANCH   3   4
ATOM      4  C   UNL     1     -35.241  17.068  17.851  1.00  0.00     0.000 C 
BRANCH   4   5
ATOM      5  C   UNL     1     -36.735  17.084  18.228  1.00  0.00     0.006 C 
BRANCH   5   6
ATOM      6  C   UNL     1     -37.456  15.744  18.012  1.00  0.00     0.053 C 
BRANCH   6   7
ATOM      7  C   UNL     1     -38.870  15.782  18.505  1.00  0.00     0.041 C 
ATOM      8  O   UNL     1     -39.742  16.440  17.879  1.00  0.00    -0.550 OA
ATOM      9  O   UNL     1     -39.232  15.061  19.637  1.00  0.00    -0.550 OA
ENDBRANCH   6   7
ENDBRANCH   5   6
ENDBRANCH   4   5
ENDBRANCH   3   4
ENDBRANCH   2   3
ENDBRANCH   1   2
BRANCH   1  10
ATOM     10  C   UNL     1     -32.862  12.947  16.880  1.00  0.00     0.000 C 
BRANCH  10  11
ATOM     11  C   UNL     1     -32.232  12.200  18.067  1.00  0.00    -0.000 C 
BRANCH  11  12
ATOM     12  C   UNL     1     -33.195  12.067  19.260  1.00  0.00    -0.000 C 
BRANCH  12  13
ATOM     13  C   UNL     1     -33.390  10.600  19.683  1.00  0.00    -0.000 C 
BRANCH  13  14
ATOM     14  C   UNL     1     -34.002  10.450  21.094  1.00  0.00    -0.000 C 
BRANCH  14  15
ATOM     15  C   UNL     1     -34.300  11.794  21.779  1.00  0.00    -0.003 C 
ATOM     16  C   UNL     1     -34.271  11.703  23.304  1.00  0.00     0.004 C 
ENDBRANCH  14  15
ENDBRANCH  13  14
ENDBRANCH  12  13
ENDBRANCH  11  12
ENDBRANCH  10  11
ENDBRANCH   1  10
TORSDOF 12
ENDMDL
