MODEL 1
REMARK VINA RESULT:    -5.049      0.000      0.000
REMARK INTER + INTRA:          -5.741
REMARK INTER:                  -5.492
REMARK INTRA:                  -0.250
REMARK UNBOUND:                -0.250
REMARK SMILES O=C([O-])c1ccccc1O
REMARK SMILES IDX 4 1 9 2 5 3 8 4 6 5 7 6 2 7 1 8 3 9 10 10
REMARK H PARENT 10 11
REMARK Flexibility Score: inf
ROOT
ATOM      1  C   UNL     1      40.886  15.973  51.679  1.00  0.00     0.039 A 
ATOM      2  C   UNL     1      41.269  16.921  50.696  1.00  0.00     0.124 A 
ATOM      3  C   UNL     1      40.268  16.429  52.860  1.00  0.00     0.014 A 
ATOM      4  C   UNL     1      41.085  18.288  50.943  1.00  0.00     0.047 A 
ATOM      5  C   UNL     1      40.073  17.793  53.080  1.00  0.00     0.001 A 
ATOM      6  C   UNL     1      40.490  18.723  52.128  1.00  0.00     0.004 A 
ENDROOT
BRANCH   1   7
ATOM      7  C   UNL     1      41.145  14.525  51.528  1.00  0.00     0.075 C 
ATOM      8  O   UNL     1      42.215  14.125  50.998  1.00  0.00    -0.545 OA
ATOM      9  O   UNL     1      40.189  13.588  51.902  1.00  0.00    -0.545 OA
ENDBRANCH   1   7
BRANCH   2  10
ATOM     10  O   UNL     1      41.797  16.549  49.458  1.00  0.00    -0.507 OA
ATOM     11  H   UNL     1      41.555  15.689  48.986  1.00  0.00     0.293 HD
ENDBRANCH   2  10
TORSDOF 2
ENDMDL
MODEL 2
REMARK VINA RESULT:    -5.026      1.519      3.193
REMARK INTER + INTRA:          -5.717
REMARK INTER:                  -5.476
REMARK INTRA:                  -0.240
REMARK UNBOUND:                -0.250
REMARK SMILES O=C([O-])c1ccccc1O
REMARK SMILES IDX 4 1 9 2 5 3 8 4 6 5 7 6 2 7 1 8 3 9 10 10
REMARK H PARENT 10 11
REMARK Flexibility Score: inf
ROOT
ATOM      1  C   UNL     1      40.867  15.084  51.488  1.00  0.00     0.039 A 
ATOM      2  C   UNL     1      40.337  13.820  51.851  1.00  0.00     0.124 A 
ATOM      3  C   UNL     1      40.313  16.245  52.060  1.00  0.00     0.014 A 
ATOM      4  C   UNL     1      39.236  13.753  52.716  1.00  0.00     0.047 A 
ATOM      5  C   UNL     1      39.230  16.159  52.938  1.00  0.00     0.001 A 
ATOM      6  C   UNL     1      38.686  14.916  53.258  1.00  0.00     0.004 A 
ENDROOT
BRANCH   1   7
ATOM      7  C   UNL     1      41.959  15.233  50.502  1.00  0.00     0.075 C 
ATOM      8  O   UNL     1      42.877  14.372  50.440  1.00  0.00    -0.545 OA
ATOM      9  O   UNL     1      42.029  16.352  49.681  1.00  0.00    -0.545 OA
ENDBRANCH   1   7
BRANCH   2  10
ATOM     10  O   UNL     1      40.889  12.618  51.408  1.00  0.00    -0.507 OA
ATOM     11  H   UNL     1      41.625  12.128  51.899  1.00  0.00     0.293 HD
ENDBRANCH   2  10
TORSDOF 2
ENDMDL
MODEL 3
REMARK VINA RESULT:    -4.924      2.092      3.999
REMARK INTER + INTRA:          -5.605
REMARK INTER:                  -5.368
REMARK INTRA:                  -0.237
REMARK UNBOUND:                -0.250
REMARK SMILES O=C([O-])c1ccccc1O
REMARK SMILES IDX 4 1 9 2 5 3 8 4 6 5 7 6 2 7 1 8 3 9 10 10
REMARK H PARENT 10 11
REMARK Flexibility Score: inf
ROOT
ATOM      1  C   UNL     1      41.021  16.908  51.370  1.00  0.00     0.039 A 
ATOM      2  C   UNL     1      40.596  15.831  52.188  1.00  0.00     0.124 A 
ATOM      3  C   UNL     1      41.857  16.638  50.269  1.00  0.00     0.014 A 
ATOM      4  C   UNL     1      41.064  14.536  51.927  1.00  0.00     0.047 A 
ATOM      5  C   UNL     1      42.297  15.339  50.011  1.00  0.00     0.001 A 
ATOM      6  C   UNL     1      41.909  14.290  50.844  1.00  0.00     0.004 A 
ENDROOT
BRANCH   1   7
ATOM      7  C   UNL     1      40.649  18.312  51.650  1.00  0.00     0.075 C 
ATOM      8  O   UNL     1      41.544  19.178  51.839  1.00  0.00    -0.545 OA
ATOM      9  O   UNL     1      39.316  18.683  51.776  1.00  0.00    -0.545 OA
ENDBRANCH   1   7
BRANCH   2  10
ATOM     10  O   UNL     1      39.691  15.995  53.238  1.00  0.00    -0.507 OA
ATOM     11  H   UNL     1      39.073  16.791  53.321  1.00  0.00     0.293 HD
ENDBRANCH   2  10
TORSDOF 2
ENDMDL
MODEL 4
REMARK VINA RESULT:    -4.874      2.205      3.454
REMARK INTER + INTRA:          -5.551
REMARK INTER:                  -5.340
REMARK INTRA:                  -0.211
REMARK UNBOUND:                -0.250
REMARK SMILES O=C([O-])c1ccccc1O
REMARK SMILES IDX 4 1 9 2 5 3 8 4 6 5 7 6 2 7 1 8 3 9 10 10
REMARK H PARENT 10 11
REMARK Flexibility Score: inf
ROOT
ATOM      1  C   UNL     1      40.170  15.031  52.027  1.00  0.00     0.039 A 
ATOM      2  C   UNL     1      40.920  13.900  51.617  1.00  0.00     0.124 A 
ATOM      3  C   UNL     1      40.500  16.295  51.502  1.00  0.00     0.014 A 
ATOM      4  C   UNL     1      42.010  14.068  50.752  1.00  0.00     0.047 A 
ATOM      5  C   UNL     1      41.575  16.441  50.624  1.00  0.00     0.001 A 
ATOM      6  C   UNL     1      42.336  15.332  50.257  1.00  0.00     0.004 A 
ENDROOT
BRANCH   1   7
ATOM      7  C   UNL     1      39.074  14.939  53.017  1.00  0.00     0.075 C 
ATOM      8  O   UNL     1      38.405  15.964  53.317  1.00  0.00    -0.545 OA
ATOM      9  O   UNL     1      38.810  13.746  53.679  1.00  0.00    -0.545 OA
ENDBRANCH   1   7
BRANCH   2  10
ATOM     10  O   UNL     1      40.599  12.600  52.012  1.00  0.00    -0.507 OA
ATOM     11  H   UNL     1      39.650  12.258  52.081  1.00  0.00     0.293 HD
ENDBRANCH   2  10
TORSDOF 2
ENDMDL
MODEL 5
REMARK VINA RESULT:    -4.732      1.746      3.466
REMARK INTER + INTRA:          -5.396
REMARK INTER:                  -5.147
REMARK INTRA:                  -0.249
REMARK UNBOUND:                -0.250
REMARK SMILES O=C([O-])c1ccccc1O
REMARK SMILES IDX 4 1 9 2 5 3 8 4 6 5 7 6 2 7 1 8 3 9 10 10
REMARK H PARENT 10 11
REMARK Flexibility Score: inf
ROOT
ATOM      1  C   UNL     1      40.845  16.116  51.549  1.00  0.00     0.039 A 
ATOM      2  C   UNL     1      41.729  15.293  50.807  1.00  0.00     0.124 A 
ATOM      3  C   UNL     1      39.871  15.509  52.366  1.00  0.00     0.014 A 
ATOM      4  C   UNL     1      41.578  13.900  50.850  1.00  0.00     0.047 A 
ATOM      5  C   UNL     1      39.749  14.119  52.413  1.00  0.00     0.001 A 
ATOM      6  C   UNL     1      40.594  13.315  51.649  1.00  0.00     0.004 A 
ENDROOT
BRANCH   1   7
ATOM      7  C   UNL     1      40.881  17.593  51.470  1.00  0.00     0.075 C 
ATOM      8  O   UNL     1      41.118  18.162  50.372  1.00  0.00    -0.545 OA
ATOM      9  O   UNL     1      40.724  18.371  52.611  1.00  0.00    -0.545 OA
ENDBRANCH   1   7
BRANCH   2  10
ATOM     10  O   UNL     1      42.782  15.809  50.051  1.00  0.00    -0.507 OA
ATOM     11  H   UNL     1      43.529  16.365  50.445  1.00  0.00     0.293 HD
ENDBRANCH   2  10
TORSDOF 2
ENDMDL
MODEL 6
REMARK VINA RESULT:    -4.603      0.932      2.207
REMARK INTER + INTRA:          -5.256
REMARK INTER:                  -5.025
REMARK INTRA:                  -0.231
REMARK UNBOUND:                -0.250
REMARK SMILES O=C([O-])c1ccccc1O
REMARK SMILES IDX 4 1 9 2 5 3 8 4 6 5 7 6 2 7 1 8 3 9 10 10
REMARK H PARENT 10 11
REMARK Flexibility Score: inf
ROOT
ATOM      1  C   UNL     1      40.819  15.906  51.714  1.00  0.00     0.039 A 
ATOM      2  C   UNL     1      39.818  16.170  52.682  1.00  0.00     0.124 A 
ATOM      3  C   UNL     1      41.371  16.983  50.993  1.00  0.00     0.014 A 
ATOM      4  C   UNL     1      39.352  17.481  52.857  1.00  0.00     0.047 A 
ATOM      5  C   UNL     1      40.911  18.285  51.196  1.00  0.00     0.001 A 
ATOM      6  C   UNL     1      39.895  18.533  52.120  1.00  0.00     0.004 A 
ENDROOT
BRANCH   1   7
ATOM      7  C   UNL     1      41.282  14.536  51.405  1.00  0.00     0.075 C 
ATOM      8  O   UNL     1      42.351  14.359  50.762  1.00  0.00    -0.545 OA
ATOM      9  O   UNL     1      40.517  13.430  51.754  1.00  0.00    -0.545 OA
ENDBRANCH   1   7
BRANCH   2  10
ATOM     10  O   UNL     1      39.288  15.177  53.507  1.00  0.00    -0.507 OA
ATOM     11  H   UNL     1      39.698  14.912  54.393  1.00  0.00     0.293 HD
ENDBRANCH   2  10
TORSDOF 2
ENDMDL
MODEL 7
REMARK VINA RESULT:    -4.579     12.304     13.410
REMARK INTER + INTRA:          -5.230
REMARK INTER:                  -4.981
REMARK INTRA:                  -0.250
REMARK UNBOUND:                -0.250
REMARK SMILES O=C([O-])c1ccccc1O
REMARK SMILES IDX 4 1 9 2 5 3 8 4 6 5 7 6 2 7 1 8 3 9 10 10
REMARK H PARENT 10 11
REMARK Flexibility Score: inf
ROOT
ATOM      1  C   UNL     1      40.708  22.555  62.630  1.00  0.00     0.039 A 
ATOM      2  C   UNL     1      41.437  23.333  63.564  1.00  0.00     0.124 A 
ATOM      3  C   UNL     1      41.198  21.284  62.272  1.00  0.00     0.014 A 
ATOM      4  C   UNL     1      42.657  22.854  64.062  1.00  0.00     0.047 A 
ATOM      5  C   UNL     1      42.403  20.813  62.795  1.00  0.00     0.001 A 
ATOM      6  C   UNL     1      43.138  21.601  63.681  1.00  0.00     0.004 A 
ENDROOT
BRANCH   1   7
ATOM      7  C   UNL     1      39.468  23.043  61.987  1.00  0.00     0.075 C 
ATOM      8  O   UNL     1      39.405  24.222  61.550  1.00  0.00    -0.545 OA
ATOM      9  O   UNL     1      38.338  22.237  61.918  1.00  0.00    -0.545 OA
ENDBRANCH   1   7
BRANCH   2  10
ATOM     10  O   UNL     1      40.974  24.558  64.047  1.00  0.00    -0.507 OA
ATOM     11  H   UNL     1      41.107  25.434  63.559  1.00  0.00     0.293 HD
ENDBRANCH   2  10
TORSDOF 2
ENDMDL
MODEL 8
REMARK VINA RESULT:    -4.483     12.281     13.340
REMARK INTER + INTRA:          -5.126
REMARK INTER:                  -4.923
REMARK INTRA:                  -0.203
REMARK UNBOUND:                -0.250
REMARK SMILES O=C([O-])c1ccccc1O
REMARK SMILES IDX 4 1 9 2 5 3 8 4 6 5 7 6 2 7 1 8 3 9 10 10
REMARK H PARENT 10 11
REMARK Flexibility Score: inf
ROOT
ATOM      1  C   UNL     1      40.536  22.706  62.746  1.00  0.00     0.039 A 
ATOM      2  C   UNL     1      40.107  24.012  63.091  1.00  0.00     0.124 A 
ATOM      3  C   UNL     1      39.747  21.939  61.867  1.00  0.00     0.014 A 
ATOM      4  C   UNL     1      38.881  24.489  62.607  1.00  0.00     0.047 A 
ATOM      5  C   UNL     1      38.539  22.438  61.376  1.00  0.00     0.001 A 
ATOM      6  C   UNL     1      38.101  23.708  61.753  1.00  0.00     0.004 A 
ENDROOT
BRANCH   1   7
ATOM      7  C   UNL     1      41.766  22.102  63.303  1.00  0.00     0.075 C 
ATOM      8  O   UNL     1      42.375  22.667  64.250  1.00  0.00    -0.545 OA
ATOM      9  O   UNL     1      42.306  20.947  62.750  1.00  0.00    -0.545 OA
ENDBRANCH   1   7
BRANCH   2  10
ATOM     10  O   UNL     1      40.875  24.874  63.875  1.00  0.00    -0.507 OA
ATOM     11  H   UNL     1      40.571  25.232  64.771  1.00  0.00     0.293 HD
ENDBRANCH   2  10
TORSDOF 2
ENDMDL
MODEL 9
REMARK VINA RESULT:    -4.416     15.250     15.777
REMARK INTER + INTRA:          -5.053
REMARK INTER:                  -4.804
REMARK INTRA:                  -0.249
REMARK UNBOUND:                -0.250
REMARK SMILES O=C([O-])c1ccccc1O
REMARK SMILES IDX 4 1 9 2 5 3 8 4 6 5 7 6 2 7 1 8 3 9 10 10
REMARK H PARENT 10 11
REMARK Flexibility Score: inf
ROOT
ATOM      1  C   UNL     1      51.312  19.970  62.351  1.00  0.00     0.039 A 
ATOM      2  C   UNL     1      50.961  21.196  62.970  1.00  0.00     0.124 A 
ATOM      3  C   UNL     1      50.717  18.780  62.811  1.00  0.00     0.014 A 
ATOM      4  C   UNL     1      50.084  21.195  64.062  1.00  0.00     0.047 A 
ATOM      5  C   UNL     1      49.827  18.799  63.887  1.00  0.00     0.001 A 
ATOM      6  C   UNL     1      49.518  20.004  64.519  1.00  0.00     0.004 A 
ENDROOT
BRANCH   1   7
ATOM      7  C   UNL     1      52.310  19.887  61.262  1.00  0.00     0.075 C 
ATOM      8  O   UNL     1      52.288  20.722  60.319  1.00  0.00    -0.545 OA
ATOM      9  O   UNL     1      53.238  18.854  61.224  1.00  0.00    -0.545 OA
ENDBRANCH   1   7
BRANCH   2  10
ATOM     10  O   UNL     1      51.429  22.430  62.514  1.00  0.00    -0.507 OA
ATOM     11  H   UNL     1      52.148  22.962  62.986  1.00  0.00     0.293 HD
ENDBRANCH   2  10
TORSDOF 2
ENDMDL
