MODEL 1
REMARK VINA RESULT:    -3.482      0.000      0.000
REMARK INTER + INTRA:          -9.709
REMARK INTER:                  -6.739
REMARK INTRA:                  -2.970
REMARK UNBOUND:                -2.970
REMARK SMILES CCCCCCCCCCCCCCCCCC(=O)[O-]
REMARK SMILES IDX 10 1 11 2 12 3 13 4 14 5 15 6 16 7 17 8 18 9 19 10 20 11
REMARK SMILES IDX 9 12 8 13 7 14 6 15 5 16 4 17 3 18 2 19 1 20
REMARK H PARENT
REMARK Flexibility Score: inf
ROOT
ATOM      1  C   UNL     1      34.485 -46.933  -1.498  1.00  0.00     0.000 C 
ENDROOT
BRANCH   1   2
ATOM      2  C   UNL     1      33.351 -47.859  -1.019  1.00  0.00     0.000 C 
BRANCH   2   3
ATOM      3  C   UNL     1      33.860 -49.067  -0.216  1.00  0.00     0.000 C 
BRANCH   3   4
ATOM      4  C   UNL     1      32.742 -49.777   0.571  1.00  0.00     0.000 C 
BRANCH   4   5
ATOM      5  C   UNL     1      33.211 -50.576   1.801  1.00  0.00     0.000 C 
BRANCH   5   6
ATOM      6  C   UNL     1      34.395 -49.917   2.530  1.00  0.00     0.000 C 
BRANCH   6   7
ATOM      7  C   UNL     1      35.453 -50.944   2.985  1.00  0.00     0.006 C 
BRANCH   7   8
ATOM      8  C   UNL     1      36.892 -50.403   2.950  1.00  0.00     0.053 C 
BRANCH   8   9
ATOM      9  C   UNL     1      37.341 -49.882   4.279  1.00  0.00     0.041 C 
ATOM     10  O   UNL     1      37.306 -50.624   5.297  1.00  0.00    -0.550 OA
ATOM     11  O   UNL     1      37.818 -48.582   4.391  1.00  0.00    -0.550 OA
ENDBRANCH   8   9
ENDBRANCH   7   8
ENDBRANCH   6   7
ENDBRANCH   5   6
ENDBRANCH   4   5
ENDBRANCH   3   4
ENDBRANCH   2   3
ENDBRANCH   1   2
BRANCH   1  12
ATOM     12  C   UNL     1      35.877 -47.245  -0.917  1.00  0.00     0.000 C 
BRANCH  12  13
ATOM     13  C   UNL     1      36.296 -46.274   0.196  1.00  0.00    -0.000 C 
BRANCH  13  14
ATOM     14  C   UNL     1      36.389 -46.992   1.549  1.00  0.00    -0.000 C 
BRANCH  14  15
ATOM     15  C   UNL     1      35.515 -46.291   2.600  1.00  0.00    -0.000 C 
BRANCH  15  16
ATOM     16  C   UNL     1      34.028 -46.266   2.213  1.00  0.00    -0.000 C 
BRANCH  16  17
ATOM     17  C   UNL     1      33.460 -44.836   2.153  1.00  0.00    -0.000 C 
BRANCH  17  18
ATOM     18  C   UNL     1      32.824 -44.510   0.792  1.00  0.00    -0.000 C 
BRANCH  18  19
ATOM     19  C   UNL     1      33.674 -43.541  -0.043  1.00  0.00    -0.003 C 
ATOM     20  C   UNL     1      34.806 -42.945   0.788  1.00  0.00     0.004 C 
ENDBRANCH  18  19
ENDBRANCH  17  18
ENDBRANCH  16  17
ENDBRANCH  15  16
ENDBRANCH  14  15
ENDBRANCH  13  14
ENDBRANCH  12  13
ENDBRANCH   1  12
TORSDOF 16
ENDMDL
MODEL 2
REMARK VINA RESULT:    -3.460      3.004      4.943
REMARK INTER + INTRA:          -9.666
REMARK INTER:                  -7.220
REMARK INTRA:                  -2.445
REMARK UNBOUND:                -2.970
REMARK SMILES CCCCCCCCCCCCCCCCCC(=O)[O-]
REMARK SMILES IDX 10 1 11 2 12 3 13 4 14 5 15 6 16 7 17 8 18 9 19 10 20 11
REMARK SMILES IDX 9 12 8 13 7 14 6 15 5 16 4 17 3 18 2 19 1 20
REMARK H PARENT
REMARK Flexibility Score: inf
ROOT
ATOM      1  C   UNL     1      35.740 -46.627   2.699  1.00  0.00     0.000 C 
ENDROOT
BRANCH   1   2
ATOM      2  C   UNL     1      35.589 -47.629   3.858  1.00  0.00     0.000 C 
BRANCH   2   3
ATOM      3  C   UNL     1      35.755 -49.091   3.413  1.00  0.00     0.000 C 
BRANCH   3   4
ATOM      4  C   UNL     1      35.289 -49.334   1.965  1.00  0.00     0.000 C 
BRANCH   4   5
ATOM      5  C   UNL     1      33.899 -49.981   1.822  1.00  0.00     0.000 C 
BRANCH   5   6
ATOM      6  C   UNL     1      33.055 -49.351   0.700  1.00  0.00     0.000 C 
BRANCH   6   7
ATOM      7  C   UNL     1      33.922 -48.811  -0.457  1.00  0.00     0.006 C 
BRANCH   7   8
ATOM      8  C   UNL     1      33.216 -48.843  -1.823  1.00  0.00     0.053 C 
BRANCH   8   9
ATOM      9  C   UNL     1      33.599 -47.687  -2.693  1.00  0.00     0.041 C 
ATOM     10  O   UNL     1      34.780 -47.248  -2.683  1.00  0.00    -0.550 OA
ATOM     11  O   UNL     1      32.656 -47.105  -3.531  1.00  0.00    -0.550 OA
ENDBRANCH   8   9
ENDBRANCH   7   8
ENDBRANCH   6   7
ENDBRANCH   5   6
ENDBRANCH   4   5
ENDBRANCH   3   4
ENDBRANCH   2   3
ENDBRANCH   1   2
BRANCH   1  12
ATOM     12  C   UNL     1      34.692 -45.499   2.664  1.00  0.00     0.000 C 
BRANCH  12  13
ATOM     13  C   UNL     1      33.528 -45.787   1.705  1.00  0.00    -0.000 C 
BRANCH  13  14
ATOM     14  C   UNL     1      32.508 -44.641   1.714  1.00  0.00    -0.000 C 
BRANCH  14  15
ATOM     15  C   UNL     1      32.469 -43.933   0.352  1.00  0.00    -0.000 C 
BRANCH  15  16
ATOM     16  C   UNL     1      33.323 -44.643  -0.711  1.00  0.00    -0.000 C 
BRANCH  16  17
ATOM     17  C   UNL     1      34.521 -43.792  -1.167  1.00  0.00    -0.000 C 
BRANCH  17  18
ATOM     18  C   UNL     1      34.695 -42.517  -0.327  1.00  0.00    -0.000 C 
BRANCH  18  19
ATOM     19  C   UNL     1      35.906 -42.587   0.615  1.00  0.00    -0.003 C 
ATOM     20  C   UNL     1      35.584 -41.965   1.971  1.00  0.00     0.004 C 
ENDBRANCH  18  19
ENDBRANCH  17  18
ENDBRANCH  16  17
ENDBRANCH  15  16
ENDBRANCH  14  15
ENDBRANCH  13  14
ENDBRANCH  12  13
ENDBRANCH   1  12
TORSDOF 16
ENDMDL
MODEL 3
REMARK VINA RESULT:    -3.446      2.352      5.067
REMARK INTER + INTRA:          -9.639
REMARK INTER:                  -6.839
REMARK INTRA:                  -2.800
REMARK UNBOUND:                -2.970
REMARK SMILES CCCCCCCCCCCCCCCCCC(=O)[O-]
REMARK SMILES IDX 10 1 11 2 12 3 13 4 14 5 15 6 16 7 17 8 18 9 19 10 20 11
REMARK SMILES IDX 9 12 8 13 7 14 6 15 5 16 4 17 3 18 2 19 1 20
REMARK H PARENT
REMARK Flexibility Score: inf
ROOT
ATOM      1  C   UNL     1      34.719 -43.546  -1.364  1.00  0.00     0.000 C 
ENDROOT
BRANCH   1   2
ATOM      2  C   UNL     1      34.029 -43.069  -0.073  1.00  0.00     0.000 C 
BRANCH   2   3
ATOM      3  C   UNL     1      32.727 -43.829   0.229  1.00  0.00     0.000 C 
BRANCH   3   4
ATOM      4  C   UNL     1      32.915 -44.949   1.270  1.00  0.00     0.000 C 
BRANCH   4   5
ATOM      5  C   UNL     1      34.112 -44.768   2.221  1.00  0.00     0.000 C 
BRANCH   5   6
ATOM      6  C   UNL     1      35.076 -45.968   2.209  1.00  0.00     0.000 C 
BRANCH   6   7
ATOM      7  C   UNL     1      34.336 -47.319   2.285  1.00  0.00     0.006 C 
BRANCH   7   8
ATOM      8  C   UNL     1      35.093 -48.475   1.611  1.00  0.00     0.053 C 
BRANCH   8   9
ATOM      9  C   UNL     1      34.438 -49.801   1.842  1.00  0.00     0.041 C 
ATOM     10  O   UNL     1      35.055 -50.715   2.453  1.00  0.00    -0.550 OA
ATOM     11  O   UNL     1      33.141 -50.023   1.400  1.00  0.00    -0.550 OA
ENDBRANCH   8   9
ENDBRANCH   7   8
ENDBRANCH   6   7
ENDBRANCH   5   6
ENDBRANCH   4   5
ENDBRANCH   3   4
ENDBRANCH   2   3
ENDBRANCH   1   2
BRANCH   1  12
ATOM     12  C   UNL     1      35.774 -44.653  -1.176  1.00  0.00     0.000 C 
BRANCH  12  13
ATOM     13  C   UNL     1      35.299 -46.028  -1.667  1.00  0.00    -0.000 C 
BRANCH  13  14
ATOM     14  C   UNL     1      34.327 -45.889  -2.846  1.00  0.00    -0.000 C 
BRANCH  14  15
ATOM     15  C   UNL     1      32.964 -46.510  -2.508  1.00  0.00    -0.000 C 
BRANCH  15  16
ATOM     16  C   UNL     1      33.051 -47.557  -1.386  1.00  0.00    -0.000 C 
BRANCH  16  17
ATOM     17  C   UNL     1      33.367 -48.966  -1.919  1.00  0.00    -0.000 C 
BRANCH  17  18
ATOM     18  C   UNL     1      32.606 -49.293  -3.213  1.00  0.00    -0.000 C 
BRANCH  18  19
ATOM     19  C   UNL     1      33.418 -50.176  -4.172  1.00  0.00    -0.003 C 
ATOM     20  C   UNL     1      34.677 -49.457  -4.648  1.00  0.00     0.004 C 
ENDBRANCH  18  19
ENDBRANCH  17  18
ENDBRANCH  16  17
ENDBRANCH  15  16
ENDBRANCH  14  15
ENDBRANCH  13  14
ENDBRANCH  12  13
ENDBRANCH   1  12
TORSDOF 16
ENDMDL
MODEL 4
REMARK VINA RESULT:    -3.410      1.685      3.881
REMARK INTER + INTRA:          -9.570
REMARK INTER:                  -6.242
REMARK INTRA:                  -3.329
REMARK UNBOUND:                -2.970
REMARK SMILES CCCCCCCCCCCCCCCCCC(=O)[O-]
REMARK SMILES IDX 10 1 11 2 12 3 13 4 14 5 15 6 16 7 17 8 18 9 19 10 20 11
REMARK SMILES IDX 9 12 8 13 7 14 6 15 5 16 4 17 3 18 2 19 1 20
REMARK H PARENT
REMARK Flexibility Score: inf
ROOT
ATOM      1  C   UNL     1      32.570 -44.620   1.251  1.00  0.00     0.000 C 
ENDROOT
BRANCH   1   2
ATOM      2  C   UNL     1      32.831 -43.643   0.090  1.00  0.00     0.000 C 
BRANCH   2   3
ATOM      3  C   UNL     1      33.759 -44.226  -0.989  1.00  0.00     0.000 C 
BRANCH   3   4
ATOM      4  C   UNL     1      33.151 -45.445  -1.707  1.00  0.00     0.000 C 
BRANCH   4   5
ATOM      5  C   UNL     1      33.931 -46.762  -1.540  1.00  0.00     0.000 C 
BRANCH   5   6
ATOM      6  C   UNL     1      33.211 -47.777  -0.635  1.00  0.00     0.000 C 
BRANCH   6   7
ATOM      7  C   UNL     1      34.165 -48.853  -0.079  1.00  0.00     0.006 C 
BRANCH   7   8
ATOM      8  C   UNL     1      33.747 -49.398   1.296  1.00  0.00     0.053 C 
BRANCH   8   9
ATOM      9  C   UNL     1      34.901 -49.956   2.068  1.00  0.00     0.041 C 
ATOM     10  O   UNL     1      36.016 -49.369   2.055  1.00  0.00    -0.550 OA
ATOM     11  O   UNL     1      34.742 -51.113   2.819  1.00  0.00    -0.550 OA
ENDBRANCH   8   9
ENDBRANCH   7   8
ENDBRANCH   6   7
ENDBRANCH   5   6
ENDBRANCH   4   5
ENDBRANCH   3   4
ENDBRANCH   2   3
ENDBRANCH   1   2
BRANCH   1  12
ATOM     12  C   UNL     1      33.638 -44.622   2.361  1.00  0.00     0.000 C 
BRANCH  12  13
ATOM     13  C   UNL     1      34.413 -45.944   2.447  1.00  0.00    -0.000 C 
BRANCH  13  14
ATOM     14  C   UNL     1      35.925 -45.707   2.337  1.00  0.00    -0.000 C 
BRANCH  14  15
ATOM     15  C   UNL     1      36.426 -46.022   0.920  1.00  0.00    -0.000 C 
BRANCH  15  16
ATOM     16  C   UNL     1      37.235 -44.868   0.306  1.00  0.00    -0.000 C 
BRANCH  16  17
ATOM     17  C   UNL     1      37.042 -43.544   1.068  1.00  0.00    -0.000 C 
BRANCH  17  18
ATOM     18  C   UNL     1      36.530 -42.412   0.164  1.00  0.00    -0.000 C 
BRANCH  18  19
ATOM     19  C   UNL     1      35.750 -41.340   0.940  1.00  0.00    -0.003 C 
ATOM     20  C   UNL     1      35.731 -41.648   2.434  1.00  0.00     0.004 C 
ENDBRANCH  18  19
ENDBRANCH  17  18
ENDBRANCH  16  17
ENDBRANCH  15  16
ENDBRANCH  14  15
ENDBRANCH  13  14
ENDBRANCH  12  13
ENDBRANCH   1  12
TORSDOF 16
ENDMDL
MODEL 5
REMARK VINA RESULT:    -3.344      2.424      4.459
REMARK INTER + INTRA:          -9.441
REMARK INTER:                  -6.798
REMARK INTRA:                  -2.643
REMARK UNBOUND:                -2.970
REMARK SMILES CCCCCCCCCCCCCCCCCC(=O)[O-]
REMARK SMILES IDX 10 1 11 2 12 3 13 4 14 5 15 6 16 7 17 8 18 9 19 10 20 11
REMARK SMILES IDX 9 12 8 13 7 14 6 15 5 16 4 17 3 18 2 19 1 20
REMARK H PARENT
REMARK Flexibility Score: inf
ROOT
ATOM      1  C   UNL     1      35.187 -44.252  -2.000  1.00  0.00     0.000 C 
ENDROOT
BRANCH   1   2
ATOM      2  C   UNL     1      34.342 -43.246  -1.197  1.00  0.00     0.000 C 
BRANCH   2   3
ATOM      3  C   UNL     1      34.425 -43.469   0.322  1.00  0.00     0.000 C 
BRANCH   3   4
ATOM      4  C   UNL     1      33.124 -44.043   0.915  1.00  0.00     0.000 C 
BRANCH   4   5
ATOM      5  C   UNL     1      33.308 -44.944   2.150  1.00  0.00     0.000 C 
BRANCH   5   6
ATOM      6  C   UNL     1      34.745 -45.474   2.299  1.00  0.00     0.000 C 
BRANCH   6   7
ATOM      7  C   UNL     1      34.793 -46.875   2.942  1.00  0.00     0.006 C 
BRANCH   7   8
ATOM      8  C   UNL     1      34.373 -48.007   1.989  1.00  0.00     0.053 C 
BRANCH   8   9
ATOM      9  C   UNL     1      34.639 -49.365   2.559  1.00  0.00     0.041 C 
ATOM     10  O   UNL     1      35.502 -49.516   3.464  1.00  0.00    -0.550 OA
ATOM     11  O   UNL     1      33.919 -50.462   2.104  1.00  0.00    -0.550 OA
ENDBRANCH   8   9
ENDBRANCH   7   8
ENDBRANCH   6   7
ENDBRANCH   5   6
ENDBRANCH   4   5
ENDBRANCH   3   4
ENDBRANCH   2   3
ENDBRANCH   1   2
BRANCH   1  12
ATOM     12  C   UNL     1      35.792 -45.406  -1.179  1.00  0.00     0.000 C 
BRANCH  12  13
ATOM     13  C   UNL     1      35.289 -46.788  -1.619  1.00  0.00    -0.000 C 
BRANCH  13  14
ATOM     14  C   UNL     1      33.760 -46.873  -1.530  1.00  0.00    -0.000 C 
BRANCH  14  15
ATOM     15  C   UNL     1      33.153 -47.253  -2.889  1.00  0.00    -0.000 C 
BRANCH  15  16
ATOM     16  C   UNL     1      31.968 -46.356  -3.282  1.00  0.00    -0.000 C 
BRANCH  16  17
ATOM     17  C   UNL     1      31.584 -45.367  -2.166  1.00  0.00    -0.000 C 
BRANCH  17  18
ATOM     18  C   UNL     1      30.991 -44.060  -2.714  1.00  0.00    -0.000 C 
BRANCH  18  19
ATOM     19  C   UNL     1      29.715 -43.632  -1.974  1.00  0.00    -0.003 C 
ATOM     20  C   UNL     1      30.048 -42.802  -0.738  1.00  0.00     0.004 C 
ENDBRANCH  18  19
ENDBRANCH  17  18
ENDBRANCH  16  17
ENDBRANCH  15  16
ENDBRANCH  14  15
ENDBRANCH  13  14
ENDBRANCH  12  13
ENDBRANCH   1  12
TORSDOF 16
ENDMDL
MODEL 6
REMARK VINA RESULT:    -3.297      7.367     10.168
REMARK INTER + INTRA:          -9.350
REMARK INTER:                  -6.896
REMARK INTRA:                  -2.455
REMARK UNBOUND:                -2.970
REMARK SMILES CCCCCCCCCCCCCCCCCC(=O)[O-]
REMARK SMILES IDX 10 1 11 2 12 3 13 4 14 5 15 6 16 7 17 8 18 9 19 10 20 11
REMARK SMILES IDX 9 12 8 13 7 14 6 15 5 16 4 17 3 18 2 19 1 20
REMARK H PARENT
REMARK Flexibility Score: inf
ROOT
ATOM      1  C   UNL     1      32.351 -41.297  -8.459  1.00  0.00     0.000 C 
ENDROOT
BRANCH   1   2
ATOM      2  C   UNL     1      31.307 -42.370  -8.816  1.00  0.00     0.000 C 
BRANCH   2   3
ATOM      3  C   UNL     1      29.885 -42.001  -8.361  1.00  0.00     0.000 C 
BRANCH   3   4
ATOM      4  C   UNL     1      29.725 -42.013  -6.828  1.00  0.00     0.000 C 
BRANCH   4   5
ATOM      5  C   UNL     1      28.653 -42.978  -6.288  1.00  0.00     0.000 C 
BRANCH   5   6
ATOM      6  C   UNL     1      28.958 -43.480  -4.866  1.00  0.00     0.000 C 
BRANCH   6   7
ATOM      7  C   UNL     1      29.566 -42.380  -3.971  1.00  0.00     0.006 C 
BRANCH   7   8
ATOM      8  C   UNL     1      29.484 -42.694  -2.467  1.00  0.00     0.053 C 
BRANCH   8   9
ATOM      9  C   UNL     1      28.473 -41.847  -1.759  1.00  0.00     0.041 C 
ATOM     10  O   UNL     1      27.311 -41.717  -2.231  1.00  0.00    -0.550 OA
ATOM     11  O   UNL     1      28.806 -41.216  -0.568  1.00  0.00    -0.550 OA
ENDBRANCH   8   9
ENDBRANCH   7   8
ENDBRANCH   6   7
ENDBRANCH   5   6
ENDBRANCH   4   5
ENDBRANCH   3   4
ENDBRANCH   2   3
ENDBRANCH   1   2
BRANCH   1  12
ATOM     12  C   UNL     1      33.468 -41.759  -7.504  1.00  0.00     0.000 C 
BRANCH  12  13
ATOM     13  C   UNL     1      33.246 -41.307  -6.054  1.00  0.00    -0.000 C 
BRANCH  13  14
ATOM     14  C   UNL     1      33.138 -42.512  -5.110  1.00  0.00    -0.000 C 
BRANCH  14  15
ATOM     15  C   UNL     1      32.993 -43.818  -5.905  1.00  0.00    -0.000 C 
BRANCH  15  16
ATOM     16  C   UNL     1      32.297 -44.928  -5.100  1.00  0.00    -0.000 C 
BRANCH  16  17
ATOM     17  C   UNL     1      32.447 -44.734  -3.580  1.00  0.00    -0.000 C 
BRANCH  17  18
ATOM     18  C   UNL     1      31.720 -45.819  -2.772  1.00  0.00    -0.000 C 
BRANCH  18  19
ATOM     19  C   UNL     1      32.655 -46.950  -2.319  1.00  0.00    -0.003 C 
ATOM     20  C   UNL     1      32.484 -48.189  -3.193  1.00  0.00     0.004 C 
ENDBRANCH  18  19
ENDBRANCH  17  18
ENDBRANCH  16  17
ENDBRANCH  15  16
ENDBRANCH  14  15
ENDBRANCH  13  14
ENDBRANCH  12  13
ENDBRANCH   1  12
TORSDOF 16
ENDMDL
MODEL 7
REMARK VINA RESULT:    -3.286      1.300      4.512
REMARK INTER + INTRA:          -9.330
REMARK INTER:                  -7.346
REMARK INTRA:                  -1.983
REMARK UNBOUND:                -2.970
REMARK SMILES CCCCCCCCCCCCCCCCCC(=O)[O-]
REMARK SMILES IDX 10 1 11 2 12 3 13 4 14 5 15 6 16 7 17 8 18 9 19 10 20 11
REMARK SMILES IDX 9 12 8 13 7 14 6 15 5 16 4 17 3 18 2 19 1 20
REMARK H PARENT
REMARK Flexibility Score: inf
ROOT
ATOM      1  C   UNL     1      33.820 -43.532   0.055  1.00  0.00     0.000 C 
ENDROOT
BRANCH   1   2
ATOM      2  C   UNL     1      32.908 -44.262   1.057  1.00  0.00     0.000 C 
BRANCH   2   3
ATOM      3  C   UNL     1      33.629 -44.642   2.360  1.00  0.00     0.000 C 
BRANCH   3   4
ATOM      4  C   UNL     1      34.366 -45.992   2.265  1.00  0.00     0.000 C 
BRANCH   4   5
ATOM      5  C   UNL     1      35.897 -45.896   2.126  1.00  0.00     0.000 C 
BRANCH   5   6
ATOM      6  C   UNL     1      36.633 -47.096   2.748  1.00  0.00     0.000 C 
BRANCH   6   7
ATOM      7  C   UNL     1      35.829 -47.754   3.889  1.00  0.00     0.006 C 
BRANCH   7   8
ATOM      8  C   UNL     1      35.904 -49.290   3.889  1.00  0.00     0.053 C 
BRANCH   8   9
ATOM      9  C   UNL     1      36.885 -49.816   4.889  1.00  0.00     0.041 C 
ATOM     10  O   UNL     1      37.957 -49.192   5.115  1.00  0.00    -0.550 OA
ATOM     11  O   UNL     1      36.609 -50.984   5.587  1.00  0.00    -0.550 OA
ENDBRANCH   8   9
ENDBRANCH   7   8
ENDBRANCH   6   7
ENDBRANCH   5   6
ENDBRANCH   4   5
ENDBRANCH   3   4
ENDBRANCH   2   3
ENDBRANCH   1   2
BRANCH   1  12
ATOM     12  C   UNL     1      33.637 -43.939  -1.420  1.00  0.00     0.000 C 
BRANCH  12  13
ATOM     13  C   UNL     1      32.173 -44.214  -1.791  1.00  0.00    -0.000 C 
BRANCH  13  14
ATOM     14  C   UNL     1      32.011 -45.612  -2.401  1.00  0.00    -0.000 C 
BRANCH  14  15
ATOM     15  C   UNL     1      33.278 -46.453  -2.188  1.00  0.00    -0.000 C 
BRANCH  15  16
ATOM     16  C   UNL     1      33.164 -47.403  -0.985  1.00  0.00    -0.000 C 
BRANCH  16  17
ATOM     17  C   UNL     1      34.085 -48.629  -1.115  1.00  0.00    -0.000 C 
BRANCH  17  18
ATOM     18  C   UNL     1      34.580 -49.143   0.246  1.00  0.00    -0.000 C 
BRANCH  18  19
ATOM     19  C   UNL     1      33.471 -49.173   1.309  1.00  0.00    -0.003 C 
ATOM     20  C   UNL     1      32.420 -50.228   0.977  1.00  0.00     0.004 C 
ENDBRANCH  18  19
ENDBRANCH  17  18
ENDBRANCH  16  17
ENDBRANCH  15  16
ENDBRANCH  14  15
ENDBRANCH  13  14
ENDBRANCH  12  13
ENDBRANCH   1  12
TORSDOF 16
ENDMDL
MODEL 8
REMARK VINA RESULT:    -3.269      3.365      6.467
REMARK INTER + INTRA:          -9.297
REMARK INTER:                  -6.686
REMARK INTRA:                  -2.611
REMARK UNBOUND:                -2.970
REMARK SMILES CCCCCCCCCCCCCCCCCC(=O)[O-]
REMARK SMILES IDX 10 1 11 2 12 3 13 4 14 5 15 6 16 7 17 8 18 9 19 10 20 11
REMARK SMILES IDX 9 12 8 13 7 14 6 15 5 16 4 17 3 18 2 19 1 20
REMARK H PARENT
REMARK Flexibility Score: inf
ROOT
ATOM      1  C   UNL     1      34.899 -46.132   2.899  1.00  0.00     0.000 C 
ENDROOT
BRANCH   1   2
ATOM      2  C   UNL     1      34.208 -44.793   2.584  1.00  0.00     0.000 C 
BRANCH   2   3
ATOM      3  C   UNL     1      32.922 -44.959   1.757  1.00  0.00     0.000 C 
BRANCH   3   4
ATOM      4  C   UNL     1      32.825 -43.954   0.593  1.00  0.00     0.000 C 
BRANCH   4   5
ATOM      5  C   UNL     1      32.934 -44.568  -0.815  1.00  0.00     0.000 C 
BRANCH   5   6
ATOM      6  C   UNL     1      34.382 -44.904  -1.214  1.00  0.00     0.000 C 
BRANCH   6   7
ATOM      7  C   UNL     1      34.548 -46.374  -1.649  1.00  0.00     0.006 C 
BRANCH   7   8
ATOM      8  C   UNL     1      33.228 -47.162  -1.676  1.00  0.00     0.053 C 
BRANCH   8   9
ATOM      9  C   UNL     1      32.848 -47.597  -3.057  1.00  0.00     0.041 C 
ATOM     10  O   UNL     1      32.100 -48.598  -3.223  1.00  0.00    -0.550 OA
ATOM     11  O   UNL     1      33.304 -46.887  -4.160  1.00  0.00    -0.550 OA
ENDBRANCH   8   9
ENDBRANCH   7   8
ENDBRANCH   6   7
ENDBRANCH   5   6
ENDBRANCH   4   5
ENDBRANCH   3   4
ENDBRANCH   2   3
ENDBRANCH   1   2
BRANCH   1  12
ATOM     12  C   UNL     1      35.982 -46.566   1.893  1.00  0.00     0.000 C 
BRANCH  12  13
ATOM     13  C   UNL     1      35.758 -47.979   1.338  1.00  0.00    -0.000 C 
BRANCH  13  14
ATOM     14  C   UNL     1      34.333 -48.468   1.629  1.00  0.00    -0.000 C 
BRANCH  14  15
ATOM     15  C   UNL     1      34.356 -49.741   2.489  1.00  0.00    -0.000 C 
BRANCH  15  16
ATOM     16  C   UNL     1      35.765 -50.342   2.621  1.00  0.00    -0.000 C 
BRANCH  16  17
ATOM     17  C   UNL     1      36.212 -50.477   4.088  1.00  0.00    -0.000 C 
BRANCH  17  18
ATOM     18  C   UNL     1      36.535 -49.120   4.734  1.00  0.00    -0.000 C 
BRANCH  18  19
ATOM     19  C   UNL     1      37.950 -48.627   4.401  1.00  0.00    -0.003 C 
ATOM     20  C   UNL     1      38.968 -49.758   4.514  1.00  0.00     0.004 C 
ENDBRANCH  18  19
ENDBRANCH  17  18
ENDBRANCH  16  17
ENDBRANCH  15  16
ENDBRANCH  14  15
ENDBRANCH  13  14
ENDBRANCH  12  13
ENDBRANCH   1  12
TORSDOF 16
ENDMDL
MODEL 9
REMARK VINA RESULT:    -3.210      4.210      7.015
REMARK INTER + INTRA:          -9.182
REMARK INTER:                  -6.273
REMARK INTRA:                  -2.908
REMARK UNBOUND:                -2.970
REMARK SMILES CCCCCCCCCCCCCCCCCC(=O)[O-]
REMARK SMILES IDX 10 1 11 2 12 3 13 4 14 5 15 6 16 7 17 8 18 9 19 10 20 11
REMARK SMILES IDX 9 12 8 13 7 14 6 15 5 16 4 17 3 18 2 19 1 20
REMARK H PARENT
REMARK Flexibility Score: inf
ROOT
ATOM      1  C   UNL     1      32.990 -44.943   1.752  1.00  0.00     0.000 C 
ENDROOT
BRANCH   1   2
ATOM      2  C   UNL     1      32.931 -43.937   0.588  1.00  0.00     0.000 C 
BRANCH   2   3
ATOM      3  C   UNL     1      34.187 -43.057   0.490  1.00  0.00     0.000 C 
BRANCH   3   4
ATOM      4  C   UNL     1      34.880 -43.151  -0.883  1.00  0.00     0.000 C 
BRANCH   4   5
ATOM      5  C   UNL     1      35.543 -44.506  -1.192  1.00  0.00     0.000 C 
BRANCH   5   6
ATOM      6  C   UNL     1      34.891 -45.237  -2.379  1.00  0.00     0.000 C 
BRANCH   6   7
ATOM      7  C   UNL     1      33.832 -44.372  -3.094  1.00  0.00     0.006 C 
BRANCH   7   8
ATOM      8  C   UNL     1      32.420 -44.981  -3.069  1.00  0.00     0.053 C 
BRANCH   8   9
ATOM      9  C   UNL     1      31.955 -45.408  -4.426  1.00  0.00     0.041 C 
ATOM     10  O   UNL     1      30.996 -46.218  -4.543  1.00  0.00    -0.550 OA
ATOM     11  O   UNL     1      32.568 -44.899  -5.563  1.00  0.00    -0.550 OA
ENDBRANCH   8   9
ENDBRANCH   7   8
ENDBRANCH   6   7
ENDBRANCH   5   6
ENDBRANCH   4   5
ENDBRANCH   3   4
ENDBRANCH   2   3
ENDBRANCH   1   2
BRANCH   1  12
ATOM     12  C   UNL     1      34.277 -44.897   2.597  1.00  0.00     0.000 C 
BRANCH  12  13
ATOM     13  C   UNL     1      34.849 -46.289   2.899  1.00  0.00    -0.000 C 
BRANCH  13  14
ATOM     14  C   UNL     1      35.210 -47.031   1.606  1.00  0.00    -0.000 C 
BRANCH  14  15
ATOM     15  C   UNL     1      34.647 -48.460   1.619  1.00  0.00    -0.000 C 
BRANCH  15  16
ATOM     16  C   UNL     1      33.277 -48.564   0.931  1.00  0.00    -0.000 C 
BRANCH  16  17
ATOM     17  C   UNL     1      33.264 -47.901  -0.458  1.00  0.00    -0.000 C 
BRANCH  17  18
ATOM     18  C   UNL     1      33.880 -48.795  -1.545  1.00  0.00    -0.000 C 
BRANCH  18  19
ATOM     19  C   UNL     1      33.185 -48.637  -2.906  1.00  0.00    -0.003 C 
ATOM     20  C   UNL     1      34.206 -48.481  -4.030  1.00  0.00     0.004 C 
ENDBRANCH  18  19
ENDBRANCH  17  18
ENDBRANCH  16  17
ENDBRANCH  15  16
ENDBRANCH  14  15
ENDBRANCH  13  14
ENDBRANCH  12  13
ENDBRANCH   1  12
TORSDOF 16
ENDMDL
