MODEL 1
REMARK VINA RESULT:    -3.657      0.000      0.000
REMARK INTER + INTRA:          -5.917
REMARK INTER:                  -5.367
REMARK INTRA:                  -0.550
REMARK UNBOUND:                -0.550
REMARK SMILES O=C([O-])CCCCCCCC(=O)[O-]
REMARK SMILES IDX 7 1 6 2 5 3 4 4 2 5 1 6 3 7 8 8 9 9 10 10 11 11 12 12 13 13
REMARK H PARENT
REMARK Flexibility Score: inf
ROOT
ATOM      1  C   UNL     1     130.749 144.676 120.098  1.00  0.00     0.000 C 
ENDROOT
BRANCH   1   2
ATOM      2  C   UNL     1     130.452 146.127 119.667  1.00  0.00     0.000 C 
BRANCH   2   3
ATOM      3  C   UNL     1     131.619 147.114 119.850  1.00  0.00     0.006 C 
BRANCH   3   4
ATOM      4  C   UNL     1     132.948 146.414 120.157  1.00  0.00     0.053 C 
BRANCH   4   5
ATOM      5  C   UNL     1     133.449 146.815 121.509  1.00  0.00     0.041 C 
ATOM      6  O   UNL     1     134.686 146.917 121.722  1.00  0.00    -0.550 OA
ATOM      7  O   UNL     1     132.548 147.124 122.519  1.00  0.00    -0.550 OA
ENDBRANCH   4   5
ENDBRANCH   3   4
ENDBRANCH   2   3
ENDBRANCH   1   2
BRANCH   1   8
ATOM      8  C   UNL     1     129.795 143.616 119.520  1.00  0.00     0.000 C 
BRANCH   8   9
ATOM      9  C   UNL     1     128.504 144.221 118.950  1.00  0.00     0.006 C 
BRANCH   9  10
ATOM     10  C   UNL     1     127.311 143.932 119.866  1.00  0.00     0.053 C 
BRANCH  10  11
ATOM     11  C   UNL     1     127.172 145.004 120.900  1.00  0.00     0.041 C 
ATOM     12  O   UNL     1     126.922 146.188 120.556  1.00  0.00    -0.550 OA
ATOM     13  O   UNL     1     127.366 144.703 122.243  1.00  0.00    -0.550 OA
ENDBRANCH  10  11
ENDBRANCH   9  10
ENDBRANCH   8   9
ENDBRANCH   1   8
TORSDOF 8
ENDMDL
MODEL 2
REMARK VINA RESULT:    -3.620      0.208      5.596
REMARK INTER + INTRA:          -5.863
REMARK INTER:                  -5.352
REMARK INTRA:                  -0.511
REMARK UNBOUND:                -0.550
REMARK SMILES O=C([O-])CCCCCCCC(=O)[O-]
REMARK SMILES IDX 7 1 6 2 5 3 4 4 2 5 1 6 3 7 8 8 9 9 10 10 11 11 12 12 13 13
REMARK H PARENT
REMARK Flexibility Score: inf
ROOT
ATOM      1  C   UNL     1     130.767 144.689 120.014  1.00  0.00     0.000 C 
ENDROOT
BRANCH   1   2
ATOM      2  C   UNL     1     129.868 143.619 119.362  1.00  0.00     0.000 C 
BRANCH   2   3
ATOM      3  C   UNL     1     128.428 144.071 119.061  1.00  0.00     0.006 C 
BRANCH   3   4
ATOM      4  C   UNL     1     127.451 143.743 120.197  1.00  0.00     0.053 C 
BRANCH   4   5
ATOM      5  C   UNL     1     127.196 144.959 121.032  1.00  0.00     0.041 C 
ATOM      6  O   UNL     1     126.875 146.047 120.485  1.00  0.00    -0.550 OA
ATOM      7  O   UNL     1     127.264 144.877 122.416  1.00  0.00    -0.550 OA
ENDBRANCH   4   5
ENDBRANCH   3   4
ENDBRANCH   2   3
ENDBRANCH   1   2
BRANCH   1   8
ATOM      8  C   UNL     1     130.416 146.143 119.653  1.00  0.00     0.000 C 
BRANCH   8   9
ATOM      9  C   UNL     1     131.616 147.093 119.765  1.00  0.00     0.006 C 
BRANCH   9  10
ATOM     10  C   UNL     1     132.904 146.318 120.061  1.00  0.00     0.053 C 
BRANCH  10  11
ATOM     11  C   UNL     1     133.470 146.727 121.384  1.00  0.00     0.041 C 
ATOM     12  O   UNL     1     132.707 146.932 122.363  1.00  0.00    -0.550 OA
ATOM     13  O   UNL     1     134.838 146.931 121.521  1.00  0.00    -0.550 OA
ENDBRANCH  10  11
ENDBRANCH   9  10
ENDBRANCH   8   9
ENDBRANCH   1   8
TORSDOF 8
ENDMDL
MODEL 3
REMARK VINA RESULT:    -3.524      1.327      1.991
REMARK INTER + INTRA:          -5.723
REMARK INTER:                  -5.108
REMARK INTRA:                  -0.615
REMARK UNBOUND:                -0.550
REMARK SMILES O=C([O-])CCCCCCCC(=O)[O-]
REMARK SMILES IDX 7 1 6 2 5 3 4 4 2 5 1 6 3 7 8 8 9 9 10 10 11 11 12 12 13 13
REMARK H PARENT
REMARK Flexibility Score: inf
ROOT
ATOM      1  C   UNL     1     129.228 144.051 119.381  1.00  0.00     0.000 C 
ENDROOT
BRANCH   1   2
ATOM      2  C   UNL     1     130.657 144.456 119.798  1.00  0.00     0.000 C 
BRANCH   2   3
ATOM      3  C   UNL     1     130.751 145.730 120.656  1.00  0.00     0.006 C 
BRANCH   3   4
ATOM      4  C   UNL     1     131.719 146.768 120.074  1.00  0.00     0.053 C 
BRANCH   4   5
ATOM      5  C   UNL     1     133.091 146.576 120.640  1.00  0.00     0.041 C 
ATOM      6  O   UNL     1     133.410 147.121 121.730  1.00  0.00    -0.550 OA
ATOM      7  O   UNL     1     134.002 145.755 119.989  1.00  0.00    -0.550 OA
ENDBRANCH   4   5
ENDBRANCH   3   4
ENDBRANCH   2   3
ENDBRANCH   1   2
BRANCH   1   8
ATOM      8  C   UNL     1     128.304 145.222 119.002  1.00  0.00     0.000 C 
BRANCH   8   9
ATOM      9  C   UNL     1     127.046 145.298 119.878  1.00  0.00     0.006 C 
BRANCH   9  10
ATOM     10  C   UNL     1     127.055 146.561 120.744  1.00  0.00     0.053 C 
BRANCH  10  11
ATOM     11  C   UNL     1     127.227 146.206 122.188  1.00  0.00     0.041 C 
ATOM     12  O   UNL     1     127.371 147.111 123.050  1.00  0.00    -0.550 OA
ATOM     13  O   UNL     1     127.277 144.872 122.574  1.00  0.00    -0.550 OA
ENDBRANCH  10  11
ENDBRANCH   9  10
ENDBRANCH   8   9
ENDBRANCH   1   8
TORSDOF 8
ENDMDL
MODEL 4
REMARK VINA RESULT:    -3.500      3.233      4.562
REMARK INTER + INTRA:          -5.687
REMARK INTER:                  -5.021
REMARK INTRA:                  -0.666
REMARK UNBOUND:                -0.550
REMARK SMILES O=C([O-])CCCCCCCC(=O)[O-]
REMARK SMILES IDX 7 1 6 2 5 3 4 4 2 5 1 6 3 7 8 8 9 9 10 10 11 11 12 12 13 13
REMARK H PARENT
REMARK Flexibility Score: inf
ROOT
ATOM      1  C   UNL     1     128.160 143.390 119.682  1.00  0.00     0.000 C 
ENDROOT
BRANCH   1   2
ATOM      2  C   UNL     1     127.678 144.669 118.968  1.00  0.00     0.000 C 
BRANCH   2   3
ATOM      3  C   UNL     1     127.538 145.908 119.871  1.00  0.00     0.006 C 
BRANCH   3   4
ATOM      4  C   UNL     1     128.637 145.993 120.938  1.00  0.00     0.053 C 
BRANCH   4   5
ATOM      5  C   UNL     1     128.036 146.238 122.286  1.00  0.00     0.041 C 
ATOM      6  O   UNL     1     128.515 147.125 123.042  1.00  0.00    -0.550 OA
ATOM      7  O   UNL     1     126.917 145.521 122.688  1.00  0.00    -0.550 OA
ENDBRANCH   4   5
ENDBRANCH   3   4
ENDBRANCH   2   3
ENDBRANCH   1   2
BRANCH   1   8
ATOM      8  C   UNL     1     127.076 142.637 120.474  1.00  0.00     0.000 C 
BRANCH   8   9
ATOM      9  C   UNL     1     127.658 141.692 121.533  1.00  0.00     0.006 C 
BRANCH   9  10
ATOM     10  C   UNL     1     128.518 142.460 122.542  1.00  0.00     0.053 C 
BRANCH  10  11
ATOM     11  C   UNL     1     128.274 141.957 123.930  1.00  0.00     0.041 C 
ATOM     12  O   UNL     1     128.681 140.817 124.271  1.00  0.00    -0.550 OA
ATOM     13  O   UNL     1     127.553 142.730 124.831  1.00  0.00    -0.550 OA
ENDBRANCH  10  11
ENDBRANCH   9  10
ENDBRANCH   8   9
ENDBRANCH   1   8
TORSDOF 8
ENDMDL
MODEL 5
REMARK VINA RESULT:    -3.458      3.241      5.003
REMARK INTER + INTRA:          -5.625
REMARK INTER:                  -5.003
REMARK INTRA:                  -0.622
REMARK UNBOUND:                -0.550
REMARK SMILES O=C([O-])CCCCCCCC(=O)[O-]
REMARK SMILES IDX 7 1 6 2 5 3 4 4 2 5 1 6 3 7 8 8 9 9 10 10 11 11 12 12 13 13
REMARK H PARENT
REMARK Flexibility Score: inf
ROOT
ATOM      1  C   UNL     1     127.488 144.160 119.345  1.00  0.00     0.000 C 
ENDROOT
BRANCH   1   2
ATOM      2  C   UNL     1     128.961 143.711 119.242  1.00  0.00     0.000 C 
BRANCH   2   3
ATOM      3  C   UNL     1     129.426 142.741 120.343  1.00  0.00     0.006 C 
BRANCH   3   4
ATOM      4  C   UNL     1     128.412 141.624 120.618  1.00  0.00     0.053 C 
BRANCH   4   5
ATOM      5  C   UNL     1     128.066 141.580 122.073  1.00  0.00     0.041 C 
ATOM      6  O   UNL     1     127.644 142.614 122.656  1.00  0.00    -0.550 OA
ATOM      7  O   UNL     1     128.164 140.385 122.775  1.00  0.00    -0.550 OA
ENDBRANCH   4   5
ENDBRANCH   3   4
ENDBRANCH   2   3
ENDBRANCH   1   2
BRANCH   1   8
ATOM      8  C   UNL     1     127.226 145.627 118.962  1.00  0.00     0.000 C 
BRANCH   8   9
ATOM      9  C   UNL     1     126.912 146.514 120.175  1.00  0.00     0.006 C 
BRANCH   9  10
ATOM     10  C   UNL     1     127.105 145.742 121.484  1.00  0.00     0.053 C 
BRANCH  10  11
ATOM     11  C   UNL     1     128.221 146.336 122.284  1.00  0.00     0.041 C 
ATOM     12  O   UNL     1     127.972 147.012 123.315  1.00  0.00    -0.550 OA
ATOM     13  O   UNL     1     129.536 146.184 121.861  1.00  0.00    -0.550 OA
ENDBRANCH  10  11
ENDBRANCH   9  10
ENDBRANCH   8   9
ENDBRANCH   1   8
TORSDOF 8
ENDMDL
MODEL 6
REMARK VINA RESULT:    -3.455      3.422      4.708
REMARK INTER + INTRA:          -5.622
REMARK INTER:                  -4.971
REMARK INTRA:                  -0.650
REMARK UNBOUND:                -0.550
REMARK SMILES O=C([O-])CCCCCCCC(=O)[O-]
REMARK SMILES IDX 7 1 6 2 5 3 4 4 2 5 1 6 3 7 8 8 9 9 10 10 11 11 12 12 13 13
REMARK H PARENT
REMARK Flexibility Score: inf
ROOT
ATOM      1  C   UNL     1     128.616 143.786 119.067  1.00  0.00     0.000 C 
ENDROOT
BRANCH   1   2
ATOM      2  C   UNL     1     127.416 144.756 119.074  1.00  0.00     0.000 C 
BRANCH   2   3
ATOM      3  C   UNL     1     127.680 146.116 119.743  1.00  0.00     0.006 C 
BRANCH   3   4
ATOM      4  C   UNL     1     126.921 146.286 121.066  1.00  0.00     0.053 C 
BRANCH   4   5
ATOM      5  C   UNL     1     127.778 145.858 122.216  1.00  0.00     0.041 C 
ATOM      6  O   UNL     1     128.898 146.399 122.408  1.00  0.00    -0.550 OA
ATOM      7  O   UNL     1     127.316 144.896 123.105  1.00  0.00    -0.550 OA
ENDBRANCH   4   5
ENDBRANCH   3   4
ENDBRANCH   2   3
ENDBRANCH   1   2
BRANCH   1   8
ATOM      8  C   UNL     1     128.590 142.709 120.166  1.00  0.00     0.000 C 
BRANCH   8   9
ATOM      9  C   UNL     1     127.167 142.352 120.620  1.00  0.00     0.006 C 
BRANCH   9  10
ATOM     10  C   UNL     1     126.942 140.838 120.580  1.00  0.00     0.053 C 
BRANCH  10  11
ATOM     11  C   UNL     1     127.954 140.134 121.428  1.00  0.00     0.041 C 
ATOM     12  O   UNL     1     128.678 139.232 120.933  1.00  0.00    -0.550 OA
ATOM     13  O   UNL     1     128.063 140.442 122.778  1.00  0.00    -0.550 OA
ENDBRANCH  10  11
ENDBRANCH   9  10
ENDBRANCH   8   9
ENDBRANCH   1   8
TORSDOF 8
ENDMDL
MODEL 7
REMARK VINA RESULT:    -3.424      1.203      5.791
REMARK INTER + INTRA:          -5.575
REMARK INTER:                  -5.134
REMARK INTRA:                  -0.440
REMARK UNBOUND:                -0.550
REMARK SMILES O=C([O-])CCCCCCCC(=O)[O-]
REMARK SMILES IDX 7 1 6 2 5 3 4 4 2 5 1 6 3 7 8 8 9 9 10 10 11 11 12 12 13 13
REMARK H PARENT
REMARK Flexibility Score: inf
ROOT
ATOM      1  C   UNL     1     130.416 144.727 119.843  1.00  0.00     0.000 C 
ENDROOT
BRANCH   1   2
ATOM      2  C   UNL     1     129.189 144.029 119.221  1.00  0.00     0.000 C 
BRANCH   2   3
ATOM      3  C   UNL     1     127.836 144.700 119.516  1.00  0.00     0.006 C 
BRANCH   3   4
ATOM      4  C   UNL     1     127.250 144.285 120.872  1.00  0.00     0.053 C 
BRANCH   4   5
ATOM      5  C   UNL     1     127.249 145.447 121.816  1.00  0.00     0.041 C 
ATOM      6  O   UNL     1     127.284 145.253 123.059  1.00  0.00    -0.550 OA
ATOM      7  O   UNL     1     127.257 146.744 121.320  1.00  0.00    -0.550 OA
ENDBRANCH   4   5
ENDBRANCH   3   4
ENDBRANCH   2   3
ENDBRANCH   1   2
BRANCH   1   8
ATOM      8  C   UNL     1     130.409 146.263 119.748  1.00  0.00     0.000 C 
BRANCH   8   9
ATOM      9  C   UNL     1     131.802 146.879 119.937  1.00  0.00     0.006 C 
BRANCH   9  10
ATOM     10  C   UNL     1     132.877 145.791 120.021  1.00  0.00     0.053 C 
BRANCH  10  11
ATOM     11  C   UNL     1     134.235 146.377 119.794  1.00  0.00     0.041 C 
ATOM     12  O   UNL     1     134.687 146.495 118.625  1.00  0.00    -0.550 OA
ATOM     13  O   UNL     1     135.022 146.748 120.877  1.00  0.00    -0.550 OA
ENDBRANCH  10  11
ENDBRANCH   9  10
ENDBRANCH   8   9
ENDBRANCH   1   8
TORSDOF 8
ENDMDL
MODEL 8
REMARK VINA RESULT:    -3.416      1.906      4.967
REMARK INTER + INTRA:          -5.564
REMARK INTER:                  -4.832
REMARK INTRA:                  -0.732
REMARK UNBOUND:                -0.550
REMARK SMILES O=C([O-])CCCCCCCC(=O)[O-]
REMARK SMILES IDX 7 1 6 2 5 3 4 4 2 5 1 6 3 7 8 8 9 9 10 10 11 11 12 12 13 13
REMARK H PARENT
REMARK Flexibility Score: inf
ROOT
ATOM      1  C   UNL     1     129.905 145.106 119.775  1.00  0.00     0.000 C 
ENDROOT
BRANCH   1   2
ATOM      2  C   UNL     1     128.583 145.148 118.981  1.00  0.00     0.000 C 
BRANCH   2   3
ATOM      3  C   UNL     1     127.306 145.116 119.839  1.00  0.00     0.006 C 
BRANCH   3   4
ATOM      4  C   UNL     1     127.103 146.400 120.653  1.00  0.00     0.053 C 
BRANCH   4   5
ATOM      5  C   UNL     1     127.142 146.099 122.119  1.00  0.00     0.041 C 
ATOM      6  O   UNL     1     127.368 144.927 122.519  1.00  0.00    -0.550 OA
ATOM      7  O   UNL     1     126.978 147.123 123.042  1.00  0.00    -0.550 OA
ENDBRANCH   4   5
ENDBRANCH   3   4
ENDBRANCH   2   3
ENDBRANCH   1   2
BRANCH   1   8
ATOM      8  C   UNL     1     130.687 146.431 119.811  1.00  0.00     0.000 C 
BRANCH   8   9
ATOM      9  C   UNL     1     131.314 146.717 121.183  1.00  0.00     0.006 C 
BRANCH   9  10
ATOM     10  C   UNL     1     131.023 145.580 122.168  1.00  0.00     0.053 C 
BRANCH  10  11
ATOM     11  C   UNL     1     131.002 146.096 123.572  1.00  0.00     0.041 C 
ATOM     12  O   UNL     1     131.765 145.599 124.441  1.00  0.00    -0.550 OA
ATOM     13  O   UNL     1     130.105 147.093 123.933  1.00  0.00    -0.550 OA
ENDBRANCH  10  11
ENDBRANCH   9  10
ENDBRANCH   8   9
ENDBRANCH   1   8
TORSDOF 8
ENDMDL
MODEL 9
REMARK VINA RESULT:    -3.409      1.603      5.642
REMARK INTER + INTRA:          -5.554
REMARK INTER:                  -5.105
REMARK INTRA:                  -0.449
REMARK UNBOUND:                -0.550
REMARK SMILES O=C([O-])CCCCCCCC(=O)[O-]
REMARK SMILES IDX 7 1 6 2 5 3 4 4 2 5 1 6 3 7 8 8 9 9 10 10 11 11 12 12 13 13
REMARK H PARENT
REMARK Flexibility Score: inf
ROOT
ATOM      1  C   UNL     1     128.768 146.128 120.211  1.00  0.00     0.000 C 
ENDROOT
BRANCH   1   2
ATOM      2  C   UNL     1     127.598 145.339 119.589  1.00  0.00     0.000 C 
BRANCH   2   3
ATOM      3  C   UNL     1     127.896 143.859 119.286  1.00  0.00     0.006 C 
BRANCH   3   4
ATOM      4  C   UNL     1     127.268 142.905 120.309  1.00  0.00     0.053 C 
BRANCH   4   5
ATOM      5  C   UNL     1     128.126 142.812 121.532  1.00  0.00     0.041 C 
ATOM      6  O   UNL     1     129.336 142.478 121.433  1.00  0.00    -0.550 OA
ATOM      7  O   UNL     1     127.602 143.143 122.774  1.00  0.00    -0.550 OA
ENDBRANCH   4   5
ENDBRANCH   3   4
ENDBRANCH   2   3
ENDBRANCH   1   2
BRANCH   1   8
ATOM      8  C   UNL     1     130.169 145.694 119.744  1.00  0.00     0.000 C 
BRANCH   8   9
ATOM      9  C   UNL     1     131.187 146.842 119.762  1.00  0.00     0.006 C 
BRANCH   9  10
ATOM     10  C   UNL     1     131.988 146.845 121.067  1.00  0.00     0.053 C 
BRANCH  10  11
ATOM     11  C   UNL     1     133.415 146.475 120.808  1.00  0.00     0.041 C 
ATOM     12  O   UNL     1     134.329 146.922 121.548  1.00  0.00    -0.550 OA
ATOM     13  O   UNL     1     133.738 145.676 119.718  1.00  0.00    -0.550 OA
ENDBRANCH  10  11
ENDBRANCH   9  10
ENDBRANCH   8   9
ENDBRANCH   1   8
TORSDOF 8
ENDMDL
