MODEL 1
REMARK VINA RESULT:    -4.692      0.000      0.000
REMARK INTER + INTRA:          -5.724
REMARK INTER:                  -5.241
REMARK INTRA:                  -0.484
REMARK UNBOUND:                -0.484
REMARK SMILES CC=C(C)C=CC=C(C)C
REMARK SMILES IDX 5 1 6 2 3 3 1 4 2 5 4 6 7 7 8 8 9 9 10 10
REMARK H PARENT
REMARK Flexibility Score: inf
ROOT
ATOM      1  C   UNL     1       9.044   5.388  27.875  1.00  0.00     0.003 C 
ATOM      2  C   UNL     1      10.038   5.067  27.032  1.00  0.00     0.000 C 
ENDROOT
BRANCH   1   3
ATOM      3  C   UNL     1       9.222   5.786  29.290  1.00  0.00    -0.055 C 
ATOM      4  C   UNL     1       9.392   7.570  31.041  1.00  0.00     0.036 C 
ATOM      5  C   UNL     1       9.153   7.083  29.643  1.00  0.00    -0.027 C 
ATOM      6  C   UNL     1       9.657   4.728  30.267  1.00  0.00     0.044 C 
ENDBRANCH   1   3
BRANCH   2   7
ATOM      7  C   UNL     1      11.477   5.185  27.369  1.00  0.00    -0.001 C 
ATOM      8  C   UNL     1      12.236   6.246  27.038  1.00  0.00    -0.076 C 
ATOM      9  C   UNL     1      13.684   6.251  27.450  1.00  0.00     0.039 C 
ATOM     10  C   UNL     1      11.682   7.412  26.260  1.00  0.00     0.039 C 
ENDBRANCH   2   7
TORSDOF 2
ENDMDL
MODEL 2
REMARK VINA RESULT:    -4.674      0.789      4.204
REMARK INTER + INTRA:          -5.705
REMARK INTER:                  -5.129
REMARK INTRA:                  -0.576
REMARK UNBOUND:                -0.484
REMARK SMILES CC=C(C)C=CC=C(C)C
REMARK SMILES IDX 5 1 6 2 3 3 1 4 2 5 4 6 7 7 8 8 9 9 10 10
REMARK H PARENT
REMARK Flexibility Score: inf
ROOT
ATOM      1  C   UNL     1      10.006   5.206  27.009  1.00  0.00     0.003 C 
ATOM      2  C   UNL     1       8.981   5.479  27.829  1.00  0.00     0.000 C 
ENDROOT
BRANCH   1   3
ATOM      3  C   UNL     1      11.239   6.016  26.888  1.00  0.00    -0.055 C 
ATOM      4  C   UNL     1      12.550   7.823  25.748  1.00  0.00     0.036 C 
ATOM      5  C   UNL     1      11.314   7.006  25.977  1.00  0.00    -0.027 C 
ATOM      6  C   UNL     1      12.446   5.581  27.675  1.00  0.00     0.044 C 
ENDBRANCH   1   3
BRANCH   2   7
ATOM      7  C   UNL     1       8.991   6.574  28.829  1.00  0.00    -0.001 C 
ATOM      8  C   UNL     1       9.299   6.396  30.127  1.00  0.00    -0.076 C 
ATOM      9  C   UNL     1       9.286   7.593  31.040  1.00  0.00     0.039 C 
ATOM     10  C   UNL     1       9.640   5.039  30.688  1.00  0.00     0.039 C 
ENDBRANCH   2   7
TORSDOF 2
ENDMDL
MODEL 3
REMARK VINA RESULT:    -4.619      1.791      3.201
REMARK INTER + INTRA:          -5.643
REMARK INTER:                  -5.059
REMARK INTRA:                  -0.584
REMARK UNBOUND:                -0.484
REMARK SMILES CC=C(C)C=CC=C(C)C
REMARK SMILES IDX 5 1 6 2 3 3 1 4 2 5 4 6 7 7 8 8 9 9 10 10
REMARK H PARENT
REMARK Flexibility Score: inf
ROOT
ATOM      1  C   UNL     1       9.223   6.205  27.651  1.00  0.00     0.003 C 
ATOM      2  C   UNL     1       9.662   4.980  27.978  1.00  0.00     0.000 C 
ENDROOT
BRANCH   1   3
ATOM      3  C   UNL     1       9.773   7.475  28.176  1.00  0.00    -0.055 C 
ATOM      4  C   UNL     1       9.679   9.374  29.808  1.00  0.00     0.036 C 
ATOM      5  C   UNL     1       9.223   8.055  29.260  1.00  0.00    -0.027 C 
ATOM      6  C   UNL     1      10.827   8.174  27.360  1.00  0.00     0.044 C 
ENDBRANCH   1   3
BRANCH   2   7
ATOM      7  C   UNL     1      10.852   4.727  28.826  1.00  0.00    -0.001 C 
ATOM      8  C   UNL     1      10.806   4.634  30.167  1.00  0.00    -0.076 C 
ATOM      9  C   UNL     1      12.084   4.362  30.913  1.00  0.00     0.039 C 
ATOM     10  C   UNL     1       9.522   4.808  30.937  1.00  0.00     0.039 C 
ENDBRANCH   2   7
TORSDOF 2
ENDMDL
MODEL 4
REMARK VINA RESULT:    -4.527     13.639     15.191
REMARK INTER + INTRA:          -5.541
REMARK INTER:                  -4.970
REMARK INTRA:                  -0.570
REMARK UNBOUND:                -0.484
REMARK SMILES CC=C(C)C=CC=C(C)C
REMARK SMILES IDX 5 1 6 2 3 3 1 4 2 5 4 6 7 7 8 8 9 9 10 10
REMARK H PARENT
REMARK Flexibility Score: inf
ROOT
ATOM      1  C   UNL     1       6.891   5.535  14.644  1.00  0.00     0.003 C 
ATOM      2  C   UNL     1       7.921   5.847  13.843  1.00  0.00     0.000 C 
ENDROOT
BRANCH   1   3
ATOM      3  C   UNL     1       5.925   6.506  15.207  1.00  0.00    -0.055 C 
ATOM      4  C   UNL     1       3.788   7.802  15.020  1.00  0.00     0.036 C 
ATOM      5  C   UNL     1       4.781   6.782  14.551  1.00  0.00    -0.027 C 
ATOM      6  C   UNL     1       6.344   7.293  16.418  1.00  0.00     0.044 C 
ENDBRANCH   1   3
BRANCH   2   7
ATOM      7  C   UNL     1       8.166   7.206  13.303  1.00  0.00    -0.001 C 
ATOM      8  C   UNL     1       7.630   7.661  12.155  1.00  0.00    -0.076 C 
ATOM      9  C   UNL     1       7.946   9.067  11.721  1.00  0.00     0.039 C 
ATOM     10  C   UNL     1       6.742   6.801  11.293  1.00  0.00     0.039 C 
ENDBRANCH   2   7
TORSDOF 2
ENDMDL
MODEL 5
REMARK VINA RESULT:    -4.481     13.468     15.495
REMARK INTER + INTRA:          -5.489
REMARK INTER:                  -4.925
REMARK INTRA:                  -0.564
REMARK UNBOUND:                -0.484
REMARK SMILES CC=C(C)C=CC=C(C)C
REMARK SMILES IDX 5 1 6 2 3 3 1 4 2 5 4 6 7 7 8 8 9 9 10 10
REMARK H PARENT
REMARK Flexibility Score: inf
ROOT
ATOM      1  C   UNL     1       7.897   5.705  13.719  1.00  0.00     0.003 C 
ATOM      2  C   UNL     1       6.964   5.547  14.671  1.00  0.00     0.000 C 
ENDROOT
BRANCH   1   3
ATOM      3  C   UNL     1       7.800   6.644  12.579  1.00  0.00    -0.055 C 
ATOM      4  C   UNL     1       8.032   8.957  11.643  1.00  0.00     0.036 C 
ATOM      5  C   UNL     1       8.167   7.931  12.728  1.00  0.00    -0.027 C 
ATOM      6  C   UNL     1       7.116   6.163  11.328  1.00  0.00     0.044 C 
ENDBRANCH   1   3
BRANCH   2   7
ATOM      7  C   UNL     1       5.749   6.389  14.785  1.00  0.00    -0.001 C 
ATOM      8  C   UNL     1       5.661   7.468  15.583  1.00  0.00    -0.076 C 
ATOM      9  C   UNL     1       4.374   8.248  15.599  1.00  0.00     0.039 C 
ATOM     10  C   UNL     1       6.803   7.905  16.464  1.00  0.00     0.039 C 
ENDBRANCH   2   7
TORSDOF 2
ENDMDL
MODEL 6
REMARK VINA RESULT:    -4.428     13.755     15.825
REMARK INTER + INTRA:          -5.430
REMARK INTER:                  -4.960
REMARK INTRA:                  -0.470
REMARK UNBOUND:                -0.484
REMARK SMILES CC=C(C)C=CC=C(C)C
REMARK SMILES IDX 5 1 6 2 3 3 1 4 2 5 4 6 7 7 8 8 9 9 10 10
REMARK H PARENT
REMARK Flexibility Score: inf
ROOT
ATOM      1  C   UNL     1       7.649   6.787  14.454  1.00  0.00     0.003 C 
ATOM      2  C   UNL     1       6.739   7.209  15.346  1.00  0.00     0.000 C 
ENDROOT
BRANCH   1   3
ATOM      3  C   UNL     1       7.463   6.780  12.986  1.00  0.00    -0.055 C 
ATOM      4  C   UNL     1       6.736   5.609  10.893  1.00  0.00     0.036 C 
ATOM      5  C   UNL     1       6.895   5.720  12.380  1.00  0.00    -0.027 C 
ATOM      6  C   UNL     1       8.088   7.896  12.193  1.00  0.00     0.044 C 
ENDBRANCH   1   3
BRANCH   2   7
ATOM      7  C   UNL     1       5.453   7.848  14.975  1.00  0.00    -0.001 C 
ATOM      8  C   UNL     1       4.249   7.353  15.313  1.00  0.00    -0.076 C 
ATOM      9  C   UNL     1       3.017   8.104  14.887  1.00  0.00     0.039 C 
ATOM     10  C   UNL     1       4.103   6.069  16.089  1.00  0.00     0.039 C 
ENDBRANCH   2   7
TORSDOF 2
ENDMDL
MODEL 7
REMARK VINA RESULT:    -4.395      0.813      1.747
REMARK INTER + INTRA:          -5.393
REMARK INTER:                  -4.992
REMARK INTRA:                  -0.400
REMARK UNBOUND:                -0.484
REMARK SMILES CC=C(C)C=CC=C(C)C
REMARK SMILES IDX 5 1 6 2 3 3 1 4 2 5 4 6 7 7 8 8 9 9 10 10
REMARK H PARENT
REMARK Flexibility Score: inf
ROOT
ATOM      1  C   UNL     1       9.201   5.547  27.937  1.00  0.00     0.003 C 
ATOM      2  C   UNL     1      10.020   5.638  26.879  1.00  0.00     0.000 C 
ENDROOT
BRANCH   1   3
ATOM      3  C   UNL     1       9.636   5.325  29.335  1.00  0.00    -0.055 C 
ATOM      4  C   UNL     1      10.505   3.802  31.125  1.00  0.00     0.036 C 
ATOM      5  C   UNL     1      10.110   4.124  29.715  1.00  0.00    -0.027 C 
ATOM      6  C   UNL     1       9.362   6.414  30.337  1.00  0.00     0.044 C 
ENDBRANCH   1   3
BRANCH   2   7
ATOM      7  C   UNL     1      11.499   5.653  26.977  1.00  0.00    -0.001 C 
ATOM      8  C   UNL     1      12.243   6.769  26.865  1.00  0.00    -0.076 C 
ATOM      9  C   UNL     1      13.738   6.653  26.998  1.00  0.00     0.039 C 
ATOM     10  C   UNL     1      11.625   8.117  26.599  1.00  0.00     0.039 C 
ENDBRANCH   2   7
TORSDOF 2
ENDMDL
MODEL 8
REMARK VINA RESULT:    -4.339     13.805     15.584
REMARK INTER + INTRA:          -5.331
REMARK INTER:                  -4.783
REMARK INTRA:                  -0.548
REMARK UNBOUND:                -0.484
REMARK SMILES CC=C(C)C=CC=C(C)C
REMARK SMILES IDX 5 1 6 2 3 3 1 4 2 5 4 6 7 7 8 8 9 9 10 10
REMARK H PARENT
REMARK Flexibility Score: inf
ROOT
ATOM      1  C   UNL     1       8.284   8.120  14.060  1.00  0.00     0.003 C 
ATOM      2  C   UNL     1       8.287   7.906  12.735  1.00  0.00     0.000 C 
ENDROOT
BRANCH   1   3
ATOM      3  C   UNL     1       7.071   8.207  14.905  1.00  0.00    -0.055 C 
ATOM      4  C   UNL     1       5.293   7.094  16.276  1.00  0.00     0.036 C 
ATOM      5  C   UNL     1       6.555   7.097  15.467  1.00  0.00    -0.027 C 
ATOM      6  C   UNL     1       6.347   9.524  14.960  1.00  0.00     0.044 C 
ENDBRANCH   1   3
BRANCH   2   7
ATOM      7  C   UNL     1       7.071   7.602  11.944  1.00  0.00    -0.001 C 
ATOM      8  C   UNL     1       6.569   6.363  11.794  1.00  0.00    -0.076 C 
ATOM      9  C   UNL     1       5.319   6.188  10.974  1.00  0.00     0.039 C 
ATOM     10  C   UNL     1       7.229   5.154  12.407  1.00  0.00     0.039 C 
ENDBRANCH   2   7
TORSDOF 2
ENDMDL
MODEL 9
REMARK VINA RESULT:    -4.339      0.981      3.998
REMARK INTER + INTRA:          -5.330
REMARK INTER:                  -4.894
REMARK INTRA:                  -0.436
REMARK UNBOUND:                -0.484
REMARK SMILES CC=C(C)C=CC=C(C)C
REMARK SMILES IDX 5 1 6 2 3 3 1 4 2 5 4 6 7 7 8 8 9 9 10 10
REMARK H PARENT
REMARK Flexibility Score: inf
ROOT
ATOM      1  C   UNL     1      10.251   5.579  26.567  1.00  0.00     0.003 C 
ATOM      2  C   UNL     1       9.627   4.722  27.389  1.00  0.00     0.000 C 
ENDROOT
BRANCH   1   3
ATOM      3  C   UNL     1      11.493   6.318  26.889  1.00  0.00    -0.055 C 
ATOM      4  C   UNL     1      13.950   6.327  27.380  1.00  0.00     0.036 C 
ATOM      5  C   UNL     1      12.665   5.662  26.990  1.00  0.00    -0.027 C 
ATOM      6  C   UNL     1      11.369   7.767  27.276  1.00  0.00     0.044 C 
ENDBRANCH   1   3
BRANCH   2   7
ATOM      7  C   UNL     1      10.166   4.297  28.703  1.00  0.00    -0.001 C 
ATOM      8  C   UNL     1       9.949   4.965  29.851  1.00  0.00    -0.076 C 
ATOM      9  C   UNL     1      10.542   4.421  31.123  1.00  0.00     0.039 C 
ATOM     10  C   UNL     1       9.147   6.240  29.893  1.00  0.00     0.039 C 
ENDBRANCH   2   7
TORSDOF 2
ENDMDL
