MODEL 1
REMARK VINA RESULT:    -3.900      0.000      0.000
REMARK INTER + INTRA:          -3.900
REMARK INTER:                  -3.900
REMARK INTRA:                   0.000
REMARK UNBOUND:                 0.000
REMARK SMILES CC1(C)O[C@]2(C)CC[C@H]1CC2
REMARK SMILES IDX 1 1 2 2 9 3 10 4 11 5 5 6 4 7 7 8 8 9 6 10 3 11
REMARK H PARENT
REMARK Flexibility Score: inf
ROOT
ATOM      1  C   UNL     1      -5.594  83.137  -9.673  1.00  0.00     0.042 C 
ATOM      2  C   UNL     1      -4.270  82.985  -8.893  1.00  0.00     0.066 C 
ATOM      3  C   UNL     1      -4.542  82.484  -7.423  1.00  0.00     0.021 C 
ATOM      4  C   UNL     1      -3.189  82.400  -6.676  1.00  0.00     0.009 C 
ATOM      5  C   UNL     1      -2.439  83.744  -6.829  1.00  0.00     0.035 C 
ATOM      6  C   UNL     1      -3.330  84.760  -7.600  1.00  0.00     0.066 C 
ATOM      7  O   UNL     1      -3.595  84.252  -8.909  1.00  0.00    -0.369 OA
ATOM      8  C   UNL     1      -4.674  84.934  -6.837  1.00  0.00     0.035 C 
ATOM      9  C   UNL     1      -5.373  83.561  -6.685  1.00  0.00     0.009 C 
ATOM     10  C   UNL     1      -2.613  86.108  -7.730  1.00  0.00     0.042 C 
ATOM     11  C   UNL     1      -3.399  81.969  -9.664  1.00  0.00     0.042 C 
ENDROOT
TORSDOF 0
ENDMDL
MODEL 2
REMARK VINA RESULT:    -3.876      1.022      2.118
REMARK INTER + INTRA:          -3.876
REMARK INTER:                  -3.876
REMARK INTRA:                   0.000
REMARK UNBOUND:                 0.000
REMARK SMILES CC1(C)O[C@]2(C)CC[C@H]1CC2
REMARK SMILES IDX 1 1 2 2 9 3 10 4 11 5 5 6 4 7 7 8 8 9 6 10 3 11
REMARK H PARENT
REMARK Flexibility Score: inf
ROOT
ATOM      1  C   UNL     1      -3.396  82.034  -9.693  1.00  0.00     0.042 C 
ATOM      2  C   UNL     1      -3.911  82.695  -8.396  1.00  0.00     0.066 C 
ATOM      3  C   UNL     1      -5.438  83.065  -8.527  1.00  0.00     0.021 C 
ATOM      4  C   UNL     1      -5.885  83.768  -7.222  1.00  0.00     0.009 C 
ATOM      5  C   UNL     1      -4.909  84.927  -6.909  1.00  0.00     0.035 C 
ATOM      6  C   UNL     1      -3.862  85.058  -8.051  1.00  0.00     0.066 C 
ATOM      7  O   UNL     1      -3.103  83.851  -8.132  1.00  0.00    -0.369 OA
ATOM      8  C   UNL     1      -4.609  85.283  -9.398  1.00  0.00     0.035 C 
ATOM      9  C   UNL     1      -5.592  84.115  -9.654  1.00  0.00     0.009 C 
ATOM     10  C   UNL     1      -2.908  86.224  -7.770  1.00  0.00     0.042 C 
ATOM     11  C   UNL     1      -3.692  81.684  -7.248  1.00  0.00     0.042 C 
ENDROOT
TORSDOF 0
ENDMDL
MODEL 3
REMARK VINA RESULT:    -3.689      1.425      3.314
REMARK INTER + INTRA:          -3.689
REMARK INTER:                  -3.689
REMARK INTRA:                   0.000
REMARK UNBOUND:                 0.000
REMARK SMILES CC1(C)O[C@]2(C)CC[C@H]1CC2
REMARK SMILES IDX 1 1 2 2 9 3 10 4 11 5 5 6 4 7 7 8 8 9 6 10 3 11
REMARK H PARENT
REMARK Flexibility Score: inf
ROOT
ATOM      1  C   UNL     1      -4.419  84.113  -5.964  1.00  0.00     0.042 C 
ATOM      2  C   UNL     1      -4.432  83.161  -7.179  1.00  0.00     0.066 C 
ATOM      3  C   UNL     1      -3.351  83.596  -8.241  1.00  0.00     0.021 C 
ATOM      4  C   UNL     1      -3.445  82.640  -9.456  1.00  0.00     0.009 C 
ATOM      5  C   UNL     1      -4.913  82.575  -9.939  1.00  0.00     0.035 C 
ATOM      6  C   UNL     1      -5.786  83.557  -9.107  1.00  0.00     0.066 C 
ATOM      7  O   UNL     1      -5.756  83.164  -7.734  1.00  0.00    -0.369 OA
ATOM      8  C   UNL     1      -5.199  84.992  -9.240  1.00  0.00     0.035 C 
ATOM      9  C   UNL     1      -3.724  85.001  -8.772  1.00  0.00     0.009 C 
ATOM     10  C   UNL     1      -7.238  83.528  -9.597  1.00  0.00     0.042 C 
ATOM     11  C   UNL     1      -4.137  81.739  -6.651  1.00  0.00     0.042 C 
ENDROOT
TORSDOF 0
ENDMDL
MODEL 4
REMARK VINA RESULT:    -3.638      0.980      3.283
REMARK INTER + INTRA:          -3.638
REMARK INTER:                  -3.638
REMARK INTRA:                   0.000
REMARK UNBOUND:                 0.000
REMARK SMILES CC1(C)O[C@]2(C)CC[C@H]1CC2
REMARK SMILES IDX 1 1 2 2 9 3 10 4 11 5 5 6 4 7 7 8 8 9 6 10 3 11
REMARK H PARENT
REMARK Flexibility Score: inf
ROOT
ATOM      1  C   UNL     1      -2.780  85.275  -6.774  1.00  0.00     0.042 C 
ATOM      2  C   UNL     1      -3.933  84.931  -7.742  1.00  0.00     0.066 C 
ATOM      3  C   UNL     1      -5.126  84.251  -6.968  1.00  0.00     0.021 C 
ATOM      4  C   UNL     1      -6.227  83.883  -7.992  1.00  0.00     0.009 C 
ATOM      5  C   UNL     1      -5.595  83.077  -9.151  1.00  0.00     0.035 C 
ATOM      6  C   UNL     1      -4.088  82.826  -8.859  1.00  0.00     0.066 C 
ATOM      7  O   UNL     1      -3.411  84.081  -8.773  1.00  0.00    -0.369 OA
ATOM      8  C   UNL     1      -3.955  82.080  -7.500  1.00  0.00     0.035 C 
ATOM      9  C   UNL     1      -4.626  82.910  -6.378  1.00  0.00     0.009 C 
ATOM     10  C   UNL     1      -3.456  82.000  -9.984  1.00  0.00     0.042 C 
ATOM     11  C   UNL     1      -4.391  86.254  -8.396  1.00  0.00     0.042 C 
ENDROOT
TORSDOF 0
ENDMDL
MODEL 5
REMARK VINA RESULT:    -3.605      9.988     11.398
REMARK INTER + INTRA:          -3.605
REMARK INTER:                  -3.605
REMARK INTRA:                   0.000
REMARK UNBOUND:                 0.000
REMARK SMILES CC1(C)O[C@]2(C)CC[C@H]1CC2
REMARK SMILES IDX 1 1 2 2 9 3 10 4 11 5 5 6 4 7 7 8 8 9 6 10 3 11
REMARK H PARENT
REMARK Flexibility Score: inf
ROOT
ATOM      1  C   UNL     1      -3.252  91.014 -17.517  1.00  0.00     0.042 C 
ATOM      2  C   UNL     1      -4.682  91.317 -17.018  1.00  0.00     0.066 C 
ATOM      3  C   UNL     1      -4.674  92.519 -15.998  1.00  0.00     0.021 C 
ATOM      4  C   UNL     1      -6.120  92.743 -15.494  1.00  0.00     0.009 C 
ATOM      5  C   UNL     1      -6.696  91.400 -14.987  1.00  0.00     0.035 C 
ATOM      6  C   UNL     1      -5.605  90.294 -15.067  1.00  0.00     0.066 C 
ATOM      7  O   UNL     1      -5.211  90.120 -16.429  1.00  0.00    -0.369 OA
ATOM      8  C   UNL     1      -4.370  90.742 -14.232  1.00  0.00     0.035 C 
ATOM      9  C   UNL     1      -3.848  92.101 -14.758  1.00  0.00     0.009 C 
ATOM     10  C   UNL     1      -6.152  88.964 -14.537  1.00  0.00     0.042 C 
ATOM     11  C   UNL     1      -5.537  91.660 -18.258  1.00  0.00     0.042 C 
ENDROOT
TORSDOF 0
ENDMDL
MODEL 6
REMARK VINA RESULT:    -3.549     10.375     11.789
REMARK INTER + INTRA:          -3.549
REMARK INTER:                  -3.549
REMARK INTRA:                   0.000
REMARK UNBOUND:                 0.000
REMARK SMILES CC1(C)O[C@]2(C)CC[C@H]1CC2
REMARK SMILES IDX 1 1 2 2 9 3 10 4 11 5 5 6 4 7 7 8 8 9 6 10 3 11
REMARK H PARENT
REMARK Flexibility Score: inf
ROOT
ATOM      1  C   UNL     1      -4.104  92.415 -13.298  1.00  0.00     0.042 C 
ATOM      2  C   UNL     1      -4.957  91.932 -14.491  1.00  0.00     0.066 C 
ATOM      3  C   UNL     1      -4.305  90.665 -15.166  1.00  0.00     0.021 C 
ATOM      4  C   UNL     1      -5.173  90.257 -16.382  1.00  0.00     0.009 C 
ATOM      5  C   UNL     1      -5.396  91.494 -17.284  1.00  0.00     0.035 C 
ATOM      6  C   UNL     1      -4.603  92.708 -16.722  1.00  0.00     0.066 C 
ATOM      7  O   UNL     1      -5.089  93.021 -15.415  1.00  0.00    -0.369 OA
ATOM      8  C   UNL     1      -3.097  92.328 -16.629  1.00  0.00     0.035 C 
ATOM      9  C   UNL     1      -2.927  91.072 -15.741  1.00  0.00     0.009 C 
ATOM     10  C   UNL     1      -4.789  93.932 -17.625  1.00  0.00     0.042 C 
ATOM     11  C   UNL     1      -6.362  91.596 -13.942  1.00  0.00     0.042 C 
ENDROOT
TORSDOF 0
ENDMDL
MODEL 7
REMARK VINA RESULT:    -3.531      1.556      3.339
REMARK INTER + INTRA:          -3.531
REMARK INTER:                  -3.531
REMARK INTRA:                   0.000
REMARK UNBOUND:                 0.000
REMARK SMILES CC1(C)O[C@]2(C)CC[C@H]1CC2
REMARK SMILES IDX 1 1 2 2 9 3 10 4 11 5 5 6 4 7 7 8 8 9 6 10 3 11
REMARK H PARENT
REMARK Flexibility Score: inf
ROOT
ATOM      1  C   UNL     1      -7.335  83.160  -7.444  1.00  0.00     0.042 C 
ATOM      2  C   UNL     1      -5.957  83.855  -7.466  1.00  0.00     0.066 C 
ATOM      3  C   UNL     1      -5.841  84.826  -8.703  1.00  0.00     0.021 C 
ATOM      4  C   UNL     1      -4.426  85.453  -8.703  1.00  0.00     0.009 C 
ATOM      5  C   UNL     1      -3.371  84.327  -8.596  1.00  0.00     0.035 C 
ATOM      6  C   UNL     1      -4.075  82.940  -8.617  1.00  0.00     0.066 C 
ATOM      7  O   UNL     1      -4.945  82.839  -7.488  1.00  0.00    -0.369 OA
ATOM      8  C   UNL     1      -4.915  82.820  -9.921  1.00  0.00     0.035 C 
ATOM      9  C   UNL     1      -5.935  83.982  -9.997  1.00  0.00     0.009 C 
ATOM     10  C   UNL     1      -3.039  81.814  -8.545  1.00  0.00     0.042 C 
ATOM     11  C   UNL     1      -5.819  84.640  -6.142  1.00  0.00     0.042 C 
ENDROOT
TORSDOF 0
ENDMDL
MODEL 8
REMARK VINA RESULT:    -3.518      1.574      3.081
REMARK INTER + INTRA:          -3.518
REMARK INTER:                  -3.518
REMARK INTRA:                   0.000
REMARK UNBOUND:                 0.000
REMARK SMILES CC1(C)O[C@]2(C)CC[C@H]1CC2
REMARK SMILES IDX 1 1 2 2 9 3 10 4 11 5 5 6 4 7 7 8 8 9 6 10 3 11
REMARK H PARENT
REMARK Flexibility Score: inf
ROOT
ATOM      1  C   UNL     1      -5.906  86.044 -10.378  1.00  0.00     0.042 C 
ATOM      2  C   UNL     1      -6.061  84.814  -9.456  1.00  0.00     0.066 C 
ATOM      3  C   UNL     1      -5.746  85.196  -7.959  1.00  0.00     0.021 C 
ATOM      4  C   UNL     1      -5.866  83.919  -7.093  1.00  0.00     0.009 C 
ATOM      5  C   UNL     1      -5.010  82.795  -7.722  1.00  0.00     0.035 C 
ATOM      6  C   UNL     1      -4.244  83.345  -8.959  1.00  0.00     0.066 C 
ATOM      7  O   UNL     1      -5.188  83.783  -9.939  1.00  0.00    -0.369 OA
ATOM      8  C   UNL     1      -3.371  84.554  -8.516  1.00  0.00     0.035 C 
ATOM      9  C   UNL     1      -4.266  85.638  -7.868  1.00  0.00     0.009 C 
ATOM     10  C   UNL     1      -3.366  82.250  -9.574  1.00  0.00     0.042 C 
ATOM     11  C   UNL     1      -7.516  84.316  -9.598  1.00  0.00     0.042 C 
ENDROOT
TORSDOF 0
ENDMDL
MODEL 9
REMARK VINA RESULT:    -3.473      1.265      3.063
REMARK INTER + INTRA:          -3.473
REMARK INTER:                  -3.473
REMARK INTRA:                   0.000
REMARK UNBOUND:                 0.000
REMARK SMILES CC1(C)O[C@]2(C)CC[C@H]1CC2
REMARK SMILES IDX 1 1 2 2 9 3 10 4 11 5 5 6 4 7 7 8 8 9 6 10 3 11
REMARK H PARENT
REMARK Flexibility Score: inf
ROOT
ATOM      1  C   UNL     1      -3.974  86.023  -8.463  1.00  0.00     0.042 C 
ATOM      2  C   UNL     1      -3.641  84.688  -7.763  1.00  0.00     0.066 C 
ATOM      3  C   UNL     1      -3.441  83.537  -8.823  1.00  0.00     0.021 C 
ATOM      4  C   UNL     1      -3.161  82.217  -8.065  1.00  0.00     0.009 C 
ATOM      5  C   UNL     1      -4.260  82.000  -6.998  1.00  0.00     0.035 C 
ATOM      6  C   UNL     1      -5.326  83.128  -7.102  1.00  0.00     0.066 C 
ATOM      7  O   UNL     1      -4.702  84.388  -6.845  1.00  0.00    -0.369 OA
ATOM      8  C   UNL     1      -5.915  83.135  -8.542  1.00  0.00     0.035 C 
ATOM      9  C   UNL     1      -4.777  83.326  -9.574  1.00  0.00     0.009 C 
ATOM     10  C   UNL     1      -6.438  82.909  -6.072  1.00  0.00     0.042 C 
ATOM     11  C   UNL     1      -2.349  84.908  -6.946  1.00  0.00     0.042 C 
ENDROOT
TORSDOF 0
ENDMDL
