MODEL 1
REMARK VINA RESULT:    -4.822      0.000      0.000
REMARK INTER + INTRA:          -9.745
REMARK INTER:                  -7.359
REMARK INTRA:                  -2.386
REMARK UNBOUND:                -2.386
REMARK SMILES CC(=O)CCC=C(C)CCC=C(C)CCC=C(C)C
REMARK SMILES IDX 10 1 11 2 12 3 13 4 14 5 15 6 16 7 18 8 17 9 19 10 9 11 7 12
REMARK SMILES IDX 6 13 8 14 5 15 4 16 2 17 3 18 1 19
REMARK H PARENT
REMARK Flexibility Score: inf
ROOT
ATOM      1  C   UNL     1      21.645  22.919   8.858  1.00  0.00     0.032 C 
ENDROOT
BRANCH   1   2
ATOM      2  C   UNL     1      20.992  21.772   8.124  1.00  0.00    -0.028 C 
ATOM      3  C   UNL     1      20.675  20.583   8.686  1.00  0.00    -0.077 C 
ATOM      4  C   UNL     1      21.017  20.264  10.122  1.00  0.00     0.039 C 
BRANCH   3   5
ATOM      5  C   UNL     1      19.966  19.538   7.848  1.00  0.00     0.034 C 
BRANCH   5   6
ATOM      6  C   UNL     1      20.484  18.122   8.133  1.00  0.00     0.032 C 
BRANCH   6   7
ATOM      7  C   UNL     1      19.396  17.223   8.672  1.00  0.00    -0.028 C 
ATOM      8  C   UNL     1      20.657  16.655  10.760  1.00  0.00     0.039 C 
ATOM      9  C   UNL     1      19.470  16.537   9.834  1.00  0.00    -0.080 C 
ATOM     10  C   UNL     1      18.316  15.645  10.215  1.00  0.00     0.039 C 
ENDBRANCH   6   7
ENDBRANCH   5   6
ENDBRANCH   3   5
ENDBRANCH   1   2
BRANCH   1  11
ATOM     11  C   UNL     1      20.628  24.004   9.240  1.00  0.00     0.034 C 
BRANCH  11  12
ATOM     12  C   UNL     1      19.946  23.699  10.563  1.00  0.00    -0.077 C 
ATOM     13  C   UNL     1      18.691  23.198  10.646  1.00  0.00    -0.028 C 
ATOM     14  C   UNL     1      20.709  23.922  11.843  1.00  0.00     0.039 C 
BRANCH  13  15
ATOM     15  C   UNL     1      17.779  22.961   9.468  1.00  0.00     0.035 C 
BRANCH  15  16
ATOM     16  C   UNL     1      16.578  22.102   9.876  1.00  0.00     0.079 C 
BRANCH  16  17
ATOM     17  C   UNL     1      16.842  20.653   9.573  1.00  0.00     0.130 C 
ATOM     18  O   UNL     1      16.602  20.218   8.457  1.00  0.00    -0.300 OA
ATOM     19  C   UNL     1      17.379  19.725  10.624  1.00  0.00     0.087 C 
ENDBRANCH  16  17
ENDBRANCH  15  16
ENDBRANCH  13  15
ENDBRANCH  11  12
ENDBRANCH   1  11
TORSDOF 9
ENDMDL
MODEL 2
REMARK VINA RESULT:    -4.674      2.052      5.805
REMARK INTER + INTRA:          -9.520
REMARK INTER:                  -7.978
REMARK INTRA:                  -1.542
REMARK UNBOUND:                -2.386
REMARK SMILES CC(=O)CCC=C(C)CCC=C(C)CCC=C(C)C
REMARK SMILES IDX 10 1 11 2 12 3 13 4 14 5 15 6 16 7 18 8 17 9 19 10 9 11 7 12
REMARK SMILES IDX 6 13 8 14 5 15 4 16 2 17 3 18 1 19
REMARK H PARENT
REMARK Flexibility Score: inf
ROOT
ATOM      1  C   UNL     1      20.959  20.071   7.763  1.00  0.00     0.032 C 
ENDROOT
BRANCH   1   2
ATOM      2  C   UNL     1      21.090  20.918   9.006  1.00  0.00    -0.028 C 
ATOM      3  C   UNL     1      21.149  22.270   9.011  1.00  0.00    -0.077 C 
ATOM      4  C   UNL     1      21.157  23.072   7.731  1.00  0.00     0.039 C 
BRANCH   3   5
ATOM      5  C   UNL     1      21.221  22.999  10.337  1.00  0.00     0.034 C 
BRANCH   5   6
ATOM      6  C   UNL     1      19.901  23.703  10.681  1.00  0.00     0.032 C 
BRANCH   6   7
ATOM      7  C   UNL     1      18.710  22.795  10.478  1.00  0.00    -0.028 C 
ATOM      8  C   UNL     1      17.539  24.387   8.939  1.00  0.00     0.039 C 
ATOM      9  C   UNL     1      17.632  23.099   9.722  1.00  0.00    -0.080 C 
ATOM     10  C   UNL     1      16.502  22.104   9.653  1.00  0.00     0.039 C 
ENDBRANCH   6   7
ENDBRANCH   5   6
ENDBRANCH   3   5
ENDBRANCH   1   2
BRANCH   1  11
ATOM     11  C   UNL     1      20.629  18.610   8.100  1.00  0.00     0.034 C 
BRANCH  11  12
ATOM     12  C   UNL     1      19.306  18.485   8.839  1.00  0.00    -0.077 C 
ATOM     13  C   UNL     1      19.217  18.076  10.126  1.00  0.00    -0.028 C 
ATOM     14  C   UNL     1      18.037  18.874   8.126  1.00  0.00     0.039 C 
BRANCH  13  15
ATOM     15  C   UNL     1      20.382  17.610  10.964  1.00  0.00     0.035 C 
BRANCH  15  16
ATOM     16  C   UNL     1      20.612  16.106  10.785  1.00  0.00     0.079 C 
BRANCH  16  17
ATOM     17  C   UNL     1      19.878  15.334  11.847  1.00  0.00     0.130 C 
ATOM     18  O   UNL     1      19.924  15.714  13.007  1.00  0.00    -0.300 OA
ATOM     19  C   UNL     1      19.105  14.093  11.509  1.00  0.00     0.087 C 
ENDBRANCH  16  17
ENDBRANCH  15  16
ENDBRANCH  13  15
ENDBRANCH  11  12
ENDBRANCH   1  11
TORSDOF 9
ENDMDL
MODEL 3
REMARK VINA RESULT:    -4.631      4.161      7.472
REMARK INTER + INTRA:          -9.453
REMARK INTER:                  -7.262
REMARK INTRA:                  -2.191
REMARK UNBOUND:                -2.386
REMARK SMILES CC(=O)CCC=C(C)CCC=C(C)CCC=C(C)C
REMARK SMILES IDX 10 1 11 2 12 3 13 4 14 5 15 6 16 7 18 8 17 9 19 10 9 11 7 12
REMARK SMILES IDX 6 13 8 14 5 15 4 16 2 17 3 18 1 19
REMARK H PARENT
REMARK Flexibility Score: inf
ROOT
ATOM      1  C   UNL     1      17.216  16.296   9.712  1.00  0.00     0.032 C 
ENDROOT
BRANCH   1   2
ATOM      2  C   UNL     1      16.823  16.337  11.170  1.00  0.00    -0.028 C 
ATOM      3  C   UNL     1      16.956  17.421  11.969  1.00  0.00    -0.077 C 
ATOM      4  C   UNL     1      17.590  18.701  11.478  1.00  0.00     0.039 C 
BRANCH   3   5
ATOM      5  C   UNL     1      16.465  17.344  13.401  1.00  0.00     0.034 C 
BRANCH   5   6
ATOM      6  C   UNL     1      17.187  18.345  14.313  1.00  0.00     0.032 C 
BRANCH   6   7
ATOM      7  C   UNL     1      17.305  17.833  15.729  1.00  0.00    -0.028 C 
ATOM      8  C   UNL     1      17.714  20.104  16.703  1.00  0.00     0.039 C 
ATOM      9  C   UNL     1      17.568  18.604  16.807  1.00  0.00    -0.080 C 
ATOM     10  C   UNL     1      17.700  17.936  18.152  1.00  0.00     0.039 C 
ENDBRANCH   6   7
ENDBRANCH   5   6
ENDBRANCH   3   5
ENDBRANCH   1   2
BRANCH   1  11
ATOM     11  C   UNL     1      18.497  15.479   9.490  1.00  0.00     0.034 C 
BRANCH  11  12
ATOM     12  C   UNL     1      19.746  16.303   9.752  1.00  0.00    -0.077 C 
ATOM     13  C   UNL     1      20.636  16.003  10.728  1.00  0.00    -0.028 C 
ATOM     14  C   UNL     1      20.037  17.484   8.862  1.00  0.00     0.039 C 
BRANCH  13  15
ATOM     15  C   UNL     1      20.472  14.887  11.729  1.00  0.00     0.035 C 
BRANCH  15  16
ATOM     16  C   UNL     1      19.889  15.418  13.042  1.00  0.00     0.079 C 
BRANCH  16  17
ATOM     17  C   UNL     1      18.910  14.432  13.619  1.00  0.00     0.130 C 
ATOM     18  O   UNL     1      18.396  13.597  12.889  1.00  0.00    -0.300 OA
ATOM     19  C   UNL     1      18.539  14.465  15.072  1.00  0.00     0.087 C 
ENDBRANCH  16  17
ENDBRANCH  15  16
ENDBRANCH  13  15
ENDBRANCH  11  12
ENDBRANCH   1  11
TORSDOF 9
ENDMDL
MODEL 4
REMARK VINA RESULT:    -4.613      5.053      7.701
REMARK INTER + INTRA:          -9.426
REMARK INTER:                  -6.601
REMARK INTRA:                  -2.825
REMARK UNBOUND:                -2.386
REMARK SMILES CC(=O)CCC=C(C)CCC=C(C)CCC=C(C)C
REMARK SMILES IDX 10 1 11 2 12 3 13 4 14 5 15 6 16 7 18 8 17 9 19 10 9 11 7 12
REMARK SMILES IDX 6 13 8 14 5 15 4 16 2 17 3 18 1 19
REMARK H PARENT
REMARK Flexibility Score: inf
ROOT
ATOM      1  C   UNL     1      17.913  16.484   8.883  1.00  0.00     0.032 C 
ENDROOT
BRANCH   1   2
ATOM      2  C   UNL     1      17.064  16.020  10.042  1.00  0.00    -0.028 C 
ATOM      3  C   UNL     1      16.350  14.871  10.058  1.00  0.00    -0.077 C 
ATOM      4  C   UNL     1      16.283  13.957   8.857  1.00  0.00     0.039 C 
BRANCH   3   5
ATOM      5  C   UNL     1      15.586  14.497  11.312  1.00  0.00     0.034 C 
BRANCH   5   6
ATOM      6  C   UNL     1      15.782  15.524  12.436  1.00  0.00     0.032 C 
BRANCH   6   7
ATOM      7  C   UNL     1      16.529  14.937  13.611  1.00  0.00    -0.028 C 
ATOM      8  C   UNL     1      18.356  16.649  13.528  1.00  0.00     0.039 C 
ATOM      9  C   UNL     1      17.697  15.413  14.095  1.00  0.00    -0.080 C 
ATOM     10  C   UNL     1      18.344  14.690  15.248  1.00  0.00     0.039 C 
ENDBRANCH   6   7
ENDBRANCH   5   6
ENDBRANCH   3   5
ENDBRANCH   1   2
BRANCH   1  11
ATOM     11  C   UNL     1      19.260  15.748   8.833  1.00  0.00     0.034 C 
BRANCH  11  12
ATOM     12  C   UNL     1      20.055  15.936  10.115  1.00  0.00    -0.077 C 
ATOM     13  C   UNL     1      20.413  14.906  10.917  1.00  0.00    -0.028 C 
ATOM     14  C   UNL     1      20.503  17.323  10.495  1.00  0.00     0.039 C 
BRANCH  13  15
ATOM     15  C   UNL     1      20.009  13.468  10.704  1.00  0.00     0.035 C 
BRANCH  15  16
ATOM     16  C   UNL     1      19.009  13.022  11.776  1.00  0.00     0.079 C 
BRANCH  16  17
ATOM     17  C   UNL     1      18.503  11.638  11.478  1.00  0.00     0.130 C 
ATOM     18  O   UNL     1      19.196  10.871  10.826  1.00  0.00    -0.300 OA
ATOM     19  C   UNL     1      17.153  11.186  11.952  1.00  0.00     0.087 C 
ENDBRANCH  16  17
ENDBRANCH  15  16
ENDBRANCH  13  15
ENDBRANCH  11  12
ENDBRANCH   1  11
TORSDOF 9
ENDMDL
MODEL 5
REMARK VINA RESULT:    -4.569      2.975      5.484
REMARK INTER + INTRA:          -9.359
REMARK INTER:                  -7.175
REMARK INTRA:                  -2.184
REMARK UNBOUND:                -2.386
REMARK SMILES CC(=O)CCC=C(C)CCC=C(C)CCC=C(C)C
REMARK SMILES IDX 10 1 11 2 12 3 13 4 14 5 15 6 16 7 18 8 17 9 19 10 9 11 7 12
REMARK SMILES IDX 6 13 8 14 5 15 4 16 2 17 3 18 1 19
REMARK H PARENT
REMARK Flexibility Score: inf
ROOT
ATOM      1  C   UNL     1      20.867  17.508  10.326  1.00  0.00     0.032 C 
ENDROOT
BRANCH   1   2
ATOM      2  C   UNL     1      20.876  19.018  10.281  1.00  0.00    -0.028 C 
ATOM      3  C   UNL     1      20.784  19.752   9.149  1.00  0.00    -0.077 C 
ATOM      4  C   UNL     1      20.731  19.109   7.783  1.00  0.00     0.039 C 
BRANCH   3   5
ATOM      5  C   UNL     1      20.745  21.264   9.253  1.00  0.00     0.034 C 
BRANCH   5   6
ATOM      6  C   UNL     1      19.466  21.762   9.939  1.00  0.00     0.032 C 
BRANCH   6   7
ATOM      7  C   UNL     1      18.223  21.190   9.295  1.00  0.00    -0.028 C 
ATOM      8  C   UNL     1      16.881  21.271  11.408  1.00  0.00     0.039 C 
ATOM      9  C   UNL     1      17.066  20.939   9.946  1.00  0.00    -0.080 C 
ATOM     10  C   UNL     1      15.928  20.325   9.173  1.00  0.00     0.039 C 
ENDBRANCH   6   7
ENDBRANCH   5   6
ENDBRANCH   3   5
ENDBRANCH   1   2
BRANCH   1  11
ATOM     11  C   UNL     1      19.886  16.975  11.379  1.00  0.00     0.034 C 
BRANCH  11  12
ATOM     12  C   UNL     1      18.444  17.303  11.027  1.00  0.00    -0.077 C 
ATOM     13  C   UNL     1      17.541  17.727  11.942  1.00  0.00    -0.028 C 
ATOM     14  C   UNL     1      18.005  17.195   9.590  1.00  0.00     0.039 C 
BRANCH  13  15
ATOM     15  C   UNL     1      17.805  17.845  13.422  1.00  0.00     0.035 C 
BRANCH  15  16
ATOM     16  C   UNL     1      16.671  18.606  14.116  1.00  0.00     0.079 C 
BRANCH  16  17
ATOM     17  C   UNL     1      17.151  19.191  15.416  1.00  0.00     0.130 C 
ATOM     18  O   UNL     1      17.600  18.452  16.280  1.00  0.00    -0.300 OA
ATOM     19  C   UNL     1      17.073  20.667  15.679  1.00  0.00     0.087 C 
ENDBRANCH  16  17
ENDBRANCH  15  16
ENDBRANCH  13  15
ENDBRANCH  11  12
ENDBRANCH   1  11
TORSDOF 9
ENDMDL
MODEL 6
REMARK VINA RESULT:    -4.566      1.535      2.505
REMARK INTER + INTRA:          -9.354
REMARK INTER:                  -7.806
REMARK INTRA:                  -1.549
REMARK UNBOUND:                -2.386
REMARK SMILES CC(=O)CCC=C(C)CCC=C(C)CCC=C(C)C
REMARK SMILES IDX 10 1 11 2 12 3 13 4 14 5 15 6 16 7 18 8 17 9 19 10 9 11 7 12
REMARK SMILES IDX 6 13 8 14 5 15 4 16 2 17 3 18 1 19
REMARK H PARENT
REMARK Flexibility Score: inf
ROOT
ATOM      1  C   UNL     1      20.813  21.603   8.129  1.00  0.00     0.032 C 
ENDROOT
BRANCH   1   2
ATOM      2  C   UNL     1      20.990  20.659   9.294  1.00  0.00    -0.028 C 
ATOM      3  C   UNL     1      20.671  19.345   9.271  1.00  0.00    -0.077 C 
ATOM      4  C   UNL     1      20.027  18.701   8.065  1.00  0.00     0.039 C 
BRANCH   3   5
ATOM      5  C   UNL     1      20.956  18.496  10.494  1.00  0.00     0.034 C 
BRANCH   5   6
ATOM      6  C   UNL     1      19.826  17.497  10.780  1.00  0.00     0.032 C 
BRANCH   6   7
ATOM      7  C   UNL     1      20.356  16.102  11.017  1.00  0.00    -0.028 C 
ATOM      8  C   UNL     1      19.348  15.175   8.920  1.00  0.00     0.039 C 
ATOM      9  C   UNL     1      20.127  15.045  10.208  1.00  0.00    -0.080 C 
ATOM     10  C   UNL     1      20.688  13.703  10.604  1.00  0.00     0.039 C 
ENDBRANCH   6   7
ENDBRANCH   5   6
ENDBRANCH   3   5
ENDBRANCH   1   2
BRANCH   1  11
ATOM     11  C   UNL     1      21.074  23.062   8.532  1.00  0.00     0.034 C 
BRANCH  11  12
ATOM     12  C   UNL     1      20.231  24.032   7.721  1.00  0.00    -0.077 C 
ATOM     13  C   UNL     1      19.069  24.557   8.176  1.00  0.00    -0.028 C 
ATOM     14  C   UNL     1      20.727  24.468   6.366  1.00  0.00     0.039 C 
BRANCH  13  15
ATOM     15  C   UNL     1      18.414  24.193   9.484  1.00  0.00     0.035 C 
BRANCH  15  16
ATOM     16  C   UNL     1      17.143  23.373   9.245  1.00  0.00     0.079 C 
BRANCH  16  17
ATOM     17  C   UNL     1      17.330  21.961   9.728  1.00  0.00     0.130 C 
ATOM     18  O   UNL     1      17.332  21.044   8.920  1.00  0.00    -0.300 OA
ATOM     19  C   UNL     1      17.499  21.655  11.187  1.00  0.00     0.087 C 
ENDBRANCH  16  17
ENDBRANCH  15  16
ENDBRANCH  13  15
ENDBRANCH  11  12
ENDBRANCH   1  11
TORSDOF 9
ENDMDL
MODEL 7
REMARK VINA RESULT:    -4.539      1.422      5.237
REMARK INTER + INTRA:          -9.313
REMARK INTER:                  -6.749
REMARK INTRA:                  -2.564
REMARK UNBOUND:                -2.386
REMARK SMILES CC(=O)CCC=C(C)CCC=C(C)CCC=C(C)C
REMARK SMILES IDX 10 1 11 2 12 3 13 4 14 5 15 6 16 7 18 8 17 9 19 10 9 11 7 12
REMARK SMILES IDX 6 13 8 14 5 15 4 16 2 17 3 18 1 19
REMARK H PARENT
REMARK Flexibility Score: inf
ROOT
ATOM      1  C   UNL     1      18.862  16.705   9.197  1.00  0.00     0.032 C 
ENDROOT
BRANCH   1   2
ATOM      2  C   UNL     1      19.275  17.986   8.510  1.00  0.00    -0.028 C 
ATOM      3  C   UNL     1      20.265  18.801   8.941  1.00  0.00    -0.077 C 
ATOM      4  C   UNL     1      21.020  18.532  10.220  1.00  0.00     0.039 C 
BRANCH   3   5
ATOM      5  C   UNL     1      20.617  20.027   8.121  1.00  0.00     0.034 C 
BRANCH   5   6
ATOM      6  C   UNL     1      20.847  21.263   9.002  1.00  0.00     0.032 C 
BRANCH   6   7
ATOM      7  C   UNL     1      20.137  22.481   8.459  1.00  0.00    -0.028 C 
ATOM      8  C   UNL     1      19.759  23.486  10.722  1.00  0.00     0.039 C 
ATOM      9  C   UNL     1      19.620  23.472   9.218  1.00  0.00    -0.080 C 
ATOM     10  C   UNL     1      18.900  24.602   8.528  1.00  0.00     0.039 C 
ENDBRANCH   6   7
ENDBRANCH   5   6
ENDBRANCH   3   5
ENDBRANCH   1   2
BRANCH   1  11
ATOM     11  C   UNL     1      17.625  16.908  10.083  1.00  0.00     0.034 C 
BRANCH  11  12
ATOM     12  C   UNL     1      18.004  17.208  11.524  1.00  0.00    -0.077 C 
ATOM     13  C   UNL     1      17.548  18.292  12.195  1.00  0.00    -0.028 C 
ATOM     14  C   UNL     1      18.893  16.238  12.258  1.00  0.00     0.039 C 
BRANCH  13  15
ATOM     15  C   UNL     1      16.690  19.378  11.595  1.00  0.00     0.035 C 
BRANCH  15  16
ATOM     16  C   UNL     1      17.556  20.424  10.888  1.00  0.00     0.079 C 
BRANCH  16  17
ATOM     17  C   UNL     1      16.825  20.998   9.705  1.00  0.00     0.130 C 
ATOM     18  O   UNL     1      16.436  22.156   9.743  1.00  0.00    -0.300 OA
ATOM     19  C   UNL     1      16.550  20.169   8.485  1.00  0.00     0.087 C 
ENDBRANCH  16  17
ENDBRANCH  15  16
ENDBRANCH  13  15
ENDBRANCH  11  12
ENDBRANCH   1  11
TORSDOF 9
ENDMDL
MODEL 8
REMARK VINA RESULT:    -4.523      1.575      2.741
REMARK INTER + INTRA:          -9.289
REMARK INTER:                  -7.500
REMARK INTRA:                  -1.790
REMARK UNBOUND:                -2.386
REMARK SMILES CC(=O)CCC=C(C)CCC=C(C)CCC=C(C)C
REMARK SMILES IDX 10 1 11 2 12 3 13 4 14 5 15 6 16 7 18 8 17 9 19 10 9 11 7 12
REMARK SMILES IDX 6 13 8 14 5 15 4 16 2 17 3 18 1 19
REMARK H PARENT
REMARK Flexibility Score: inf
ROOT
ATOM      1  C   UNL     1      20.614  20.284   8.027  1.00  0.00     0.032 C 
ENDROOT
BRANCH   1   2
ATOM      2  C   UNL     1      20.700  18.940   8.711  1.00  0.00    -0.028 C 
ATOM      3  C   UNL     1      19.722  18.006   8.692  1.00  0.00    -0.077 C 
ATOM      4  C   UNL     1      18.392  18.258   8.022  1.00  0.00     0.039 C 
BRANCH   3   5
ATOM      5  C   UNL     1      19.963  16.673   9.372  1.00  0.00     0.034 C 
BRANCH   5   6
ATOM      6  C   UNL     1      20.584  16.841  10.766  1.00  0.00     0.032 C 
BRANCH   6   7
ATOM      7  C   UNL     1      19.582  17.368  11.768  1.00  0.00    -0.028 C 
ATOM      8  C   UNL     1      19.321  15.164  12.928  1.00  0.00     0.039 C 
ATOM      9  C   UNL     1      18.987  16.623  12.725  1.00  0.00    -0.080 C 
ATOM     10  C   UNL     1      17.973  17.285  13.622  1.00  0.00     0.039 C 
ENDBRANCH   6   7
ENDBRANCH   5   6
ENDBRANCH   3   5
ENDBRANCH   1   2
BRANCH   1  11
ATOM     11  C   UNL     1      20.906  21.438   8.997  1.00  0.00     0.034 C 
BRANCH  11  12
ATOM     12  C   UNL     1      20.517  22.784   8.409  1.00  0.00    -0.077 C 
ATOM     13  C   UNL     1      19.510  23.541   8.905  1.00  0.00    -0.028 C 
ATOM     14  C   UNL     1      21.311  23.326   7.249  1.00  0.00     0.039 C 
BRANCH  13  15
ATOM     15  C   UNL     1      18.593  23.126  10.028  1.00  0.00     0.035 C 
BRANCH  15  16
ATOM     16  C   UNL     1      17.203  22.773   9.492  1.00  0.00     0.079 C 
BRANCH  16  17
ATOM     17  C   UNL     1      16.916  21.311   9.697  1.00  0.00     0.130 C 
ATOM     18  O   UNL     1      16.070  20.761   9.008  1.00  0.00    -0.300 OA
ATOM     19  C   UNL     1      17.639  20.518  10.746  1.00  0.00     0.087 C 
ENDBRANCH  16  17
ENDBRANCH  15  16
ENDBRANCH  13  15
ENDBRANCH  11  12
ENDBRANCH   1  11
TORSDOF 9
ENDMDL
MODEL 9
REMARK VINA RESULT:    -4.513      2.075      5.706
REMARK INTER + INTRA:          -9.274
REMARK INTER:                  -7.421
REMARK INTRA:                  -1.853
REMARK UNBOUND:                -2.386
REMARK SMILES CC(=O)CCC=C(C)CCC=C(C)CCC=C(C)C
REMARK SMILES IDX 10 1 11 2 12 3 13 4 14 5 15 6 16 7 18 8 17 9 19 10 9 11 7 12
REMARK SMILES IDX 6 13 8 14 5 15 4 16 2 17 3 18 1 19
REMARK H PARENT
REMARK Flexibility Score: inf
ROOT
ATOM      1  C   UNL     1      20.078  18.637   8.195  1.00  0.00     0.032 C 
ENDROOT
BRANCH   1   2
ATOM      2  C   UNL     1      20.456  20.030   7.750  1.00  0.00    -0.028 C 
ATOM      3  C   UNL     1      20.885  21.009   8.579  1.00  0.00    -0.077 C 
ATOM      4  C   UNL     1      20.962  20.811  10.074  1.00  0.00     0.039 C 
BRANCH   3   5
ATOM      5  C   UNL     1      21.289  22.346   7.991  1.00  0.00     0.034 C 
BRANCH   5   6
ATOM      6  C   UNL     1      20.933  23.516   8.920  1.00  0.00     0.032 C 
BRANCH   6   7
ATOM      7  C   UNL     1      19.586  24.112   8.583  1.00  0.00    -0.028 C 
ATOM      8  C   UNL     1      18.538  23.409  10.746  1.00  0.00     0.039 C 
ATOM      9  C   UNL     1      18.496  24.048   9.378  1.00  0.00    -0.080 C 
ATOM     10  C   UNL     1      17.209  24.655   8.881  1.00  0.00     0.039 C 
ENDBRANCH   6   7
ENDBRANCH   5   6
ENDBRANCH   3   5
ENDBRANCH   1   2
BRANCH   1  11
ATOM     11  C   UNL     1      18.577  18.367   8.012  1.00  0.00     0.034 C 
BRANCH  11  12
ATOM     12  C   UNL     1      17.749  19.006   9.115  1.00  0.00    -0.077 C 
ATOM     13  C   UNL     1      17.521  18.405  10.306  1.00  0.00    -0.028 C 
ATOM     14  C   UNL     1      17.190  20.388   8.896  1.00  0.00     0.039 C 
BRANCH  13  15
ATOM     15  C   UNL     1      17.970  17.011  10.667  1.00  0.00     0.035 C 
BRANCH  15  16
ATOM     16  C   UNL     1      19.227  17.054  11.541  1.00  0.00     0.079 C 
BRANCH  16  17
ATOM     17  C   UNL     1      19.598  15.670  11.997  1.00  0.00     0.130 C 
ATOM     18  O   UNL     1      19.695  14.771  11.174  1.00  0.00    -0.300 OA
ATOM     19  C   UNL     1      19.836  15.367  13.447  1.00  0.00     0.087 C 
ENDBRANCH  16  17
ENDBRANCH  15  16
ENDBRANCH  13  15
ENDBRANCH  11  12
ENDBRANCH   1  11
TORSDOF 9
ENDMDL
