MODEL 1
REMARK VINA RESULT:    -3.558      0.000      0.000
REMARK INTER + INTRA:          -7.598
REMARK INTER:                  -6.053
REMARK INTRA:                  -1.545
REMARK UNBOUND:                -1.545
REMARK SMILES CCCCCCCCCCCCCC(=O)[O-]
REMARK SMILES IDX 8 1 9 2 10 3 11 4 12 5 13 6 14 7 15 8 16 9 7 10 6 11 5 12
REMARK SMILES IDX 4 13 3 14 2 15 1 16
REMARK H PARENT
REMARK Flexibility Score: inf
ROOT
ATOM      1  C   UNL     1     156.159 155.769 166.170  1.00  0.00     0.000 C 
ENDROOT
BRANCH   1   2
ATOM      2  C   UNL     1     156.597 154.312 165.950  1.00  0.00     0.000 C 
BRANCH   2   3
ATOM      3  C   UNL     1     155.564 153.501 165.149  1.00  0.00     0.000 C 
BRANCH   3   4
ATOM      4  C   UNL     1     156.054 152.083 164.799  1.00  0.00     0.000 C 
BRANCH   4   5
ATOM      5  C   UNL     1     157.516 151.998 164.323  1.00  0.00     0.006 C 
BRANCH   5   6
ATOM      6  C   UNL     1     157.666 152.222 162.812  1.00  0.00     0.053 C 
BRANCH   6   7
ATOM      7  C   UNL     1     158.055 153.640 162.533  1.00  0.00     0.041 C 
ATOM      8  O   UNL     1     157.204 154.454 162.089  1.00  0.00    -0.550 OA
ATOM      9  O   UNL     1     159.345 154.074 162.807  1.00  0.00    -0.550 OA
ENDBRANCH   6   7
ENDBRANCH   5   6
ENDBRANCH   4   5
ENDBRANCH   3   4
ENDBRANCH   2   3
ENDBRANCH   1   2
BRANCH   1  10
ATOM     10  C   UNL     1     154.839 156.100 165.451  1.00  0.00     0.000 C 
BRANCH  10  11
ATOM     11  C   UNL     1     153.704 156.471 166.424  1.00  0.00    -0.000 C 
BRANCH  11  12
ATOM     12  C   UNL     1     153.066 155.284 167.171  1.00  0.00    -0.000 C 
BRANCH  12  13
ATOM     13  C   UNL     1     153.431 155.250 168.664  1.00  0.00    -0.000 C 
BRANCH  13  14
ATOM     14  C   UNL     1     154.457 154.156 168.996  1.00  0.00    -0.000 C 
BRANCH  14  15
ATOM     15  C   UNL     1     153.803 152.788 169.251  1.00  0.00    -0.003 C 
ATOM     16  C   UNL     1     154.118 151.812 168.120  1.00  0.00     0.004 C 
ENDBRANCH  14  15
ENDBRANCH  13  14
ENDBRANCH  12  13
ENDBRANCH  11  12
ENDBRANCH  10  11
ENDBRANCH   1  10
TORSDOF 12
ENDMDL
MODEL 2
REMARK VINA RESULT:    -3.384      3.320      5.009
REMARK INTER + INTRA:          -7.303
REMARK INTER:                  -6.452
REMARK INTRA:                  -0.851
REMARK UNBOUND:                -1.545
REMARK SMILES CCCCCCCCCCCCCC(=O)[O-]
REMARK SMILES IDX 8 1 9 2 10 3 11 4 12 5 13 6 14 7 15 8 16 9 7 10 6 11 5 12
REMARK SMILES IDX 4 13 3 14 2 15 1 16
REMARK H PARENT
REMARK Flexibility Score: inf
ROOT
ATOM      1  C   UNL     1     156.221 154.540 163.573  1.00  0.00     0.000 C 
ENDROOT
BRANCH   1   2
ATOM      2  C   UNL     1     157.557 154.158 162.914  1.00  0.00     0.000 C 
BRANCH   2   3
ATOM      3  C   UNL     1     158.498 153.417 163.879  1.00  0.00     0.000 C 
BRANCH   3   4
ATOM      4  C   UNL     1     159.950 153.355 163.371  1.00  0.00     0.000 C 
BRANCH   4   5
ATOM      5  C   UNL     1     161.010 153.100 164.458  1.00  0.00     0.006 C 
BRANCH   5   6
ATOM      6  C   UNL     1     160.398 152.753 165.821  1.00  0.00     0.053 C 
BRANCH   6   7
ATOM      7  C   UNL     1     161.459 152.718 166.875  1.00  0.00     0.041 C 
ATOM      8  O   UNL     1     162.660 152.512 166.558  1.00  0.00    -0.550 OA
ATOM      9  O   UNL     1     161.130 152.961 168.202  1.00  0.00    -0.550 OA
ENDBRANCH   6   7
ENDBRANCH   5   6
ENDBRANCH   4   5
ENDBRANCH   3   4
ENDBRANCH   2   3
ENDBRANCH   1   2
BRANCH   1  10
ATOM     10  C   UNL     1     156.290 154.494 165.110  1.00  0.00     0.000 C 
BRANCH  10  11
ATOM     11  C   UNL     1     155.934 155.840 165.766  1.00  0.00    -0.000 C 
BRANCH  11  12
ATOM     12  C   UNL     1     154.456 156.259 165.644  1.00  0.00    -0.000 C 
BRANCH  12  13
ATOM     13  C   UNL     1     154.276 157.774 165.448  1.00  0.00    -0.000 C 
BRANCH  13  14
ATOM     14  C   UNL     1     153.275 158.109 164.332  1.00  0.00    -0.000 C 
BRANCH  14  15
ATOM     15  C   UNL     1     153.956 158.321 162.970  1.00  0.00    -0.003 C 
ATOM     16  C   UNL     1     153.911 157.047 162.132  1.00  0.00     0.004 C 
ENDBRANCH  14  15
ENDBRANCH  13  14
ENDBRANCH  12  13
ENDBRANCH  11  12
ENDBRANCH  10  11
ENDBRANCH   1  10
TORSDOF 12
ENDMDL
MODEL 3
REMARK VINA RESULT:    -3.372      3.497      4.624
REMARK INTER + INTRA:          -7.282
REMARK INTER:                  -6.302
REMARK INTRA:                  -0.980
REMARK UNBOUND:                -1.545
REMARK SMILES CCCCCCCCCCCCCC(=O)[O-]
REMARK SMILES IDX 8 1 9 2 10 3 11 4 12 5 13 6 14 7 15 8 16 9 7 10 6 11 5 12
REMARK SMILES IDX 4 13 3 14 2 15 1 16
REMARK H PARENT
REMARK Flexibility Score: inf
ROOT
ATOM      1  C   UNL     1     157.710 153.834 164.090  1.00  0.00     0.000 C 
ENDROOT
BRANCH   1   2
ATOM      2  C   UNL     1     159.006 153.533 163.320  1.00  0.00     0.000 C 
BRANCH   2   3
ATOM      3  C   UNL     1     160.016 152.732 164.159  1.00  0.00     0.000 C 
BRANCH   3   4
ATOM      4  C   UNL     1     159.584 152.574 165.629  1.00  0.00     0.000 C 
BRANCH   4   5
ATOM      5  C   UNL     1     160.726 152.676 166.657  1.00  0.00     0.006 C 
BRANCH   5   6
ATOM      6  C   UNL     1     161.983 153.350 166.092  1.00  0.00     0.053 C 
BRANCH   6   7
ATOM      7  C   UNL     1     162.948 153.659 167.192  1.00  0.00     0.041 C 
ATOM      8  O   UNL     1     162.992 154.814 167.690  1.00  0.00    -0.550 OA
ATOM      9  O   UNL     1     163.766 152.658 167.701  1.00  0.00    -0.550 OA
ENDBRANCH   6   7
ENDBRANCH   5   6
ENDBRANCH   4   5
ENDBRANCH   3   4
ENDBRANCH   2   3
ENDBRANCH   1   2
BRANCH   1  10
ATOM     10  C   UNL     1     156.653 154.527 163.213  1.00  0.00     0.000 C 
BRANCH  10  11
ATOM     11  C   UNL     1     155.255 154.543 163.859  1.00  0.00    -0.000 C 
BRANCH  11  12
ATOM     12  C   UNL     1     154.715 155.940 164.219  1.00  0.00    -0.000 C 
BRANCH  12  13
ATOM     13  C   UNL     1     155.107 156.388 165.637  1.00  0.00    -0.000 C 
BRANCH  13  14
ATOM     14  C   UNL     1     154.261 155.709 166.725  1.00  0.00    -0.000 C 
BRANCH  14  15
ATOM     15  C   UNL     1     155.084 154.755 167.606  1.00  0.00    -0.003 C 
ATOM     16  C   UNL     1     156.573 154.866 167.289  1.00  0.00     0.004 C 
ENDBRANCH  14  15
ENDBRANCH  13  14
ENDBRANCH  12  13
ENDBRANCH  11  12
ENDBRANCH  10  11
ENDBRANCH   1  10
TORSDOF 12
ENDMDL
MODEL 4
REMARK VINA RESULT:    -3.352      3.671      5.360
REMARK INTER + INTRA:          -7.248
REMARK INTER:                  -6.506
REMARK INTRA:                  -0.743
REMARK UNBOUND:                -1.545
REMARK SMILES CCCCCCCCCCCCCC(=O)[O-]
REMARK SMILES IDX 8 1 9 2 10 3 11 4 12 5 13 6 14 7 15 8 16 9 7 10 6 11 5 12
REMARK SMILES IDX 4 13 3 14 2 15 1 16
REMARK H PARENT
REMARK Flexibility Score: inf
ROOT
ATOM      1  C   UNL     1     157.871 153.447 163.729  1.00  0.00     0.000 C 
ENDROOT
BRANCH   1   2
ATOM      2  C   UNL     1     159.196 153.787 163.028  1.00  0.00     0.000 C 
BRANCH   2   3
ATOM      3  C   UNL     1     160.407 153.122 163.706  1.00  0.00     0.000 C 
BRANCH   3   4
ATOM      4  C   UNL     1     160.103 152.640 165.137  1.00  0.00     0.000 C 
BRANCH   4   5
ATOM      5  C   UNL     1     161.332 152.519 166.057  1.00  0.00     0.006 C 
BRANCH   5   6
ATOM      6  C   UNL     1     161.027 152.891 167.514  1.00  0.00     0.053 C 
BRANCH   6   7
ATOM      7  C   UNL     1     162.218 152.624 168.380  1.00  0.00     0.041 C 
ATOM      8  O   UNL     1     162.096 151.942 169.431  1.00  0.00    -0.550 OA
ATOM      9  O   UNL     1     163.471 153.088 168.001  1.00  0.00    -0.550 OA
ENDBRANCH   6   7
ENDBRANCH   5   6
ENDBRANCH   4   5
ENDBRANCH   3   4
ENDBRANCH   2   3
ENDBRANCH   1   2
BRANCH   1  10
ATOM     10  C   UNL     1     156.700 154.307 163.220  1.00  0.00     0.000 C 
BRANCH  10  11
ATOM     11  C   UNL     1     155.680 154.644 164.323  1.00  0.00    -0.000 C 
BRANCH  11  12
ATOM     12  C   UNL     1     156.289 155.010 165.691  1.00  0.00    -0.000 C 
BRANCH  12  13
ATOM     13  C   UNL     1     155.341 155.848 166.564  1.00  0.00    -0.000 C 
BRANCH  13  14
ATOM     14  C   UNL     1     154.075 156.284 165.810  1.00  0.00    -0.000 C 
BRANCH  14  15
ATOM     15  C   UNL     1     154.069 157.787 165.485  1.00  0.00    -0.003 C 
ATOM     16  C   UNL     1     153.713 158.028 164.020  1.00  0.00     0.004 C 
ENDBRANCH  14  15
ENDBRANCH  13  14
ENDBRANCH  12  13
ENDBRANCH  11  12
ENDBRANCH  10  11
ENDBRANCH   1  10
TORSDOF 12
ENDMDL
MODEL 5
REMARK VINA RESULT:    -3.331      3.541      6.410
REMARK INTER + INTRA:          -7.213
REMARK INTER:                  -6.310
REMARK INTRA:                  -0.902
REMARK UNBOUND:                -1.545
REMARK SMILES CCCCCCCCCCCCCC(=O)[O-]
REMARK SMILES IDX 8 1 9 2 10 3 11 4 12 5 13 6 14 7 15 8 16 9 7 10 6 11 5 12
REMARK SMILES IDX 4 13 3 14 2 15 1 16
REMARK H PARENT
REMARK Flexibility Score: inf
ROOT
ATOM      1  C   UNL     1     156.513 154.299 165.633  1.00  0.00     0.000 C 
ENDROOT
BRANCH   1   2
ATOM      2  C   UNL     1     156.144 155.597 166.371  1.00  0.00     0.000 C 
BRANCH   2   3
ATOM      3  C   UNL     1     155.073 156.412 165.627  1.00  0.00     0.000 C 
BRANCH   3   4
ATOM      4  C   UNL     1     153.720 156.438 166.362  1.00  0.00     0.000 C 
BRANCH   4   5
ATOM      5  C   UNL     1     153.363 155.143 167.114  1.00  0.00     0.006 C 
BRANCH   5   6
ATOM      6  C   UNL     1     153.127 155.367 168.613  1.00  0.00     0.053 C 
BRANCH   6   7
ATOM      7  C   UNL     1     154.155 154.635 169.417  1.00  0.00     0.041 C 
ATOM      8  O   UNL     1     154.788 153.672 168.910  1.00  0.00    -0.550 OA
ATOM      9  O   UNL     1     154.448 155.046 170.711  1.00  0.00    -0.550 OA
ENDBRANCH   6   7
ENDBRANCH   5   6
ENDBRANCH   4   5
ENDBRANCH   3   4
ENDBRANCH   2   3
ENDBRANCH   1   2
BRANCH   1  10
ATOM     10  C   UNL     1     156.592 154.492 164.109  1.00  0.00     0.000 C 
BRANCH  10  11
ATOM     11  C   UNL     1     157.349 153.355 163.399  1.00  0.00    -0.000 C 
BRANCH  11  12
ATOM     12  C   UNL     1     158.315 152.553 164.291  1.00  0.00    -0.000 C 
BRANCH  12  13
ATOM     13  C   UNL     1     159.775 153.021 164.169  1.00  0.00    -0.000 C 
BRANCH  13  14
ATOM     14  C   UNL     1     160.703 152.332 165.181  1.00  0.00    -0.000 C 
BRANCH  14  15
ATOM     15  C   UNL     1     160.380 152.714 166.635  1.00  0.00    -0.003 C 
ATOM     16  C   UNL     1     161.656 152.992 167.424  1.00  0.00     0.004 C 
ENDBRANCH  14  15
ENDBRANCH  13  14
ENDBRANCH  12  13
ENDBRANCH  11  12
ENDBRANCH  10  11
ENDBRANCH   1  10
TORSDOF 12
ENDMDL
MODEL 6
REMARK VINA RESULT:    -3.326      2.143      4.117
REMARK INTER + INTRA:          -7.203
REMARK INTER:                  -6.284
REMARK INTRA:                  -0.919
REMARK UNBOUND:                -1.545
REMARK SMILES CCCCCCCCCCCCCC(=O)[O-]
REMARK SMILES IDX 8 1 9 2 10 3 11 4 12 5 13 6 14 7 15 8 16 9 7 10 6 11 5 12
REMARK SMILES IDX 4 13 3 14 2 15 1 16
REMARK H PARENT
REMARK Flexibility Score: inf
ROOT
ATOM      1  C   UNL     1     155.895 155.755 166.415  1.00  0.00     0.000 C 
ENDROOT
BRANCH   1   2
ATOM      2  C   UNL     1     156.487 154.342 166.282  1.00  0.00     0.000 C 
BRANCH   2   3
ATOM      3  C   UNL     1     155.552 153.383 165.525  1.00  0.00     0.000 C 
BRANCH   3   4
ATOM      4  C   UNL     1     156.293 152.512 164.493  1.00  0.00     0.000 C 
BRANCH   4   5
ATOM      5  C   UNL     1     156.990 153.292 163.363  1.00  0.00     0.006 C 
BRANCH   5   6
ATOM      6  C   UNL     1     158.257 152.596 162.848  1.00  0.00     0.053 C 
BRANCH   6   7
ATOM      7  C   UNL     1     159.425 152.931 163.720  1.00  0.00     0.041 C 
ATOM      8  O   UNL     1     159.467 152.519 164.909  1.00  0.00    -0.550 OA
ATOM      9  O   UNL     1     160.492 153.657 163.205  1.00  0.00    -0.550 OA
ENDBRANCH   6   7
ENDBRANCH   5   6
ENDBRANCH   4   5
ENDBRANCH   3   4
ENDBRANCH   2   3
ENDBRANCH   1   2
BRANCH   1  10
ATOM     10  C   UNL     1     154.971 156.119 165.240  1.00  0.00     0.000 C 
BRANCH  10  11
ATOM     11  C   UNL     1     153.513 156.352 165.675  1.00  0.00    -0.000 C 
BRANCH  11  12
ATOM     12  C   UNL     1     153.103 157.829 165.831  1.00  0.00    -0.000 C 
BRANCH  12  13
ATOM     13  C   UNL     1     153.776 158.751 164.801  1.00  0.00    -0.000 C 
BRANCH  13  14
ATOM     14  C   UNL     1     153.037 158.769 163.454  1.00  0.00    -0.000 C 
BRANCH  14  15
ATOM     15  C   UNL     1     153.996 158.769 162.252  1.00  0.00    -0.003 C 
ATOM     16  C   UNL     1     154.403 157.347 161.876  1.00  0.00     0.004 C 
ENDBRANCH  14  15
ENDBRANCH  13  14
ENDBRANCH  12  13
ENDBRANCH  11  12
ENDBRANCH  10  11
ENDBRANCH   1  10
TORSDOF 12
ENDMDL
MODEL 7
REMARK VINA RESULT:    -3.304     16.095     17.548
REMARK INTER + INTRA:          -7.166
REMARK INTER:                  -5.013
REMARK INTRA:                  -2.154
REMARK UNBOUND:                -1.545
REMARK SMILES CCCCCCCCCCCCCC(=O)[O-]
REMARK SMILES IDX 8 1 9 2 10 3 11 4 12 5 13 6 14 7 15 8 16 9 7 10 6 11 5 12
REMARK SMILES IDX 4 13 3 14 2 15 1 16
REMARK H PARENT
REMARK Flexibility Score: inf
ROOT
ATOM      1  C   UNL     1     168.025 151.098 179.332  1.00  0.00     0.000 C 
ENDROOT
BRANCH   1   2
ATOM      2  C   UNL     1     167.276 151.033 177.991  1.00  0.00     0.000 C 
BRANCH   2   3
ATOM      3  C   UNL     1     167.958 151.869 176.896  1.00  0.00     0.000 C 
BRANCH   3   4
ATOM      4  C   UNL     1     167.138 153.108 176.489  1.00  0.00     0.000 C 
BRANCH   4   5
ATOM      5  C   UNL     1     165.796 153.272 177.225  1.00  0.00     0.006 C 
BRANCH   5   6
ATOM      6  C   UNL     1     165.553 154.705 177.715  1.00  0.00     0.053 C 
BRANCH   6   7
ATOM      7  C   UNL     1     164.563 155.397 176.833  1.00  0.00     0.041 C 
ATOM      8  O   UNL     1     164.897 155.769 175.677  1.00  0.00    -0.550 OA
ATOM      9  O   UNL     1     163.258 155.589 177.268  1.00  0.00    -0.550 OA
ENDBRANCH   6   7
ENDBRANCH   5   6
ENDBRANCH   4   5
ENDBRANCH   3   4
ENDBRANCH   2   3
ENDBRANCH   1   2
BRANCH   1  10
ATOM     10  C   UNL     1     167.550 152.264 180.215  1.00  0.00     0.000 C 
BRANCH  10  11
ATOM     11  C   UNL     1     168.671 153.269 180.535  1.00  0.00    -0.000 C 
BRANCH  11  12
ATOM     12  C   UNL     1     168.785 154.458 179.561  1.00  0.00    -0.000 C 
BRANCH  12  13
ATOM     13  C   UNL     1     170.089 154.442 178.746  1.00  0.00    -0.000 C 
BRANCH  13  14
ATOM     14  C   UNL     1     169.953 155.173 177.401  1.00  0.00    -0.000 C 
BRANCH  14  15
ATOM     15  C   UNL     1     168.910 156.302 177.444  1.00  0.00    -0.003 C 
ATOM     16  C   UNL     1     168.366 156.597 176.049  1.00  0.00     0.004 C 
ENDBRANCH  14  15
ENDBRANCH  13  14
ENDBRANCH  12  13
ENDBRANCH  11  12
ENDBRANCH  10  11
ENDBRANCH   1  10
TORSDOF 12
ENDMDL
MODEL 8
REMARK VINA RESULT:    -3.251     15.183     16.806
REMARK INTER + INTRA:          -7.077
REMARK INTER:                  -5.481
REMARK INTRA:                  -1.596
REMARK UNBOUND:                -1.545
REMARK SMILES CCCCCCCCCCCCCC(=O)[O-]
REMARK SMILES IDX 8 1 9 2 10 3 11 4 12 5 13 6 14 7 15 8 16 9 7 10 6 11 5 12
REMARK SMILES IDX 4 13 3 14 2 15 1 16
REMARK H PARENT
REMARK Flexibility Score: inf
ROOT
ATOM      1  C   UNL     1     165.703 152.834 177.314  1.00  0.00     0.000 C 
ENDROOT
BRANCH   1   2
ATOM      2  C   UNL     1     166.381 153.949 176.501  1.00  0.00     0.000 C 
BRANCH   2   3
ATOM      3  C   UNL     1     165.925 155.353 176.933  1.00  0.00     0.000 C 
BRANCH   3   4
ATOM      4  C   UNL     1     164.547 155.738 176.363  1.00  0.00     0.000 C 
BRANCH   4   5
ATOM      5  C   UNL     1     163.352 155.436 177.286  1.00  0.00     0.006 C 
BRANCH   5   6
ATOM      6  C   UNL     1     163.157 156.496 178.378  1.00  0.00     0.053 C 
BRANCH   6   7
ATOM      7  C   UNL     1     161.911 157.284 178.121  1.00  0.00     0.041 C 
ATOM      8  O   UNL     1     161.289 157.149 177.035  1.00  0.00    -0.550 OA
ATOM      9  O   UNL     1     161.411 158.132 179.100  1.00  0.00    -0.550 OA
ENDBRANCH   6   7
ENDBRANCH   5   6
ENDBRANCH   4   5
ENDBRANCH   3   4
ENDBRANCH   2   3
ENDBRANCH   1   2
BRANCH   1  10
ATOM     10  C   UNL     1     166.445 151.491 177.202  1.00  0.00     0.000 C 
BRANCH  10  11
ATOM     11  C   UNL     1     167.968 151.631 177.377  1.00  0.00    -0.000 C 
BRANCH  11  12
ATOM     12  C   UNL     1     168.445 151.847 178.826  1.00  0.00    -0.000 C 
BRANCH  12  13
ATOM     13  C   UNL     1     169.242 153.150 179.006  1.00  0.00    -0.000 C 
BRANCH  13  14
ATOM     14  C   UNL     1     168.397 154.278 179.619  1.00  0.00    -0.000 C 
BRANCH  14  15
ATOM     15  C   UNL     1     167.276 153.750 180.530  1.00  0.00    -0.003 C 
ATOM     16  C   UNL     1     166.096 154.717 180.561  1.00  0.00     0.004 C 
ENDBRANCH  14  15
ENDBRANCH  13  14
ENDBRANCH  12  13
ENDBRANCH  11  12
ENDBRANCH  10  11
ENDBRANCH   1  10
TORSDOF 12
ENDMDL
MODEL 9
REMARK VINA RESULT:    -3.241     15.387     17.106
REMARK INTER + INTRA:          -7.059
REMARK INTER:                  -4.928
REMARK INTRA:                  -2.132
REMARK UNBOUND:                -1.545
REMARK SMILES CCCCCCCCCCCCCC(=O)[O-]
REMARK SMILES IDX 8 1 9 2 10 3 11 4 12 5 13 6 14 7 15 8 16 9 7 10 6 11 5 12
REMARK SMILES IDX 4 13 3 14 2 15 1 16
REMARK H PARENT
REMARK Flexibility Score: inf
ROOT
ATOM      1  C   UNL     1     168.142 154.388 179.883  1.00  0.00     0.000 C 
ENDROOT
BRANCH   1   2
ATOM      2  C   UNL     1     166.771 154.294 180.573  1.00  0.00     0.000 C 
BRANCH   2   3
ATOM      3  C   UNL     1     165.705 155.162 179.883  1.00  0.00     0.000 C 
BRANCH   3   4
ATOM      4  C   UNL     1     166.303 156.382 179.156  1.00  0.00     0.000 C 
BRANCH   4   5
ATOM      5  C   UNL     1     165.330 157.123 178.220  1.00  0.00     0.006 C 
BRANCH   5   6
ATOM      6  C   UNL     1     163.858 156.895 178.585  1.00  0.00     0.053 C 
BRANCH   6   7
ATOM      7  C   UNL     1     163.111 156.339 177.414  1.00  0.00     0.041 C 
ATOM      8  O   UNL     1     162.456 157.105 176.659  1.00  0.00    -0.550 OA
ATOM      9  O   UNL     1     163.175 154.982 177.129  1.00  0.00    -0.550 OA
ENDBRANCH   6   7
ENDBRANCH   5   6
ENDBRANCH   4   5
ENDBRANCH   3   4
ENDBRANCH   2   3
ENDBRANCH   1   2
BRANCH   1  10
ATOM     10  C   UNL     1     168.719 153.006 179.532  1.00  0.00     0.000 C 
BRANCH  10  11
ATOM     11  C   UNL     1     167.630 151.967 179.209  1.00  0.00    -0.000 C 
BRANCH  11  12
ATOM     12  C   UNL     1     167.330 151.775 177.710  1.00  0.00    -0.000 C 
BRANCH  12  13
ATOM     13  C   UNL     1     166.057 152.507 177.254  1.00  0.00    -0.000 C 
BRANCH  13  14
ATOM     14  C   UNL     1     166.364 153.814 176.505  1.00  0.00    -0.000 C 
BRANCH  14  15
ATOM     15  C   UNL     1     167.796 153.854 175.948  1.00  0.00    -0.003 C 
ATOM     16  C   UNL     1     168.436 155.219 176.182  1.00  0.00     0.004 C 
ENDBRANCH  14  15
ENDBRANCH  13  14
ENDBRANCH  12  13
ENDBRANCH  11  12
ENDBRANCH  10  11
ENDBRANCH   1  10
TORSDOF 12
ENDMDL
