MODEL 1
REMARK VINA RESULT:    -3.886      0.000      0.000
REMARK INTER + INTRA:          -4.247
REMARK INTER:                  -4.226
REMARK INTRA:                  -0.021
REMARK UNBOUND:                -0.021
REMARK SMILES OCc1ccco1
REMARK SMILES IDX 2 1 3 2 5 3 6 4 4 5 7 6 1 7
REMARK H PARENT 1 8
REMARK Flexibility Score: inf
ROOT
ATOM      1  C   UNL     1      -5.573   2.794  -3.429  1.00  0.00     0.231 C 
ENDROOT
BRANCH   1   2
ATOM      2  C   UNL     1      -5.410   3.775  -4.546  1.00  0.00     0.129 A 
ATOM      3  C   UNL     1      -5.353   5.630  -5.720  1.00  0.00     0.042 A 
ATOM      4  C   UNL     1      -4.908   4.556  -6.465  1.00  0.00     0.195 A 
ATOM      5  C   UNL     1      -5.676   5.127  -4.478  1.00  0.00     0.048 A 
ATOM      6  O   UNL     1      -4.950   3.464  -5.735  1.00  0.00    -0.467 OA
ENDBRANCH   1   2
BRANCH   1   7
ATOM      7  O   UNL     1      -5.489   1.486  -3.923  1.00  0.00    -0.388 OA
ATOM      8  H   UNL     1      -5.222   0.911  -3.159  1.00  0.00     0.211 HD
ENDBRANCH   1   7
TORSDOF 2
ENDMDL
MODEL 2
REMARK VINA RESULT:    -3.791     10.578     11.103
REMARK INTER + INTRA:          -4.145
REMARK INTER:                  -4.124
REMARK INTRA:                  -0.021
REMARK UNBOUND:                -0.021
REMARK SMILES OCc1ccco1
REMARK SMILES IDX 2 1 3 2 5 3 6 4 4 5 7 6 1 7
REMARK H PARENT 1 8
REMARK Flexibility Score: inf
ROOT
ATOM      1  C   UNL     1      -3.754  -7.238  -1.140  1.00  0.00     0.231 C 
ENDROOT
BRANCH   1   2
ATOM      2  C   UNL     1      -3.518  -6.046  -0.270  1.00  0.00     0.129 A 
ATOM      3  C   UNL     1      -3.802  -4.384   1.137  1.00  0.00     0.042 A 
ATOM      4  C   UNL     1      -2.480  -4.490   0.752  1.00  0.00     0.195 A 
ATOM      5  C   UNL     1      -4.474  -5.391   0.479  1.00  0.00     0.048 A 
ATOM      6  O   UNL     1      -2.342  -5.493  -0.085  1.00  0.00    -0.467 OA
ENDBRANCH   1   2
BRANCH   1   7
ATOM      7  O   UNL     1      -2.687  -7.400  -2.034  1.00  0.00    -0.388 OA
ATOM      8  H   UNL     1      -2.443  -6.492  -2.352  1.00  0.00     0.211 HD
ENDBRANCH   1   7
TORSDOF 2
ENDMDL
MODEL 3
REMARK VINA RESULT:    -3.723     17.879     18.780
REMARK INTER + INTRA:          -4.070
REMARK INTER:                  -4.049
REMARK INTRA:                  -0.021
REMARK UNBOUND:                -0.021
REMARK SMILES OCc1ccco1
REMARK SMILES IDX 2 1 3 2 5 3 6 4 4 5 7 6 1 7
REMARK H PARENT 1 8
REMARK Flexibility Score: inf
ROOT
ATOM      1  C   UNL     1       6.837  -4.019 -15.536  1.00  0.00     0.231 C 
ENDROOT
BRANCH   1   2
ATOM      2  C   UNL     1       7.732  -4.936 -14.767  1.00  0.00     0.129 A 
ATOM      3  C   UNL     1       9.488  -6.039 -14.045  1.00  0.00     0.042 A 
ATOM      4  C   UNL     1       8.378  -6.311 -13.271  1.00  0.00     0.195 A 
ATOM      5  C   UNL     1       9.073  -5.148 -15.011  1.00  0.00     0.048 A 
ATOM      6  O   UNL     1       7.347  -5.635 -13.724  1.00  0.00    -0.467 OA
ENDBRANCH   1   2
BRANCH   1   7
ATOM      7  O   UNL     1       5.695  -3.718 -14.782  1.00  0.00    -0.388 OA
ATOM      8  H   UNL     1       5.245  -4.583 -14.591  1.00  0.00     0.211 HD
ENDBRANCH   1   7
TORSDOF 2
ENDMDL
MODEL 4
REMARK VINA RESULT:    -3.701      9.957     10.526
REMARK INTER + INTRA:          -4.047
REMARK INTER:                  -4.025
REMARK INTRA:                  -0.022
REMARK UNBOUND:                -0.021
REMARK SMILES OCc1ccco1
REMARK SMILES IDX 2 1 3 2 5 3 6 4 4 5 7 6 1 7
REMARK H PARENT 1 8
REMARK Flexibility Score: inf
ROOT
ATOM      1  C   UNL     1      -1.472  -2.792   0.967  1.00  0.00     0.231 C 
ENDROOT
BRANCH   1   2
ATOM      2  C   UNL     1      -2.454  -3.902   0.773  1.00  0.00     0.129 A 
ATOM      3  C   UNL     1      -4.302  -5.087   0.729  1.00  0.00     0.042 A 
ATOM      4  C   UNL     1      -3.250  -5.785   0.169  1.00  0.00     0.195 A 
ATOM      5  C   UNL     1      -3.790  -3.869   1.117  1.00  0.00     0.048 A 
ATOM      6  O   UNL     1      -2.162  -5.050   0.206  1.00  0.00    -0.467 OA
ENDBRANCH   1   2
BRANCH   1   7
ATOM      7  O   UNL     1      -0.201  -3.193   0.534  1.00  0.00    -0.388 OA
ATOM      8  H   UNL     1       0.450  -2.565   0.944  1.00  0.00     0.211 HD
ENDBRANCH   1   7
TORSDOF 2
ENDMDL
MODEL 5
REMARK VINA RESULT:    -3.638     17.866     18.629
REMARK INTER + INTRA:          -3.978
REMARK INTER:                  -3.959
REMARK INTRA:                  -0.019
REMARK UNBOUND:                -0.021
REMARK SMILES OCc1ccco1
REMARK SMILES IDX 2 1 3 2 5 3 6 4 4 5 7 6 1 7
REMARK H PARENT 1 8
REMARK Flexibility Score: inf
ROOT
ATOM      1  C   UNL     1       8.444  -6.344 -13.446  1.00  0.00     0.231 C 
ENDROOT
BRANCH   1   2
ATOM      2  C   UNL     1       7.958  -5.373 -14.474  1.00  0.00     0.129 A 
ATOM      3  C   UNL     1       7.753  -4.188 -16.311  1.00  0.00     0.042 A 
ATOM      4  C   UNL     1       6.712  -3.938 -15.439  1.00  0.00     0.195 A 
ATOM      5  C   UNL     1       8.558  -5.118 -15.690  1.00  0.00     0.048 A 
ATOM      6  O   UNL     1       6.860  -4.663 -14.354  1.00  0.00    -0.467 OA
ENDBRANCH   1   2
BRANCH   1   7
ATOM      7  O   UNL     1       8.093  -5.900 -12.164  1.00  0.00    -0.388 OA
ATOM      8  H   UNL     1       7.705  -4.994 -12.273  1.00  0.00     0.211 HD
ENDBRANCH   1   7
TORSDOF 2
ENDMDL
MODEL 6
REMARK VINA RESULT:    -3.580     16.985     17.303
REMARK INTER + INTRA:          -3.915
REMARK INTER:                  -3.898
REMARK INTRA:                  -0.018
REMARK UNBOUND:                -0.021
REMARK SMILES OCc1ccco1
REMARK SMILES IDX 2 1 3 2 5 3 6 4 4 5 7 6 1 7
REMARK H PARENT 1 8
REMARK Flexibility Score: inf
ROOT
ATOM      1  C   UNL     1      10.880   2.480 -11.063  1.00  0.00     0.231 C 
ENDROOT
BRANCH   1   2
ATOM      2  C   UNL     1      11.111   1.840  -9.732  1.00  0.00     0.129 A 
ATOM      3  C   UNL     1      11.675   1.493  -7.639  1.00  0.00     0.042 A 
ATOM      4  C   UNL     1      11.064   0.379  -8.180  1.00  0.00     0.195 A 
ATOM      5  C   UNL     1      11.703   2.439  -8.640  1.00  0.00     0.048 A 
ATOM      6  O   UNL     1      10.736   0.618  -9.429  1.00  0.00    -0.467 OA
ENDBRANCH   1   2
BRANCH   1   7
ATOM      7  O   UNL     1       9.527   2.382 -11.415  1.00  0.00    -0.388 OA
ATOM      8  H   UNL     1       9.135   1.674 -10.841  1.00  0.00     0.211 HD
ENDBRANCH   1   7
TORSDOF 2
ENDMDL
MODEL 7
REMARK VINA RESULT:    -3.577      1.192      2.908
REMARK INTER + INTRA:          -3.911
REMARK INTER:                  -3.897
REMARK INTRA:                  -0.015
REMARK UNBOUND:                -0.021
REMARK SMILES OCc1ccco1
REMARK SMILES IDX 2 1 3 2 5 3 6 4 4 5 7 6 1 7
REMARK H PARENT 1 8
REMARK Flexibility Score: inf
ROOT
ATOM      1  C   UNL     1      -4.825   4.673  -7.074  1.00  0.00     0.231 C 
ENDROOT
BRANCH   1   2
ATOM      2  C   UNL     1      -5.210   4.316  -5.674  1.00  0.00     0.129 A 
ATOM      3  C   UNL     1      -5.969   4.411  -3.616  1.00  0.00     0.042 A 
ATOM      4  C   UNL     1      -5.559   3.132  -3.936  1.00  0.00     0.195 A 
ATOM      5  C   UNL     1      -5.747   5.177  -4.739  1.00  0.00     0.048 A 
ATOM      6  O   UNL     1      -5.114   3.106  -5.171  1.00  0.00    -0.467 OA
ENDBRANCH   1   2
BRANCH   1   7
ATOM      7  O   UNL     1      -5.859   4.337  -7.957  1.00  0.00    -0.388 OA
ATOM      8  H   UNL     1      -6.344   5.179  -8.160  1.00  0.00     0.211 HD
ENDBRANCH   1   7
TORSDOF 2
ENDMDL
MODEL 8
REMARK VINA RESULT:    -3.374     18.218     18.969
REMARK INTER + INTRA:          -3.691
REMARK INTER:                  -3.670
REMARK INTRA:                  -0.021
REMARK UNBOUND:                -0.021
REMARK SMILES OCc1ccco1
REMARK SMILES IDX 2 1 3 2 5 3 6 4 4 5 7 6 1 7
REMARK H PARENT 1 8
REMARK Flexibility Score: inf
ROOT
ATOM      1  C   UNL     1      11.026  -6.722  -4.585  1.00  0.00     0.231 C 
ENDROOT
BRANCH   1   2
ATOM      2  C   UNL     1      10.632  -6.341  -3.194  1.00  0.00     0.129 A 
ATOM      3  C   UNL     1      10.699  -5.742  -1.083  1.00  0.00     0.042 A 
ATOM      4  C   UNL     1       9.397  -5.814  -1.539  1.00  0.00     0.195 A 
ATOM      5  C   UNL     1      11.498  -6.080  -2.152  1.00  0.00     0.048 A 
ATOM      6  O   UNL     1       9.390  -6.170  -2.803  1.00  0.00    -0.467 OA
ENDBRANCH   1   2
BRANCH   1   7
ATOM      7  O   UNL     1       9.890  -7.073  -5.327  1.00  0.00    -0.388 OA
ATOM      8  H   UNL     1       9.263  -6.307  -5.265  1.00  0.00     0.211 HD
ENDBRANCH   1   7
TORSDOF 2
ENDMDL
MODEL 9
REMARK VINA RESULT:    -2.064     17.015     17.273
REMARK INTER + INTRA:          -2.266
REMARK INTER:                  -2.245
REMARK INTRA:                  -0.021
REMARK UNBOUND:                -0.021
REMARK SMILES OCc1ccco1
REMARK SMILES IDX 2 1 3 2 5 3 6 4 4 5 7 6 1 7
REMARK H PARENT 1 8
REMARK Flexibility Score: inf
ROOT
ATOM      1  C   UNL     1      11.412   0.531  -7.848  1.00  0.00     0.231 C 
ENDROOT
BRANCH   1   2
ATOM      2  C   UNL     1      11.374   1.510  -8.978  1.00  0.00     0.129 A 
ATOM      3  C   UNL     1      11.786   3.226 -10.284  1.00  0.00     0.042 A 
ATOM      4  C   UNL     1      10.854   2.380 -10.853  1.00  0.00     0.195 A 
ATOM      5  C   UNL     1      12.125   2.663  -9.073  1.00  0.00     0.048 A 
ATOM      6  O   UNL     1      10.632   1.364 -10.051  1.00  0.00    -0.467 OA
ENDBRANCH   1   2
BRANCH   1   7
ATOM      7  O   UNL     1      10.251  -0.254  -7.852  1.00  0.00    -0.388 OA
ATOM      8  H   UNL     1      10.425  -1.021  -7.248  1.00  0.00     0.211 HD
ENDBRANCH   1   7
TORSDOF 2
ENDMDL
