MODEL 1
REMARK VINA RESULT:    69.278      0.000      0.000
REMARK INTER + INTRA:          91.987
REMARK INTER:                  91.552
REMARK INTRA:                   0.435
REMARK UNBOUND:                 0.435
REMARK SMILES CC[C@@H](C=C[C@H](C)[C@@H]1CC[C@H]2[C@H]3CC[C@H]4C[C@@H](O)CC[C@@]4(C)[C@H]3CC[C@@]21C)C(C)C
REMARK SMILES IDX 6 1 7 2 5 3 4 4 3 5 2 6 1 7 28 8 29 9 30 10 8 11 9 12 26 13
REMARK SMILES IDX 10 14 11 15 25 16 27 17 12 18 24 19 23 20 13 21 21 22 14 23
REMARK SMILES IDX 15 24 20 25 22 26 16 27 19 28 17 29 18 30
REMARK H PARENT 18 31
REMARK Flexibility Score: inf
ROOT
ATOM      1  C   UNL     1     -30.430  25.627   6.684  1.00  0.00     0.012 C 
ATOM      2  C   UNL     1     -30.524  24.208   6.078  1.00  0.00     0.012 C 
ENDROOT
BRANCH   1   3
ATOM      3  C   UNL     1     -29.054  26.176   6.350  1.00  0.00    -0.028 C 
ATOM      4  C   UNL     1     -28.769  27.490   6.394  1.00  0.00    -0.027 C 
BRANCH   4   5
ATOM      5  C   UNL     1     -27.392  28.020   6.041  1.00  0.00     0.014 C 
BRANCH   5   6
ATOM      6  C   UNL     1     -27.445  29.522   5.664  1.00  0.00     0.004 C 
ATOM      7  C   UNL     1     -27.710  30.481   6.827  1.00  0.00     0.004 C 
ENDBRANCH   5   6
BRANCH   5   8
ATOM      8  C   UNL     1     -26.632  27.147   4.984  1.00  0.00    -0.011 C 
ATOM      9  C   UNL     1     -27.264  27.274   3.588  1.00  0.00     0.008 C 
ATOM     10  C   UNL     1     -25.123  27.445   4.892  1.00  0.00     0.008 C 
ENDBRANCH   5   8
ENDBRANCH   4   5
ENDBRANCH   1   3
BRANCH   1  11
ATOM     11  C   UNL     1     -31.587  26.581   6.202  1.00  0.00     0.002 C 
ATOM     12  C   UNL     1     -32.007  27.623   7.293  1.00  0.00     0.005 C 
ATOM     13  C   UNL     1     -32.952  25.908   5.790  1.00  0.00    -0.026 C 
ATOM     14  C   UNL     1     -33.468  27.359   7.671  1.00  0.00     0.005 C 
ATOM     15  C   UNL     1     -33.733  25.979   7.107  1.00  0.00    -0.001 C 
ATOM     16  C   UNL     1     -32.940  24.422   5.347  1.00  0.00     0.007 C 
ATOM     17  C   UNL     1     -33.547  26.785   4.644  1.00  0.00     0.012 C 
ATOM     18  C   UNL     1     -35.179  25.418   7.120  1.00  0.00    -0.004 C 
ATOM     19  C   UNL     1     -34.366  23.839   5.220  1.00  0.00     0.005 C 
ATOM     20  C   UNL     1     -35.224  23.984   6.518  1.00  0.00    -0.001 C 
ATOM     21  C   UNL     1     -36.291  26.290   6.528  1.00  0.00     0.004 C 
ATOM     22  C   UNL     1     -36.705  23.383   6.398  1.00  0.00    -0.026 C 
ATOM     23  C   UNL     1     -37.664  25.772   6.979  1.00  0.00     0.004 C 
ATOM     24  C   UNL     1     -37.729  24.233   7.239  1.00  0.00    -0.002 C 
ATOM     25  C   UNL     1     -37.224  23.319   4.925  1.00  0.00     0.010 C 
ATOM     26  C   UNL     1     -36.640  21.936   6.968  1.00  0.00     0.012 C 
ATOM     27  C   UNL     1     -39.189  23.724   7.117  1.00  0.00     0.036 C 
ATOM     28  C   UNL     1     -38.656  22.772   4.788  1.00  0.00     0.032 C 
ATOM     29  C   UNL     1     -39.680  23.519   5.669  1.00  0.00     0.114 C 
BRANCH  29  30
ATOM     30  O   UNL     1     -40.116  24.733   5.102  1.00  0.00    -0.393 OA
ATOM     31  H   UNL     1     -40.278  24.606   4.131  1.00  0.00     0.210 HD
ENDBRANCH  29  30
ENDBRANCH   1  11
TORSDOF 6
ENDMDL
MODEL 2
REMARK VINA RESULT:    70.669      5.674      7.736
REMARK INTER + INTRA:          93.827
REMARK INTER:                  94.833
REMARK INTRA:                  -1.006
REMARK UNBOUND:                 0.435
REMARK SMILES CC[C@@H](C=C[C@H](C)[C@@H]1CC[C@H]2[C@H]3CC[C@H]4C[C@@H](O)CC[C@@]4(C)[C@H]3CC[C@@]21C)C(C)C
REMARK SMILES IDX 6 1 7 2 5 3 4 4 3 5 2 6 1 7 28 8 29 9 30 10 8 11 9 12 26 13
REMARK SMILES IDX 10 14 11 15 25 16 27 17 12 18 24 19 23 20 13 21 21 22 14 23
REMARK SMILES IDX 15 24 20 25 22 26 16 27 19 28 17 29 18 30
REMARK H PARENT 18 31
REMARK Flexibility Score: inf
ROOT
ATOM      1  C   UNL     1     -36.861  26.785  -0.330  1.00  0.00     0.012 C 
ATOM      2  C   UNL     1     -36.635  25.824  -1.519  1.00  0.00     0.012 C 
ENDROOT
BRANCH   1   3
ATOM      3  C   UNL     1     -36.663  28.201  -0.843  1.00  0.00    -0.028 C 
ATOM      4  C   UNL     1     -35.622  28.551  -1.620  1.00  0.00    -0.027 C 
BRANCH   4   5
ATOM      5  C   UNL     1     -35.434  29.974  -2.109  1.00  0.00     0.014 C 
BRANCH   5   6
ATOM      6  C   UNL     1     -36.218  30.981  -1.230  1.00  0.00     0.004 C 
ATOM      7  C   UNL     1     -35.415  31.631  -0.101  1.00  0.00     0.004 C 
ENDBRANCH   5   6
BRANCH   5   8
ATOM      8  C   UNL     1     -35.704  30.155  -3.642  1.00  0.00    -0.011 C 
ATOM      9  C   UNL     1     -37.172  30.520  -3.917  1.00  0.00     0.008 C 
ATOM     10  C   UNL     1     -34.784  31.186  -4.324  1.00  0.00     0.008 C 
ENDBRANCH   5   8
ENDBRANCH   4   5
ENDBRANCH   1   3
BRANCH   1  11
ATOM     11  C   UNL     1     -38.264  26.592   0.360  1.00  0.00     0.002 C 
ATOM     12  C   UNL     1     -38.829  27.922   0.965  1.00  0.00     0.005 C 
ATOM     13  C   UNL     1     -38.342  25.576   1.563  1.00  0.00    -0.026 C 
ATOM     14  C   UNL     1     -38.953  27.742   2.482  1.00  0.00     0.005 C 
ATOM     15  C   UNL     1     -38.121  26.508   2.759  1.00  0.00    -0.001 C 
ATOM     16  C   UNL     1     -37.275  24.455   1.655  1.00  0.00     0.007 C 
ATOM     17  C   UNL     1     -39.763  24.934   1.505  1.00  0.00     0.012 C 
ATOM     18  C   UNL     1     -38.144  25.881   4.178  1.00  0.00    -0.004 C 
ATOM     19  C   UNL     1     -37.330  23.706   3.006  1.00  0.00     0.005 C 
ATOM     20  C   UNL     1     -37.205  24.641   4.251  1.00  0.00    -0.001 C 
ATOM     21  C   UNL     1     -39.507  25.567   4.800  1.00  0.00     0.004 C 
ATOM     22  C   UNL     1     -37.262  23.874   5.658  1.00  0.00    -0.026 C 
ATOM     23  C   UNL     1     -39.358  25.339   6.312  1.00  0.00     0.004 C 
ATOM     24  C   UNL     1     -37.978  24.752   6.751  1.00  0.00    -0.002 C 
ATOM     25  C   UNL     1     -38.003  22.501   5.579  1.00  0.00     0.010 C 
ATOM     26  C   UNL     1     -35.785  23.622   6.081  1.00  0.00     0.012 C 
ATOM     27  C   UNL     1     -38.106  24.036   8.121  1.00  0.00     0.036 C 
ATOM     28  C   UNL     1     -38.095  21.760   6.925  1.00  0.00     0.032 C 
ATOM     29  C   UNL     1     -38.708  22.618   8.052  1.00  0.00     0.114 C 
BRANCH  29  30
ATOM     30  O   UNL     1     -40.116  22.663   8.009  1.00  0.00    -0.393 OA
ATOM     31  H   UNL     1     -40.428  23.557   8.304  1.00  0.00     0.210 HD
ENDBRANCH  29  30
ENDBRANCH   1  11
TORSDOF 6
ENDMDL
MODEL 3
REMARK VINA RESULT:    70.956      5.359      7.204
REMARK INTER + INTRA:          94.205
REMARK INTER:                  94.130
REMARK INTRA:                   0.075
REMARK UNBOUND:                 0.435
REMARK SMILES CC[C@@H](C=C[C@H](C)[C@@H]1CC[C@H]2[C@H]3CC[C@H]4C[C@@H](O)CC[C@@]4(C)[C@H]3CC[C@@]21C)C(C)C
REMARK SMILES IDX 6 1 7 2 5 3 4 4 3 5 2 6 1 7 28 8 29 9 30 10 8 11 9 12 26 13
REMARK SMILES IDX 10 14 11 15 25 16 27 17 12 18 24 19 23 20 13 21 21 22 14 23
REMARK SMILES IDX 15 24 20 25 22 26 16 27 19 28 17 29 18 30
REMARK H PARENT 18 31
REMARK Flexibility Score: inf
ROOT
ATOM      1  C   UNL     1     -35.939  27.309   0.700  1.00  0.00     0.012 C 
ATOM      2  C   UNL     1     -34.551  26.775   1.120  1.00  0.00     0.012 C 
ENDROOT
BRANCH   1   3
ATOM      3  C   UNL     1     -35.774  28.001  -0.643  1.00  0.00    -0.028 C 
ATOM      4  C   UNL     1     -34.692  28.738  -0.950  1.00  0.00    -0.027 C 
BRANCH   4   5
ATOM      5  C   UNL     1     -34.554  29.433  -2.291  1.00  0.00     0.014 C 
BRANCH   5   6
ATOM      6  C   UNL     1     -33.160  29.178  -2.919  1.00  0.00     0.004 C 
ATOM      7  C   UNL     1     -32.531  27.821  -2.591  1.00  0.00     0.004 C 
ENDBRANCH   5   6
BRANCH   5   8
ATOM      8  C   UNL     1     -34.946  30.950  -2.258  1.00  0.00    -0.011 C 
ATOM      9  C   UNL     1     -35.127  31.518  -3.675  1.00  0.00     0.008 C 
ATOM     10  C   UNL     1     -36.202  31.256  -1.420  1.00  0.00     0.008 C 
ENDBRANCH   5   8
ENDBRANCH   4   5
ENDBRANCH   1   3
BRANCH   1  11
ATOM     11  C   UNL     1     -37.045  26.189   0.662  1.00  0.00     0.002 C 
ATOM     12  C   UNL     1     -38.495  26.773   0.553  1.00  0.00     0.005 C 
ATOM     13  C   UNL     1     -37.130  25.217   1.900  1.00  0.00    -0.026 C 
ATOM     14  C   UNL     1     -39.267  26.372   1.814  1.00  0.00     0.005 C 
ATOM     15  C   UNL     1     -38.179  25.923   2.766  1.00  0.00    -0.001 C 
ATOM     16  C   UNL     1     -35.867  25.026   2.779  1.00  0.00     0.007 C 
ATOM     17  C   UNL     1     -37.586  23.832   1.343  1.00  0.00     0.012 C 
ATOM     18  C   UNL     1     -38.573  25.257   4.111  1.00  0.00    -0.004 C 
ATOM     19  C   UNL     1     -36.173  24.255   4.083  1.00  0.00     0.005 C 
ATOM     20  C   UNL     1     -37.308  24.896   4.943  1.00  0.00    -0.001 C 
ATOM     21  C   UNL     1     -39.548  24.077   4.066  1.00  0.00     0.004 C 
ATOM     22  C   UNL     1     -37.635  24.103   6.298  1.00  0.00    -0.026 C 
ATOM     23  C   UNL     1     -40.123  23.814   5.465  1.00  0.00     0.004 C 
ATOM     24  C   UNL     1     -39.168  24.187   6.645  1.00  0.00    -0.002 C 
ATOM     25  C   UNL     1     -37.234  22.594   6.238  1.00  0.00     0.010 C 
ATOM     26  C   UNL     1     -36.810  24.795   7.422  1.00  0.00     0.012 C 
ATOM     27  C   UNL     1     -39.548  23.392   7.921  1.00  0.00     0.036 C 
ATOM     28  C   UNL     1     -37.565  21.806   7.517  1.00  0.00     0.032 C 
ATOM     29  C   UNL     1     -39.042  21.935   7.948  1.00  0.00     0.114 C 
BRANCH  29  30
ATOM     30  O   UNL     1     -39.904  21.083   7.229  1.00  0.00    -0.393 OA
ATOM     31  H   UNL     1     -40.349  20.457   7.856  1.00  0.00     0.210 HD
ENDBRANCH  29  30
ENDBRANCH   1  11
TORSDOF 6
ENDMDL
