MODEL 1
REMARK VINA RESULT:    -4.625      0.000      0.000
REMARK INTER + INTRA:          -8.082
REMARK INTER:                  -7.058
REMARK INTRA:                  -1.024
REMARK UNBOUND:                -1.024
REMARK SMILES CCCCCCCCCCC(=O)[O-]
REMARK SMILES IDX 7 1 8 2 9 3 10 4 11 5 12 6 13 7 6 8 5 9 4 10 3 11 2 12 1 13
REMARK H PARENT
REMARK Flexibility Score: inf
ROOT
ATOM      1  C   UNL     1      48.821  10.998  -4.414  1.00  0.00     0.000 C 
ENDROOT
BRANCH   1   2
ATOM      2  C   UNL     1      48.147  12.324  -4.787  1.00  0.00     0.000 C 
BRANCH   2   3
ATOM      3  C   UNL     1      46.970  12.094  -5.743  1.00  0.00     0.006 C 
BRANCH   3   4
ATOM      4  C   UNL     1      47.385  12.342  -7.196  1.00  0.00     0.053 C 
BRANCH   4   5
ATOM      5  C   UNL     1      46.240  12.901  -7.980  1.00  0.00     0.041 C 
ATOM      6  O   UNL     1      45.586  13.880  -7.536  1.00  0.00    -0.550 OA
ATOM      7  O   UNL     1      45.926  12.370  -9.225  1.00  0.00    -0.550 OA
ENDBRANCH   4   5
ENDBRANCH   3   4
ENDBRANCH   2   3
ENDBRANCH   1   2
BRANCH   1   8
ATOM      8  C   UNL     1      50.276  10.965  -4.894  1.00  0.00     0.000 C 
BRANCH   8   9
ATOM      9  C   UNL     1      50.399  10.219  -6.228  1.00  0.00    -0.000 C 
BRANCH   9  10
ATOM     10  C   UNL     1      49.377   9.078  -6.317  1.00  0.00    -0.000 C 
BRANCH  10  11
ATOM     11  C   UNL     1      49.273   8.545  -7.753  1.00  0.00    -0.000 C 
BRANCH  11  12
ATOM     12  C   UNL     1      48.003   9.027  -8.472  1.00  0.00    -0.003 C 
ATOM     13  C   UNL     1      46.734   8.361  -7.940  1.00  0.00     0.004 C 
ENDBRANCH  11  12
ENDBRANCH  10  11
ENDBRANCH   9  10
ENDBRANCH   8   9
ENDBRANCH   1   8
TORSDOF 9
ENDMDL
MODEL 2
REMARK VINA RESULT:    -4.615     19.240     20.325
REMARK INTER + INTRA:          -8.066
REMARK INTER:                  -6.913
REMARK INTRA:                  -1.154
REMARK UNBOUND:                -1.024
REMARK SMILES CCCCCCCCCCC(=O)[O-]
REMARK SMILES IDX 7 1 8 2 9 3 10 4 11 5 12 6 13 7 6 8 5 9 4 10 3 11 2 12 1 13
REMARK H PARENT
REMARK Flexibility Score: inf
ROOT
ATOM      1  C   UNL     1      34.745   0.696   3.118  1.00  0.00     0.000 C 
ENDROOT
BRANCH   1   2
ATOM      2  C   UNL     1      34.862   2.053   3.823  1.00  0.00     0.000 C 
BRANCH   2   3
ATOM      3  C   UNL     1      33.886   2.147   5.002  1.00  0.00     0.006 C 
BRANCH   3   4
ATOM      4  C   UNL     1      33.408   3.587   5.207  1.00  0.00     0.053 C 
BRANCH   4   5
ATOM      5  C   UNL     1      33.851   4.102   6.540  1.00  0.00     0.041 C 
ATOM      6  O   UNL     1      34.220   5.298   6.666  1.00  0.00    -0.550 OA
ATOM      7  O   UNL     1      33.809   3.273   7.654  1.00  0.00    -0.550 OA
ENDBRANCH   4   5
ENDBRANCH   3   4
ENDBRANCH   2   3
ENDBRANCH   1   2
BRANCH   1   8
ATOM      8  C   UNL     1      34.661  -0.448   4.135  1.00  0.00     0.000 C 
BRANCH   8   9
ATOM      9  C   UNL     1      36.056  -0.986   4.474  1.00  0.00    -0.000 C 
BRANCH   9  10
ATOM     10  C   UNL     1      36.389  -0.763   5.955  1.00  0.00    -0.000 C 
BRANCH  10  11
ATOM     11  C   UNL     1      37.343   0.428   6.130  1.00  0.00    -0.000 C 
BRANCH  11  12
ATOM     12  C   UNL     1      36.800   1.480   7.109  1.00  0.00    -0.003 C 
ATOM     13  C   UNL     1      37.414   2.863   6.890  1.00  0.00     0.004 C 
ENDBRANCH  11  12
ENDBRANCH  10  11
ENDBRANCH   9  10
ENDBRANCH   8   9
ENDBRANCH   1   8
TORSDOF 9
ENDMDL
MODEL 3
REMARK VINA RESULT:    -4.606      1.270      3.179
REMARK INTER + INTRA:          -8.053
REMARK INTER:                  -6.838
REMARK INTRA:                  -1.215
REMARK UNBOUND:                -1.024
REMARK SMILES CCCCCCCCCCC(=O)[O-]
REMARK SMILES IDX 7 1 8 2 9 3 10 4 11 5 12 6 13 7 6 8 5 9 4 10 3 11 2 12 1 13
REMARK H PARENT
REMARK Flexibility Score: inf
ROOT
ATOM      1  C   UNL     1      48.828   8.952  -7.605  1.00  0.00     0.000 C 
ENDROOT
BRANCH   1   2
ATOM      2  C   UNL     1      47.749   9.611  -8.472  1.00  0.00     0.000 C 
BRANCH   2   3
ATOM      3  C   UNL     1      48.096  11.076  -8.765  1.00  0.00     0.006 C 
BRANCH   3   4
ATOM      4  C   UNL     1      47.199  11.643  -9.869  1.00  0.00     0.053 C 
BRANCH   4   5
ATOM      5  C   UNL     1      45.915  12.150  -9.291  1.00  0.00     0.041 C 
ATOM      6  O   UNL     1      45.927  13.051  -8.413  1.00  0.00    -0.550 OA
ATOM      7  O   UNL     1      44.701  11.661  -9.759  1.00  0.00    -0.550 OA
ENDBRANCH   4   5
ENDBRANCH   3   4
ENDBRANCH   2   3
ENDBRANCH   1   2
BRANCH   1   8
ATOM      8  C   UNL     1      49.994   9.915  -7.351  1.00  0.00     0.000 C 
BRANCH   8   9
ATOM      9  C   UNL     1      50.320  10.002  -5.856  1.00  0.00    -0.000 C 
BRANCH   9  10
ATOM     10  C   UNL     1      50.096  11.424  -5.325  1.00  0.00    -0.000 C 
BRANCH  10  11
ATOM     11  C   UNL     1      48.831  11.494  -4.458  1.00  0.00    -0.000 C 
BRANCH  11  12
ATOM     12  C   UNL     1      47.654  12.165  -5.183  1.00  0.00    -0.003 C 
ATOM     13  C   UNL     1      46.425  11.261  -5.277  1.00  0.00     0.004 C 
ENDBRANCH  11  12
ENDBRANCH  10  11
ENDBRANCH   9  10
ENDBRANCH   8   9
ENDBRANCH   1   8
TORSDOF 9
ENDMDL
MODEL 4
REMARK VINA RESULT:    -4.576     19.597     20.605
REMARK INTER + INTRA:          -8.008
REMARK INTER:                  -6.681
REMARK INTRA:                  -1.327
REMARK UNBOUND:                -1.024
REMARK SMILES CCCCCCCCCCC(=O)[O-]
REMARK SMILES IDX 7 1 8 2 9 3 10 4 11 5 12 6 13 7 6 8 5 9 4 10 3 11 2 12 1 13
REMARK H PARENT
REMARK Flexibility Score: inf
ROOT
ATOM      1  C   UNL     1      33.550   3.961   6.889  1.00  0.00     0.000 C 
ENDROOT
BRANCH   1   2
ATOM      2  C   UNL     1      33.536   3.722   5.374  1.00  0.00     0.000 C 
BRANCH   2   3
ATOM      3  C   UNL     1      33.935   2.279   5.040  1.00  0.00     0.006 C 
BRANCH   3   4
ATOM      4  C   UNL     1      34.338   1.514   6.304  1.00  0.00     0.053 C 
BRANCH   4   5
ATOM      5  C   UNL     1      34.282   0.038   6.063  1.00  0.00     0.041 C 
ATOM      6  O   UNL     1      35.204  -0.536   5.428  1.00  0.00    -0.550 OA
ATOM      7  O   UNL     1      33.234  -0.711   6.583  1.00  0.00    -0.550 OA
ENDBRANCH   4   5
ENDBRANCH   3   4
ENDBRANCH   2   3
ENDBRANCH   1   2
BRANCH   1   8
ATOM      8  C   UNL     1      34.313   5.245   7.236  1.00  0.00     0.000 C 
BRANCH   8   9
ATOM      9  C   UNL     1      35.393   4.975   8.291  1.00  0.00    -0.000 C 
BRANCH   9  10
ATOM     10  C   UNL     1      36.789   4.954   7.658  1.00  0.00    -0.000 C 
BRANCH  10  11
ATOM     11  C   UNL     1      37.281   3.513   7.459  1.00  0.00    -0.000 C 
BRANCH  11  12
ATOM     12  C   UNL     1      37.668   3.216   6.002  1.00  0.00    -0.003 C 
ATOM     13  C   UNL     1      37.243   4.326   5.040  1.00  0.00     0.004 C 
ENDBRANCH  11  12
ENDBRANCH  10  11
ENDBRANCH   9  10
ENDBRANCH   8   9
ENDBRANCH   1   8
TORSDOF 9
ENDMDL
MODEL 5
REMARK VINA RESULT:    -4.575      2.888      4.589
REMARK INTER + INTRA:          -8.006
REMARK INTER:                  -6.941
REMARK INTRA:                  -1.065
REMARK UNBOUND:                -1.024
REMARK SMILES CCCCCCCCCCC(=O)[O-]
REMARK SMILES IDX 7 1 8 2 9 3 10 4 11 5 12 6 13 7 6 8 5 9 4 10 3 11 2 12 1 13
REMARK H PARENT
REMARK Flexibility Score: inf
ROOT
ATOM      1  C   UNL     1      45.896  13.361  -7.320  1.00  0.00     0.000 C 
ENDROOT
BRANCH   1   2
ATOM      2  C   UNL     1      46.230  12.802  -5.932  1.00  0.00     0.000 C 
BRANCH   2   3
ATOM      3  C   UNL     1      47.436  11.856  -5.994  1.00  0.00     0.006 C 
BRANCH   3   4
ATOM      4  C   UNL     1      48.423  12.149  -4.861  1.00  0.00     0.053 C 
BRANCH   4   5
ATOM      5  C   UNL     1      49.706  11.410  -5.079  1.00  0.00     0.041 C 
ATOM      6  O   UNL     1      49.730  10.153  -5.024  1.00  0.00    -0.550 OA
ATOM      7  O   UNL     1      50.865  12.108  -5.393  1.00  0.00    -0.550 OA
ENDBRANCH   4   5
ENDBRANCH   3   4
ENDBRANCH   2   3
ENDBRANCH   1   2
BRANCH   1   8
ATOM      8  C   UNL     1      45.233  12.294  -8.198  1.00  0.00     0.000 C 
BRANCH   8   9
ATOM      9  C   UNL     1      45.989  12.123  -9.521  1.00  0.00    -0.000 C 
BRANCH   9  10
ATOM     10  C   UNL     1      46.526  10.694  -9.669  1.00  0.00    -0.000 C 
BRANCH  10  11
ATOM     11  C   UNL     1      48.038  10.646  -9.408  1.00  0.00    -0.000 C 
BRANCH  11  12
ATOM     12  C   UNL     1      48.748  11.952  -9.798  1.00  0.00    -0.003 C 
ATOM     13  C   UNL     1      49.891  12.310  -8.849  1.00  0.00     0.004 C 
ENDBRANCH  11  12
ENDBRANCH  10  11
ENDBRANCH   9  10
ENDBRANCH   8   9
ENDBRANCH   1   8
TORSDOF 9
ENDMDL
MODEL 6
REMARK VINA RESULT:    -4.544     19.369     20.355
REMARK INTER + INTRA:          -7.959
REMARK INTER:                  -6.791
REMARK INTRA:                  -1.168
REMARK UNBOUND:                -1.024
REMARK SMILES CCCCCCCCCCC(=O)[O-]
REMARK SMILES IDX 7 1 8 2 9 3 10 4 11 5 12 6 13 7 6 8 5 9 4 10 3 11 2 12 1 13
REMARK H PARENT
REMARK Flexibility Score: inf
ROOT
ATOM      1  C   UNL     1      37.179   0.577   6.298  1.00  0.00     0.000 C 
ENDROOT
BRANCH   1   2
ATOM      2  C   UNL     1      36.679   1.670   7.249  1.00  0.00     0.000 C 
BRANCH   2   3
ATOM      3  C   UNL     1      35.148   1.765   7.225  1.00  0.00     0.006 C 
BRANCH   3   4
ATOM      4  C   UNL     1      34.661   2.990   8.002  1.00  0.00     0.053 C 
BRANCH   4   5
ATOM      5  C   UNL     1      34.134   4.030   7.065  1.00  0.00     0.041 C 
ATOM      6  O   UNL     1      33.312   3.714   6.165  1.00  0.00    -0.550 OA
ATOM      7  O   UNL     1      34.513   5.358   7.216  1.00  0.00    -0.550 OA
ENDBRANCH   4   5
ENDBRANCH   3   4
ENDBRANCH   2   3
ENDBRANCH   1   2
BRANCH   1   8
ATOM      8  C   UNL     1      36.147  -0.548   6.162  1.00  0.00     0.000 C 
BRANCH   8   9
ATOM      9  C   UNL     1      36.101  -1.082   4.725  1.00  0.00    -0.000 C 
BRANCH   9  10
ATOM     10  C   UNL     1      34.713  -0.879   4.105  1.00  0.00    -0.000 C 
BRANCH  10  11
ATOM     11  C   UNL     1      34.755   0.185   2.999  1.00  0.00    -0.000 C 
BRANCH  11  12
ATOM     12  C   UNL     1      34.386   1.586   3.512  1.00  0.00    -0.003 C 
ATOM     13  C   UNL     1      35.576   2.545   3.520  1.00  0.00     0.004 C 
ENDBRANCH  11  12
ENDBRANCH  10  11
ENDBRANCH   9  10
ENDBRANCH   8   9
ENDBRANCH   1   8
TORSDOF 9
ENDMDL
MODEL 7
REMARK VINA RESULT:    -4.529      1.213      1.988
REMARK INTER + INTRA:          -7.935
REMARK INTER:                  -6.481
REMARK INTRA:                  -1.454
REMARK UNBOUND:                -1.024
REMARK SMILES CCCCCCCCCCC(=O)[O-]
REMARK SMILES IDX 7 1 8 2 9 3 10 4 11 5 12 6 13 7 6 8 5 9 4 10 3 11 2 12 1 13
REMARK H PARENT
REMARK Flexibility Score: inf
ROOT
ATOM      1  C   UNL     1      47.732  12.180  -5.260  1.00  0.00     0.000 C 
ENDROOT
BRANCH   1   2
ATOM      2  C   UNL     1      46.641  11.131  -5.507  1.00  0.00     0.000 C 
BRANCH   2   3
ATOM      3  C   UNL     1      45.937  11.373  -6.848  1.00  0.00     0.006 C 
BRANCH   3   4
ATOM      4  C   UNL     1      46.700  12.397  -7.693  1.00  0.00     0.053 C 
BRANCH   4   5
ATOM      5  C   UNL     1      46.537  12.100  -9.150  1.00  0.00     0.041 C 
ATOM      6  O   UNL     1      47.545  11.855  -9.863  1.00  0.00    -0.550 OA
ATOM      7  O   UNL     1      45.267  12.045  -9.710  1.00  0.00    -0.550 OA
ENDBRANCH   4   5
ENDBRANCH   3   4
ENDBRANCH   2   3
ENDBRANCH   1   2
BRANCH   1   8
ATOM      8  C   UNL     1      48.824  11.631  -4.335  1.00  0.00     0.000 C 
BRANCH   8   9
ATOM      9  C   UNL     1      49.901  10.889  -5.135  1.00  0.00    -0.000 C 
BRANCH   9  10
ATOM     10  C   UNL     1      50.218  11.621  -6.444  1.00  0.00    -0.000 C 
BRANCH  10  11
ATOM     11  C   UNL     1      50.042  10.690  -7.652  1.00  0.00    -0.000 C 
BRANCH  11  12
ATOM     12  C   UNL     1      49.560   9.287  -7.251  1.00  0.00    -0.003 C 
ATOM     13  C   UNL     1      48.392   8.796  -8.106  1.00  0.00     0.004 C 
ENDBRANCH  11  12
ENDBRANCH  10  11
ENDBRANCH   9  10
ENDBRANCH   8   9
ENDBRANCH   1   8
TORSDOF 9
ENDMDL
MODEL 8
REMARK VINA RESULT:    -4.516     19.555     20.762
REMARK INTER + INTRA:          -7.916
REMARK INTER:                  -6.819
REMARK INTRA:                  -1.097
REMARK UNBOUND:                -1.024
REMARK SMILES CCCCCCCCCCC(=O)[O-]
REMARK SMILES IDX 7 1 8 2 9 3 10 4 11 5 12 6 13 7 6 8 5 9 4 10 3 11 2 12 1 13
REMARK H PARENT
REMARK Flexibility Score: inf
ROOT
ATOM      1  C   UNL     1      34.295   3.335   3.704  1.00  0.00     0.000 C 
ENDROOT
BRANCH   1   2
ATOM      2  C   UNL     1      35.200   2.099   3.764  1.00  0.00     0.000 C 
BRANCH   2   3
ATOM      3  C   UNL     1      34.449   0.843   3.304  1.00  0.00     0.006 C 
BRANCH   3   4
ATOM      4  C   UNL     1      35.100  -0.423   3.865  1.00  0.00     0.053 C 
BRANCH   4   5
ATOM      5  C   UNL     1      35.070  -0.409   5.361  1.00  0.00     0.041 C 
ATOM      6  O   UNL     1      33.972  -0.449   5.973  1.00  0.00    -0.550 OA
ATOM      7  O   UNL     1      36.259  -0.400   6.080  1.00  0.00    -0.550 OA
ENDBRANCH   4   5
ENDBRANCH   3   4
ENDBRANCH   2   3
ENDBRANCH   1   2
BRANCH   1   8
ATOM      8  C   UNL     1      33.276   3.327   4.850  1.00  0.00     0.000 C 
BRANCH   8   9
ATOM      9  C   UNL     1      33.905   3.842   6.150  1.00  0.00    -0.000 C 
BRANCH   9  10
ATOM     10  C   UNL     1      33.828   2.783   7.257  1.00  0.00    -0.000 C 
BRANCH  10  11
ATOM     11  C   UNL     1      35.202   2.565   7.906  1.00  0.00    -0.000 C 
BRANCH  11  12
ATOM     12  C   UNL     1      36.339   3.243   7.125  1.00  0.00    -0.003 C 
ATOM     13  C   UNL     1      37.102   4.269   7.963  1.00  0.00     0.004 C 
ENDBRANCH  11  12
ENDBRANCH  10  11
ENDBRANCH   9  10
ENDBRANCH   8   9
ENDBRANCH   1   8
TORSDOF 9
ENDMDL
MODEL 9
REMARK VINA RESULT:    -4.516      2.491      5.370
REMARK INTER + INTRA:          -7.915
REMARK INTER:                  -6.519
REMARK INTRA:                  -1.397
REMARK UNBOUND:                -1.024
REMARK SMILES CCCCCCCCCCC(=O)[O-]
REMARK SMILES IDX 7 1 8 2 9 3 10 4 11 5 12 6 13 7 6 8 5 9 4 10 3 11 2 12 1 13
REMARK H PARENT
REMARK Flexibility Score: inf
ROOT
ATOM      1  C   UNL     1      45.823   9.723  -9.903  1.00  0.00     0.000 C 
ENDROOT
BRANCH   1   2
ATOM      2  C   UNL     1      46.106   8.635  -8.860  1.00  0.00     0.000 C 
BRANCH   2   3
ATOM      3  C   UNL     1      47.432   8.899  -8.135  1.00  0.00     0.006 C 
BRANCH   3   4
ATOM      4  C   UNL     1      48.208  10.036  -8.805  1.00  0.00     0.053 C 
BRANCH   4   5
ATOM      5  C   UNL     1      49.225  10.601  -7.864  1.00  0.00     0.041 C 
ATOM      6  O   UNL     1      50.003   9.836  -7.238  1.00  0.00    -0.550 OA
ATOM      7  O   UNL     1      49.346  11.977  -7.716  1.00  0.00    -0.550 OA
ENDBRANCH   4   5
ENDBRANCH   3   4
ENDBRANCH   2   3
ENDBRANCH   1   2
BRANCH   1   8
ATOM      8  C   UNL     1      44.354  10.157  -9.861  1.00  0.00     0.000 C 
BRANCH   8   9
ATOM      9  C   UNL     1      44.196  11.496  -9.131  1.00  0.00    -0.000 C 
BRANCH   9  10
ATOM     10  C   UNL     1      45.474  12.337  -9.240  1.00  0.00    -0.000 C 
BRANCH  10  11
ATOM     11  C   UNL     1      45.875  12.907  -7.871  1.00  0.00    -0.000 C 
BRANCH  11  12
ATOM     12  C   UNL     1      45.561  11.944  -6.715  1.00  0.00    -0.003 C 
ATOM     13  C   UNL     1      46.571  12.045  -5.572  1.00  0.00     0.004 C 
ENDBRANCH  11  12
ENDBRANCH  10  11
ENDBRANCH   9  10
ENDBRANCH   8   9
ENDBRANCH   1   8
TORSDOF 9
ENDMDL
