MODEL 1
REMARK VINA RESULT:    -2.755      0.000      0.000
REMARK INTER + INTRA:          -3.730
REMARK INTER:                  -3.561
REMARK INTRA:                  -0.170
REMARK UNBOUND:                -0.170
REMARK SMILES CCCCCCC(=O)[O-]
REMARK SMILES IDX 5 1 6 2 7 3 8 4 9 5 4 6 3 7 2 8 1 9
REMARK H PARENT
REMARK Flexibility Score: inf
ROOT
ATOM      1  C   UNL     1     -20.538   3.504  -1.708  1.00  0.00     0.006 C 
ENDROOT
BRANCH   1   2
ATOM      2  C   UNL     1     -21.124   4.861  -2.116  1.00  0.00     0.053 C 
BRANCH   2   3
ATOM      3  C   UNL     1     -20.991   5.104  -3.589  1.00  0.00     0.041 C 
ATOM      4  O   UNL     1     -21.125   4.151  -4.403  1.00  0.00    -0.550 OA
ATOM      5  O   UNL     1     -20.683   6.373  -4.060  1.00  0.00    -0.550 OA
ENDBRANCH   2   3
ENDBRANCH   1   2
BRANCH   1   6
ATOM      6  C   UNL     1     -20.592   3.282  -0.186  1.00  0.00     0.000 C 
BRANCH   6   7
ATOM      7  C   UNL     1     -20.474   4.594   0.607  1.00  0.00    -0.000 C 
BRANCH   7   8
ATOM      8  C   UNL     1     -20.357   4.361   2.119  1.00  0.00    -0.003 C 
ATOM      9  C   UNL     1     -20.932   3.002   2.511  1.00  0.00     0.004 C 
ENDBRANCH   7   8
ENDBRANCH   6   7
ENDBRANCH   1   6
TORSDOF 5
ENDMDL
MODEL 2
REMARK VINA RESULT:    -2.624      4.117      5.457
REMARK INTER + INTRA:          -3.561
REMARK INTER:                  -3.293
REMARK INTRA:                  -0.268
REMARK UNBOUND:                -0.170
REMARK SMILES CCCCCCC(=O)[O-]
REMARK SMILES IDX 5 1 6 2 7 3 8 4 9 5 4 6 3 7 2 8 1 9
REMARK H PARENT
REMARK Flexibility Score: inf
ROOT
ATOM      1  C   UNL     1     -20.112   4.122   1.727  1.00  0.00     0.006 C 
ENDROOT
BRANCH   1   2
ATOM      2  C   UNL     1     -21.095   5.215   2.166  1.00  0.00     0.053 C 
BRANCH   2   3
ATOM      3  C   UNL     1     -20.932   5.559   3.616  1.00  0.00     0.041 C 
ATOM      4  O   UNL     1     -20.776   4.647   4.470  1.00  0.00    -0.550 OA
ATOM      5  O   UNL     1     -20.990   6.884   4.027  1.00  0.00    -0.550 OA
ENDBRANCH   2   3
ENDBRANCH   1   2
BRANCH   1   6
ATOM      6  C   UNL     1     -20.829   2.814   1.350  1.00  0.00     0.000 C 
BRANCH   6   7
ATOM      7  C   UNL     1     -21.125   2.715  -0.156  1.00  0.00    -0.000 C 
BRANCH   7   8
ATOM      8  C   UNL     1     -20.045   3.388  -1.014  1.00  0.00    -0.003 C 
ATOM      9  C   UNL     1     -20.662   4.396  -1.981  1.00  0.00     0.004 C 
ENDBRANCH   7   8
ENDBRANCH   6   7
ENDBRANCH   1   6
TORSDOF 5
ENDMDL
MODEL 3
REMARK VINA RESULT:    -2.539      3.124      4.893
REMARK INTER + INTRA:          -3.451
REMARK INTER:                  -3.218
REMARK INTRA:                  -0.233
REMARK UNBOUND:                -0.170
REMARK SMILES CCCCCCC(=O)[O-]
REMARK SMILES IDX 5 1 6 2 7 3 8 4 9 5 4 6 3 7 2 8 1 9
REMARK H PARENT
REMARK Flexibility Score: inf
ROOT
ATOM      1  C   UNL     1     -20.023   3.337  -0.482  1.00  0.00     0.006 C 
ENDROOT
BRANCH   1   2
ATOM      2  C   UNL     1     -20.564   3.292   0.953  1.00  0.00     0.053 C 
BRANCH   2   3
ATOM      3  C   UNL     1     -20.267   4.557   1.700  1.00  0.00     0.041 C 
ATOM      4  O   UNL     1     -19.864   5.577   1.081  1.00  0.00    -0.550 OA
ATOM      5  O   UNL     1     -20.402   4.598   3.081  1.00  0.00    -0.550 OA
ENDBRANCH   2   3
ENDBRANCH   1   2
BRANCH   1   6
ATOM      6  C   UNL     1     -21.071   2.881  -1.512  1.00  0.00     0.000 C 
BRANCH   6   7
ATOM      7  C   UNL     1     -21.125   3.796  -2.746  1.00  0.00    -0.000 C 
BRANCH   7   8
ATOM      8  C   UNL     1     -20.538   5.188  -2.473  1.00  0.00    -0.003 C 
ATOM      9  C   UNL     1     -20.495   6.025  -3.749  1.00  0.00     0.004 C 
ENDBRANCH   7   8
ENDBRANCH   6   7
ENDBRANCH   1   6
TORSDOF 5
ENDMDL
MODEL 4
REMARK VINA RESULT:    -2.440      1.821      2.810
REMARK INTER + INTRA:          -3.322
REMARK INTER:                  -3.185
REMARK INTRA:                  -0.137
REMARK UNBOUND:                -0.170
REMARK SMILES CCCCCCC(=O)[O-]
REMARK SMILES IDX 5 1 6 2 7 3 8 4 9 5 4 6 3 7 2 8 1 9
REMARK H PARENT
REMARK Flexibility Score: inf
ROOT
ATOM      1  C   UNL     1     -20.775   2.853   0.775  1.00  0.00     0.006 C 
ENDROOT
BRANCH   1   2
ATOM      2  C   UNL     1     -20.541   4.118  -0.060  1.00  0.00     0.053 C 
BRANCH   2   3
ATOM      3  C   UNL     1     -20.782   3.874  -1.519  1.00  0.00     0.041 C 
ATOM      4  O   UNL     1     -20.706   4.825  -2.341  1.00  0.00    -0.550 OA
ATOM      5  O   UNL     1     -21.124   2.604  -1.965  1.00  0.00    -0.550 OA
ENDBRANCH   2   3
ENDBRANCH   1   2
BRANCH   1   6
ATOM      6  C   UNL     1     -20.706   3.133   2.286  1.00  0.00     0.000 C 
BRANCH   6   7
ATOM      7  C   UNL     1     -20.675   4.636   2.608  1.00  0.00    -0.000 C 
BRANCH   7   8
ATOM      8  C   UNL     1     -20.730   4.918   4.116  1.00  0.00    -0.003 C 
ATOM      9  C   UNL     1     -20.857   6.414   4.390  1.00  0.00     0.004 C 
ENDBRANCH   7   8
ENDBRANCH   6   7
ENDBRANCH   1   6
TORSDOF 5
ENDMDL
MODEL 5
REMARK VINA RESULT:    -2.419     15.715     16.946
REMARK INTER + INTRA:          -3.295
REMARK INTER:                  -3.163
REMARK INTRA:                  -0.133
REMARK UNBOUND:                -0.170
REMARK SMILES CCCCCCC(=O)[O-]
REMARK SMILES IDX 5 1 6 2 7 3 8 4 9 5 4 6 3 7 2 8 1 9
REMARK H PARENT
REMARK Flexibility Score: inf
ROOT
ATOM      1  C   UNL     1     -14.001  -6.689 -11.577  1.00  0.00     0.006 C 
ENDROOT
BRANCH   1   2
ATOM      2  C   UNL     1     -15.292  -6.053 -12.108  1.00  0.00     0.053 C 
BRANCH   2   3
ATOM      3  C   UNL     1     -15.376  -4.596 -11.766  1.00  0.00     0.041 C 
ATOM      4  O   UNL     1     -16.471  -3.983 -11.872  1.00  0.00    -0.550 OA
ATOM      5  O   UNL     1     -14.237  -3.909 -11.366  1.00  0.00    -0.550 OA
ENDBRANCH   2   3
ENDBRANCH   1   2
BRANCH   1   6
ATOM      6  C   UNL     1     -13.790  -8.114 -12.119  1.00  0.00     0.000 C 
BRANCH   6   7
ATOM      7  C   UNL     1     -12.343  -8.603 -11.950  1.00  0.00    -0.000 C 
BRANCH   7   8
ATOM      8  C   UNL     1     -12.131  -9.377 -10.642  1.00  0.00    -0.003 C 
ATOM      9  C   UNL     1     -13.104 -10.548 -10.533  1.00  0.00     0.004 C 
ENDBRANCH   7   8
ENDBRANCH   6   7
ENDBRANCH   1   6
TORSDOF 5
ENDMDL
MODEL 6
REMARK VINA RESULT:    -2.189     18.699     19.498
REMARK INTER + INTRA:          -2.999
REMARK INTER:                  -2.815
REMARK INTRA:                  -0.184
REMARK UNBOUND:                -0.170
REMARK SMILES CCCCCCC(=O)[O-]
REMARK SMILES IDX 5 1 6 2 7 3 8 4 9 5 4 6 3 7 2 8 1 9
REMARK H PARENT
REMARK Flexibility Score: inf
ROOT
ATOM      1  C   UNL     1      -2.485   5.684   4.641  1.00  0.00     0.006 C 
ENDROOT
BRANCH   1   2
ATOM      2  C   UNL     1      -1.560   4.574   4.126  1.00  0.00     0.053 C 
BRANCH   2   3
ATOM      3  C   UNL     1      -1.598   3.364   5.010  1.00  0.00     0.041 C 
ATOM      4  O   UNL     1      -1.618   3.496   6.263  1.00  0.00    -0.550 OA
ATOM      5  O   UNL     1      -1.574   2.093   4.452  1.00  0.00    -0.550 OA
ENDBRANCH   2   3
ENDBRANCH   1   2
BRANCH   1   6
ATOM      6  C   UNL     1      -3.083   6.519   3.495  1.00  0.00     0.000 C 
BRANCH   6   7
ATOM      7  C   UNL     1      -2.604   6.053   2.111  1.00  0.00    -0.000 C 
BRANCH   7   8
ATOM      8  C   UNL     1      -3.342   6.757   0.964  1.00  0.00    -0.003 C 
ATOM      9  C   UNL     1      -4.853   6.718   1.177  1.00  0.00     0.004 C 
ENDBRANCH   7   8
ENDBRANCH   6   7
ENDBRANCH   1   6
TORSDOF 5
ENDMDL
MODEL 7
REMARK VINA RESULT:    -2.185     16.461     17.830
REMARK INTER + INTRA:          -2.994
REMARK INTER:                  -2.838
REMARK INTRA:                  -0.155
REMARK UNBOUND:                -0.170
REMARK SMILES CCCCCCC(=O)[O-]
REMARK SMILES IDX 5 1 6 2 7 3 8 4 9 5 4 6 3 7 2 8 1 9
REMARK H PARENT
REMARK Flexibility Score: inf
ROOT
ATOM      1  C   UNL     1     -13.629  -7.588 -11.294  1.00  0.00     0.006 C 
ENDROOT
BRANCH   1   2
ATOM      2  C   UNL     1     -13.645  -8.879 -12.122  1.00  0.00     0.053 C 
BRANCH   2   3
ATOM      3  C   UNL     1     -12.377  -9.662 -11.954  1.00  0.00     0.041 C 
ATOM      4  O   UNL     1     -12.377 -10.910 -12.125  1.00  0.00    -0.550 OA
ATOM      5  O   UNL     1     -11.207  -9.019 -11.575  1.00  0.00    -0.550 OA
ENDBRANCH   2   3
ENDBRANCH   1   2
BRANCH   1   6
ATOM      6  C   UNL     1     -14.046  -6.361 -12.124  1.00  0.00     0.000 C 
BRANCH   6   7
ATOM      7  C   UNL     1     -15.512  -5.960 -11.892  1.00  0.00    -0.000 C 
BRANCH   7   8
ATOM      8  C   UNL     1     -15.703  -4.439 -11.822  1.00  0.00    -0.003 C 
ATOM      9  C   UNL     1     -14.415  -3.744 -11.388  1.00  0.00     0.004 C 
ENDBRANCH   7   8
ENDBRANCH   6   7
ENDBRANCH   1   6
TORSDOF 5
ENDMDL
MODEL 8
REMARK VINA RESULT:    -2.174     17.642     18.190
REMARK INTER + INTRA:          -2.979
REMARK INTER:                  -2.692
REMARK INTRA:                  -0.287
REMARK UNBOUND:                -0.170
REMARK SMILES CCCCCCC(=O)[O-]
REMARK SMILES IDX 5 1 6 2 7 3 8 4 9 5 4 6 3 7 2 8 1 9
REMARK H PARENT
REMARK Flexibility Score: inf
ROOT
ATOM      1  C   UNL     1      -2.449   6.210   1.684  1.00  0.00     0.006 C 
ENDROOT
BRANCH   1   2
ATOM      2  C   UNL     1      -3.490   7.038   0.919  1.00  0.00     0.053 C 
BRANCH   2   3
ATOM      3  C   UNL     1      -4.878   6.795   1.429  1.00  0.00     0.041 C 
ATOM      4  O   UNL     1      -5.112   6.822   2.666  1.00  0.00    -0.550 OA
ATOM      5  O   UNL     1      -5.905   6.503   0.540  1.00  0.00    -0.550 OA
ENDBRANCH   2   3
ENDBRANCH   1   2
BRANCH   1   6
ATOM      6  C   UNL     1      -1.575   7.082   2.603  1.00  0.00     0.000 C 
BRANCH   6   7
ATOM      7  C   UNL     1      -1.421   6.487   4.012  1.00  0.00    -0.000 C 
BRANCH   7   8
ATOM      8  C   UNL     1      -2.411   5.345   4.281  1.00  0.00    -0.003 C 
ATOM      9  C   UNL     1      -1.678   4.062   4.664  1.00  0.00     0.004 C 
ENDBRANCH   7   8
ENDBRANCH   6   7
ENDBRANCH   1   6
TORSDOF 5
ENDMDL
MODEL 9
REMARK VINA RESULT:    -2.116     18.305     18.902
REMARK INTER + INTRA:          -2.904
REMARK INTER:                  -2.740
REMARK INTRA:                  -0.164
REMARK UNBOUND:                -0.170
REMARK SMILES CCCCCCC(=O)[O-]
REMARK SMILES IDX 5 1 6 2 7 3 8 4 9 5 4 6 3 7 2 8 1 9
REMARK H PARENT
REMARK Flexibility Score: inf
ROOT
ATOM      1  C   UNL     1      -1.766   6.182   2.969  1.00  0.00     0.006 C 
ENDROOT
BRANCH   1   2
ATOM      2  C   UNL     1      -3.279   6.037   2.768  1.00  0.00     0.053 C 
BRANCH   2   3
ATOM      3  C   UNL     1      -3.694   6.408   1.375  1.00  0.00     0.041 C 
ATOM      4  O   UNL     1      -4.910   6.384   1.049  1.00  0.00    -0.550 OA
ATOM      5  O   UNL     1      -2.733   6.743   0.430  1.00  0.00    -0.550 OA
ENDBRANCH   2   3
ENDBRANCH   1   2
BRANCH   1   6
ATOM      6  C   UNL     1      -1.127   4.895   3.519  1.00  0.00     0.000 C 
BRANCH   6   7
ATOM      7  C   UNL     1      -1.886   4.330   4.731  1.00  0.00    -0.000 C 
BRANCH   7   8
ATOM      8  C   UNL     1      -1.220   3.075   5.311  1.00  0.00    -0.003 C 
ATOM      9  C   UNL     1      -1.328   1.899   4.343  1.00  0.00     0.004 C 
ENDBRANCH   7   8
ENDBRANCH   6   7
ENDBRANCH   1   6
TORSDOF 5
ENDMDL
