MODEL 1
REMARK VINA RESULT:    -3.905      0.000      0.000
REMARK INTER + INTRA:          -4.635
REMARK INTER:                  -5.503
REMARK INTRA:                   0.868
REMARK UNBOUND:                 0.868
REMARK SMILES CC1=CCCC(C)=CCC(C)(C)C=CC1
REMARK SMILES IDX 2 1 3 2 1 3 4 4 5 5 6 6 7 7 8 8 15 10 14 11 13 12 10 13
REMARK SMILES IDX 11 14 12 15 9 16
REMARK H PARENT
REMARK Flexibility Score: 60.00
ROOT
ATOM      1  C   UNL     1     -39.262  71.864 -10.064  1.00  0.00    -0.074 C 
ATOM      2  C   UNL     1     -38.066  72.497  -9.923  1.00  0.00    -0.027 C 
ATOM      3  C   UNL     1     -39.195  70.405 -10.448  1.00  0.00     0.039 C 
ENDROOT
BRANCH   2   4
ATOM      4  C   UNL     1     -37.775  73.971  -9.744  1.00  0.00     0.032 C 
BRANCH   4   5
ATOM      5  C   UNL     1     -38.026  74.756 -11.047  1.00  0.00     0.034 C 
BRANCH   5   6
ATOM      6  C   UNL     1     -39.197  75.726 -10.958  1.00  0.00    -0.077 C 
ATOM      7  C   UNL     1     -38.999  77.035 -10.234  1.00  0.00     0.039 C 
ATOM      8  C   UNL     1     -40.405  75.501 -11.522  1.00  0.00    -0.027 CG0
ATOM      9  G   UNL     1     -40.837  74.242 -12.242  1.00  0.00     0.000 G0
ENDBRANCH   5   6
ENDBRANCH   4   5
ENDBRANCH   2   4
BRANCH   1  10
ATOM     10  C   UNL     1     -40.656  72.376  -9.697  1.00  0.00     0.057 C 
BRANCH  10  11
ATOM     11  C   UNL     1     -41.859  71.896 -10.459  1.00  0.00    -0.026 C 
ATOM     12  C   UNL     1     -42.518  72.489 -11.481  1.00  0.00    -0.024 C 
BRANCH  12  13
ATOM     13  C   UNL     1     -42.384  73.885 -12.100  1.00  0.00    -0.014 C 
ATOM     14  C   UNL     1     -43.180  74.078 -13.414  1.00  0.00     0.016 C 
ATOM     15  C   UNL     1     -43.006  74.864 -11.073  1.00  0.00     0.016 C 
BRANCH  13  16
ATOM     16  C   UNL     1     -40.858  74.237 -12.239  1.00  0.00     0.038 CG0
ATOM     17  G   UNL     1     -40.412  75.502 -11.538  1.00  0.00     0.000 G0
ENDBRANCH  13  16
ENDBRANCH  12  13
ENDBRANCH  10  11
ENDBRANCH   1  10
TORSDOF 0
ENDMDL
MODEL 2
REMARK VINA RESULT:    -3.832      1.126      3.747
REMARK INTER + INTRA:          -4.532
REMARK INTER:                  -5.365
REMARK INTRA:                   0.833
REMARK UNBOUND:                 0.868
REMARK SMILES CC1=CCCC(C)=CCC(C)(C)C=CC1
REMARK SMILES IDX 2 1 3 2 1 3 4 4 5 5 6 6 7 7 8 8 15 10 14 11 13 12 10 13
REMARK SMILES IDX 11 14 12 15 9 16
REMARK H PARENT
REMARK Flexibility Score: 60.00
ROOT
ATOM      1  C   UNL     1     -39.103  71.605 -10.056  1.00  0.00    -0.074 C 
ATOM      2  C   UNL     1     -40.280  71.121 -10.537  1.00  0.00    -0.027 C 
ATOM      3  C   UNL     1     -37.853  71.067 -10.710  1.00  0.00     0.039 C 
ENDROOT
BRANCH   2   4
ATOM      4  C   UNL     1     -41.682  71.290  -9.994  1.00  0.00     0.032 C 
BRANCH   4   5
ATOM      5  C   UNL     1     -42.024  72.778  -9.776  1.00  0.00     0.034 C 
BRANCH   5   6
ATOM      6  C   UNL     1     -42.067  73.588 -11.066  1.00  0.00    -0.077 C 
ATOM      7  C   UNL     1     -43.012  73.156 -12.161  1.00  0.00     0.039 C 
ATOM      8  C   UNL     1     -41.331  74.701 -11.280  1.00  0.00    -0.027 CG0
ATOM      9  G   UNL     1     -40.288  75.279 -10.347  1.00  0.00     0.000 G0
ENDBRANCH   5   6
ENDBRANCH   4   5
ENDBRANCH   2   4
BRANCH   1  10
ATOM     10  C   UNL     1     -38.880  72.760  -9.078  1.00  0.00     0.057 C 
BRANCH  10  11
ATOM     11  C   UNL     1     -37.774  73.748  -9.320  1.00  0.00    -0.026 C 
ATOM     12  C   UNL     1     -37.790  74.890 -10.045  1.00  0.00    -0.024 C 
BRANCH  12  13
ATOM     13  C   UNL     1     -38.851  75.484 -10.980  1.00  0.00    -0.014 C 
ATOM     14  C   UNL     1     -38.583  76.951 -11.395  1.00  0.00     0.016 C 
ATOM     15  C   UNL     1     -38.780  74.649 -12.283  1.00  0.00     0.016 C 
BRANCH  13  16
ATOM     16  C   UNL     1     -40.272  75.266 -10.343  1.00  0.00     0.038 CG0
ATOM     17  G   UNL     1     -41.328  74.713 -11.275  1.00  0.00     0.000 G0
ENDBRANCH  13  16
ENDBRANCH  12  13
ENDBRANCH  10  11
ENDBRANCH   1  10
TORSDOF 0
ENDMDL
MODEL 3
REMARK VINA RESULT:    -3.765      1.410      3.511
REMARK INTER + INTRA:          -4.438
REMARK INTER:                  -5.502
REMARK INTRA:                   1.064
REMARK UNBOUND:                 0.868
REMARK SMILES CC1=CCCC(C)=CCC(C)(C)C=CC1
REMARK SMILES IDX 2 1 3 2 1 3 4 4 5 5 6 6 7 7 8 8 15 10 14 11 13 12 10 13
REMARK SMILES IDX 11 14 12 15 9 16
REMARK H PARENT
REMARK Flexibility Score: 60.00
ROOT
ATOM      1  C   UNL     1     -38.551  75.516 -11.120  1.00  0.00    -0.074 C 
ATOM      2  C   UNL     1     -37.748  74.499 -10.705  1.00  0.00    -0.027 C 
ATOM      3  C   UNL     1     -38.139  76.202 -12.400  1.00  0.00     0.039 C 
ENDROOT
BRANCH   2   4
ATOM      4  C   UNL     1     -37.754  73.743  -9.394  1.00  0.00     0.032 C 
BRANCH   4   5
ATOM      5  C   UNL     1     -39.192  73.514  -8.885  1.00  0.00     0.034 C 
BRANCH   5   6
ATOM      6  C   UNL     1     -39.863  72.285  -9.485  1.00  0.00    -0.077 C 
ATOM      7  C   UNL     1     -39.131  70.966  -9.440  1.00  0.00     0.039 C 
ATOM      8  C   UNL     1     -41.100  72.295 -10.031  1.00  0.00    -0.027 CG0
ATOM      9  G   UNL     1     -41.983  73.508 -10.229  1.00  0.00     0.000 G0
ENDBRANCH   5   6
ENDBRANCH   4   5
ENDBRANCH   2   4
BRANCH   1  10
ATOM     10  C   UNL     1     -39.918  75.930 -10.572  1.00  0.00     0.057 C 
BRANCH  10  11
ATOM     11  C   UNL     1     -41.052  76.216 -11.515  1.00  0.00    -0.026 C 
ATOM     12  C   UNL     1     -42.041  75.396 -11.939  1.00  0.00    -0.024 C 
BRANCH  12  13
ATOM     13  C   UNL     1     -42.263  73.891 -11.747  1.00  0.00    -0.014 C 
ATOM     14  C   UNL     1     -43.632  73.380 -12.256  1.00  0.00     0.016 C 
ATOM     15  C   UNL     1     -41.192  73.192 -12.621  1.00  0.00     0.016 C 
BRANCH  13  16
ATOM     16  C   UNL     1     -41.979  73.520 -10.246  1.00  0.00     0.038 CG0
ATOM     17  G   UNL     1     -41.118  72.295 -10.026  1.00  0.00     0.000 G0
ENDBRANCH  13  16
ENDBRANCH  12  13
ENDBRANCH  10  11
ENDBRANCH   1  10
TORSDOF 0
ENDMDL
MODEL 4
REMARK VINA RESULT:    -3.276      1.447      3.799
REMARK INTER + INTRA:          -3.749
REMARK INTER:                  -4.853
REMARK INTRA:                   1.104
REMARK UNBOUND:                 0.868
REMARK SMILES CC1=CCCC(C)=CCC(C)(C)C=CC1
REMARK SMILES IDX 2 1 3 2 1 3 4 4 5 5 6 6 7 7 8 8 15 10 14 11 13 12 10 13
REMARK SMILES IDX 11 14 12 15 9 16
REMARK H PARENT
REMARK Flexibility Score: 60.00
ROOT
ATOM      1  C   UNL     1     -38.548  75.542 -10.046  1.00  0.00    -0.074 C 
ATOM      2  C   UNL     1     -39.248  76.397 -10.840  1.00  0.00    -0.027 C 
ATOM      3  C   UNL     1     -37.044  75.625 -10.153  1.00  0.00     0.039 C 
ENDROOT
BRANCH   2   4
ATOM      4  C   UNL     1     -40.734  76.444 -11.125  1.00  0.00     0.032 C 
BRANCH   4   5
ATOM      5  C   UNL     1     -41.143  75.372 -12.155  1.00  0.00     0.034 C 
BRANCH   5   6
ATOM      6  C   UNL     1     -42.483  74.713 -11.849  1.00  0.00    -0.077 C 
ATOM      7  C   UNL     1     -43.675  75.068 -12.704  1.00  0.00     0.039 C 
ATOM      8  C   UNL     1     -42.665  73.796 -10.873  1.00  0.00    -0.027 CG0
ATOM      9  G   UNL     1     -41.628  73.337  -9.870  1.00  0.00     0.000 G0
ENDBRANCH   5   6
ENDBRANCH   4   5
ENDBRANCH   2   4
BRANCH   1  10
ATOM     10  C   UNL     1     -39.071  74.646  -8.922  1.00  0.00     0.057 C 
BRANCH  10  11
ATOM     11  C   UNL     1     -38.756  73.177  -8.922  1.00  0.00    -0.026 C 
ATOM     12  C   UNL     1     -39.393  72.164  -9.554  1.00  0.00    -0.024 C 
BRANCH  12  13
ATOM     13  C   UNL     1     -40.710  72.126 -10.337  1.00  0.00    -0.014 C 
ATOM     14  C   UNL     1     -40.536  72.059 -11.873  1.00  0.00     0.016 C 
ATOM     15  C   UNL     1     -41.408  70.806  -9.926  1.00  0.00     0.016 C 
BRANCH  13  16
ATOM     16  C   UNL     1     -41.619  73.320  -9.865  1.00  0.00     0.038 CG0
ATOM     17  G   UNL     1     -42.661  73.782 -10.862  1.00  0.00     0.000 G0
ENDBRANCH  13  16
ENDBRANCH  12  13
ENDBRANCH  10  11
ENDBRANCH   1  10
TORSDOF 0
ENDMDL
MODEL 5
REMARK VINA RESULT:    -2.915      1.462      3.628
REMARK INTER + INTRA:          -3.240
REMARK INTER:                  -4.564
REMARK INTRA:                   1.324
REMARK UNBOUND:                 0.868
REMARK SMILES CC1=CCCC(C)=CCC(C)(C)C=CC1
REMARK SMILES IDX 2 1 3 2 1 3 4 4 5 5 6 6 7 7 8 8 15 10 14 11 13 12 10 13
REMARK SMILES IDX 11 14 12 15 9 16
REMARK H PARENT
REMARK Flexibility Score: 60.00
ROOT
ATOM      1  C   UNL     1     -39.707  76.671 -12.466  1.00  0.00    -0.074 C 
ATOM      2  C   UNL     1     -38.437  76.212 -12.306  1.00  0.00    -0.027 C 
ATOM      3  C   UNL     1     -40.074  77.124 -13.859  1.00  0.00     0.039 C 
ENDROOT
BRANCH   2   4
ATOM      4  C   UNL     1     -37.691  75.872 -11.033  1.00  0.00     0.032 C 
BRANCH   4   5
ATOM      5  C   UNL     1     -38.642  75.307  -9.959  1.00  0.00     0.034 C 
BRANCH   5   6
ATOM      6  C   UNL     1     -38.677  73.784  -9.916  1.00  0.00    -0.077 C 
ATOM      7  C   UNL     1     -37.748  73.066  -8.968  1.00  0.00     0.039 C 
ATOM      8  C   UNL     1     -39.519  73.030 -10.657  1.00  0.00    -0.027 CG0
ATOM      9  G   UNL     1     -40.488  73.534 -11.704  1.00  0.00     0.000 G0
ENDBRANCH   5   6
ENDBRANCH   4   5
ENDBRANCH   2   4
BRANCH   1  10
ATOM     10  C   UNL     1     -40.871  76.608 -11.475  1.00  0.00     0.057 C 
BRANCH  10  11
ATOM     11  C   UNL     1     -42.198  76.048 -11.906  1.00  0.00    -0.026 C 
ATOM     12  C   UNL     1     -42.683  74.793 -11.766  1.00  0.00    -0.024 C 
BRANCH  12  13
ATOM     13  C   UNL     1     -42.022  73.498 -11.283  1.00  0.00    -0.014 C 
ATOM     14  C   UNL     1     -42.226  73.201  -9.777  1.00  0.00     0.016 C 
ATOM     15  C   UNL     1     -42.731  72.351 -12.046  1.00  0.00     0.016 C 
BRANCH  13  16
ATOM     16  C   UNL     1     -40.510  73.504 -11.716  1.00  0.00     0.038 CG0
ATOM     17  G   UNL     1     -39.526  73.039 -10.664  1.00  0.00     0.000 G0
ENDBRANCH  13  16
ENDBRANCH  12  13
ENDBRANCH  10  11
ENDBRANCH   1  10
TORSDOF 0
ENDMDL
