MODEL 1
REMARK VINA RESULT:    -3.483      0.000      0.000
REMARK INTER + INTRA:          -5.371
REMARK INTER:                  -4.705
REMARK INTRA:                  -0.666
REMARK UNBOUND:                -0.666
REMARK SMILES O=C[C@@H](O)[C@H](O)[C@H](O)CO
REMARK SMILES IDX 7 1 9 2 10 3 5 5 3 6 2 7 1 8 4 9 6 11 8 13
REMARK H PARENT 10 4 4 10 6 12 8 14
REMARK Flexibility Score: inf
ROOT
ATOM      1  C   UNL     1      28.290  43.886 142.905  1.00  0.00     0.171 C 
ENDROOT
BRANCH   1   2
ATOM      2  C   UNL     1      28.642  43.426 144.329  1.00  0.00     0.190 C 
BRANCH   2   3
ATOM      3  O   UNL     1      28.323  44.428 145.256  1.00  0.00    -0.394 OA
ATOM      4  H   UNL     1      29.144  44.592 145.792  1.00  0.00     0.210 HD
ENDBRANCH   2   3
ENDBRANCH   1   2
BRANCH   1   5
ATOM      5  C   UNL     1      26.796  43.645 142.553  1.00  0.00     0.181 C 
BRANCH   5   6
ATOM      6  C   UNL     1      26.245  44.605 141.466  1.00  0.00     0.209 C 
BRANCH   6   7
ATOM      7  C   UNL     1      24.964  45.266 141.910  1.00  0.00     0.258 C 
ATOM      8  O   UNL     1      23.910  44.649 141.864  1.00  0.00    -0.300 OA
ENDBRANCH   6   7
BRANCH   6   9
ATOM      9  O   UNL     1      27.193  45.579 141.106  1.00  0.00    -0.383 OA
ATOM     10  H   UNL     1      26.848  46.463 141.400  1.00  0.00     0.211 HD
ENDBRANCH   6   9
ENDBRANCH   5   6
BRANCH   5  11
ATOM     11  O   UNL     1      26.014  43.754 143.717  1.00  0.00    -0.387 OA
ATOM     12  H   UNL     1      26.511  44.338 144.347  1.00  0.00     0.211 HD
ENDBRANCH   5  11
ENDBRANCH   1   5
BRANCH   1  13
ATOM     13  O   UNL     1      29.135  43.241 141.986  1.00  0.00    -0.388 OA
ATOM     14  H   UNL     1      29.820  42.754 142.515  1.00  0.00     0.211 HD
ENDBRANCH   1  13
TORSDOF 8
ENDMDL
MODEL 2
REMARK VINA RESULT:    -3.343      1.287      2.075
REMARK INTER + INTRA:          -5.181
REMARK INTER:                  -4.688
REMARK INTRA:                  -0.493
REMARK UNBOUND:                -0.666
REMARK SMILES O=C[C@@H](O)[C@H](O)[C@H](O)CO
REMARK SMILES IDX 7 1 9 2 10 3 5 5 3 6 2 7 1 8 4 9 6 11 8 13
REMARK H PARENT 10 4 4 10 6 12 8 14
REMARK Flexibility Score: inf
ROOT
ATOM      1  C   UNL     1      26.903  44.530 142.910  1.00  0.00     0.171 C 
ENDROOT
BRANCH   1   2
ATOM      2  C   UNL     1      27.908  43.725 143.749  1.00  0.00     0.190 C 
BRANCH   2   3
ATOM      3  O   UNL     1      28.097  44.334 144.997  1.00  0.00    -0.394 OA
ATOM      4  H   UNL     1      29.030  44.676 145.009  1.00  0.00     0.210 HD
ENDBRANCH   2   3
ENDBRANCH   1   2
BRANCH   1   5
ATOM      5  C   UNL     1      25.464  43.949 142.982  1.00  0.00     0.181 C 
BRANCH   5   6
ATOM      6  C   UNL     1      24.355  44.972 142.620  1.00  0.00     0.209 C 
BRANCH   6   7
ATOM      7  C   UNL     1      23.761  44.685 141.264  1.00  0.00     0.258 C 
ATOM      8  O   UNL     1      24.491  44.461 140.311  1.00  0.00    -0.300 OA
ENDBRANCH   6   7
BRANCH   6   9
ATOM      9  O   UNL     1      23.344  45.007 143.596  1.00  0.00    -0.383 OA
ATOM     10  H   UNL     1      22.489  45.227 143.140  1.00  0.00     0.211 HD
ENDBRANCH   6   9
ENDBRANCH   5   6
BRANCH   5  11
ATOM     11  O   UNL     1      25.228  43.435 144.269  1.00  0.00    -0.387 OA
ATOM     12  H   UNL     1      24.774  42.559 144.154  1.00  0.00     0.211 HD
ENDBRANCH   5  11
ENDBRANCH   1   5
BRANCH   1  13
ATOM     13  O   UNL     1      27.355  44.596 141.580  1.00  0.00    -0.388 OA
ATOM     14  H   UNL     1      27.970  43.829 141.445  1.00  0.00     0.211 HD
ENDBRANCH   1  13
TORSDOF 8
ENDMDL
MODEL 3
REMARK VINA RESULT:    -3.263      1.394      2.701
REMARK INTER + INTRA:          -5.074
REMARK INTER:                  -4.285
REMARK INTRA:                  -0.788
REMARK UNBOUND:                -0.666
REMARK SMILES O=C[C@@H](O)[C@H](O)[C@H](O)CO
REMARK SMILES IDX 7 1 9 2 10 3 5 5 3 6 2 7 1 8 4 9 6 11 8 13
REMARK H PARENT 10 4 4 10 6 12 8 14
REMARK Flexibility Score: inf
ROOT
ATOM      1  C   UNL     1      28.002  43.650 143.785  1.00  0.00     0.171 C 
ENDROOT
BRANCH   1   2
ATOM      2  C   UNL     1      29.323  43.300 143.080  1.00  0.00     0.190 C 
BRANCH   2   3
ATOM      3  O   UNL     1      29.074  42.526 141.938  1.00  0.00    -0.394 OA
ATOM      4  H   UNL     1      29.010  41.582 142.242  1.00  0.00     0.210 HD
ENDBRANCH   2   3
ENDBRANCH   1   2
BRANCH   1   5
ATOM      5  C   UNL     1      27.127  44.633 142.959  1.00  0.00     0.181 C 
BRANCH   5   6
ATOM      6  C   UNL     1      25.694  44.111 142.676  1.00  0.00     0.209 C 
BRANCH   6   7
ATOM      7  C   UNL     1      25.720  42.786 141.956  1.00  0.00     0.258 C 
ATOM      8  O   UNL     1      26.246  42.697 140.858  1.00  0.00    -0.300 OA
ENDBRANCH   6   7
BRANCH   6   9
ATOM      9  O   UNL     1      24.938  44.007 143.857  1.00  0.00    -0.383 OA
ATOM     10  H   UNL     1      25.010  43.071 144.182  1.00  0.00     0.211 HD
ENDBRANCH   6   9
ENDBRANCH   5   6
BRANCH   5  11
ATOM     11  O   UNL     1      27.769  44.927 141.743  1.00  0.00    -0.387 OA
ATOM     12  H   UNL     1      27.886  45.913 141.707  1.00  0.00     0.211 HD
ENDBRANCH   5  11
ENDBRANCH   1   5
BRANCH   1  13
ATOM     13  O   UNL     1      28.280  44.171 145.060  1.00  0.00    -0.388 OA
ATOM     14  H   UNL     1      27.743  43.646 145.710  1.00  0.00     0.211 HD
ENDBRANCH   1  13
TORSDOF 8
ENDMDL
MODEL 4
REMARK VINA RESULT:    -3.258      1.349      3.822
REMARK INTER + INTRA:          -5.067
REMARK INTER:                  -4.360
REMARK INTRA:                  -0.706
REMARK UNBOUND:                -0.666
REMARK SMILES O=C[C@@H](O)[C@H](O)[C@H](O)CO
REMARK SMILES IDX 7 1 9 2 10 3 5 5 3 6 2 7 1 8 4 9 6 11 8 13
REMARK H PARENT 10 4 4 10 6 12 8 14
REMARK Flexibility Score: inf
ROOT
ATOM      1  C   UNL     1      25.498  44.412 142.263  1.00  0.00     0.171 C 
ENDROOT
BRANCH   1   2
ATOM      2  C   UNL     1      24.059  44.780 142.661  1.00  0.00     0.190 C 
BRANCH   2   3
ATOM      3  O   UNL     1      23.771  44.294 143.943  1.00  0.00    -0.394 OA
ATOM      4  H   UNL     1      24.053  43.342 143.958  1.00  0.00     0.210 HD
ENDBRANCH   2   3
ENDBRANCH   1   2
BRANCH   1   5
ATOM      5  C   UNL     1      26.326  43.865 143.458  1.00  0.00     0.181 C 
BRANCH   5   6
ATOM      6  C   UNL     1      27.836  44.211 143.386  1.00  0.00     0.209 C 
BRANCH   6   7
ATOM      7  C   UNL     1      28.603  43.578 144.520  1.00  0.00     0.258 C 
ATOM      8  O   UNL     1      29.013  42.432 144.416  1.00  0.00    -0.300 OA
ENDBRANCH   6   7
BRANCH   6   9
ATOM      9  O   UNL     1      28.396  43.836 142.152  1.00  0.00    -0.383 OA
ATOM     10  H   UNL     1      29.125  43.186 142.335  1.00  0.00     0.211 HD
ENDBRANCH   6   9
ENDBRANCH   5   6
BRANCH   5  11
ATOM     11  O   UNL     1      26.167  42.470 143.542  1.00  0.00    -0.387 OA
ATOM     12  H   UNL     1      25.867  42.157 142.648  1.00  0.00     0.211 HD
ENDBRANCH   5  11
ENDBRANCH   1   5
BRANCH   1  13
ATOM     13  O   UNL     1      26.122  45.532 141.688  1.00  0.00    -0.388 OA
ATOM     14  H   UNL     1      25.497  45.894 141.006  1.00  0.00     0.211 HD
ENDBRANCH   1  13
TORSDOF 8
ENDMDL
MODEL 5
REMARK VINA RESULT:    -3.251      1.537      3.958
REMARK INTER + INTRA:          -5.057
REMARK INTER:                  -4.956
REMARK INTRA:                  -0.101
REMARK UNBOUND:                -0.666
REMARK SMILES O=C[C@@H](O)[C@H](O)[C@H](O)CO
REMARK SMILES IDX 7 1 9 2 10 3 5 5 3 6 2 7 1 8 4 9 6 11 8 13
REMARK H PARENT 10 4 4 10 6 12 8 14
REMARK Flexibility Score: inf
ROOT
ATOM      1  C   UNL     1      24.334  43.870 142.512  1.00  0.00     0.171 C 
ENDROOT
BRANCH   1   2
ATOM      2  C   UNL     1      23.737  45.251 142.828  1.00  0.00     0.190 C 
BRANCH   2   3
ATOM      3  O   UNL     1      23.043  45.213 144.045  1.00  0.00    -0.394 OA
ATOM      4  H   UNL     1      23.518  45.829 144.663  1.00  0.00     0.210 HD
ENDBRANCH   2   3
ENDBRANCH   1   2
BRANCH   1   5
ATOM      5  C   UNL     1      25.641  43.962 141.676  1.00  0.00     0.181 C 
BRANCH   5   6
ATOM      6  C   UNL     1      26.744  44.837 142.330  1.00  0.00     0.209 C 
BRANCH   6   7
ATOM      7  C   UNL     1      27.691  44.004 143.157  1.00  0.00     0.258 C 
ATOM      8  O   UNL     1      27.879  44.277 144.332  1.00  0.00    -0.300 OA
ENDBRANCH   6   7
BRANCH   6   9
ATOM      9  O   UNL     1      27.457  45.574 141.369  1.00  0.00    -0.383 OA
ATOM     10  H   UNL     1      27.320  45.137 140.488  1.00  0.00     0.211 HD
ENDBRANCH   6   9
ENDBRANCH   5   6
BRANCH   5  11
ATOM     11  O   UNL     1      25.346  44.458 140.394  1.00  0.00    -0.387 OA
ATOM     12  H   UNL     1      24.799  45.278 140.518  1.00  0.00     0.211 HD
ENDBRANCH   5  11
ENDBRANCH   1   5
BRANCH   1  13
ATOM     13  O   UNL     1      23.370  43.086 141.856  1.00  0.00    -0.388 OA
ATOM     14  H   UNL     1      23.308  43.423 140.924  1.00  0.00     0.211 HD
ENDBRANCH   1  13
TORSDOF 8
ENDMDL
MODEL 6
REMARK VINA RESULT:    -3.193      1.830      4.401
REMARK INTER + INTRA:          -4.979
REMARK INTER:                  -4.224
REMARK INTRA:                  -0.755
REMARK UNBOUND:                -0.666
REMARK SMILES O=C[C@@H](O)[C@H](O)[C@H](O)CO
REMARK SMILES IDX 7 1 9 2 10 3 5 5 3 6 2 7 1 8 4 9 6 11 8 13
REMARK H PARENT 10 4 4 10 6 12 8 14
REMARK Flexibility Score: inf
ROOT
ATOM      1  C   UNL     1      25.049  44.409 140.064  1.00  0.00     0.171 C 
ENDROOT
BRANCH   1   2
ATOM      2  C   UNL     1      25.565  44.165 138.637  1.00  0.00     0.190 C 
BRANCH   2   3
ATOM      3  O   UNL     1      26.662  44.996 138.368  1.00  0.00    -0.394 OA
ATOM      4  H   UNL     1      26.875  44.883 137.404  1.00  0.00     0.210 HD
ENDBRANCH   2   3
ENDBRANCH   1   2
BRANCH   1   5
ATOM      5  C   UNL     1      25.991  43.816 141.148  1.00  0.00     0.181 C 
BRANCH   5   6
ATOM      6  C   UNL     1      26.722  44.888 141.999  1.00  0.00     0.209 C 
BRANCH   6   7
ATOM      7  C   UNL     1      27.686  44.258 142.972  1.00  0.00     0.258 C 
ATOM      8  O   UNL     1      28.775  43.861 142.585  1.00  0.00    -0.300 OA
ENDBRANCH   6   7
BRANCH   6   9
ATOM      9  O   UNL     1      27.390  45.824 141.191  1.00  0.00    -0.383 OA
ATOM     10  H   UNL     1      27.387  46.695 141.669  1.00  0.00     0.211 HD
ENDBRANCH   6   9
ENDBRANCH   5   6
BRANCH   5  11
ATOM     11  O   UNL     1      26.939  42.973 140.539  1.00  0.00    -0.387 OA
ATOM     12  H   UNL     1      26.794  42.061 140.906  1.00  0.00     0.211 HD
ENDBRANCH   5  11
ENDBRANCH   1   5
BRANCH   1  13
ATOM     13  O   UNL     1      23.750  43.886 140.185  1.00  0.00    -0.388 OA
ATOM     14  H   UNL     1      23.168  44.414 139.577  1.00  0.00     0.211 HD
ENDBRANCH   1  13
TORSDOF 8
ENDMDL
MODEL 7
REMARK VINA RESULT:    -3.134      2.163      4.253
REMARK INTER + INTRA:          -4.899
REMARK INTER:                  -3.922
REMARK INTRA:                  -0.977
REMARK UNBOUND:                -0.666
REMARK SMILES O=C[C@@H](O)[C@H](O)[C@H](O)CO
REMARK SMILES IDX 7 1 9 2 10 3 5 5 3 6 2 7 1 8 4 9 6 11 8 13
REMARK H PARENT 10 4 4 10 6 12 8 14
REMARK Flexibility Score: inf
ROOT
ATOM      1  C   UNL     1      24.138  44.743 143.217  1.00  0.00     0.171 C 
ENDROOT
BRANCH   1   2
ATOM      2  C   UNL     1      23.831  45.024 141.737  1.00  0.00     0.190 C 
BRANCH   2   3
ATOM      3  O   UNL     1      24.970  44.792 140.953  1.00  0.00    -0.394 OA
ATOM      4  H   UNL     1      25.324  43.903 141.220  1.00  0.00     0.210 HD
ENDBRANCH   2   3
ENDBRANCH   1   2
BRANCH   1   5
ATOM      5  C   UNL     1      24.431  43.243 143.491  1.00  0.00     0.181 C 
BRANCH   5   6
ATOM      6  C   UNL     1      25.943  42.901 143.557  1.00  0.00     0.209 C 
BRANCH   6   7
ATOM      7  C   UNL     1      26.344  41.951 142.456  1.00  0.00     0.258 C 
ATOM      8  O   UNL     1      26.512  42.368 141.321  1.00  0.00    -0.300 OA
ENDBRANCH   6   7
BRANCH   6   9
ATOM      9  O   UNL     1      26.739  44.060 143.513  1.00  0.00    -0.383 OA
ATOM     10  H   UNL     1      26.856  44.310 142.559  1.00  0.00     0.211 HD
ENDBRANCH   6   9
ENDBRANCH   5   6
BRANCH   5  11
ATOM     11  O   UNL     1      23.813  42.453 142.505  1.00  0.00    -0.387 OA
ATOM     12  H   UNL     1      23.089  41.943 142.953  1.00  0.00     0.211 HD
ENDBRANCH   5  11
ENDBRANCH   1   5
BRANCH   1  13
ATOM     13  O   UNL     1      23.070  45.201 144.007  1.00  0.00    -0.388 OA
ATOM     14  H   UNL     1      22.814  44.455 144.610  1.00  0.00     0.211 HD
ENDBRANCH   1  13
TORSDOF 8
ENDMDL
MODEL 8
REMARK VINA RESULT:    -3.133      1.702      2.717
REMARK INTER + INTRA:          -4.898
REMARK INTER:                  -4.084
REMARK INTRA:                  -0.814
REMARK UNBOUND:                -0.666
REMARK SMILES O=C[C@@H](O)[C@H](O)[C@H](O)CO
REMARK SMILES IDX 7 1 9 2 10 3 5 5 3 6 2 7 1 8 4 9 6 11 8 13
REMARK H PARENT 10 4 4 10 6 12 8 14
REMARK Flexibility Score: inf
ROOT
ATOM      1  C   UNL     1      26.767  44.946 142.272  1.00  0.00     0.171 C 
ENDROOT
BRANCH   1   2
ATOM      2  C   UNL     1      27.844  44.176 143.052  1.00  0.00     0.190 C 
BRANCH   2   3
ATOM      3  O   UNL     1      27.455  44.015 144.389  1.00  0.00    -0.394 OA
ATOM      4  H   UNL     1      26.774  44.716 144.574  1.00  0.00     0.210 HD
ENDBRANCH   2   3
ENDBRANCH   1   2
BRANCH   1   5
ATOM      5  C   UNL     1      25.736  44.004 141.591  1.00  0.00     0.181 C 
BRANCH   5   6
ATOM      6  C   UNL     1      24.568  43.576 142.518  1.00  0.00     0.209 C 
BRANCH   6   7
ATOM      7  C   UNL     1      24.651  42.112 142.871  1.00  0.00     0.258 C 
ATOM      8  O   UNL     1      25.490  41.722 143.668  1.00  0.00    -0.300 OA
ENDBRANCH   6   7
BRANCH   6   9
ATOM      9  O   UNL     1      24.523  44.356 143.687  1.00  0.00    -0.383 OA
ATOM     10  H   UNL     1      24.298  45.287 143.422  1.00  0.00     0.211 HD
ENDBRANCH   6   9
ENDBRANCH   5   6
BRANCH   5  11
ATOM     11  O   UNL     1      26.393  42.860 141.103  1.00  0.00    -0.387 OA
ATOM     12  H   UNL     1      25.979  42.637 140.228  1.00  0.00     0.211 HD
ENDBRANCH   5  11
ENDBRANCH   1   5
BRANCH   1  13
ATOM     13  O   UNL     1      27.386  45.783 141.328  1.00  0.00    -0.388 OA
ATOM     14  H   UNL     1      27.647  45.211 140.560  1.00  0.00     0.211 HD
ENDBRANCH   1  13
TORSDOF 8
ENDMDL
MODEL 9
REMARK VINA RESULT:    -3.085      1.230      3.998
REMARK INTER + INTRA:          -4.833
REMARK INTER:                  -3.877
REMARK INTRA:                  -0.956
REMARK UNBOUND:                -0.666
REMARK SMILES O=C[C@@H](O)[C@H](O)[C@H](O)CO
REMARK SMILES IDX 7 1 9 2 10 3 5 5 3 6 2 7 1 8 4 9 6 11 8 13
REMARK H PARENT 10 4 4 10 6 12 8 14
REMARK Flexibility Score: inf
ROOT
ATOM      1  C   UNL     1      26.318  44.106 143.348  1.00  0.00     0.171 C 
ENDROOT
BRANCH   1   2
ATOM      2  C   UNL     1      26.503  44.660 141.926  1.00  0.00     0.190 C 
BRANCH   2   3
ATOM      3  O   UNL     1      27.814  45.126 141.754  1.00  0.00    -0.394 OA
ATOM      4  H   UNL     1      27.756  45.936 141.180  1.00  0.00     0.210 HD
ENDBRANCH   2   3
ENDBRANCH   1   2
BRANCH   1   5
ATOM      5  C   UNL     1      27.084  42.773 143.573  1.00  0.00     0.181 C 
BRANCH   5   6
ATOM      6  C   UNL     1      28.431  42.943 144.322  1.00  0.00     0.209 C 
BRANCH   6   7
ATOM      7  C   UNL     1      29.598  42.527 143.462  1.00  0.00     0.258 C 
ATOM      8  O   UNL     1      29.841  43.131 142.428  1.00  0.00    -0.300 OA
ENDBRANCH   6   7
BRANCH   6   9
ATOM      9  O   UNL     1      28.609  44.262 144.777  1.00  0.00    -0.383 OA
ATOM     10  H   UNL     1      29.585  44.423 144.867  1.00  0.00     0.211 HD
ENDBRANCH   6   9
ENDBRANCH   5   6
BRANCH   5  11
ATOM     11  O   UNL     1      27.309  42.144 142.336  1.00  0.00    -0.387 OA
ATOM     12  H   UNL     1      26.824  42.673 141.649  1.00  0.00     0.211 HD
ENDBRANCH   5  11
ENDBRANCH   1   5
BRANCH   1  13
ATOM     13  O   UNL     1      24.946  43.951 143.610  1.00  0.00    -0.388 OA
ATOM     14  H   UNL     1      24.836  43.077 144.068  1.00  0.00     0.211 HD
ENDBRANCH   1  13
TORSDOF 8
ENDMDL
