MODEL 1
REMARK VINA RESULT:    -7.685      0.000      0.000
REMARK INTER + INTRA:         -12.589
REMARK INTER:                 -11.728
REMARK INTRA:                  -0.862
REMARK UNBOUND:                -0.862
REMARK SMILES OC[C@@H]1O[C@@H](O[C@]2(CO)O[C@@H](CO)[C@H](O)[C@@H]2O)[C@H](O)[C@@H](O)[C@@H]1O
REMARK SMILES IDX 6 1 5 2 3 3 22 4 4 5 20 6 18 7 2 8 1 9 23 11 21 13 19 15
REMARK SMILES IDX 7 17 16 18 10 19 14 20 11 21 8 22 9 23 17 25 15 27 12 29
REMARK SMILES IDX 13 30
REMARK H PARENT 1 10 23 12 21 14 19 16 9 24 17 26 15 28 13 31
REMARK Flexibility Score: inf
ROOT
ATOM      1  O   UNL     1      -6.257 -48.064 -15.413  1.00  0.00    -0.313 OA
ENDROOT
BRANCH   1   2
ATOM      2  C   UNL     1      -4.976 -48.095 -16.035  1.00  0.00     0.285 C 
ATOM      3  C   UNL     1      -4.096 -49.451 -14.328  1.00  0.00     0.178 C 
ATOM      4  C   UNL     1      -3.165 -48.342 -13.791  1.00  0.00     0.177 C 
ATOM      5  O   UNL     1      -4.295 -49.303 -15.727  1.00  0.00    -0.341 OA
ATOM      6  C   UNL     1      -3.765 -46.960 -14.105  1.00  0.00     0.179 C 
ATOM      7  C   UNL     1      -4.156 -46.862 -15.593  1.00  0.00     0.202 C 
BRANCH   3   8
ATOM      8  C   UNL     1      -3.512 -50.843 -14.051  1.00  0.00     0.191 C 
BRANCH   8   9
ATOM      9  O   UNL     1      -4.149 -51.807 -14.845  1.00  0.00    -0.394 OA
ATOM     10  H   UNL     1      -5.089 -51.507 -14.961  1.00  0.00     0.210 HD
ENDBRANCH   8   9
ENDBRANCH   3   8
BRANCH   4  11
ATOM     11  O   UNL     1      -1.893 -48.461 -14.376  1.00  0.00    -0.387 OA
ATOM     12  H   UNL     1      -2.031 -48.808 -15.297  1.00  0.00     0.211 HD
ENDBRANCH   4  11
BRANCH   6  13
ATOM     13  O   UNL     1      -4.892 -46.747 -13.290  1.00  0.00    -0.387 OA
ATOM     14  H   UNL     1      -4.821 -47.381 -12.529  1.00  0.00     0.211 HD
ENDBRANCH   6  13
BRANCH   7  15
ATOM     15  O   UNL     1      -2.990 -46.757 -16.372  1.00  0.00    -0.385 OA
ATOM     16  H   UNL     1      -3.161 -47.251 -17.216  1.00  0.00     0.211 HD
ENDBRANCH   7  15
ENDBRANCH   1   2
BRANCH   1  17
ATOM     17  C   UNL     1      -7.342 -47.919 -16.326  1.00  0.00     0.224 C 
ATOM     18  C   UNL     1      -8.523 -48.737 -15.803  1.00  0.00     0.208 C 
ATOM     19  O   UNL     1      -7.778 -46.575 -16.364  1.00  0.00    -0.337 OA
ATOM     20  C   UNL     1      -9.172 -47.791 -14.821  1.00  0.00     0.180 C 
ATOM     21  C   UNL     1      -8.770 -46.414 -15.371  1.00  0.00     0.179 C 
BRANCH  17  22
ATOM     22  C   UNL     1      -6.951 -48.384 -17.750  1.00  0.00     0.225 C 
BRANCH  22  23
ATOM     23  O   UNL     1      -7.138 -47.354 -18.684  1.00  0.00    -0.391 OA
ATOM     24  H   UNL     1      -7.700 -47.724 -19.411  1.00  0.00     0.210 HD
ENDBRANCH  22  23
ENDBRANCH  17  22
BRANCH  18  25
ATOM     25  O   UNL     1      -8.104 -49.933 -15.196  1.00  0.00    -0.385 OA
ATOM     26  H   UNL     1      -7.367 -49.691 -14.576  1.00  0.00     0.211 HD
ENDBRANCH  18  25
BRANCH  20  27
ATOM     27  O   UNL     1      -8.641 -47.976 -13.533  1.00  0.00    -0.387 OA
ATOM     28  H   UNL     1      -7.744 -48.381 -13.654  1.00  0.00     0.211 HD
ENDBRANCH  20  27
BRANCH  21  29
ATOM     29  C   UNL     1      -9.966 -45.654 -15.961  1.00  0.00     0.191 C 
BRANCH  29  30
ATOM     30  O   UNL     1      -9.805 -45.444 -17.339  1.00  0.00    -0.394 OA
ATOM     31  H   UNL     1      -9.560 -46.320 -17.735  1.00  0.00     0.210 HD
ENDBRANCH  29  30
ENDBRANCH  21  29
ENDBRANCH   1  17
TORSDOF 13
ENDMDL
MODEL 2
REMARK VINA RESULT:    -7.654      0.960      1.411
REMARK INTER + INTRA:         -12.543
REMARK INTER:                 -11.411
REMARK INTRA:                  -1.132
REMARK UNBOUND:                -0.862
REMARK SMILES OC[C@@H]1O[C@@H](O[C@]2(CO)O[C@@H](CO)[C@H](O)[C@@H]2O)[C@H](O)[C@@H](O)[C@@H]1O
REMARK SMILES IDX 6 1 5 2 3 3 22 4 4 5 20 6 18 7 2 8 1 9 23 11 21 13 19 15
REMARK SMILES IDX 7 17 16 18 10 19 14 20 11 21 8 22 9 23 17 25 15 27 12 29
REMARK SMILES IDX 13 30
REMARK H PARENT 1 10 23 12 21 14 19 16 9 24 17 26 15 28 13 31
REMARK Flexibility Score: inf
ROOT
ATOM      1  O   UNL     1      -6.395 -48.104 -14.765  1.00  0.00    -0.313 OA
ENDROOT
BRANCH   1   2
ATOM      2  C   UNL     1      -5.328 -48.207 -15.702  1.00  0.00     0.285 C 
ATOM      3  C   UNL     1      -4.033 -49.474 -14.203  1.00  0.00     0.178 C 
ATOM      4  C   UNL     1      -2.983 -48.358 -14.011  1.00  0.00     0.177 C 
ATOM      5  O   UNL     1      -4.598 -49.411 -15.505  1.00  0.00    -0.341 OA
ATOM      6  C   UNL     1      -3.635 -46.983 -14.248  1.00  0.00     0.179 C 
ATOM      7  C   UNL     1      -4.409 -46.970 -15.582  1.00  0.00     0.202 C 
BRANCH   3   8
ATOM      8  C   UNL     1      -3.407 -50.860 -13.997  1.00  0.00     0.191 C 
BRANCH   8   9
ATOM      9  O   UNL     1      -4.023 -51.803 -14.832  1.00  0.00    -0.394 OA
ATOM     10  H   UNL     1      -3.698 -51.626 -15.753  1.00  0.00     0.210 HD
ENDBRANCH   8   9
ENDBRANCH   3   8
BRANCH   4  11
ATOM     11  O   UNL     1      -1.915 -48.546 -14.906  1.00  0.00    -0.387 OA
ATOM     12  H   UNL     1      -2.310 -48.606 -15.815  1.00  0.00     0.211 HD
ENDBRANCH   4  11
BRANCH   6  13
ATOM     13  O   UNL     1      -4.501 -46.689 -13.179  1.00  0.00    -0.387 OA
ATOM     14  H   UNL     1      -5.329 -47.216 -13.327  1.00  0.00     0.211 HD
ENDBRANCH   6  13
BRANCH   7  15
ATOM     15  O   UNL     1      -3.494 -46.946 -16.648  1.00  0.00    -0.385 OA
ATOM     16  H   UNL     1      -3.919 -47.430 -17.404  1.00  0.00     0.211 HD
ENDBRANCH   7  15
ENDBRANCH   1   2
BRANCH   1  17
ATOM     17  C   UNL     1      -7.672 -47.891 -15.361  1.00  0.00     0.224 C 
ATOM     18  C   UNL     1      -8.695 -47.682 -14.244  1.00  0.00     0.208 C 
ATOM     19  O   UNL     1      -7.669 -46.699 -16.122  1.00  0.00    -0.337 OA
ATOM     20  C   UNL     1      -8.551 -46.211 -13.934  1.00  0.00     0.180 C 
ATOM     21  C   UNL     1      -8.041 -45.638 -15.265  1.00  0.00     0.179 C 
BRANCH  17  22
ATOM     22  C   UNL     1      -8.086 -49.083 -16.257  1.00  0.00     0.225 C 
BRANCH  22  23
ATOM     23  O   UNL     1      -9.404 -49.482 -15.986  1.00  0.00    -0.391 OA
ATOM     24  H   UNL     1      -9.381 -50.461 -15.829  1.00  0.00     0.210 HD
ENDBRANCH  22  23
ENDBRANCH  17  22
BRANCH  18  25
ATOM     25  O   UNL     1      -8.425 -48.492 -13.128  1.00  0.00    -0.385 OA
ATOM     26  H   UNL     1      -7.779 -47.991 -12.565  1.00  0.00     0.211 HD
ENDBRANCH  18  25
BRANCH  20  27
ATOM     27  O   UNL     1      -7.598 -46.011 -12.921  1.00  0.00    -0.387 OA
ATOM     28  H   UNL     1      -8.103 -45.776 -12.100  1.00  0.00     0.211 HD
ENDBRANCH  20  27
BRANCH  21  29
ATOM     29  C   UNL     1      -9.096 -44.766 -15.962  1.00  0.00     0.191 C 
BRANCH  29  30
ATOM     30  O   UNL     1      -9.571 -45.379 -17.131  1.00  0.00    -0.394 OA
ATOM     31  H   UNL     1     -10.469 -45.743 -16.918  1.00  0.00     0.210 HD
ENDBRANCH  29  30
ENDBRANCH  21  29
ENDBRANCH   1  17
TORSDOF 13
ENDMDL
MODEL 3
REMARK VINA RESULT:    -7.191      1.566      2.338
REMARK INTER + INTRA:         -11.836
REMARK INTER:                 -10.848
REMARK INTRA:                  -0.988
REMARK UNBOUND:                -0.862
REMARK SMILES OC[C@@H]1O[C@@H](O[C@]2(CO)O[C@@H](CO)[C@H](O)[C@@H]2O)[C@H](O)[C@@H](O)[C@@H]1O
REMARK SMILES IDX 6 1 5 2 3 3 22 4 4 5 20 6 18 7 2 8 1 9 23 11 21 13 19 15
REMARK SMILES IDX 7 17 16 18 10 19 14 20 11 21 8 22 9 23 17 25 15 27 12 29
REMARK SMILES IDX 13 30
REMARK H PARENT 1 10 23 12 21 14 19 16 9 24 17 26 15 28 13 31
REMARK Flexibility Score: inf
ROOT
ATOM      1  O   UNL     1      -5.919 -47.685 -14.112  1.00  0.00    -0.313 OA
ENDROOT
BRANCH   1   2
ATOM      2  C   UNL     1      -5.318 -48.033 -15.355  1.00  0.00     0.285 C 
ATOM      3  C   UNL     1      -3.916 -49.612 -14.321  1.00  0.00     0.178 C 
ATOM      4  C   UNL     1      -2.632 -48.796 -14.593  1.00  0.00     0.177 C 
ATOM      5  O   UNL     1      -4.878 -49.384 -15.342  1.00  0.00    -0.341 OA
ATOM      6  C   UNL     1      -2.976 -47.298 -14.683  1.00  0.00     0.179 C 
ATOM      7  C   UNL     1      -4.150 -47.067 -15.656  1.00  0.00     0.202 C 
BRANCH   3   8
ATOM      8  C   UNL     1      -3.610 -51.114 -14.250  1.00  0.00     0.191 C 
BRANCH   8   9
ATOM      9  O   UNL     1      -2.266 -51.321 -13.909  1.00  0.00    -0.394 OA
ATOM     10  H   UNL     1      -1.959 -50.502 -13.440  1.00  0.00     0.210 HD
ENDBRANCH   8   9
ENDBRANCH   3   8
BRANCH   4  11
ATOM     11  O   UNL     1      -2.036 -49.228 -15.790  1.00  0.00    -0.387 OA
ATOM     12  H   UNL     1      -1.489 -50.027 -15.567  1.00  0.00     0.211 HD
ENDBRANCH   4  11
BRANCH   6  13
ATOM     13  O   UNL     1      -3.302 -46.819 -13.401  1.00  0.00    -0.387 OA
ATOM     14  H   UNL     1      -3.290 -47.601 -12.790  1.00  0.00     0.211 HD
ENDBRANCH   6  13
BRANCH   7  15
ATOM     15  O   UNL     1      -3.702 -47.251 -16.975  1.00  0.00    -0.385 OA
ATOM     16  H   UNL     1      -2.710 -47.271 -16.943  1.00  0.00     0.211 HD
ENDBRANCH   7  15
ENDBRANCH   1   2
BRANCH   1  17
ATOM     17  C   UNL     1      -7.335 -47.843 -14.088  1.00  0.00     0.224 C 
ATOM     18  C   UNL     1      -7.937 -46.674 -13.306  1.00  0.00     0.208 C 
ATOM     19  O   UNL     1      -7.864 -47.757 -15.396  1.00  0.00    -0.337 OA
ATOM     20  C   UNL     1      -8.037 -45.592 -14.354  1.00  0.00     0.180 C 
ATOM     21  C   UNL     1      -8.156 -46.399 -15.656  1.00  0.00     0.179 C 
BRANCH  17  22
ATOM     22  C   UNL     1      -7.745 -49.191 -13.446  1.00  0.00     0.225 C 
BRANCH  22  23
ATOM     23  O   UNL     1      -7.808 -50.209 -14.409  1.00  0.00    -0.391 OA
ATOM     24  H   UNL     1      -6.875 -50.498 -14.583  1.00  0.00     0.210 HD
ENDBRANCH  22  23
ENDBRANCH  17  22
BRANCH  18  25
ATOM     25  O   UNL     1      -7.126 -46.297 -12.222  1.00  0.00    -0.385 OA
ATOM     26  H   UNL     1      -7.719 -45.836 -11.573  1.00  0.00     0.211 HD
ENDBRANCH  18  25
BRANCH  20  27
ATOM     27  O   UNL     1      -6.869 -44.811 -14.369  1.00  0.00    -0.387 OA
ATOM     28  H   UNL     1      -6.162 -45.352 -13.932  1.00  0.00     0.211 HD
ENDBRANCH  20  27
BRANCH  21  29
ATOM     29  C   UNL     1      -9.554 -46.287 -16.281  1.00  0.00     0.191 C 
BRANCH  29  30
ATOM     30  O   UNL     1      -9.534 -45.482 -17.430  1.00  0.00    -0.394 OA
ATOM     31  H   UNL     1      -8.762 -45.783 -17.976  1.00  0.00     0.210 HD
ENDBRANCH  29  30
ENDBRANCH  21  29
ENDBRANCH   1  17
TORSDOF 13
ENDMDL
MODEL 4
REMARK VINA RESULT:    -7.129      1.682      2.168
REMARK INTER + INTRA:         -11.742
REMARK INTER:                 -10.662
REMARK INTRA:                  -1.080
REMARK UNBOUND:                -0.862
REMARK SMILES OC[C@@H]1O[C@@H](O[C@]2(CO)O[C@@H](CO)[C@H](O)[C@@H]2O)[C@H](O)[C@@H](O)[C@@H]1O
REMARK SMILES IDX 6 1 5 2 3 3 22 4 4 5 20 6 18 7 2 8 1 9 23 11 21 13 19 15
REMARK SMILES IDX 7 17 16 18 10 19 14 20 11 21 8 22 9 23 17 25 15 27 12 29
REMARK SMILES IDX 13 30
REMARK H PARENT 1 10 23 12 21 14 19 16 9 24 17 26 15 28 13 31
REMARK Flexibility Score: inf
ROOT
ATOM      1  O   UNL     1      -6.463 -47.804 -15.062  1.00  0.00    -0.313 OA
ENDROOT
BRANCH   1   2
ATOM      2  C   UNL     1      -5.496 -46.798 -15.347  1.00  0.00     0.285 C 
ATOM      3  C   UNL     1      -3.725 -48.325 -15.104  1.00  0.00     0.178 C 
ATOM      4  C   UNL     1      -3.191 -47.654 -13.819  1.00  0.00     0.177 C 
ATOM      5  O   UNL     1      -4.341 -47.366 -15.951  1.00  0.00    -0.341 OA
ATOM      6  C   UNL     1      -4.345 -46.948 -13.082  1.00  0.00     0.179 C 
ATOM      7  C   UNL     1      -5.134 -46.043 -14.048  1.00  0.00     0.202 C 
BRANCH   3   8
ATOM      8  C   UNL     1      -2.593 -49.018 -15.874  1.00  0.00     0.191 C 
BRANCH   8   9
ATOM      9  O   UNL     1      -1.589 -49.441 -14.991  1.00  0.00    -0.394 OA
ATOM     10  H   UNL     1      -0.831 -49.757 -15.549  1.00  0.00     0.210 HD
ENDBRANCH   8   9
ENDBRANCH   3   8
BRANCH   4  11
ATOM     11  O   UNL     1      -2.187 -46.726 -14.146  1.00  0.00    -0.387 OA
ATOM     12  H   UNL     1      -2.160 -46.670 -15.137  1.00  0.00     0.211 HD
ENDBRANCH   4  11
BRANCH   6  13
ATOM     13  O   UNL     1      -5.194 -47.916 -12.516  1.00  0.00    -0.387 OA
ATOM     14  H   UNL     1      -5.917 -47.424 -12.045  1.00  0.00     0.211 HD
ENDBRANCH   6  13
BRANCH   7  15
ATOM     15  O   UNL     1      -4.364 -44.906 -14.353  1.00  0.00    -0.385 OA
ATOM     16  H   UNL     1      -3.519 -45.231 -14.761  1.00  0.00     0.211 HD
ENDBRANCH   7  15
ENDBRANCH   1   2
BRANCH   1  17
ATOM     17  C   UNL     1      -7.803 -47.421 -15.361  1.00  0.00     0.224 C 
ATOM     18  C   UNL     1      -8.738 -48.537 -14.890  1.00  0.00     0.208 C 
ATOM     19  O   UNL     1      -8.163 -46.269 -14.627  1.00  0.00    -0.337 OA
ATOM     20  C   UNL     1      -8.930 -48.212 -13.429  1.00  0.00     0.180 C 
ATOM     21  C   UNL     1      -8.703 -46.694 -13.392  1.00  0.00     0.179 C 
BRANCH  17  22
ATOM     22  C   UNL     1      -7.994 -47.159 -16.875  1.00  0.00     0.225 C 
BRANCH  22  23
ATOM     23  O   UNL     1      -8.889 -46.101 -17.092  1.00  0.00    -0.391 OA
ATOM     24  H   UNL     1      -8.523 -45.564 -17.841  1.00  0.00     0.210 HD
ENDBRANCH  22  23
ENDBRANCH  17  22
BRANCH  18  25
ATOM     25  O   UNL     1      -8.174 -49.810 -15.086  1.00  0.00    -0.385 OA
ATOM     26  H   UNL     1      -7.722 -49.785 -15.970  1.00  0.00     0.211 HD
ENDBRANCH  18  25
BRANCH  20  27
ATOM     27  O   UNL     1      -7.965 -48.869 -12.646  1.00  0.00    -0.387 OA
ATOM     28  H   UNL     1      -7.333 -49.298 -13.279  1.00  0.00     0.211 HD
ENDBRANCH  20  27
BRANCH  21  29
ATOM     29  C   UNL     1      -9.999 -45.921 -13.108  1.00  0.00     0.191 C 
BRANCH  29  30
ATOM     30  O   UNL     1      -9.784 -44.892 -12.178  1.00  0.00    -0.394 OA
ATOM     31  H   UNL     1      -9.917 -45.288 -11.278  1.00  0.00     0.210 HD
ENDBRANCH  29  30
ENDBRANCH  21  29
ENDBRANCH   1  17
TORSDOF 13
ENDMDL
MODEL 5
REMARK VINA RESULT:    -7.033      1.269      5.773
REMARK INTER + INTRA:         -11.595
REMARK INTER:                 -10.317
REMARK INTRA:                  -1.279
REMARK UNBOUND:                -0.862
REMARK SMILES OC[C@@H]1O[C@@H](O[C@]2(CO)O[C@@H](CO)[C@H](O)[C@@H]2O)[C@H](O)[C@@H](O)[C@@H]1O
REMARK SMILES IDX 6 1 5 2 3 3 22 4 4 5 20 6 18 7 2 8 1 9 23 11 21 13 19 15
REMARK SMILES IDX 7 17 16 18 10 19 14 20 11 21 8 22 9 23 17 25 15 27 12 29
REMARK SMILES IDX 13 30
REMARK H PARENT 1 10 23 12 21 14 19 16 9 24 17 26 15 28 13 31
REMARK Flexibility Score: inf
ROOT
ATOM      1  O   UNL     1      -5.683 -47.633 -14.967  1.00  0.00    -0.313 OA
ENDROOT
BRANCH   1   2
ATOM      2  C   UNL     1      -6.602 -48.102 -15.948  1.00  0.00     0.285 C 
ATOM      3  C   UNL     1      -8.215 -46.518 -15.304  1.00  0.00     0.178 C 
ATOM      4  C   UNL     1      -9.178 -47.583 -14.733  1.00  0.00     0.177 C 
ATOM      5  O   UNL     1      -7.457 -47.053 -16.380  1.00  0.00    -0.341 OA
ATOM      6  C   UNL     1      -8.377 -48.813 -14.267  1.00  0.00     0.179 C 
ATOM      7  C   UNL     1      -7.413 -49.286 -15.375  1.00  0.00     0.202 C 
BRANCH   3   8
ATOM      8  C   UNL     1      -8.987 -45.288 -15.799  1.00  0.00     0.191 C 
BRANCH   8   9
ATOM      9  O   UNL     1      -9.413 -45.479 -17.120  1.00  0.00    -0.394 OA
ATOM     10  H   UNL     1     -10.380 -45.252 -17.145  1.00  0.00     0.210 HD
ENDBRANCH   8   9
ENDBRANCH   3   8
BRANCH   4  11
ATOM     11  O   UNL     1     -10.111 -47.958 -15.715  1.00  0.00    -0.387 OA
ATOM     12  H   UNL     1     -10.439 -47.120 -16.135  1.00  0.00     0.211 HD
ENDBRANCH   4  11
BRANCH   6  13
ATOM     13  O   UNL     1      -7.659 -48.486 -13.103  1.00  0.00    -0.387 OA
ATOM     14  H   UNL     1      -7.875 -49.181 -12.427  1.00  0.00     0.211 HD
ENDBRANCH   6  13
BRANCH   7  15
ATOM     15  O   UNL     1      -8.152 -49.903 -16.400  1.00  0.00    -0.385 OA
ATOM     16  H   UNL     1      -8.937 -50.333 -15.971  1.00  0.00     0.211 HD
ENDBRANCH   7  15
ENDBRANCH   1   2
BRANCH   1  17
ATOM     17  C   UNL     1      -4.395 -48.240 -15.041  1.00  0.00     0.224 C 
ATOM     18  C   UNL     1      -3.545 -47.707 -13.886  1.00  0.00     0.208 C 
ATOM     19  O   UNL     1      -4.496 -49.637 -14.845  1.00  0.00    -0.337 OA
ATOM     20  C   UNL     1      -3.945 -48.604 -12.739  1.00  0.00     0.180 C 
ATOM     21  C   UNL     1      -4.386 -49.888 -13.458  1.00  0.00     0.179 C 
BRANCH  17  22
ATOM     22  C   UNL     1      -3.708 -47.950 -16.397  1.00  0.00     0.225 C 
BRANCH  22  23
ATOM     23  O   UNL     1      -3.277 -46.617 -16.467  1.00  0.00    -0.391 OA
ATOM     24  H   UNL     1      -2.411 -46.570 -15.986  1.00  0.00     0.210 HD
ENDBRANCH  22  23
ENDBRANCH  17  22
BRANCH  18  25
ATOM     25  O   UNL     1      -3.810 -46.352 -13.623  1.00  0.00    -0.385 OA
ATOM     26  H   UNL     1      -4.397 -46.032 -14.357  1.00  0.00     0.211 HD
ENDBRANCH  18  25
BRANCH  20  27
ATOM     27  O   UNL     1      -5.023 -48.047 -12.030  1.00  0.00    -0.387 OA
ATOM     28  H   UNL     1      -4.694 -47.199 -11.637  1.00  0.00     0.211 HD
ENDBRANCH  20  27
BRANCH  21  29
ATOM     29  C   UNL     1      -3.407 -51.048 -13.225  1.00  0.00     0.191 C 
BRANCH  29  30
ATOM     30  O   UNL     1      -2.293 -50.950 -14.073  1.00  0.00    -0.394 OA
ATOM     31  H   UNL     1      -2.633 -50.660 -14.959  1.00  0.00     0.210 HD
ENDBRANCH  29  30
ENDBRANCH  21  29
ENDBRANCH   1  17
TORSDOF 13
ENDMDL
MODEL 6
REMARK VINA RESULT:    -6.859      1.544      5.762
REMARK INTER + INTRA:         -11.329
REMARK INTER:                 -10.114
REMARK INTRA:                  -1.216
REMARK UNBOUND:                -0.862
REMARK SMILES OC[C@@H]1O[C@@H](O[C@]2(CO)O[C@@H](CO)[C@H](O)[C@@H]2O)[C@H](O)[C@@H](O)[C@@H]1O
REMARK SMILES IDX 6 1 5 2 3 3 22 4 4 5 20 6 18 7 2 8 1 9 23 11 21 13 19 15
REMARK SMILES IDX 7 17 16 18 10 19 14 20 11 21 8 22 9 23 17 25 15 27 12 29
REMARK SMILES IDX 13 30
REMARK H PARENT 1 10 23 12 21 14 19 16 9 24 17 26 15 28 13 31
REMARK Flexibility Score: inf
ROOT
ATOM      1  O   UNL     1      -5.287 -48.399 -15.355  1.00  0.00    -0.313 OA
ENDROOT
BRANCH   1   2
ATOM      2  C   UNL     1      -6.094 -47.448 -16.043  1.00  0.00     0.285 C 
ATOM      3  C   UNL     1      -7.749 -47.535 -14.375  1.00  0.00     0.178 C 
ATOM      4  C   UNL     1      -8.785 -48.214 -15.298  1.00  0.00     0.177 C 
ATOM      5  O   UNL     1      -6.881 -46.699 -15.127  1.00  0.00    -0.341 OA
ATOM      6  C   UNL     1      -8.059 -49.031 -16.383  1.00  0.00     0.179 C 
ATOM      7  C   UNL     1      -6.981 -48.174 -17.079  1.00  0.00     0.202 C 
BRANCH   3   8
ATOM      8  C   UNL     1      -8.443 -46.693 -13.296  1.00  0.00     0.191 C 
BRANCH   8   9
ATOM      9  O   UNL     1      -7.568 -45.714 -12.803  1.00  0.00    -0.394 OA
ATOM     10  H   UNL     1      -7.807 -44.863 -13.256  1.00  0.00     0.210 HD
ENDBRANCH   8   9
ENDBRANCH   3   8
BRANCH   4  11
ATOM     11  O   UNL     1      -9.605 -47.241 -15.894  1.00  0.00    -0.387 OA
ATOM     12  H   UNL     1      -9.807 -46.567 -15.193  1.00  0.00     0.211 HD
ENDBRANCH   4  11
BRANCH   6  13
ATOM     13  O   UNL     1      -7.474 -50.167 -15.796  1.00  0.00    -0.387 OA
ATOM     14  H   UNL     1      -7.096 -49.878 -14.925  1.00  0.00     0.211 HD
ENDBRANCH   6  13
BRANCH   7  15
ATOM     15  O   UNL     1      -7.606 -47.234 -17.917  1.00  0.00    -0.385 OA
ATOM     16  H   UNL     1      -8.193 -46.679 -17.341  1.00  0.00     0.211 HD
ENDBRANCH   7  15
ENDBRANCH   1   2
BRANCH   1  17
ATOM     17  C   UNL     1      -3.921 -48.014 -15.225  1.00  0.00     0.224 C 
ATOM     18  C   UNL     1      -3.636 -47.744 -13.747  1.00  0.00     0.208 C 
ATOM     19  O   UNL     1      -3.070 -49.078 -15.603  1.00  0.00    -0.337 OA
ATOM     20  C   UNL     1      -3.339 -49.123 -13.210  1.00  0.00     0.180 C 
ATOM     21  C   UNL     1      -2.819 -49.860 -14.453  1.00  0.00     0.179 C 
BRANCH  17  22
ATOM     22  C   UNL     1      -3.601 -46.760 -16.075  1.00  0.00     0.225 C 
BRANCH  22  23
ATOM     23  O   UNL     1      -3.422 -45.633 -15.260  1.00  0.00    -0.391 OA
ATOM     24  H   UNL     1      -2.474 -45.635 -14.971  1.00  0.00     0.210 HD
ENDBRANCH  22  23
ENDBRANCH  17  22
BRANCH  18  25
ATOM     25  O   UNL     1      -4.732 -47.144 -13.104  1.00  0.00    -0.385 OA
ATOM     26  H   UNL     1      -4.783 -46.212 -13.443  1.00  0.00     0.211 HD
ENDBRANCH  18  25
BRANCH  20  27
ATOM     27  O   UNL     1      -4.514 -49.732 -12.738  1.00  0.00    -0.387 OA
ATOM     28  H   UNL     1      -5.168 -49.698 -13.483  1.00  0.00     0.211 HD
ENDBRANCH  20  27
BRANCH  21  29
ATOM     29  C   UNL     1      -1.317 -50.164 -14.361  1.00  0.00     0.191 C 
BRANCH  29  30
ATOM     30  O   UNL     1      -0.577 -49.340 -15.223  1.00  0.00    -0.394 OA
ATOM     31  H   UNL     1       0.000 -48.772 -14.650  1.00  0.00     0.210 HD
ENDBRANCH  29  30
ENDBRANCH  21  29
ENDBRANCH   1  17
TORSDOF 13
ENDMDL
MODEL 7
REMARK VINA RESULT:    -6.826      1.476      5.726
REMARK INTER + INTRA:         -11.279
REMARK INTER:                 -10.053
REMARK INTRA:                  -1.226
REMARK UNBOUND:                -0.862
REMARK SMILES OC[C@@H]1O[C@@H](O[C@]2(CO)O[C@@H](CO)[C@H](O)[C@@H]2O)[C@H](O)[C@@H](O)[C@@H]1O
REMARK SMILES IDX 6 1 5 2 3 3 22 4 4 5 20 6 18 7 2 8 1 9 23 11 21 13 19 15
REMARK SMILES IDX 7 17 16 18 10 19 14 20 11 21 8 22 9 23 17 25 15 27 12 29
REMARK SMILES IDX 13 30
REMARK H PARENT 1 10 23 12 21 14 19 16 9 24 17 26 15 28 13 31
REMARK Flexibility Score: inf
ROOT
ATOM      1  O   UNL     1      -5.624 -48.838 -15.364  1.00  0.00    -0.313 OA
ENDROOT
BRANCH   1   2
ATOM      2  C   UNL     1      -5.871 -47.896 -16.402  1.00  0.00     0.285 C 
ATOM      3  C   UNL     1      -7.468 -46.764 -15.100  1.00  0.00     0.178 C 
ATOM      4  C   UNL     1      -8.650 -47.191 -16.000  1.00  0.00     0.177 C 
ATOM      5  O   UNL     1      -6.276 -46.645 -15.863  1.00  0.00    -0.341 OA
ATOM      6  C   UNL     1      -8.320 -48.525 -16.695  1.00  0.00     0.179 C 
ATOM      7  C   UNL     1      -6.936 -48.459 -17.371  1.00  0.00     0.202 C 
BRANCH   3   8
ATOM      8  C   UNL     1      -7.757 -45.424 -14.411  1.00  0.00     0.191 C 
BRANCH   8   9
ATOM      9  O   UNL     1      -6.656 -45.023 -13.642  1.00  0.00    -0.394 OA
ATOM     10  H   UNL     1      -6.563 -44.042 -13.764  1.00  0.00     0.210 HD
ENDBRANCH   8   9
ENDBRANCH   3   8
BRANCH   4  11
ATOM     11  O   UNL     1      -8.903 -46.195 -16.960  1.00  0.00    -0.387 OA
ATOM     12  H   UNL     1      -9.753 -46.441 -17.412  1.00  0.00     0.211 HD
ENDBRANCH   4  11
BRANCH   6  13
ATOM     13  O   UNL     1      -8.351 -49.562 -15.746  1.00  0.00    -0.387 OA
ATOM     14  H   UNL     1      -9.242 -49.528 -15.311  1.00  0.00     0.211 HD
ENDBRANCH   6  13
BRANCH   7  15
ATOM     15  O   UNL     1      -7.017 -47.648 -18.517  1.00  0.00    -0.385 OA
ATOM     16  H   UNL     1      -6.461 -48.081 -19.217  1.00  0.00     0.211 HD
ENDBRANCH   7  15
ENDBRANCH   1   2
BRANCH   1  17
ATOM     17  C   UNL     1      -4.242 -49.040 -15.080  1.00  0.00     0.224 C 
ATOM     18  C   UNL     1      -3.963 -48.532 -13.664  1.00  0.00     0.208 C 
ATOM     19  O   UNL     1      -3.937 -50.420 -15.072  1.00  0.00    -0.337 OA
ATOM     20  C   UNL     1      -4.352 -49.713 -12.807  1.00  0.00     0.180 C 
ATOM     21  C   UNL     1      -4.138 -50.900 -13.758  1.00  0.00     0.179 C 
BRANCH  17  22
ATOM     22  C   UNL     1      -3.340 -48.309 -16.103  1.00  0.00     0.225 C 
BRANCH  22  23
ATOM     23  O   UNL     1      -2.082 -48.924 -16.194  1.00  0.00    -0.391 OA
ATOM     24  H   UNL     1      -2.239 -49.854 -16.499  1.00  0.00     0.210 HD
ENDBRANCH  22  23
ENDBRANCH  17  22
BRANCH  18  25
ATOM     25  O   UNL     1      -4.713 -47.383 -13.362  1.00  0.00    -0.385 OA
ATOM     26  H   UNL     1      -4.085 -46.615 -13.415  1.00  0.00     0.211 HD
ENDBRANCH  18  25
BRANCH  20  27
ATOM     27  O   UNL     1      -5.703 -49.627 -12.431  1.00  0.00    -0.387 OA
ATOM     28  H   UNL     1      -5.872 -48.676 -12.202  1.00  0.00     0.211 HD
ENDBRANCH  20  27
BRANCH  21  29
ATOM     29  C   UNL     1      -2.941 -51.767 -13.342  1.00  0.00     0.191 C 
BRANCH  29  30
ATOM     30  O   UNL     1      -1.780 -51.399 -14.039  1.00  0.00    -0.394 OA
ATOM     31  H   UNL     1      -1.462 -52.212 -14.512  1.00  0.00     0.210 HD
ENDBRANCH  29  30
ENDBRANCH  21  29
ENDBRANCH   1  17
TORSDOF 13
ENDMDL
MODEL 8
REMARK VINA RESULT:    -6.816      1.806      2.922
REMARK INTER + INTRA:         -11.264
REMARK INTER:                 -10.484
REMARK INTRA:                  -0.779
REMARK UNBOUND:                -0.862
REMARK SMILES OC[C@@H]1O[C@@H](O[C@]2(CO)O[C@@H](CO)[C@H](O)[C@@H]2O)[C@H](O)[C@@H](O)[C@@H]1O
REMARK SMILES IDX 6 1 5 2 3 3 22 4 4 5 20 6 18 7 2 8 1 9 23 11 21 13 19 15
REMARK SMILES IDX 7 17 16 18 10 19 14 20 11 21 8 22 9 23 17 25 15 27 12 29
REMARK SMILES IDX 13 30
REMARK H PARENT 1 10 23 12 21 14 19 16 9 24 17 26 15 28 13 31
REMARK Flexibility Score: inf
ROOT
ATOM      1  O   UNL     1      -7.003 -48.983 -14.884  1.00  0.00    -0.313 OA
ENDROOT
BRANCH   1   2
ATOM      2  C   UNL     1      -6.142 -48.664 -13.796  1.00  0.00     0.285 C 
ATOM      3  C   UNL     1      -4.236 -49.290 -15.022  1.00  0.00     0.178 C 
ATOM      4  C   UNL     1      -3.946 -50.519 -14.133  1.00  0.00     0.177 C 
ATOM      5  O   UNL     1      -4.862 -48.263 -14.267  1.00  0.00    -0.341 OA
ATOM      6  C   UNL     1      -5.257 -51.033 -13.510  1.00  0.00     0.179 C 
ATOM      7  C   UNL     1      -6.033 -49.878 -12.846  1.00  0.00     0.202 C 
BRANCH   3   8
ATOM      8  C   UNL     1      -2.943 -48.739 -15.639  1.00  0.00     0.191 C 
BRANCH   8   9
ATOM      9  O   UNL     1      -2.224 -48.003 -14.688  1.00  0.00    -0.394 OA
ATOM     10  H   UNL     1      -2.891 -47.518 -14.136  1.00  0.00     0.210 HD
ENDBRANCH   8   9
ENDBRANCH   3   8
BRANCH   4  11
ATOM     11  O   UNL     1      -3.034 -50.172 -13.121  1.00  0.00    -0.387 OA
ATOM     12  H   UNL     1      -3.530 -49.617 -12.464  1.00  0.00     0.211 HD
ENDBRANCH   4  11
BRANCH   6  13
ATOM     13  O   UNL     1      -6.041 -51.636 -14.510  1.00  0.00    -0.387 OA
ATOM     14  H   UNL     1      -6.461 -52.438 -14.102  1.00  0.00     0.211 HD
ENDBRANCH   6  13
BRANCH   7  15
ATOM     15  O   UNL     1      -5.380 -49.501 -11.660  1.00  0.00    -0.385 OA
ATOM     16  H   UNL     1      -5.756 -50.062 -10.932  1.00  0.00     0.211 HD
ENDBRANCH   7  15
ENDBRANCH   1   2
BRANCH   1  17
ATOM     17  C   UNL     1      -7.611 -47.849 -15.496  1.00  0.00     0.224 C 
ATOM     18  C   UNL     1      -9.109 -48.122 -15.634  1.00  0.00     0.208 C 
ATOM     19  O   UNL     1      -7.492 -46.715 -14.660  1.00  0.00    -0.337 OA
ATOM     20  C   UNL     1      -9.644 -47.726 -14.279  1.00  0.00     0.180 C 
ATOM     21  C   UNL     1      -8.617 -46.687 -13.805  1.00  0.00     0.179 C 
BRANCH  17  22
ATOM     22  C   UNL     1      -6.986 -47.547 -16.880  1.00  0.00     0.225 C 
BRANCH  22  23
ATOM     23  O   UNL     1      -7.011 -48.685 -17.701  1.00  0.00    -0.391 OA
ATOM     24  H   UNL     1      -6.765 -49.457 -17.129  1.00  0.00     0.210 HD
ENDBRANCH  22  23
ENDBRANCH  17  22
BRANCH  18  25
ATOM     25  O   UNL     1      -9.370 -49.468 -15.940  1.00  0.00    -0.385 OA
ATOM     26  H   UNL     1      -9.788 -49.865 -15.132  1.00  0.00     0.211 HD
ENDBRANCH  18  25
BRANCH  20  27
ATOM     27  O   UNL     1      -9.655 -48.832 -13.411  1.00  0.00    -0.387 OA
ATOM     28  H   UNL     1     -10.429 -49.392 -13.678  1.00  0.00     0.211 HD
ENDBRANCH  20  27
BRANCH  21  29
ATOM     29  C   UNL     1      -9.200 -45.268 -13.774  1.00  0.00     0.191 C 
BRANCH  29  30
ATOM     30  O   UNL     1      -9.490 -44.866 -12.461  1.00  0.00    -0.394 OA
ATOM     31  H   UNL     1      -9.473 -43.873 -12.456  1.00  0.00     0.210 HD
ENDBRANCH  29  30
ENDBRANCH  21  29
ENDBRANCH   1  17
TORSDOF 13
ENDMDL
MODEL 9
REMARK VINA RESULT:    -6.705      1.939      3.409
REMARK INTER + INTRA:         -11.094
REMARK INTER:                  -9.999
REMARK INTRA:                  -1.094
REMARK UNBOUND:                -0.862
REMARK SMILES OC[C@@H]1O[C@@H](O[C@]2(CO)O[C@@H](CO)[C@H](O)[C@@H]2O)[C@H](O)[C@@H](O)[C@@H]1O
REMARK SMILES IDX 6 1 5 2 3 3 22 4 4 5 20 6 18 7 2 8 1 9 23 11 21 13 19 15
REMARK SMILES IDX 7 17 16 18 10 19 14 20 11 21 8 22 9 23 17 25 15 27 12 29
REMARK SMILES IDX 13 30
REMARK H PARENT 1 10 23 12 21 14 19 16 9 24 17 26 15 28 13 31
REMARK Flexibility Score: inf
ROOT
ATOM      1  O   UNL     1      -6.297 -48.266 -14.422  1.00  0.00    -0.313 OA
ENDROOT
BRANCH   1   2
ATOM      2  C   UNL     1      -5.336 -48.472 -13.392  1.00  0.00     0.285 C 
ATOM      3  C   UNL     1      -3.795 -49.392 -14.908  1.00  0.00     0.178 C 
ATOM      4  C   UNL     1      -3.891 -50.809 -14.300  1.00  0.00     0.177 C 
ATOM      5  O   UNL     1      -4.016 -48.404 -13.912  1.00  0.00    -0.341 OA
ATOM      6  C   UNL     1      -5.273 -51.003 -13.649  1.00  0.00     0.179 C 
ATOM      7  C   UNL     1      -5.597 -49.830 -12.702  1.00  0.00     0.202 C 
BRANCH   3   8
ATOM      8  C   UNL     1      -2.418 -49.160 -15.546  1.00  0.00     0.191 C 
BRANCH   8   9
ATOM      9  O   UNL     1      -1.483 -48.794 -14.568  1.00  0.00    -0.394 OA
ATOM     10  H   UNL     1      -1.948 -48.847 -13.692  1.00  0.00     0.210 HD
ENDBRANCH   8   9
ENDBRANCH   3   8
BRANCH   4  11
ATOM     11  O   UNL     1      -2.877 -50.990 -13.345  1.00  0.00    -0.387 OA
ATOM     12  H   UNL     1      -2.359 -51.790 -13.623  1.00  0.00     0.211 HD
ENDBRANCH   4  11
BRANCH   6  13
ATOM     13  O   UNL     1      -6.251 -51.103 -14.655  1.00  0.00    -0.387 OA
ATOM     14  H   UNL     1      -6.150 -52.001 -15.065  1.00  0.00     0.211 HD
ENDBRANCH   6  13
BRANCH   7  15
ATOM     15  O   UNL     1      -4.810 -49.938 -11.542  1.00  0.00    -0.385 OA
ATOM     16  H   UNL     1      -4.889 -49.075 -11.058  1.00  0.00     0.211 HD
ENDBRANCH   7  15
ENDBRANCH   1   2
BRANCH   1  17
ATOM     17  C   UNL     1      -6.997 -47.028 -14.324  1.00  0.00     0.224 C 
ATOM     18  C   UNL     1      -8.010 -46.957 -15.468  1.00  0.00     0.208 C 
ATOM     19  O   UNL     1      -7.748 -46.979 -13.128  1.00  0.00    -0.337 OA
ATOM     20  C   UNL     1      -9.192 -47.713 -14.910  1.00  0.00     0.180 C 
ATOM     21  C   UNL     1      -9.024 -47.524 -13.395  1.00  0.00     0.179 C 
BRANCH  17  22
ATOM     22  C   UNL     1      -6.028 -45.822 -14.385  1.00  0.00     0.225 C 
BRANCH  22  23
ATOM     23  O   UNL     1      -6.678 -44.636 -14.011  1.00  0.00    -0.391 OA
ATOM     24  H   UNL     1      -6.022 -44.100 -13.496  1.00  0.00     0.210 HD
ENDBRANCH  22  23
ENDBRANCH  17  22
BRANCH  18  25
ATOM     25  O   UNL     1      -7.512 -47.537 -16.647  1.00  0.00    -0.385 OA
ATOM     26  H   UNL     1      -8.204 -47.398 -17.344  1.00  0.00     0.211 HD
ENDBRANCH  18  25
BRANCH  20  27
ATOM     27  O   UNL     1      -9.107 -49.076 -15.243  1.00  0.00    -0.387 OA
ATOM     28  H   UNL     1      -8.799 -49.117 -16.185  1.00  0.00     0.211 HD
ENDBRANCH  20  27
BRANCH  21  29
ATOM     29  C   UNL     1     -10.105 -46.609 -12.802  1.00  0.00     0.191 C 
BRANCH  29  30
ATOM     30  O   UNL     1      -9.595 -45.330 -12.531  1.00  0.00    -0.394 OA
ATOM     31  H   UNL     1      -8.956 -45.116 -13.259  1.00  0.00     0.210 HD
ENDBRANCH  29  30
ENDBRANCH  21  29
ENDBRANCH   1  17
TORSDOF 13
ENDMDL
