MODEL 1
REMARK VINA RESULT:    -6.896      0.000      0.000
REMARK INTER + INTRA:         -11.746
REMARK INTER:                 -10.524
REMARK INTRA:                  -1.221
REMARK UNBOUND:                -1.221
REMARK SMILES CC(=O)CCC=C(C)CCC=C(C)CCC=C(C)C
REMARK SMILES IDX 10 1 11 2 12 3 13 4 14 5 15 6 16 7 18 8 17 9 19 10 9 11 7 12
REMARK SMILES IDX 6 13 8 14 5 15 4 16 2 17 3 18 1 19
REMARK H PARENT
REMARK Flexibility Score: inf
ROOT
ATOM      1  C   UNL     1     -10.536  72.106  31.124  1.00  0.00     0.032 C 
ENDROOT
BRANCH   1   2
ATOM      2  C   UNL     1     -11.149  72.370  32.476  1.00  0.00    -0.028 C 
ATOM      3  C   UNL     1     -11.229  73.589  33.057  1.00  0.00    -0.077 C 
ATOM      4  C   UNL     1     -10.738  74.836  32.360  1.00  0.00     0.039 C 
BRANCH   3   5
ATOM      5  C   UNL     1     -11.836  73.707  34.439  1.00  0.00     0.034 C 
BRANCH   5   6
ATOM      6  C   UNL     1     -10.768  73.514  35.522  1.00  0.00     0.032 C 
BRANCH   6   7
ATOM      7  C   UNL     1     -11.376  73.003  36.806  1.00  0.00    -0.028 C 
ATOM      8  C   UNL     1      -9.761  71.102  36.917  1.00  0.00     0.039 C 
ATOM      9  C   UNL     1     -10.923  71.904  37.447  1.00  0.00    -0.080 C 
ATOM     10  C   UNL     1     -11.579  71.450  38.726  1.00  0.00     0.039 C 
ENDBRANCH   6   7
ENDBRANCH   5   6
ENDBRANCH   3   5
ENDBRANCH   1   2
BRANCH   1  11
ATOM     11  C   UNL     1     -11.618  72.038  30.041  1.00  0.00     0.034 C 
BRANCH  11  12
ATOM     12  C   UNL     1     -11.539  73.240  29.126  1.00  0.00    -0.077 C 
ATOM     13  C   UNL     1     -10.331  73.640  28.669  1.00  0.00    -0.028 C 
ATOM     14  C   UNL     1     -12.816  73.947  28.733  1.00  0.00     0.039 C 
BRANCH  13  15
ATOM     15  C   UNL     1     -10.102  74.847  27.790  1.00  0.00     0.035 C 
BRANCH  15  16
ATOM     16  C   UNL     1      -9.038  74.576  26.718  1.00  0.00     0.079 C 
BRANCH  16  17
ATOM     17  C   UNL     1      -9.485  73.514  25.747  1.00  0.00     0.130 C 
ATOM     18  O   UNL     1     -10.616  73.549  25.287  1.00  0.00    -0.300 OA
ATOM     19  C   UNL     1      -8.544  72.427  25.327  1.00  0.00     0.087 C 
ENDBRANCH  16  17
ENDBRANCH  15  16
ENDBRANCH  13  15
ENDBRANCH  11  12
ENDBRANCH   1  11
TORSDOF 9
ENDMDL
MODEL 2
REMARK VINA RESULT:    -6.772      3.054      9.458
REMARK INTER + INTRA:         -11.556
REMARK INTER:                 -10.671
REMARK INTRA:                  -0.884
REMARK UNBOUND:                -1.221
REMARK SMILES CC(=O)CCC=C(C)CCC=C(C)CCC=C(C)C
REMARK SMILES IDX 10 1 11 2 12 3 13 4 14 5 15 6 16 7 18 8 17 9 19 10 9 11 7 12
REMARK SMILES IDX 6 13 8 14 5 15 4 16 2 17 3 18 1 19
REMARK H PARENT
REMARK Flexibility Score: inf
ROOT
ATOM      1  C   UNL     1     -11.813  73.398  29.262  1.00  0.00     0.032 C 
ENDROOT
BRANCH   1   2
ATOM      2  C   UNL     1     -10.679  73.016  28.345  1.00  0.00    -0.028 C 
ATOM      3  C   UNL     1      -9.845  73.899  27.749  1.00  0.00    -0.077 C 
ATOM      4  C   UNL     1      -9.950  75.386  27.997  1.00  0.00     0.039 C 
BRANCH   3   5
ATOM      5  C   UNL     1      -8.770  73.381  26.817  1.00  0.00     0.034 C 
BRANCH   5   6
ATOM      6  C   UNL     1      -9.366  72.995  25.458  1.00  0.00     0.032 C 
BRANCH   6   7
ATOM      7  C   UNL     1      -8.361  73.183  24.347  1.00  0.00    -0.028 C 
ATOM      8  C   UNL     1      -9.739  74.976  23.287  1.00  0.00     0.039 C 
ATOM      9  C   UNL     1      -8.525  74.083  23.353  1.00  0.00    -0.080 C 
ATOM     10  C   UNL     1      -7.482  74.218  22.274  1.00  0.00     0.039 C 
ENDBRANCH   6   7
ENDBRANCH   5   6
ENDBRANCH   3   5
ENDBRANCH   1   2
BRANCH   1  11
ATOM     11  C   UNL     1     -11.809  72.526  30.523  1.00  0.00     0.034 C 
BRANCH  11  12
ATOM     12  C   UNL     1     -11.369  73.326  31.729  1.00  0.00    -0.077 C 
ATOM     13  C   UNL     1     -11.426  72.752  32.952  1.00  0.00    -0.028 C 
ATOM     14  C   UNL     1     -10.860  74.735  31.530  1.00  0.00     0.039 C 
BRANCH  13  15
ATOM     15  C   UNL     1     -11.064  73.448  34.244  1.00  0.00     0.035 C 
BRANCH  15  16
ATOM     16  C   UNL     1     -10.498  72.467  35.279  1.00  0.00     0.079 C 
BRANCH  16  17
ATOM     17  C   UNL     1     -10.753  72.935  36.688  1.00  0.00     0.130 C 
ATOM     18  O   UNL     1     -10.511  74.092  36.997  1.00  0.00    -0.300 OA
ATOM     19  C   UNL     1     -11.321  71.995  37.708  1.00  0.00     0.087 C 
ENDBRANCH  16  17
ENDBRANCH  15  16
ENDBRANCH  13  15
ENDBRANCH  11  12
ENDBRANCH   1  11
TORSDOF 9
ENDMDL
MODEL 3
REMARK VINA RESULT:    -6.770      3.336      9.144
REMARK INTER + INTRA:         -11.553
REMARK INTER:                 -10.518
REMARK INTRA:                  -1.035
REMARK UNBOUND:                -1.221
REMARK SMILES CC(=O)CCC=C(C)CCC=C(C)CCC=C(C)C
REMARK SMILES IDX 10 1 11 2 12 3 13 4 14 5 15 6 16 7 18 8 17 9 19 10 9 11 7 12
REMARK SMILES IDX 6 13 8 14 5 15 4 16 2 17 3 18 1 19
REMARK H PARENT
REMARK Flexibility Score: inf
ROOT
ATOM      1  C   UNL     1     -10.456  72.226  31.034  1.00  0.00     0.032 C 
ENDROOT
BRANCH   1   2
ATOM      2  C   UNL     1     -10.544  73.032  29.763  1.00  0.00    -0.028 C 
ATOM      3  C   UNL     1      -9.961  74.239  29.579  1.00  0.00    -0.077 C 
ATOM      4  C   UNL     1      -9.106  74.881  30.646  1.00  0.00     0.039 C 
BRANCH   3   5
ATOM      5  C   UNL     1     -10.164  74.960  28.263  1.00  0.00     0.034 C 
BRANCH   5   6
ATOM      6  C   UNL     1     -10.179  73.968  27.094  1.00  0.00     0.032 C 
BRANCH   6   7
ATOM      7  C   UNL     1      -9.446  74.524  25.896  1.00  0.00    -0.028 C 
ATOM      8  C   UNL     1     -10.870  73.218  24.312  1.00  0.00     0.039 C 
ATOM      9  C   UNL     1      -9.755  74.185  24.625  1.00  0.00    -0.080 C 
ATOM     10  C   UNL     1      -8.982  74.778  23.475  1.00  0.00     0.039 C 
ENDBRANCH   6   7
ENDBRANCH   5   6
ENDBRANCH   3   5
ENDBRANCH   1   2
BRANCH   1  11
ATOM     11  C   UNL     1     -11.594  72.597  31.991  1.00  0.00     0.034 C 
BRANCH  11  12
ATOM     12  C   UNL     1     -11.048  73.171  33.279  1.00  0.00    -0.077 C 
ATOM     13  C   UNL     1     -10.442  72.345  34.161  1.00  0.00    -0.028 C 
ATOM     14  C   UNL     1     -11.178  74.655  33.534  1.00  0.00     0.039 C 
BRANCH  13  15
ATOM     15  C   UNL     1      -9.894  72.774  35.503  1.00  0.00     0.035 C 
BRANCH  15  16
ATOM     16  C   UNL     1      -9.897  71.619  36.514  1.00  0.00     0.079 C 
BRANCH  16  17
ATOM     17  C   UNL     1     -10.940  71.818  37.583  1.00  0.00     0.130 C 
ATOM     18  O   UNL     1     -11.104  70.961  38.437  1.00  0.00    -0.300 OA
ATOM     19  C   UNL     1     -11.765  73.068  37.614  1.00  0.00     0.087 C 
ENDBRANCH  16  17
ENDBRANCH  15  16
ENDBRANCH  13  15
ENDBRANCH  11  12
ENDBRANCH   1  11
TORSDOF 9
ENDMDL
MODEL 4
REMARK VINA RESULT:    -6.730      2.118      3.701
REMARK INTER + INTRA:         -11.493
REMARK INTER:                 -10.611
REMARK INTRA:                  -0.881
REMARK UNBOUND:                -1.221
REMARK SMILES CC(=O)CCC=C(C)CCC=C(C)CCC=C(C)C
REMARK SMILES IDX 10 1 11 2 12 3 13 4 14 5 15 6 16 7 18 8 17 9 19 10 9 11 7 12
REMARK SMILES IDX 6 13 8 14 5 15 4 16 2 17 3 18 1 19
REMARK H PARENT
REMARK Flexibility Score: inf
ROOT
ATOM      1  C   UNL     1      -9.683  74.930  28.195  1.00  0.00     0.032 C 
ENDROOT
BRANCH   1   2
ATOM      2  C   UNL     1      -9.884  74.989  29.688  1.00  0.00    -0.028 C 
ATOM      3  C   UNL     1     -10.925  74.427  30.344  1.00  0.00    -0.077 C 
ATOM      4  C   UNL     1     -11.983  73.626  29.621  1.00  0.00     0.039 C 
BRANCH   3   5
ATOM      5  C   UNL     1     -11.026  74.596  31.845  1.00  0.00     0.034 C 
BRANCH   5   6
ATOM      6  C   UNL     1     -11.578  73.326  32.502  1.00  0.00     0.032 C 
BRANCH   6   7
ATOM      7  C   UNL     1     -11.847  73.543  33.972  1.00  0.00    -0.028 C 
ATOM      8  C   UNL     1     -10.045  71.941  34.626  1.00  0.00     0.039 C 
ATOM      9  C   UNL     1     -11.153  72.914  34.946  1.00  0.00    -0.080 C 
ATOM     10  C   UNL     1     -11.475  73.177  36.395  1.00  0.00     0.039 C 
ENDBRANCH   6   7
ENDBRANCH   5   6
ENDBRANCH   3   5
ENDBRANCH   1   2
BRANCH   1  11
ATOM     11  C   UNL     1      -8.772  73.758  27.816  1.00  0.00     0.034 C 
BRANCH  11  12
ATOM     12  C   UNL     1      -8.870  73.457  26.337  1.00  0.00    -0.077 C 
ATOM     13  C   UNL     1      -9.810  74.090  25.599  1.00  0.00    -0.028 C 
ATOM     14  C   UNL     1      -7.899  72.475  25.722  1.00  0.00     0.039 C 
BRANCH  13  15
ATOM     15  C   UNL     1     -10.050  73.851  24.126  1.00  0.00     0.035 C 
BRANCH  15  16
ATOM     16  C   UNL     1      -9.592  75.044  23.276  1.00  0.00     0.079 C 
BRANCH  16  17
ATOM     17  C   UNL     1      -8.476  74.664  22.338  1.00  0.00     0.130 C 
ATOM     18  O   UNL     1      -7.548  73.982  22.744  1.00  0.00    -0.300 OA
ATOM     19  C   UNL     1      -8.507  75.102  20.906  1.00  0.00     0.087 C 
ENDBRANCH  16  17
ENDBRANCH  15  16
ENDBRANCH  13  15
ENDBRANCH  11  12
ENDBRANCH   1  11
TORSDOF 9
ENDMDL
MODEL 5
REMARK VINA RESULT:    -6.721      3.228      8.034
REMARK INTER + INTRA:         -11.478
REMARK INTER:                 -10.234
REMARK INTRA:                  -1.244
REMARK UNBOUND:                -1.221
REMARK SMILES CC(=O)CCC=C(C)CCC=C(C)CCC=C(C)C
REMARK SMILES IDX 10 1 11 2 12 3 13 4 14 5 15 6 16 7 18 8 17 9 19 10 9 11 7 12
REMARK SMILES IDX 6 13 8 14 5 15 4 16 2 17 3 18 1 19
REMARK H PARENT
REMARK Flexibility Score: inf
ROOT
ATOM      1  C   UNL     1     -11.209  73.159  34.004  1.00  0.00     0.032 C 
ENDROOT
BRANCH   1   2
ATOM      2  C   UNL     1     -10.234  73.518  32.912  1.00  0.00    -0.028 C 
ATOM      3  C   UNL     1     -10.166  74.729  32.312  1.00  0.00    -0.077 C 
ATOM      4  C   UNL     1     -11.056  75.875  32.731  1.00  0.00     0.039 C 
BRANCH   3   5
ATOM      5  C   UNL     1      -9.163  74.941  31.198  1.00  0.00     0.034 C 
BRANCH   5   6
ATOM      6  C   UNL     1      -9.451  74.007  30.018  1.00  0.00     0.032 C 
BRANCH   6   7
ATOM      7  C   UNL     1     -10.718  74.408  29.299  1.00  0.00    -0.028 C 
ATOM      8  C   UNL     1     -11.842  72.260  29.902  1.00  0.00     0.039 C 
ATOM      9  C   UNL     1     -11.811  73.617  29.241  1.00  0.00    -0.080 C 
ATOM     10  C   UNL     1     -13.042  74.079  28.506  1.00  0.00     0.039 C 
ENDBRANCH   6   7
ENDBRANCH   5   6
ENDBRANCH   3   5
ENDBRANCH   1   2
BRANCH   1  11
ATOM     11  C   UNL     1     -10.665  73.575  35.375  1.00  0.00     0.034 C 
BRANCH  11  12
ATOM     12  C   UNL     1     -10.452  72.365  36.258  1.00  0.00    -0.077 C 
ATOM     13  C   UNL     1      -9.436  71.519  35.978  1.00  0.00    -0.028 C 
ATOM     14  C   UNL     1     -11.369  72.149  37.440  1.00  0.00     0.039 C 
BRANCH  13  15
ATOM     15  C   UNL     1      -9.138  70.251  36.745  1.00  0.00     0.035 C 
BRANCH  15  16
ATOM     16  C   UNL     1      -7.694  69.781  36.526  1.00  0.00     0.079 C 
BRANCH  16  17
ATOM     17  C   UNL     1      -7.643  68.439  35.843  1.00  0.00     0.130 C 
ATOM     18  O   UNL     1      -6.968  68.295  34.835  1.00  0.00    -0.300 OA
ATOM     19  C   UNL     1      -8.401  67.274  36.404  1.00  0.00     0.087 C 
ENDBRANCH  16  17
ENDBRANCH  15  16
ENDBRANCH  13  15
ENDBRANCH  11  12
ENDBRANCH   1  11
TORSDOF 9
ENDMDL
MODEL 6
REMARK VINA RESULT:    -6.658      3.227      8.604
REMARK INTER + INTRA:         -11.382
REMARK INTER:                 -10.076
REMARK INTRA:                  -1.306
REMARK UNBOUND:                -1.221
REMARK SMILES CC(=O)CCC=C(C)CCC=C(C)CCC=C(C)C
REMARK SMILES IDX 10 1 11 2 12 3 13 4 14 5 15 6 16 7 18 8 17 9 19 10 9 11 7 12
REMARK SMILES IDX 6 13 8 14 5 15 4 16 2 17 3 18 1 19
REMARK H PARENT
REMARK Flexibility Score: inf
ROOT
ATOM      1  C   UNL     1     -10.692  73.381  33.607  1.00  0.00     0.032 C 
ENDROOT
BRANCH   1   2
ATOM      2  C   UNL     1     -11.473  73.040  32.363  1.00  0.00    -0.028 C 
ATOM      3  C   UNL     1     -10.936  72.501  31.244  1.00  0.00    -0.077 C 
ATOM      4  C   UNL     1      -9.471  72.140  31.159  1.00  0.00     0.039 C 
BRANCH   3   5
ATOM      5  C   UNL     1     -11.830  72.245  30.050  1.00  0.00     0.034 C 
BRANCH   5   6
ATOM      6  C   UNL     1     -12.099  73.543  29.281  1.00  0.00     0.032 C 
BRANCH   6   7
ATOM      7  C   UNL     1     -11.252  73.626  28.033  1.00  0.00    -0.028 C 
ATOM      8  C   UNL     1      -9.662  75.220  29.115  1.00  0.00     0.039 C 
ATOM      9  C   UNL     1     -10.141  74.389  27.950  1.00  0.00    -0.080 C 
ATOM     10  C   UNL     1      -9.342  74.426  26.673  1.00  0.00     0.039 C 
ENDBRANCH   6   7
ENDBRANCH   5   6
ENDBRANCH   3   5
ENDBRANCH   1   2
BRANCH   1  11
ATOM     11  C   UNL     1     -11.572  73.247  34.854  1.00  0.00     0.034 C 
BRANCH  11  12
ATOM     12  C   UNL     1     -10.837  72.513  35.954  1.00  0.00    -0.077 C 
ATOM     13  C   UNL     1      -9.758  71.763  35.636  1.00  0.00    -0.028 C 
ATOM     14  C   UNL     1     -11.319  72.656  37.380  1.00  0.00     0.039 C 
BRANCH  13  15
ATOM     15  C   UNL     1      -8.961  70.942  36.624  1.00  0.00     0.035 C 
BRANCH  15  16
ATOM     16  C   UNL     1      -8.599  69.564  36.055  1.00  0.00     0.079 C 
BRANCH  16  17
ATOM     17  C   UNL     1      -9.149  68.449  36.906  1.00  0.00     0.130 C 
ATOM     18  O   UNL     1      -9.127  67.300  36.490  1.00  0.00    -0.300 OA
ATOM     19  C   UNL     1      -9.705  68.737  38.267  1.00  0.00     0.087 C 
ENDBRANCH  16  17
ENDBRANCH  15  16
ENDBRANCH  13  15
ENDBRANCH  11  12
ENDBRANCH   1  11
TORSDOF 9
ENDMDL
MODEL 7
REMARK VINA RESULT:    -6.648      1.405      2.026
REMARK INTER + INTRA:         -11.367
REMARK INTER:                 -10.591
REMARK INTRA:                  -0.776
REMARK UNBOUND:                -1.221
REMARK SMILES CC(=O)CCC=C(C)CCC=C(C)CCC=C(C)C
REMARK SMILES IDX 10 1 11 2 12 3 13 4 14 5 15 6 16 7 18 8 17 9 19 10 9 11 7 12
REMARK SMILES IDX 6 13 8 14 5 15 4 16 2 17 3 18 1 19
REMARK H PARENT
REMARK Flexibility Score: inf
ROOT
ATOM      1  C   UNL     1     -10.849  75.000  31.143  1.00  0.00     0.032 C 
ENDROOT
BRANCH   1   2
ATOM      2  C   UNL     1     -10.619  74.200  32.400  1.00  0.00    -0.028 C 
ATOM      3  C   UNL     1     -10.914  72.887  32.537  1.00  0.00    -0.077 C 
ATOM      4  C   UNL     1     -11.472  72.073  31.393  1.00  0.00     0.039 C 
BRANCH   3   5
ATOM      5  C   UNL     1     -10.668  72.214  33.870  1.00  0.00     0.034 C 
BRANCH   5   6
ATOM      6  C   UNL     1     -10.480  73.254  34.980  1.00  0.00     0.032 C 
BRANCH   6   7
ATOM      7  C   UNL     1     -11.254  72.877  36.221  1.00  0.00    -0.028 C 
ATOM      8  C   UNL     1      -9.497  71.250  36.929  1.00  0.00     0.039 C 
ATOM      9  C   UNL     1     -10.813  71.964  37.113  1.00  0.00    -0.080 C 
ATOM     10  C   UNL     1     -11.638  71.636  38.330  1.00  0.00     0.039 C 
ENDBRANCH   6   7
ENDBRANCH   5   6
ENDBRANCH   3   5
ENDBRANCH   1   2
BRANCH   1  11
ATOM     11  C   UNL     1      -9.677  74.833  30.170  1.00  0.00     0.034 C 
BRANCH  11  12
ATOM     12  C   UNL     1     -10.175  74.610  28.760  1.00  0.00    -0.077 C 
ATOM     13  C   UNL     1      -9.301  74.705  27.732  1.00  0.00    -0.028 C 
ATOM     14  C   UNL     1     -11.631  74.269  28.541  1.00  0.00     0.039 C 
BRANCH  13  15
ATOM     15  C   UNL     1      -9.670  74.554  26.274  1.00  0.00     0.035 C 
BRANCH  15  16
ATOM     16  C   UNL     1      -8.866  73.436  25.598  1.00  0.00     0.079 C 
BRANCH  16  17
ATOM     17  C   UNL     1      -8.512  73.786  24.176  1.00  0.00     0.130 C 
ATOM     18  O   UNL     1      -7.444  73.423  23.709  1.00  0.00    -0.300 OA
ATOM     19  C   UNL     1      -9.472  74.561  23.325  1.00  0.00     0.087 C 
ENDBRANCH  16  17
ENDBRANCH  15  16
ENDBRANCH  13  15
ENDBRANCH  11  12
ENDBRANCH   1  11
TORSDOF 9
ENDMDL
MODEL 8
REMARK VINA RESULT:    -6.602      1.747      2.729
REMARK INTER + INTRA:         -11.296
REMARK INTER:                 -10.243
REMARK INTRA:                  -1.053
REMARK UNBOUND:                -1.221
REMARK SMILES CC(=O)CCC=C(C)CCC=C(C)CCC=C(C)C
REMARK SMILES IDX 10 1 11 2 12 3 13 4 14 5 15 6 16 7 18 8 17 9 19 10 9 11 7 12
REMARK SMILES IDX 6 13 8 14 5 15 4 16 2 17 3 18 1 19
REMARK H PARENT
REMARK Flexibility Score: inf
ROOT
ATOM      1  C   UNL     1     -11.856  73.085  29.382  1.00  0.00     0.032 C 
ENDROOT
BRANCH   1   2
ATOM      2  C   UNL     1     -11.594  73.695  30.735  1.00  0.00    -0.028 C 
ATOM      3  C   UNL     1     -10.525  73.404  31.512  1.00  0.00    -0.077 C 
ATOM      4  C   UNL     1      -9.446  72.450  31.057  1.00  0.00     0.039 C 
BRANCH   3   5
ATOM      5  C   UNL     1     -10.404  74.061  32.871  1.00  0.00     0.034 C 
BRANCH   5   6
ATOM      6  C   UNL     1     -11.305  73.364  33.897  1.00  0.00     0.032 C 
BRANCH   6   7
ATOM      7  C   UNL     1     -10.545  72.310  34.667  1.00  0.00    -0.028 C 
ATOM      8  C   UNL     1     -10.534  73.708  36.737  1.00  0.00     0.039 C 
ATOM      9  C   UNL     1     -10.190  72.461  35.961  1.00  0.00    -0.080 C 
ATOM     10  C   UNL     1      -9.431  71.368  36.669  1.00  0.00     0.039 C 
ENDBRANCH   6   7
ENDBRANCH   5   6
ENDBRANCH   3   5
ENDBRANCH   1   2
BRANCH   1  11
ATOM     11  C   UNL     1     -11.849  74.161  28.291  1.00  0.00     0.034 C 
BRANCH  11  12
ATOM     12  C   UNL     1     -10.544  74.142  27.525  1.00  0.00    -0.077 C 
ATOM     13  C   UNL     1     -10.481  73.475  26.351  1.00  0.00    -0.028 C 
ATOM     14  C   UNL     1      -9.354  74.887  28.086  1.00  0.00     0.039 C 
BRANCH  13  15
ATOM     15  C   UNL     1      -9.235  73.335  25.509  1.00  0.00     0.035 C 
BRANCH  15  16
ATOM     16  C   UNL     1      -9.493  73.711  24.044  1.00  0.00     0.079 C 
BRANCH  16  17
ATOM     17  C   UNL     1      -8.215  74.053  23.323  1.00  0.00     0.130 C 
ATOM     18  O   UNL     1      -7.167  73.526  23.662  1.00  0.00    -0.300 OA
ATOM     19  C   UNL     1      -8.226  75.022  22.180  1.00  0.00     0.087 C 
ENDBRANCH  16  17
ENDBRANCH  15  16
ENDBRANCH  13  15
ENDBRANCH  11  12
ENDBRANCH   1  11
TORSDOF 9
ENDMDL
MODEL 9
REMARK VINA RESULT:    -6.560      3.334      5.231
REMARK INTER + INTRA:         -11.232
REMARK INTER:                 -10.009
REMARK INTRA:                  -1.223
REMARK UNBOUND:                -1.221
REMARK SMILES CC(=O)CCC=C(C)CCC=C(C)CCC=C(C)C
REMARK SMILES IDX 10 1 11 2 12 3 13 4 14 5 15 6 16 7 18 8 17 9 19 10 9 11 7 12
REMARK SMILES IDX 6 13 8 14 5 15 4 16 2 17 3 18 1 19
REMARK H PARENT
REMARK Flexibility Score: inf
ROOT
ATOM      1  C   UNL     1      -9.728  74.360  27.394  1.00  0.00     0.032 C 
ENDROOT
BRANCH   1   2
ATOM      2  C   UNL     1     -10.135  73.345  28.431  1.00  0.00    -0.028 C 
ATOM      3  C   UNL     1     -11.377  73.245  28.959  1.00  0.00    -0.077 C 
ATOM      4  C   UNL     1     -12.509  74.138  28.506  1.00  0.00     0.039 C 
BRANCH   3   5
ATOM      5  C   UNL     1     -11.640  72.203  30.026  1.00  0.00     0.034 C 
BRANCH   5   6
ATOM      6  C   UNL     1     -10.773  72.458  31.264  1.00  0.00     0.032 C 
BRANCH   6   7
ATOM      7  C   UNL     1     -11.234  73.687  32.012  1.00  0.00    -0.028 C 
ATOM      8  C   UNL     1      -9.151  74.933  31.422  1.00  0.00     0.039 C 
ATOM      9  C   UNL     1     -10.500  74.818  32.089  1.00  0.00    -0.080 C 
ATOM     10  C   UNL     1     -11.020  76.007  32.853  1.00  0.00     0.039 C 
ENDBRANCH   6   7
ENDBRANCH   5   6
ENDBRANCH   3   5
ENDBRANCH   1   2
BRANCH   1  11
ATOM     11  C   UNL     1     -10.093  73.875  25.987  1.00  0.00     0.034 C 
BRANCH  11  12
ATOM     12  C   UNL     1      -8.852  73.493  25.210  1.00  0.00    -0.077 C 
ATOM     13  C   UNL     1      -8.026  72.549  25.715  1.00  0.00    -0.028 C 
ATOM     14  C   UNL     1      -8.582  74.164  23.883  1.00  0.00     0.039 C 
BRANCH  13  15
ATOM     15  C   UNL     1      -6.733  72.106  25.071  1.00  0.00     0.035 C 
BRANCH  15  16
ATOM     16  C   UNL     1      -6.753  70.612  24.723  1.00  0.00     0.079 C 
BRANCH  16  17
ATOM     17  C   UNL     1      -5.908  69.807  25.676  1.00  0.00     0.130 C 
ATOM     18  O   UNL     1      -5.899  68.588  25.598  1.00  0.00    -0.300 OA
ATOM     19  C   UNL     1      -5.062  70.494  26.705  1.00  0.00     0.087 C 
ENDBRANCH  16  17
ENDBRANCH  15  16
ENDBRANCH  13  15
ENDBRANCH  11  12
ENDBRANCH   1  11
TORSDOF 9
ENDMDL
