MODEL 1
REMARK VINA RESULT:    -2.905      0.000      0.000
REMARK INTER + INTRA:          -3.584
REMARK INTER:                  -3.414
REMARK INTRA:                  -0.170
REMARK UNBOUND:                -0.170
REMARK SMILES O=C([O-])CCC(=O)[O-]
REMARK SMILES IDX 4 1 2 2 1 3 3 4 5 5 6 6 7 7 8 8
REMARK H PARENT
REMARK Flexibility Score: inf
ROOT
ATOM      1  C   UNL     1      30.982  53.087  24.517  1.00  0.00     0.059 C 
ENDROOT
BRANCH   1   2
ATOM      2  C   UNL     1      31.756  53.152  25.797  1.00  0.00     0.042 C 
ATOM      3  O   UNL     1      31.289  53.767  26.792  1.00  0.00    -0.550 OA
ATOM      4  O   UNL     1      32.977  52.497  25.906  1.00  0.00    -0.550 OA
ENDBRANCH   1   2
BRANCH   1   5
ATOM      5  C   UNL     1      30.886  51.653  23.987  1.00  0.00     0.059 C 
BRANCH   5   6
ATOM      6  C   UNL     1      30.033  50.795  24.870  1.00  0.00     0.042 C 
ATOM      7  O   UNL     1      28.786  50.964  24.905  1.00  0.00    -0.550 OA
ATOM      8  O   UNL     1      30.620  49.834  25.685  1.00  0.00    -0.550 OA
ENDBRANCH   5   6
ENDBRANCH   1   5
TORSDOF 3
ENDMDL
MODEL 2
REMARK VINA RESULT:    -2.876      0.125      3.423
REMARK INTER + INTRA:          -3.551
REMARK INTER:                  -3.392
REMARK INTRA:                  -0.159
REMARK UNBOUND:                -0.170
REMARK SMILES O=C([O-])CCC(=O)[O-]
REMARK SMILES IDX 4 1 2 2 1 3 3 4 5 5 6 6 7 7 8 8
REMARK H PARENT
REMARK Flexibility Score: inf
ROOT
ATOM      1  C   UNL     1      30.888  51.638  23.995  1.00  0.00     0.059 C 
ENDROOT
BRANCH   1   2
ATOM      2  C   UNL     1      30.010  50.794  24.867  1.00  0.00     0.042 C 
ATOM      3  O   UNL     1      30.513  49.911  25.611  1.00  0.00    -0.550 OA
ATOM      4  O   UNL     1      28.637  51.011  24.889  1.00  0.00    -0.550 OA
ENDBRANCH   1   2
BRANCH   1   5
ATOM      5  C   UNL     1      30.932  53.092  24.477  1.00  0.00     0.059 C 
BRANCH   5   6
ATOM      6  C   UNL     1      31.705  53.226  25.753  1.00  0.00     0.042 C 
ATOM      7  O   UNL     1      31.282  53.972  26.676  1.00  0.00    -0.550 OA
ATOM      8  O   UNL     1      32.913  52.558  25.910  1.00  0.00    -0.550 OA
ENDBRANCH   5   6
ENDBRANCH   1   5
TORSDOF 3
ENDMDL
MODEL 3
REMARK VINA RESULT:    -2.817      1.560      2.098
REMARK INTER + INTRA:          -3.482
REMARK INTER:                  -3.356
REMARK INTRA:                  -0.126
REMARK UNBOUND:                -0.170
REMARK SMILES O=C([O-])CCC(=O)[O-]
REMARK SMILES IDX 4 1 2 2 1 3 3 4 5 5 6 6 7 7 8 8
REMARK H PARENT
REMARK Flexibility Score: inf
ROOT
ATOM      1  C   UNL     1      30.203  51.877  24.765  1.00  0.00     0.059 C 
ENDROOT
BRANCH   1   2
ATOM      2  C   UNL     1      31.066  53.071  25.035  1.00  0.00     0.042 C 
ATOM      3  O   UNL     1      31.215  53.959  24.154  1.00  0.00    -0.550 OA
ATOM      4  O   UNL     1      31.674  53.224  26.274  1.00  0.00    -0.550 OA
ENDBRANCH   1   2
BRANCH   1   5
ATOM      5  C   UNL     1      30.970  50.785  24.011  1.00  0.00     0.059 C 
BRANCH   5   6
ATOM      6  C   UNL     1      31.602  49.806  24.952  1.00  0.00     0.042 C 
ATOM      7  O   UNL     1      32.554  49.078  24.565  1.00  0.00    -0.550 OA
ATOM      8  O   UNL     1      31.114  49.668  26.246  1.00  0.00    -0.550 OA
ENDBRANCH   5   6
ENDBRANCH   1   5
TORSDOF 3
ENDMDL
MODEL 4
REMARK VINA RESULT:    -2.810      1.583      3.416
REMARK INTER + INTRA:          -3.473
REMARK INTER:                  -3.343
REMARK INTRA:                  -0.130
REMARK UNBOUND:                -0.170
REMARK SMILES O=C([O-])CCC(=O)[O-]
REMARK SMILES IDX 4 1 2 2 1 3 3 4 5 5 6 6 7 7 8 8
REMARK H PARENT
REMARK Flexibility Score: inf
ROOT
ATOM      1  C   UNL     1      30.869  50.837  24.069  1.00  0.00     0.059 C 
ENDROOT
BRANCH   1   2
ATOM      2  C   UNL     1      31.563  49.858  24.966  1.00  0.00     0.042 C 
ATOM      3  O   UNL     1      32.452  49.093  24.506  1.00  0.00    -0.550 OA
ATOM      4  O   UNL     1      31.256  49.818  26.321  1.00  0.00    -0.550 OA
ENDBRANCH   1   2
BRANCH   1   5
ATOM      5  C   UNL     1      30.238  51.983  24.865  1.00  0.00     0.059 C 
BRANCH   5   6
ATOM      6  C   UNL     1      31.184  53.134  25.019  1.00  0.00     0.042 C 
ATOM      7  O   UNL     1      31.269  54.010  24.118  1.00  0.00    -0.550 OA
ATOM      8  O   UNL     1      32.001  53.219  26.140  1.00  0.00    -0.550 OA
ENDBRANCH   5   6
ENDBRANCH   1   5
TORSDOF 3
ENDMDL
MODEL 5
REMARK VINA RESULT:    -2.778      2.863      3.871
REMARK INTER + INTRA:          -3.436
REMARK INTER:                  -3.408
REMARK INTRA:                  -0.028
REMARK UNBOUND:                -0.170
REMARK SMILES O=C([O-])CCC(=O)[O-]
REMARK SMILES IDX 4 1 2 2 1 3 3 4 5 5 6 6 7 7 8 8
REMARK H PARENT
REMARK Flexibility Score: inf
ROOT
ATOM      1  C   UNL     1      31.566  49.930  24.131  1.00  0.00     0.059 C 
ENDROOT
BRANCH   1   2
ATOM      2  C   UNL     1      30.566  51.002  24.441  1.00  0.00     0.042 C 
ATOM      3  O   UNL     1      30.836  52.209  24.207  1.00  0.00    -0.550 OA
ATOM      4  O   UNL     1      29.320  50.663  24.952  1.00  0.00    -0.550 OA
ENDBRANCH   1   2
BRANCH   1   5
ATOM      5  C   UNL     1      32.362  49.524  25.375  1.00  0.00     0.059 C 
BRANCH   5   6
ATOM      6  C   UNL     1      33.398  48.490  25.054  1.00  0.00     0.042 C 
ATOM      7  O   UNL     1      33.068  47.419  24.480  1.00  0.00    -0.550 OA
ATOM      8  O   UNL     1      34.722  48.692  25.424  1.00  0.00    -0.550 OA
ENDBRANCH   5   6
ENDBRANCH   1   5
TORSDOF 3
ENDMDL
MODEL 6
REMARK VINA RESULT:    -2.768      2.796      3.850
REMARK INTER + INTRA:          -3.424
REMARK INTER:                  -3.396
REMARK INTRA:                  -0.028
REMARK UNBOUND:                -0.170
REMARK SMILES O=C([O-])CCC(=O)[O-]
REMARK SMILES IDX 4 1 2 2 1 3 3 4 5 5 6 6 7 7 8 8
REMARK H PARENT
REMARK Flexibility Score: inf
ROOT
ATOM      1  C   UNL     1      32.211  49.489  25.399  1.00  0.00     0.059 C 
ENDROOT
BRANCH   1   2
ATOM      2  C   UNL     1      33.306  48.520  25.075  1.00  0.00     0.042 C 
ATOM      3  O   UNL     1      33.061  47.488  24.394  1.00  0.00    -0.550 OA
ATOM      4  O   UNL     1      34.606  48.776  25.490  1.00  0.00    -0.550 OA
ENDBRANCH   1   2
BRANCH   1   5
ATOM      5  C   UNL     1      31.508  49.990  24.133  1.00  0.00     0.059 C 
BRANCH   5   6
ATOM      6  C   UNL     1      30.513  51.066  24.444  1.00  0.00     0.042 C 
ATOM      7  O   UNL     1      30.893  52.258  24.587  1.00  0.00    -0.550 OA
ATOM      8  O   UNL     1      29.172  50.747  24.616  1.00  0.00    -0.550 OA
ENDBRANCH   5   6
ENDBRANCH   1   5
TORSDOF 3
ENDMDL
MODEL 7
REMARK VINA RESULT:    -2.768      1.465      2.130
REMARK INTER + INTRA:          -3.424
REMARK INTER:                  -3.251
REMARK INTRA:                  -0.173
REMARK UNBOUND:                -0.170
REMARK SMILES O=C([O-])CCC(=O)[O-]
REMARK SMILES IDX 4 1 2 2 1 3 3 4 5 5 6 6 7 7 8 8
REMARK H PARENT
REMARK Flexibility Score: inf
ROOT
ATOM      1  C   UNL     1      32.114  52.407  25.708  1.00  0.00     0.059 C 
ENDROOT
BRANCH   1   2
ATOM      2  C   UNL     1      31.232  53.559  25.332  1.00  0.00     0.042 C 
ATOM      3  O   UNL     1      31.236  54.003  24.154  1.00  0.00    -0.550 OA
ATOM      4  O   UNL     1      30.376  54.115  26.274  1.00  0.00    -0.550 OA
ENDBRANCH   1   2
BRANCH   1   5
ATOM      5  C   UNL     1      31.297  51.147  26.013  1.00  0.00     0.059 C 
BRANCH   5   6
ATOM      6  C   UNL     1      30.544  50.673  24.809  1.00  0.00     0.042 C 
ATOM      7  O   UNL     1      31.166  50.261  23.794  1.00  0.00    -0.550 OA
ATOM      8  O   UNL     1      29.156  50.722  24.791  1.00  0.00    -0.550 OA
ENDBRANCH   5   6
ENDBRANCH   1   5
TORSDOF 3
ENDMDL
MODEL 8
REMARK VINA RESULT:    -2.755      1.450      3.447
REMARK INTER + INTRA:          -3.409
REMARK INTER:                  -3.230
REMARK INTRA:                  -0.179
REMARK UNBOUND:                -0.170
REMARK SMILES O=C([O-])CCC(=O)[O-]
REMARK SMILES IDX 4 1 2 2 1 3 3 4 5 5 6 6 7 7 8 8
REMARK H PARENT
REMARK Flexibility Score: inf
ROOT
ATOM      1  C   UNL     1      31.225  51.178  26.117  1.00  0.00     0.059 C 
ENDROOT
BRANCH   1   2
ATOM      2  C   UNL     1      30.482  50.717  24.901  1.00  0.00     0.042 C 
ATOM      3  O   UNL     1      29.223  50.737  24.880  1.00  0.00    -0.550 OA
ATOM      4  O   UNL     1      31.181  50.303  23.774  1.00  0.00    -0.550 OA
ENDBRANCH   1   2
BRANCH   1   5
ATOM      5  C   UNL     1      32.083  52.412  25.820  1.00  0.00     0.059 C 
BRANCH   5   6
ATOM      6  C   UNL     1      31.243  53.581  25.406  1.00  0.00     0.042 C 
ATOM      7  O   UNL     1      31.359  54.068  24.251  1.00  0.00    -0.550 OA
ATOM      8  O   UNL     1      30.359  54.158  26.310  1.00  0.00    -0.550 OA
ENDBRANCH   5   6
ENDBRANCH   1   5
TORSDOF 3
ENDMDL
MODEL 9
REMARK VINA RESULT:    -2.712      1.866      2.900
REMARK INTER + INTRA:          -3.358
REMARK INTER:                  -3.274
REMARK INTRA:                  -0.084
REMARK UNBOUND:                -0.170
REMARK SMILES O=C([O-])CCC(=O)[O-]
REMARK SMILES IDX 4 1 2 2 1 3 3 4 5 5 6 6 7 7 8 8
REMARK H PARENT
REMARK Flexibility Score: inf
ROOT
ATOM      1  C   UNL     1      31.293  50.253  24.045  1.00  0.00     0.059 C 
ENDROOT
BRANCH   1   2
ATOM      2  C   UNL     1      32.310  49.563  24.902  1.00  0.00     0.042 C 
ATOM      3  O   UNL     1      32.737  50.114  25.950  1.00  0.00    -0.550 OA
ATOM      4  O   UNL     1      32.757  48.292  24.563  1.00  0.00    -0.550 OA
ENDBRANCH   1   2
BRANCH   1   5
ATOM      5  C   UNL     1      30.911  51.623  24.615  1.00  0.00     0.059 C 
BRANCH   5   6
ATOM      6  C   UNL     1      29.600  51.574  25.337  1.00  0.00     0.042 C 
ATOM      7  O   UNL     1      28.615  50.978  24.825  1.00  0.00    -0.550 OA
ATOM      8  O   UNL     1      29.453  52.219  26.559  1.00  0.00    -0.550 OA
ENDBRANCH   5   6
ENDBRANCH   1   5
TORSDOF 3
ENDMDL
