MODEL 1
REMARK VINA RESULT:    -3.021      0.000      0.000
REMARK INTER + INTRA:          -5.461
REMARK INTER:                  -4.611
REMARK INTRA:                  -0.850
REMARK UNBOUND:                -0.850
REMARK SMILES CC(=O)CCC=C(C)CCC=C(C)CCC=C(C)C
REMARK SMILES IDX 10 1 11 2 12 3 13 4 14 5 15 6 16 7 18 8 17 9 19 10 9 11 7 12
REMARK SMILES IDX 6 13 8 14 5 15 4 16 2 17 3 18 1 19
REMARK H PARENT
REMARK Flexibility Score: inf
ROOT
ATOM      1  C   UNL     1     -26.924 -12.930  22.542  1.00  0.00     0.032 C 
ENDROOT
BRANCH   1   2
ATOM      2  C   UNL     1     -27.937 -12.524  21.496  1.00  0.00    -0.028 C 
ATOM      3  C   UNL     1     -29.245 -12.261  21.724  1.00  0.00    -0.077 C 
ATOM      4  C   UNL     1     -30.091 -11.824  20.554  1.00  0.00     0.039 C 
BRANCH   3   5
ATOM      5  C   UNL     1     -29.901 -12.362  23.089  1.00  0.00     0.034 C 
BRANCH   5   6
ATOM      6  C   UNL     1     -30.116 -13.827  23.496  1.00  0.00     0.032 C 
BRANCH   6   7
ATOM      7  C   UNL     1     -30.079 -14.727  22.287  1.00  0.00    -0.028 C 
ATOM      8  C   UNL     1     -30.124 -16.829  23.649  1.00  0.00     0.039 C 
ATOM      9  C   UNL     1     -30.057 -16.078  22.340  1.00  0.00    -0.080 C 
ATOM     10  C   UNL     1     -29.981 -16.846  21.045  1.00  0.00     0.039 C 
ENDBRANCH   6   7
ENDBRANCH   5   6
ENDBRANCH   3   5
ENDBRANCH   1   2
BRANCH   1  11
ATOM     11  C   UNL     1     -26.878 -11.956  23.730  1.00  0.00     0.034 C 
BRANCH  11  12
ATOM     12  C   UNL     1     -26.829 -12.690  25.059  1.00  0.00    -0.077 C 
ATOM     13  C   UNL     1     -27.631 -12.377  26.102  1.00  0.00    -0.028 C 
ATOM     14  C   UNL     1     -25.814 -13.789  25.246  1.00  0.00     0.039 C 
BRANCH  13  15
ATOM     15  C   UNL     1     -28.733 -11.346  26.068  1.00  0.00     0.035 C 
BRANCH  15  16
ATOM     16  C   UNL     1     -28.178  -9.918  26.125  1.00  0.00     0.079 C 
BRANCH  16  17
ATOM     17  C   UNL     1     -28.774  -9.048  25.049  1.00  0.00     0.130 C 
ATOM     18  O   UNL     1     -29.954  -8.738  25.107  1.00  0.00    -0.300 OA
ATOM     19  C   UNL     1     -27.930  -8.520  23.927  1.00  0.00     0.087 C 
ENDBRANCH  16  17
ENDBRANCH  15  16
ENDBRANCH  13  15
ENDBRANCH  11  12
ENDBRANCH   1  11
TORSDOF 9
ENDMDL
MODEL 2
REMARK VINA RESULT:    -2.131      1.670      5.284
REMARK INTER + INTRA:          -4.102
REMARK INTER:                  -4.724
REMARK INTRA:                   0.623
REMARK UNBOUND:                -0.850
REMARK SMILES CC(=O)CCC=C(C)CCC=C(C)CCC=C(C)C
REMARK SMILES IDX 10 1 11 2 12 3 13 4 14 5 15 6 16 7 18 8 17 9 19 10 9 11 7 12
REMARK SMILES IDX 6 13 8 14 5 15 4 16 2 17 3 18 1 19
REMARK H PARENT
REMARK Flexibility Score: inf
ROOT
ATOM      1  C   UNL     1     -29.463 -14.754  22.299  1.00  0.00     0.032 C 
ENDROOT
BRANCH   1   2
ATOM      2  C   UNL     1     -29.641 -14.864  23.796  1.00  0.00    -0.028 C 
ATOM      3  C   UNL     1     -29.942 -13.842  24.631  1.00  0.00    -0.077 C 
ATOM      4  C   UNL     1     -30.125 -14.159  26.095  1.00  0.00     0.039 C 
BRANCH   3   5
ATOM      5  C   UNL     1     -30.125 -12.406  24.177  1.00  0.00     0.034 C 
BRANCH   5   6
ATOM      6  C   UNL     1     -30.068 -11.436  25.366  1.00  0.00     0.032 C 
BRANCH   6   7
ATOM      7  C   UNL     1     -28.785 -10.644  25.349  1.00  0.00    -0.028 C 
ATOM      8  C   UNL     1     -29.950  -8.442  25.606  1.00  0.00     0.039 C 
ATOM      9  C   UNL     1     -28.717  -9.297  25.431  1.00  0.00    -0.080 C 
ATOM     10  C   UNL     1     -27.362  -8.641  25.361  1.00  0.00     0.039 C 
ENDBRANCH   6   7
ENDBRANCH   5   6
ENDBRANCH   3   5
ENDBRANCH   1   2
BRANCH   1  11
ATOM     11  C   UNL     1     -28.170 -14.022  21.908  1.00  0.00     0.034 C 
BRANCH  11  12
ATOM     12  C   UNL     1     -28.390 -12.526  21.766  1.00  0.00    -0.077 C 
ATOM     13  C   UNL     1     -27.614 -11.607  22.384  1.00  0.00    -0.028 C 
ATOM     14  C   UNL     1     -29.549 -12.037  20.937  1.00  0.00     0.039 C 
BRANCH  13  15
ATOM     15  C   UNL     1     -26.384 -11.921  23.203  1.00  0.00     0.035 C 
BRANCH  15  16
ATOM     16  C   UNL     1     -26.462 -13.317  23.832  1.00  0.00     0.079 C 
BRANCH  16  17
ATOM     17  C   UNL     1     -26.265 -13.265  25.325  1.00  0.00     0.130 C 
ATOM     18  O   UNL     1     -27.070 -12.666  26.021  1.00  0.00    -0.300 OA
ATOM     19  C   UNL     1     -25.114 -13.973  25.976  1.00  0.00     0.087 C 
ENDBRANCH  16  17
ENDBRANCH  15  16
ENDBRANCH  13  15
ENDBRANCH  11  12
ENDBRANCH   1  11
TORSDOF 9
ENDMDL
MODEL 3
REMARK VINA RESULT:    -0.891      1.307      2.846
REMARK INTER + INTRA:          -2.210
REMARK INTER:                  -2.287
REMARK INTRA:                   0.076
REMARK UNBOUND:                -0.850
REMARK SMILES CC(=O)CCC=C(C)CCC=C(C)CCC=C(C)C
REMARK SMILES IDX 10 1 11 2 12 3 13 4 14 5 15 6 16 7 18 8 17 9 19 10 9 11 7 12
REMARK SMILES IDX 6 13 8 14 5 15 4 16 2 17 3 18 1 19
REMARK H PARENT
REMARK Flexibility Score: inf
ROOT
ATOM      1  C   UNL     1     -27.021 -14.037  23.289  1.00  0.00     0.032 C 
ENDROOT
BRANCH   1   2
ATOM      2  C   UNL     1     -27.954 -14.909  22.480  1.00  0.00    -0.028 C 
ATOM      3  C   UNL     1     -29.297 -14.985  22.636  1.00  0.00    -0.077 C 
ATOM      4  C   UNL     1     -30.066 -15.881  21.698  1.00  0.00     0.039 C 
BRANCH   3   5
ATOM      5  C   UNL     1     -30.070 -14.206  23.684  1.00  0.00     0.034 C 
BRANCH   5   6
ATOM      6  C   UNL     1     -30.036 -12.699  23.395  1.00  0.00     0.032 C 
BRANCH   6   7
ATOM      7  C   UNL     1     -30.122 -12.438  21.912  1.00  0.00    -0.028 C 
ATOM      8  C   UNL     1     -27.807 -11.490  21.780  1.00  0.00     0.039 C 
ATOM      9  C   UNL     1     -29.138 -11.872  21.177  1.00  0.00    -0.080 C 
ATOM     10  C   UNL     1     -29.384 -11.638  19.709  1.00  0.00     0.039 C 
ENDBRANCH   6   7
ENDBRANCH   5   6
ENDBRANCH   3   5
ENDBRANCH   1   2
BRANCH   1  11
ATOM     11  C   UNL     1     -27.182 -14.244  24.803  1.00  0.00     0.034 C 
BRANCH  11  12
ATOM     12  C   UNL     1     -26.459 -13.171  25.598  1.00  0.00    -0.077 C 
ATOM     13  C   UNL     1     -27.089 -12.095  26.124  1.00  0.00    -0.028 C 
ATOM     14  C   UNL     1     -24.967 -13.280  25.778  1.00  0.00     0.039 C 
BRANCH  13  15
ATOM     15  C   UNL     1     -28.580 -11.860  26.085  1.00  0.00     0.035 C 
BRANCH  15  16
ATOM     16  C   UNL     1     -28.921 -10.365  26.117  1.00  0.00     0.079 C 
BRANCH  16  17
ATOM     17  C   UNL     1     -27.837  -9.536  25.478  1.00  0.00     0.130 C 
ATOM     18  O   UNL     1     -26.845  -9.235  26.123  1.00  0.00    -0.300 OA
ATOM     19  C   UNL     1     -27.940  -9.106  24.045  1.00  0.00     0.087 C 
ENDBRANCH  16  17
ENDBRANCH  15  16
ENDBRANCH  13  15
ENDBRANCH  11  12
ENDBRANCH   1  11
TORSDOF 9
ENDMDL
MODEL 4
REMARK VINA RESULT:    -0.628      1.384      3.117
REMARK INTER + INTRA:          -1.809
REMARK INTER:                  -1.786
REMARK INTRA:                  -0.023
REMARK UNBOUND:                -0.850
REMARK SMILES CC(=O)CCC=C(C)CCC=C(C)CCC=C(C)C
REMARK SMILES IDX 10 1 11 2 12 3 13 4 14 5 15 6 16 7 18 8 17 9 19 10 9 11 7 12
REMARK SMILES IDX 6 13 8 14 5 15 4 16 2 17 3 18 1 19
REMARK H PARENT
REMARK Flexibility Score: inf
ROOT
ATOM      1  C   UNL     1     -27.295 -12.810  22.461  1.00  0.00     0.032 C 
ENDROOT
BRANCH   1   2
ATOM      2  C   UNL     1     -26.596 -13.159  23.756  1.00  0.00    -0.028 C 
ATOM      3  C   UNL     1     -27.201 -13.351  24.952  1.00  0.00    -0.077 C 
ATOM      4  C   UNL     1     -26.336 -13.739  26.125  1.00  0.00     0.039 C 
BRANCH   3   5
ATOM      5  C   UNL     1     -28.696 -13.217  25.173  1.00  0.00     0.034 C 
BRANCH   5   6
ATOM      6  C   UNL     1     -29.433 -14.509  24.787  1.00  0.00     0.032 C 
BRANCH   6   7
ATOM      7  C   UNL     1     -29.772 -14.512  23.318  1.00  0.00    -0.028 C 
ATOM      8  C   UNL     1     -29.528 -16.995  23.101  1.00  0.00     0.039 C 
ATOM      9  C   UNL     1     -29.795 -15.617  22.541  1.00  0.00    -0.080 C 
ATOM     10  C   UNL     1     -30.114 -15.460  21.077  1.00  0.00     0.039 C 
ENDBRANCH   6   7
ENDBRANCH   5   6
ENDBRANCH   3   5
ENDBRANCH   1   2
BRANCH   1  11
ATOM     11  C   UNL     1     -27.867 -11.384  22.463  1.00  0.00     0.034 C 
BRANCH  11  12
ATOM     12  C   UNL     1     -29.386 -11.387  22.464  1.00  0.00    -0.077 C 
ATOM     13  C   UNL     1     -30.121 -11.035  23.544  1.00  0.00    -0.028 C 
ATOM     14  C   UNL     1     -30.114 -11.843  21.226  1.00  0.00     0.039 C 
BRANCH  13  15
ATOM     15  C   UNL     1     -29.556 -10.504  24.840  1.00  0.00     0.035 C 
BRANCH  15  16
ATOM     16  C   UNL     1     -28.833  -9.167  24.639  1.00  0.00     0.079 C 
BRANCH  16  17
ATOM     17  C   UNL     1     -27.397  -9.240  25.092  1.00  0.00     0.130 C 
ATOM     18  O   UNL     1     -26.579  -8.456  24.636  1.00  0.00    -0.300 OA
ATOM     19  C   UNL     1     -26.964 -10.237  26.125  1.00  0.00     0.087 C 
ENDBRANCH  16  17
ENDBRANCH  15  16
ENDBRANCH  13  15
ENDBRANCH  11  12
ENDBRANCH   1  11
TORSDOF 9
ENDMDL
