MODEL 1
REMARK VINA RESULT:    -4.042      0.000      0.000
REMARK INTER + INTRA:         -16.705
REMARK INTER:                 -10.658
REMARK INTRA:                  -6.047
REMARK UNBOUND:                -6.047
REMARK SMILES CCCCCCCCCCCCCCCCCCCCCCCCCCCCCC(=O)[O-]
REMARK SMILES IDX 16 1 17 2 18 3 19 4 20 5 21 6 22 7 23 8 24 9 25 10 26 11
REMARK SMILES IDX 27 12 28 13 29 14 30 15 31 16 32 17 15 18 14 19 13 20 12 21
REMARK SMILES IDX 11 22 10 23 9 24 8 25 7 26 6 27 5 28 4 29 3 30 2 31 1 32
REMARK H PARENT
REMARK Flexibility Score: inf
ROOT
ATOM      1  C   UNL     1       1.103 -22.095  -6.122  1.00  0.00     0.000 C 
ENDROOT
BRANCH   1   2
ATOM      2  C   UNL     1       0.125 -21.519  -5.079  1.00  0.00     0.000 C 
BRANCH   2   3
ATOM      3  C   UNL     1       0.521 -20.143  -4.512  1.00  0.00     0.000 C 
BRANCH   3   4
ATOM      4  C   UNL     1       1.129 -20.234  -3.106  1.00  0.00     0.000 C 
BRANCH   4   5
ATOM      5  C   UNL     1       1.974 -18.990  -2.793  1.00  0.00     0.000 C 
BRANCH   5   6
ATOM      6  C   UNL     1       3.470 -19.309  -2.617  1.00  0.00     0.000 C 
BRANCH   6   7
ATOM      7  C   UNL     1       3.990 -20.489  -3.462  1.00  0.00     0.000 C 
BRANCH   7   8
ATOM      8  C   UNL     1       5.468 -20.857  -3.230  1.00  0.00     0.000 C 
BRANCH   8   9
ATOM      9  C   UNL     1       6.341 -20.880  -4.501  1.00  0.00     0.000 C 
BRANCH   9  10
ATOM     10  C   UNL     1       7.852 -21.042  -4.251  1.00  0.00     0.000 C 
BRANCH  10  11
ATOM     11  C   UNL     1       8.708 -20.293  -5.285  1.00  0.00     0.000 C 
BRANCH  11  12
ATOM     12  C   UNL     1       7.828 -19.586  -6.326  1.00  0.00     0.000 C 
BRANCH  12  13
ATOM     13  C   UNL     1       8.350 -19.747  -7.765  1.00  0.00     0.006 C 
BRANCH  13  14
ATOM     14  C   UNL     1       7.570 -20.776  -8.603  1.00  0.00     0.053 C 
BRANCH  14  15
ATOM     15  C   UNL     1       7.612 -22.154  -8.015  1.00  0.00     0.041 C 
ATOM     16  O   UNL     1       8.698 -22.792  -7.969  1.00  0.00    -0.550 OA
ATOM     17  O   UNL     1       6.449 -22.747  -7.544  1.00  0.00    -0.550 OA
ENDBRANCH  14  15
ENDBRANCH  13  14
ENDBRANCH  12  13
ENDBRANCH  11  12
ENDBRANCH  10  11
ENDBRANCH   9  10
ENDBRANCH   8   9
ENDBRANCH   7   8
ENDBRANCH   6   7
ENDBRANCH   5   6
ENDBRANCH   4   5
ENDBRANCH   3   4
ENDBRANCH   2   3
ENDBRANCH   1   2
BRANCH   1  18
ATOM     18  C   UNL     1       0.881 -21.606  -7.568  1.00  0.00     0.000 C 
BRANCH  18  19
ATOM     19  C   UNL     1       2.064 -20.838  -8.186  1.00  0.00     0.000 C 
BRANCH  19  20
ATOM     20  C   UNL     1       3.338 -20.916  -7.333  1.00  0.00     0.000 C 
BRANCH  20  21
ATOM     21  C   UNL     1       3.947 -19.523  -7.127  1.00  0.00     0.000 C 
BRANCH  21  22
ATOM     22  C   UNL     1       2.960 -18.592  -6.413  1.00  0.00     0.000 C 
BRANCH  22  23
ATOM     23  C   UNL     1       3.668 -17.333  -5.890  1.00  0.00     0.000 C 
BRANCH  23  24
ATOM     24  C   UNL     1       5.153 -17.573  -5.564  1.00  0.00    -0.000 C 
BRANCH  24  25
ATOM     25  C   UNL     1       5.637 -16.961  -4.235  1.00  0.00    -0.000 C 
BRANCH  25  26
ATOM     26  C   UNL     1       7.132 -17.162  -3.925  1.00  0.00    -0.000 C 
BRANCH  26  27
ATOM     27  C   UNL     1       7.415 -17.647  -2.486  1.00  0.00    -0.000 C 
BRANCH  27  28
ATOM     28  C   UNL     1       6.250 -17.361  -1.522  1.00  0.00    -0.000 C 
BRANCH  28  29
ATOM     29  C   UNL     1       6.477 -16.096  -0.678  1.00  0.00    -0.000 C 
BRANCH  29  30
ATOM     30  C   UNL     1       5.399 -15.026  -0.908  1.00  0.00    -0.000 C 
BRANCH  30  31
ATOM     31  C   UNL     1       4.088 -15.663  -1.384  1.00  0.00    -0.003 C 
ATOM     32  C   UNL     1       2.953 -15.394  -0.400  1.00  0.00     0.004 C 
ENDBRANCH  30  31
ENDBRANCH  29  30
ENDBRANCH  28  29
ENDBRANCH  27  28
ENDBRANCH  26  27
ENDBRANCH  25  26
ENDBRANCH  24  25
ENDBRANCH  23  24
ENDBRANCH  22  23
ENDBRANCH  21  22
ENDBRANCH  20  21
ENDBRANCH  19  20
ENDBRANCH  18  19
ENDBRANCH   1  18
TORSDOF 28
ENDMDL
MODEL 2
REMARK VINA RESULT:    -3.982     13.586     16.825
REMARK INTER + INTRA:         -16.548
REMARK INTER:                 -12.681
REMARK INTRA:                  -3.867
REMARK UNBOUND:                -6.047
REMARK SMILES CCCCCCCCCCCCCCCCCCCCCCCCCCCCCC(=O)[O-]
REMARK SMILES IDX 16 1 17 2 18 3 19 4 20 5 21 6 22 7 23 8 24 9 25 10 26 11
REMARK SMILES IDX 27 12 28 13 29 14 30 15 31 16 32 17 15 18 14 19 13 20 12 21
REMARK SMILES IDX 11 22 10 23 9 24 8 25 7 26 6 27 5 28 4 29 3 30 2 31 1 32
REMARK H PARENT
REMARK Flexibility Score: inf
ROOT
ATOM      1  C   UNL     1      -7.631 -24.056  -2.357  1.00  0.00     0.000 C 
ENDROOT
BRANCH   1   2
ATOM      2  C   UNL     1      -7.479 -22.757  -1.539  1.00  0.00     0.000 C 
BRANCH   2   3
ATOM      3  C   UNL     1      -8.790 -21.988  -1.296  1.00  0.00     0.000 C 
BRANCH   3   4
ATOM      4  C   UNL     1      -9.023 -21.665   0.186  1.00  0.00     0.000 C 
BRANCH   4   5
ATOM      5  C   UNL     1      -9.671 -20.283   0.350  1.00  0.00     0.000 C 
BRANCH   5   6
ATOM      6  C   UNL     1      -9.683 -19.467  -0.955  1.00  0.00     0.000 C 
BRANCH   6   7
ATOM      7  C   UNL     1      -9.123 -18.034  -0.835  1.00  0.00     0.000 C 
BRANCH   7   8
ATOM      8  C   UNL     1      -9.998 -17.057  -0.025  1.00  0.00     0.000 C 
BRANCH   8   9
ATOM      9  C   UNL     1      -9.435 -16.672   1.359  1.00  0.00     0.000 C 
BRANCH   9  10
ATOM     10  C   UNL     1     -10.448 -16.744   2.516  1.00  0.00     0.000 C 
BRANCH  10  11
ATOM     11  C   UNL     1     -10.143 -17.882   3.502  1.00  0.00     0.000 C 
BRANCH  11  12
ATOM     12  C   UNL     1      -8.679 -18.332   3.393  1.00  0.00     0.000 C 
BRANCH  12  13
ATOM     13  C   UNL     1      -8.435 -19.736   3.976  1.00  0.00     0.006 C 
BRANCH  13  14
ATOM     14  C   UNL     1      -7.009 -19.953   4.513  1.00  0.00     0.053 C 
BRANCH  14  15
ATOM     15  C   UNL     1      -6.917 -19.780   5.999  1.00  0.00     0.041 C 
ATOM     16  O   UNL     1      -6.027 -20.382   6.656  1.00  0.00    -0.550 OA
ATOM     17  O   UNL     1      -7.833 -18.976   6.665  1.00  0.00    -0.550 OA
ENDBRANCH  14  15
ENDBRANCH  13  14
ENDBRANCH  12  13
ENDBRANCH  11  12
ENDBRANCH  10  11
ENDBRANCH   9  10
ENDBRANCH   8   9
ENDBRANCH   7   8
ENDBRANCH   6   7
ENDBRANCH   5   6
ENDBRANCH   4   5
ENDBRANCH   3   4
ENDBRANCH   2   3
ENDBRANCH   1   2
BRANCH   1  18
ATOM     18  C   UNL     1      -9.053 -24.334  -2.885  1.00  0.00     0.000 C 
BRANCH  18  19
ATOM     19  C   UNL     1      -9.213 -25.653  -3.662  1.00  0.00     0.000 C 
BRANCH  19  20
ATOM     20  C   UNL     1      -9.440 -26.864  -2.746  1.00  0.00     0.000 C 
BRANCH  20  21
ATOM     21  C   UNL     1     -10.087 -26.438  -1.422  1.00  0.00     0.000 C 
BRANCH  21  22
ATOM     22  C   UNL     1      -9.363 -27.070  -0.228  1.00  0.00     0.000 C 
BRANCH  22  23
ATOM     23  C   UNL     1      -7.874 -27.286  -0.536  1.00  0.00     0.000 C 
BRANCH  23  24
ATOM     24  C   UNL     1      -7.244 -28.409   0.308  1.00  0.00    -0.000 C 
BRANCH  24  25
ATOM     25  C   UNL     1      -7.911 -29.790   0.159  1.00  0.00    -0.000 C 
BRANCH  25  26
ATOM     26  C   UNL     1      -7.546 -30.562  -1.123  1.00  0.00    -0.000 C 
BRANCH  26  27
ATOM     27  C   UNL     1      -8.526 -30.331  -2.294  1.00  0.00    -0.000 C 
BRANCH  27  28
ATOM     28  C   UNL     1      -7.834 -30.376  -3.668  1.00  0.00    -0.000 C 
BRANCH  28  29
ATOM     29  C   UNL     1      -7.022 -29.104  -3.965  1.00  0.00    -0.000 C 
BRANCH  29  30
ATOM     30  C   UNL     1      -5.534 -29.252  -3.609  1.00  0.00    -0.000 C 
BRANCH  30  31
ATOM     31  C   UNL     1      -5.073 -28.108  -2.699  1.00  0.00    -0.003 C 
ATOM     32  C   UNL     1      -5.519 -26.754  -3.246  1.00  0.00     0.004 C 
ENDBRANCH  30  31
ENDBRANCH  29  30
ENDBRANCH  28  29
ENDBRANCH  27  28
ENDBRANCH  26  27
ENDBRANCH  25  26
ENDBRANCH  24  25
ENDBRANCH  23  24
ENDBRANCH  22  23
ENDBRANCH  21  22
ENDBRANCH  20  21
ENDBRANCH  19  20
ENDBRANCH  18  19
ENDBRANCH   1  18
TORSDOF 28
ENDMDL
MODEL 3
REMARK VINA RESULT:    -3.963      2.786      6.082
REMARK INTER + INTRA:         -16.497
REMARK INTER:                 -11.016
REMARK INTRA:                  -5.480
REMARK UNBOUND:                -6.047
REMARK SMILES CCCCCCCCCCCCCCCCCCCCCCCCCCCCCC(=O)[O-]
REMARK SMILES IDX 16 1 17 2 18 3 19 4 20 5 21 6 22 7 23 8 24 9 25 10 26 11
REMARK SMILES IDX 27 12 28 13 29 14 30 15 31 16 32 17 15 18 14 19 13 20 12 21
REMARK SMILES IDX 11 22 10 23 9 24 8 25 7 26 6 27 5 28 4 29 3 30 2 31 1 32
REMARK H PARENT
REMARK Flexibility Score: inf
ROOT
ATOM      1  C   UNL     1       0.910 -22.447  -7.523  1.00  0.00     0.000 C 
ENDROOT
BRANCH   1   2
ATOM      2  C   UNL     1       0.465 -22.514  -6.048  1.00  0.00     0.000 C 
BRANCH   2   3
ATOM      3  C   UNL     1       0.070 -21.161  -5.430  1.00  0.00     0.000 C 
BRANCH   3   4
ATOM      4  C   UNL     1       0.840 -20.851  -4.138  1.00  0.00     0.000 C 
BRANCH   4   5
ATOM      5  C   UNL     1       0.382 -19.515  -3.535  1.00  0.00     0.000 C 
BRANCH   5   6
ATOM      6  C   UNL     1       1.277 -18.332  -3.948  1.00  0.00     0.000 C 
BRANCH   6   7
ATOM      7  C   UNL     1       2.010 -17.631  -2.786  1.00  0.00     0.000 C 
BRANCH   7   8
ATOM      8  C   UNL     1       3.146 -18.451  -2.143  1.00  0.00     0.000 C 
BRANCH   8   9
ATOM      9  C   UNL     1       4.533 -17.775  -2.169  1.00  0.00     0.000 C 
BRANCH   9  10
ATOM     10  C   UNL     1       4.676 -16.623  -3.180  1.00  0.00     0.000 C 
BRANCH  10  11
ATOM     11  C   UNL     1       5.384 -15.396  -2.584  1.00  0.00     0.000 C 
BRANCH  11  12
ATOM     12  C   UNL     1       4.817 -15.047  -1.201  1.00  0.00     0.000 C 
BRANCH  12  13
ATOM     13  C   UNL     1       5.898 -14.978  -0.107  1.00  0.00     0.006 C 
BRANCH  13  14
ATOM     14  C   UNL     1       7.290 -15.446  -0.570  1.00  0.00     0.053 C 
BRANCH  14  15
ATOM     15  C   UNL     1       7.845 -16.546   0.283  1.00  0.00     0.041 C 
ATOM     16  O   UNL     1       8.545 -16.275   1.294  1.00  0.00    -0.550 OA
ATOM     17  O   UNL     1       7.613 -17.873  -0.054  1.00  0.00    -0.550 OA
ENDBRANCH  14  15
ENDBRANCH  13  14
ENDBRANCH  12  13
ENDBRANCH  11  12
ENDBRANCH  10  11
ENDBRANCH   9  10
ENDBRANCH   8   9
ENDBRANCH   7   8
ENDBRANCH   6   7
ENDBRANCH   5   6
ENDBRANCH   4   5
ENDBRANCH   3   4
ENDBRANCH   2   3
ENDBRANCH   1   2
BRANCH   1  18
ATOM     18  C   UNL     1       1.632 -21.147  -7.931  1.00  0.00     0.000 C 
BRANCH  18  19
ATOM     19  C   UNL     1       3.070 -21.006  -7.401  1.00  0.00     0.000 C 
BRANCH  19  20
ATOM     20  C   UNL     1       3.400 -19.581  -6.935  1.00  0.00     0.000 C 
BRANCH  20  21
ATOM     21  C   UNL     1       4.164 -19.600  -5.605  1.00  0.00     0.000 C 
BRANCH  21  22
ATOM     22  C   UNL     1       4.228 -21.019  -5.029  1.00  0.00     0.000 C 
BRANCH  22  23
ATOM     23  C   UNL     1       5.158 -21.078  -3.808  1.00  0.00     0.000 C 
BRANCH  23  24
ATOM     24  C   UNL     1       6.649 -21.057  -4.190  1.00  0.00    -0.000 C 
BRANCH  24  25
ATOM     25  C   UNL     1       7.409 -19.779  -3.787  1.00  0.00    -0.000 C 
BRANCH  25  26
ATOM     26  C   UNL     1       7.276 -18.599  -4.769  1.00  0.00    -0.000 C 
BRANCH  26  27
ATOM     27  C   UNL     1       8.266 -18.654  -5.953  1.00  0.00    -0.000 C 
BRANCH  27  28
ATOM     28  C   UNL     1       7.595 -18.358  -7.306  1.00  0.00    -0.000 C 
BRANCH  28  29
ATOM     29  C   UNL     1       7.013 -19.619  -7.967  1.00  0.00    -0.000 C 
BRANCH  29  30
ATOM     30  C   UNL     1       7.848 -20.878  -7.685  1.00  0.00    -0.000 C 
BRANCH  30  31
ATOM     31  C   UNL     1       6.946 -22.107  -7.521  1.00  0.00    -0.003 C 
ATOM     32  C   UNL     1       7.449 -23.277  -8.363  1.00  0.00     0.004 C 
ENDBRANCH  30  31
ENDBRANCH  29  30
ENDBRANCH  28  29
ENDBRANCH  27  28
ENDBRANCH  26  27
ENDBRANCH  25  26
ENDBRANCH  24  25
ENDBRANCH  23  24
ENDBRANCH  22  23
ENDBRANCH  21  22
ENDBRANCH  20  21
ENDBRANCH  19  20
ENDBRANCH  18  19
ENDBRANCH   1  18
TORSDOF 28
ENDMDL
MODEL 4
REMARK VINA RESULT:    -3.931      1.398      3.618
REMARK INTER + INTRA:         -16.413
REMARK INTER:                 -10.543
REMARK INTRA:                  -5.870
REMARK UNBOUND:                -6.047
REMARK SMILES CCCCCCCCCCCCCCCCCCCCCCCCCCCCCC(=O)[O-]
REMARK SMILES IDX 16 1 17 2 18 3 19 4 20 5 21 6 22 7 23 8 24 9 25 10 26 11
REMARK SMILES IDX 27 12 28 13 29 14 30 15 31 16 32 17 15 18 14 19 13 20 12 21
REMARK SMILES IDX 11 22 10 23 9 24 8 25 7 26 6 27 5 28 4 29 3 30 2 31 1 32
REMARK H PARENT
REMARK Flexibility Score: inf
ROOT
ATOM      1  C   UNL     1       0.213 -21.297  -5.036  1.00  0.00     0.000 C 
ENDROOT
BRANCH   1   2
ATOM      2  C   UNL     1       0.991 -22.098  -6.099  1.00  0.00     0.000 C 
BRANCH   2   3
ATOM      3  C   UNL     1       0.648 -21.741  -7.557  1.00  0.00     0.000 C 
BRANCH   3   4
ATOM      4  C   UNL     1       1.791 -21.007  -8.273  1.00  0.00     0.000 C 
BRANCH   4   5
ATOM      5  C   UNL     1       3.111 -21.169  -7.505  1.00  0.00     0.000 C 
BRANCH   5   6
ATOM      6  C   UNL     1       3.814 -19.827  -7.231  1.00  0.00     0.000 C 
BRANCH   6   7
ATOM      7  C   UNL     1       4.446 -19.695  -5.830  1.00  0.00     0.000 C 
BRANCH   7   8
ATOM      8  C   UNL     1       4.369 -20.965  -4.958  1.00  0.00     0.000 C 
BRANCH   8   9
ATOM      9  C   UNL     1       5.301 -20.968  -3.729  1.00  0.00     0.000 C 
BRANCH   9  10
ATOM     10  C   UNL     1       5.928 -19.605  -3.384  1.00  0.00     0.000 C 
BRANCH  10  11
ATOM     11  C   UNL     1       7.371 -19.469  -3.894  1.00  0.00     0.000 C 
BRANCH  11  12
ATOM     12  C   UNL     1       8.092 -20.824  -3.885  1.00  0.00     0.000 C 
BRANCH  12  13
ATOM     13  C   UNL     1       8.454 -21.323  -5.296  1.00  0.00     0.006 C 
BRANCH  13  14
ATOM     14  C   UNL     1       7.959 -20.407  -6.431  1.00  0.00     0.053 C 
BRANCH  14  15
ATOM     15  C   UNL     1       7.392 -21.173  -7.587  1.00  0.00     0.041 C 
ATOM     16  O   UNL     1       6.669 -22.185  -7.386  1.00  0.00    -0.550 OA
ATOM     17  O   UNL     1       7.685 -20.788  -8.889  1.00  0.00    -0.550 OA
ENDBRANCH  14  15
ENDBRANCH  13  14
ENDBRANCH  12  13
ENDBRANCH  11  12
ENDBRANCH  10  11
ENDBRANCH   9  10
ENDBRANCH   8   9
ENDBRANCH   7   8
ENDBRANCH   6   7
ENDBRANCH   5   6
ENDBRANCH   4   5
ENDBRANCH   3   4
ENDBRANCH   2   3
ENDBRANCH   1   2
BRANCH   1  18
ATOM     18  C   UNL     1       0.885 -19.984  -4.584  1.00  0.00     0.000 C 
BRANCH  18  19
ATOM     19  C   UNL     1       1.323 -19.950  -3.109  1.00  0.00     0.000 C 
BRANCH  19  20
ATOM     20  C   UNL     1       2.154 -18.707  -2.760  1.00  0.00     0.000 C 
BRANCH  20  21
ATOM     21  C   UNL     1       2.046 -17.646  -3.864  1.00  0.00     0.000 C 
BRANCH  21  22
ATOM     22  C   UNL     1       3.388 -16.937  -4.076  1.00  0.00     0.000 C 
BRANCH  22  23
ATOM     23  C   UNL     1       3.208 -15.411  -4.101  1.00  0.00     0.000 C 
BRANCH  23  24
ATOM     24  C   UNL     1       1.816 -14.965  -3.622  1.00  0.00    -0.000 C 
BRANCH  24  25
ATOM     25  C   UNL     1       1.785 -14.304  -2.230  1.00  0.00    -0.000 C 
BRANCH  25  26
ATOM     26  C   UNL     1       1.636 -15.277  -1.044  1.00  0.00    -0.000 C 
BRANCH  26  27
ATOM     27  C   UNL     1       2.965 -15.601  -0.328  1.00  0.00    -0.000 C 
BRANCH  27  28
ATOM     28  C   UNL     1       4.037 -14.517  -0.541  1.00  0.00    -0.000 C 
BRANCH  28  29
ATOM     29  C   UNL     1       5.468 -15.067  -0.422  1.00  0.00    -0.000 C 
BRANCH  29  30
ATOM     30  C   UNL     1       5.692 -16.332  -1.265  1.00  0.00    -0.000 C 
BRANCH  30  31
ATOM     31  C   UNL     1       6.953 -16.200  -2.125  1.00  0.00    -0.003 C 
ATOM     32  C   UNL     1       6.781 -15.125  -3.196  1.00  0.00     0.004 C 
ENDBRANCH  30  31
ENDBRANCH  29  30
ENDBRANCH  28  29
ENDBRANCH  27  28
ENDBRANCH  26  27
ENDBRANCH  25  26
ENDBRANCH  24  25
ENDBRANCH  23  24
ENDBRANCH  22  23
ENDBRANCH  21  22
ENDBRANCH  20  21
ENDBRANCH  19  20
ENDBRANCH  18  19
ENDBRANCH   1  18
TORSDOF 28
ENDMDL
MODEL 5
REMARK VINA RESULT:    -3.918      2.008      4.834
REMARK INTER + INTRA:         -16.377
REMARK INTER:                 -10.543
REMARK INTRA:                  -5.835
REMARK UNBOUND:                -6.047
REMARK SMILES CCCCCCCCCCCCCCCCCCCCCCCCCCCCCC(=O)[O-]
REMARK SMILES IDX 16 1 17 2 18 3 19 4 20 5 21 6 22 7 23 8 24 9 25 10 26 11
REMARK SMILES IDX 27 12 28 13 29 14 30 15 31 16 32 17 15 18 14 19 13 20 12 21
REMARK SMILES IDX 11 22 10 23 9 24 8 25 7 26 6 27 5 28 4 29 3 30 2 31 1 32
REMARK H PARENT
REMARK Flexibility Score: inf
ROOT
ATOM      1  C   UNL     1       2.755 -20.660  -8.273  1.00  0.00     0.000 C 
ENDROOT
BRANCH   1   2
ATOM      2  C   UNL     1       3.813 -20.215  -7.243  1.00  0.00     0.000 C 
BRANCH   2   3
ATOM      3  C   UNL     1       4.399 -21.351  -6.385  1.00  0.00     0.000 C 
BRANCH   3   4
ATOM      4  C   UNL     1       5.932 -21.325  -6.331  1.00  0.00     0.000 C 
BRANCH   4   5
ATOM      5  C   UNL     1       6.531 -22.410  -7.239  1.00  0.00     0.000 C 
BRANCH   5   6
ATOM      6  C   UNL     1       7.629 -21.871  -8.174  1.00  0.00     0.000 C 
BRANCH   6   7
ATOM      7  C   UNL     1       7.860 -20.348  -8.099  1.00  0.00     0.000 C 
BRANCH   7   8
ATOM      8  C   UNL     1       7.301 -19.543  -9.290  1.00  0.00     0.000 C 
BRANCH   8   9
ATOM      9  C   UNL     1       6.561 -18.245  -8.908  1.00  0.00     0.000 C 
BRANCH   9  10
ATOM     10  C   UNL     1       7.011 -17.605  -7.583  1.00  0.00     0.000 C 
BRANCH  10  11
ATOM     11  C   UNL     1       5.830 -17.183  -6.695  1.00  0.00     0.000 C 
BRANCH  11  12
ATOM     12  C   UNL     1       5.929 -17.819  -5.301  1.00  0.00     0.000 C 
BRANCH  12  13
ATOM     13  C   UNL     1       7.375 -18.162  -4.898  1.00  0.00     0.006 C 
BRANCH  13  14
ATOM     14  C   UNL     1       7.574 -18.355  -3.384  1.00  0.00     0.053 C 
BRANCH  14  15
ATOM     15  C   UNL     1       7.284 -19.756  -2.935  1.00  0.00     0.041 C 
ATOM     16  O   UNL     1       7.814 -20.735  -3.525  1.00  0.00    -0.550 OA
ATOM     17  O   UNL     1       6.405 -19.982  -1.884  1.00  0.00    -0.550 OA
ENDBRANCH  14  15
ENDBRANCH  13  14
ENDBRANCH  12  13
ENDBRANCH  11  12
ENDBRANCH  10  11
ENDBRANCH   9  10
ENDBRANCH   8   9
ENDBRANCH   7   8
ENDBRANCH   6   7
ENDBRANCH   5   6
ENDBRANCH   4   5
ENDBRANCH   3   4
ENDBRANCH   2   3
ENDBRANCH   1   2
BRANCH   1  18
ATOM     18  C   UNL     1       1.303 -20.682  -7.753  1.00  0.00     0.000 C 
BRANCH  18  19
ATOM     19  C   UNL     1       0.869 -22.000  -7.086  1.00  0.00     0.000 C 
BRANCH  19  20
ATOM     20  C   UNL     1       0.345 -21.803  -5.656  1.00  0.00     0.000 C 
BRANCH  20  21
ATOM     21  C   UNL     1       0.897 -20.510  -5.042  1.00  0.00     0.000 C 
BRANCH  21  22
ATOM     22  C   UNL     1       0.361 -20.305  -3.620  1.00  0.00     0.000 C 
BRANCH  22  23
ATOM     23  C   UNL     1       1.506 -20.267  -2.598  1.00  0.00     0.000 C 
BRANCH  23  24
ATOM     24  C   UNL     1       2.870 -19.954  -3.237  1.00  0.00    -0.000 C 
BRANCH  24  25
ATOM     25  C   UNL     1       3.440 -18.560  -2.911  1.00  0.00    -0.000 C 
BRANCH  25  26
ATOM     26  C   UNL     1       3.008 -17.975  -1.552  1.00  0.00    -0.000 C 
BRANCH  26  27
ATOM     27  C   UNL     1       2.447 -16.539  -1.636  1.00  0.00    -0.000 C 
BRANCH  27  28
ATOM     28  C   UNL     1       3.458 -15.537  -2.221  1.00  0.00    -0.000 C 
BRANCH  28  29
ATOM     29  C   UNL     1       2.869 -14.703  -3.370  1.00  0.00    -0.000 C 
BRANCH  29  30
ATOM     30  C   UNL     1       3.130 -15.324  -4.751  1.00  0.00    -0.000 C 
BRANCH  30  31
ATOM     31  C   UNL     1       1.828 -15.845  -5.371  1.00  0.00    -0.003 C 
ATOM     32  C   UNL     1       2.035 -17.209  -6.024  1.00  0.00     0.004 C 
ENDBRANCH  30  31
ENDBRANCH  29  30
ENDBRANCH  28  29
ENDBRANCH  27  28
ENDBRANCH  26  27
ENDBRANCH  25  26
ENDBRANCH  24  25
ENDBRANCH  23  24
ENDBRANCH  22  23
ENDBRANCH  21  22
ENDBRANCH  20  21
ENDBRANCH  19  20
ENDBRANCH  18  19
ENDBRANCH   1  18
TORSDOF 28
ENDMDL
MODEL 6
REMARK VINA RESULT:    -3.901      2.036      4.111
REMARK INTER + INTRA:         -16.333
REMARK INTER:                 -10.603
REMARK INTRA:                  -5.731
REMARK UNBOUND:                -6.047
REMARK SMILES CCCCCCCCCCCCCCCCCCCCCCCCCCCCCC(=O)[O-]
REMARK SMILES IDX 16 1 17 2 18 3 19 4 20 5 21 6 22 7 23 8 24 9 25 10 26 11
REMARK SMILES IDX 27 12 28 13 29 14 30 15 31 16 32 17 15 18 14 19 13 20 12 21
REMARK SMILES IDX 11 22 10 23 9 24 8 25 7 26 6 27 5 28 4 29 3 30 2 31 1 32
REMARK H PARENT
REMARK Flexibility Score: inf
ROOT
ATOM      1  C   UNL     1       0.601 -21.804  -5.110  1.00  0.00     0.000 C 
ENDROOT
BRANCH   1   2
ATOM      2  C   UNL     1       0.118 -21.923  -6.569  1.00  0.00     0.000 C 
BRANCH   2   3
ATOM      3  C   UNL     1       1.238 -22.119  -7.607  1.00  0.00     0.000 C 
BRANCH   3   4
ATOM      4  C   UNL     1       1.645 -20.809  -8.297  1.00  0.00     0.000 C 
BRANCH   4   5
ATOM      5  C   UNL     1       3.061 -20.387  -7.879  1.00  0.00     0.000 C 
BRANCH   5   6
ATOM      6  C   UNL     1       3.066 -19.263  -6.827  1.00  0.00     0.000 C 
BRANCH   6   7
ATOM      7  C   UNL     1       4.219 -19.331  -5.804  1.00  0.00     0.000 C 
BRANCH   7   8
ATOM      8  C   UNL     1       4.258 -20.615  -4.951  1.00  0.00     0.000 C 
BRANCH   8   9
ATOM      9  C   UNL     1       5.602 -21.372  -4.976  1.00  0.00     0.000 C 
BRANCH   9  10
ATOM     10  C   UNL     1       5.744 -22.408  -6.105  1.00  0.00     0.000 C 
BRANCH  10  11
ATOM     11  C   UNL     1       6.472 -21.848  -7.337  1.00  0.00     0.000 C 
BRANCH  11  12
ATOM     12  C   UNL     1       7.714 -21.043  -6.928  1.00  0.00     0.000 C 
BRANCH  12  13
ATOM     13  C   UNL     1       8.047 -19.908  -7.915  1.00  0.00     0.006 C 
BRANCH  13  14
ATOM     14  C   UNL     1       6.863 -19.479  -8.799  1.00  0.00     0.053 C 
BRANCH  14  15
ATOM     15  C   UNL     1       6.722 -17.990  -8.895  1.00  0.00     0.041 C 
ATOM     16  O   UNL     1       6.470 -17.307  -7.866  1.00  0.00    -0.550 OA
ATOM     17  O   UNL     1       6.840 -17.356 -10.125  1.00  0.00    -0.550 OA
ENDBRANCH  14  15
ENDBRANCH  13  14
ENDBRANCH  12  13
ENDBRANCH  11  12
ENDBRANCH  10  11
ENDBRANCH   9  10
ENDBRANCH   8   9
ENDBRANCH   7   8
ENDBRANCH   6   7
ENDBRANCH   5   6
ENDBRANCH   4   5
ENDBRANCH   3   4
ENDBRANCH   2   3
ENDBRANCH   1   2
BRANCH   1  18
ATOM     18  C   UNL     1       0.498 -20.391  -4.499  1.00  0.00     0.000 C 
BRANCH  18  19
ATOM     19  C   UNL     1       1.090 -20.247  -3.085  1.00  0.00     0.000 C 
BRANCH  19  20
ATOM     20  C   UNL     1       1.868 -18.937  -2.893  1.00  0.00     0.000 C 
BRANCH  20  21
ATOM     21  C   UNL     1       1.126 -17.759  -3.535  1.00  0.00     0.000 C 
BRANCH  21  22
ATOM     22  C   UNL     1       2.112 -16.740  -4.117  1.00  0.00     0.000 C 
BRANCH  22  23
ATOM     23  C   UNL     1       1.675 -15.302  -3.797  1.00  0.00     0.000 C 
BRANCH  23  24
ATOM     24  C   UNL     1       1.158 -15.140  -2.357  1.00  0.00    -0.000 C 
BRANCH  24  25
ATOM     25  C   UNL     1       1.856 -14.041  -1.533  1.00  0.00    -0.000 C 
BRANCH  25  26
ATOM     26  C   UNL     1       2.841 -14.548  -0.461  1.00  0.00    -0.000 C 
BRANCH  26  27
ATOM     27  C   UNL     1       3.352 -15.984  -0.709  1.00  0.00    -0.000 C 
BRANCH  27  28
ATOM     28  C   UNL     1       4.708 -16.018  -1.436  1.00  0.00    -0.000 C 
BRANCH  28  29
ATOM     29  C   UNL     1       5.118 -17.438  -1.859  1.00  0.00    -0.000 C 
BRANCH  29  30
ATOM     30  C   UNL     1       5.688 -17.492  -3.286  1.00  0.00    -0.000 C 
BRANCH  30  31
ATOM     31  C   UNL     1       6.940 -18.375  -3.341  1.00  0.00    -0.003 C 
ATOM     32  C   UNL     1       7.794 -18.044  -4.562  1.00  0.00     0.004 C 
ENDBRANCH  30  31
ENDBRANCH  29  30
ENDBRANCH  28  29
ENDBRANCH  27  28
ENDBRANCH  26  27
ENDBRANCH  25  26
ENDBRANCH  24  25
ENDBRANCH  23  24
ENDBRANCH  22  23
ENDBRANCH  21  22
ENDBRANCH  20  21
ENDBRANCH  19  20
ENDBRANCH  18  19
ENDBRANCH   1  18
TORSDOF 28
ENDMDL
MODEL 7
REMARK VINA RESULT:    -3.873     13.871     16.894
REMARK INTER + INTRA:         -16.260
REMARK INTER:                 -12.138
REMARK INTRA:                  -4.121
REMARK UNBOUND:                -6.047
REMARK SMILES CCCCCCCCCCCCCCCCCCCCCCCCCCCCCC(=O)[O-]
REMARK SMILES IDX 16 1 17 2 18 3 19 4 20 5 21 6 22 7 23 8 24 9 25 10 26 11
REMARK SMILES IDX 27 12 28 13 29 14 30 15 31 16 32 17 15 18 14 19 13 20 12 21
REMARK SMILES IDX 11 22 10 23 9 24 8 25 7 26 6 27 5 28 4 29 3 30 2 31 1 32
REMARK H PARENT
REMARK Flexibility Score: inf
ROOT
ATOM      1  C   UNL     1     -10.047 -24.864  -3.022  1.00  0.00     0.000 C 
ENDROOT
BRANCH   1   2
ATOM      2  C   UNL     1      -8.529 -24.625  -3.138  1.00  0.00     0.000 C 
BRANCH   2   3
ATOM      3  C   UNL     1      -7.903 -23.856  -1.959  1.00  0.00     0.000 C 
BRANCH   3   4
ATOM      4  C   UNL     1      -8.553 -22.484  -1.734  1.00  0.00     0.000 C 
BRANCH   4   5
ATOM      5  C   UNL     1      -9.307 -22.449  -0.396  1.00  0.00     0.000 C 
BRANCH   5   6
ATOM      6  C   UNL     1      -9.253 -21.070   0.287  1.00  0.00     0.000 C 
BRANCH   6   7
ATOM      7  C   UNL     1     -10.006 -19.945  -0.453  1.00  0.00     0.000 C 
BRANCH   7   8
ATOM      8  C   UNL     1      -9.150 -18.714  -0.813  1.00  0.00     0.000 C 
BRANCH   8   9
ATOM      9  C   UNL     1      -9.560 -17.406  -0.104  1.00  0.00     0.000 C 
BRANCH   9  10
ATOM     10  C   UNL     1     -10.486 -17.587   1.111  1.00  0.00     0.000 C 
BRANCH  10  11
ATOM     11  C   UNL     1      -9.815 -17.183   2.434  1.00  0.00     0.000 C 
BRANCH  11  12
ATOM     12  C   UNL     1      -9.800 -18.354   3.427  1.00  0.00     0.000 C 
BRANCH  12  13
ATOM     13  C   UNL     1      -8.394 -18.945   3.640  1.00  0.00     0.006 C 
BRANCH  13  14
ATOM     14  C   UNL     1      -8.395 -20.421   4.079  1.00  0.00     0.053 C 
BRANCH  14  15
ATOM     15  C   UNL     1      -7.266 -20.748   5.010  1.00  0.00     0.041 C 
ATOM     16  O   UNL     1      -6.462 -19.849   5.375  1.00  0.00    -0.550 OA
ATOM     17  O   UNL     1      -7.084 -22.051   5.452  1.00  0.00    -0.550 OA
ENDBRANCH  14  15
ENDBRANCH  13  14
ENDBRANCH  12  13
ENDBRANCH  11  12
ENDBRANCH  10  11
ENDBRANCH   9  10
ENDBRANCH   8   9
ENDBRANCH   7   8
ENDBRANCH   6   7
ENDBRANCH   5   6
ENDBRANCH   4   5
ENDBRANCH   3   4
ENDBRANCH   2   3
ENDBRANCH   1   2
BRANCH   1  18
ATOM     18  C   UNL     1     -10.465 -25.935  -1.993  1.00  0.00     0.000 C 
BRANCH  18  19
ATOM     19  C   UNL     1      -9.662 -27.247  -2.055  1.00  0.00     0.000 C 
BRANCH  19  20
ATOM     20  C   UNL     1      -9.127 -27.687  -0.685  1.00  0.00     0.000 C 
BRANCH  20  21
ATOM     21  C   UNL     1      -7.743 -27.083  -0.417  1.00  0.00     0.000 C 
BRANCH  21  22
ATOM     22  C   UNL     1      -6.683 -28.182  -0.275  1.00  0.00     0.000 C 
BRANCH  22  23
ATOM     23  C   UNL     1      -5.402 -27.815  -1.040  1.00  0.00     0.000 C 
BRANCH  23  24
ATOM     24  C   UNL     1      -5.632 -26.731  -2.109  1.00  0.00    -0.000 C 
BRANCH  24  25
ATOM     25  C   UNL     1      -5.840 -27.260  -3.541  1.00  0.00    -0.000 C 
BRANCH  25  26
ATOM     26  C   UNL     1      -5.577 -28.767  -3.730  1.00  0.00    -0.000 C 
BRANCH  26  27
ATOM     27  C   UNL     1      -6.828 -29.576  -4.135  1.00  0.00    -0.000 C 
BRANCH  27  28
ATOM     28  C   UNL     1      -7.197 -30.659  -3.105  1.00  0.00    -0.000 C 
BRANCH  28  29
ATOM     29  C   UNL     1      -8.702 -30.692  -2.792  1.00  0.00    -0.000 C 
BRANCH  29  30
ATOM     30  C   UNL     1      -9.009 -31.278  -1.406  1.00  0.00    -0.000 C 
BRANCH  30  31
ATOM     31  C   UNL     1      -7.733 -31.393  -0.565  1.00  0.00    -0.003 C 
ATOM     32  C   UNL     1      -7.622 -32.770   0.085  1.00  0.00     0.004 C 
ENDBRANCH  30  31
ENDBRANCH  29  30
ENDBRANCH  28  29
ENDBRANCH  27  28
ENDBRANCH  26  27
ENDBRANCH  25  26
ENDBRANCH  24  25
ENDBRANCH  23  24
ENDBRANCH  22  23
ENDBRANCH  21  22
ENDBRANCH  20  21
ENDBRANCH  19  20
ENDBRANCH  18  19
ENDBRANCH   1  18
TORSDOF 28
ENDMDL
MODEL 8
REMARK VINA RESULT:    -3.852      3.072      6.128
REMARK INTER + INTRA:         -16.204
REMARK INTER:                 -10.089
REMARK INTRA:                  -6.114
REMARK UNBOUND:                -6.047
REMARK SMILES CCCCCCCCCCCCCCCCCCCCCCCCCCCCCC(=O)[O-]
REMARK SMILES IDX 16 1 17 2 18 3 19 4 20 5 21 6 22 7 23 8 24 9 25 10 26 11
REMARK SMILES IDX 27 12 28 13 29 14 30 15 31 16 32 17 15 18 14 19 13 20 12 21
REMARK SMILES IDX 11 22 10 23 9 24 8 25 7 26 6 27 5 28 4 29 3 30 2 31 1 32
REMARK H PARENT
REMARK Flexibility Score: inf
ROOT
ATOM      1  C   UNL     1       0.490 -20.278  -4.389  1.00  0.00     0.000 C 
ENDROOT
BRANCH   1   2
ATOM      2  C   UNL     1       1.884 -19.673  -4.129  1.00  0.00     0.000 C 
BRANCH   2   3
ATOM      3  C   UNL     1       1.986 -18.156  -4.369  1.00  0.00     0.000 C 
BRANCH   3   4
ATOM      4  C   UNL     1       1.908 -17.783  -5.856  1.00  0.00     0.000 C 
BRANCH   4   5
ATOM      5  C   UNL     1       2.019 -16.263  -6.046  1.00  0.00     0.000 C 
BRANCH   5   6
ATOM      6  C   UNL     1       2.365 -15.519  -4.744  1.00  0.00     0.000 C 
BRANCH   6   7
ATOM      7  C   UNL     1       1.389 -14.389  -4.358  1.00  0.00     0.000 C 
BRANCH   7   8
ATOM      8  C   UNL     1       0.167 -14.835  -3.532  1.00  0.00     0.000 C 
BRANCH   8   9
ATOM      9  C   UNL     1       0.491 -15.333  -2.108  1.00  0.00     0.000 C 
BRANCH   9  10
ATOM     10  C   UNL     1       1.265 -14.334  -1.230  1.00  0.00     0.000 C 
BRANCH  10  11
ATOM     11  C   UNL     1       2.525 -14.949  -0.601  1.00  0.00     0.000 C 
BRANCH  11  12
ATOM     12  C   UNL     1       2.733 -16.394  -1.077  1.00  0.00     0.000 C 
BRANCH  12  13
ATOM     13  C   UNL     1       4.134 -16.638  -1.668  1.00  0.00     0.006 C 
BRANCH  13  14
ATOM     14  C   UNL     1       4.923 -15.350  -1.961  1.00  0.00     0.053 C 
BRANCH  14  15
ATOM     15  C   UNL     1       6.145 -15.211  -1.104  1.00  0.00     0.041 C 
ATOM     16  O   UNL     1       7.284 -15.478  -1.573  1.00  0.00    -0.550 OA
ATOM     17  O   UNL     1       6.026 -14.815   0.221  1.00  0.00    -0.550 OA
ENDBRANCH  14  15
ENDBRANCH  13  14
ENDBRANCH  12  13
ENDBRANCH  11  12
ENDBRANCH  10  11
ENDBRANCH   9  10
ENDBRANCH   8   9
ENDBRANCH   7   8
ENDBRANCH   6   7
ENDBRANCH   5   6
ENDBRANCH   4   5
ENDBRANCH   3   4
ENDBRANCH   2   3
ENDBRANCH   1   2
BRANCH   1  18
ATOM     18  C   UNL     1       0.494 -21.703  -4.980  1.00  0.00     0.000 C 
BRANCH  18  19
ATOM     19  C   UNL     1      -0.133 -21.829  -6.381  1.00  0.00     0.000 C 
BRANCH  19  20
ATOM     20  C   UNL     1       0.830 -22.430  -7.415  1.00  0.00     0.000 C 
BRANCH  20  21
ATOM     21  C   UNL     1       1.217 -21.390  -8.474  1.00  0.00     0.000 C 
BRANCH  21  22
ATOM     22  C   UNL     1       2.291 -20.435  -7.940  1.00  0.00     0.000 C 
BRANCH  22  23
ATOM     23  C   UNL     1       3.453 -21.211  -7.303  1.00  0.00     0.000 C 
BRANCH  23  24
ATOM     24  C   UNL     1       4.553 -20.291  -6.745  1.00  0.00    -0.000 C 
BRANCH  24  25
ATOM     25  C   UNL     1       5.273 -19.422  -7.795  1.00  0.00    -0.000 C 
BRANCH  25  26
ATOM     26  C   UNL     1       6.277 -18.401  -7.226  1.00  0.00    -0.000 C 
BRANCH  26  27
ATOM     27  C   UNL     1       5.615 -17.160  -6.588  1.00  0.00    -0.000 C 
BRANCH  27  28
ATOM     28  C   UNL     1       5.562 -17.237  -5.051  1.00  0.00    -0.000 C 
BRANCH  28  29
ATOM     29  C   UNL     1       6.925 -17.584  -4.428  1.00  0.00    -0.000 C 
BRANCH  29  30
ATOM     30  C   UNL     1       6.877 -18.850  -3.559  1.00  0.00    -0.000 C 
BRANCH  30  31
ATOM     31  C   UNL     1       5.452 -19.411  -3.487  1.00  0.00    -0.003 C 
ATOM     32  C   UNL     1       5.425 -20.757  -2.769  1.00  0.00     0.004 C 
ENDBRANCH  30  31
ENDBRANCH  29  30
ENDBRANCH  28  29
ENDBRANCH  27  28
ENDBRANCH  26  27
ENDBRANCH  25  26
ENDBRANCH  24  25
ENDBRANCH  23  24
ENDBRANCH  22  23
ENDBRANCH  21  22
ENDBRANCH  20  21
ENDBRANCH  19  20
ENDBRANCH  18  19
ENDBRANCH   1  18
TORSDOF 28
ENDMDL
MODEL 9
REMARK VINA RESULT:    -3.836      1.590      3.822
REMARK INTER + INTRA:         -16.162
REMARK INTER:                 -11.264
REMARK INTRA:                  -4.898
REMARK UNBOUND:                -6.047
REMARK SMILES CCCCCCCCCCCCCCCCCCCCCCCCCCCCCC(=O)[O-]
REMARK SMILES IDX 16 1 17 2 18 3 19 4 20 5 21 6 22 7 23 8 24 9 25 10 26 11
REMARK SMILES IDX 27 12 28 13 29 14 30 15 31 16 32 17 15 18 14 19 13 20 12 21
REMARK SMILES IDX 11 22 10 23 9 24 8 25 7 26 6 27 5 28 4 29 3 30 2 31 1 32
REMARK H PARENT
REMARK Flexibility Score: inf
ROOT
ATOM      1  C   UNL     1       0.870 -22.152  -7.487  1.00  0.00     0.000 C 
ENDROOT
BRANCH   1   2
ATOM      2  C   UNL     1       1.318 -20.798  -8.073  1.00  0.00     0.000 C 
BRANCH   2   3
ATOM      3  C   UNL     1       2.837 -20.650  -8.273  1.00  0.00     0.000 C 
BRANCH   3   4
ATOM      4  C   UNL     1       3.494 -19.770  -7.201  1.00  0.00     0.000 C 
BRANCH   4   5
ATOM      5  C   UNL     1       4.807 -20.396  -6.708  1.00  0.00     0.000 C 
BRANCH   5   6
ATOM      6  C   UNL     1       4.603 -21.374  -5.536  1.00  0.00     0.000 C 
BRANCH   6   7
ATOM      7  C   UNL     1       5.685 -21.314  -4.439  1.00  0.00     0.000 C 
BRANCH   7   8
ATOM      8  C   UNL     1       5.163 -20.999  -3.023  1.00  0.00     0.000 C 
BRANCH   8   9
ATOM      9  C   UNL     1       4.412 -19.658  -2.890  1.00  0.00     0.000 C 
BRANCH   9  10
ATOM     10  C   UNL     1       5.280 -18.468  -2.442  1.00  0.00     0.000 C 
BRANCH  10  11
ATOM     11  C   UNL     1       5.662 -17.541  -3.606  1.00  0.00     0.000 C 
BRANCH  11  12
ATOM     12  C   UNL     1       7.177 -17.291  -3.641  1.00  0.00     0.000 C 
BRANCH  12  13
ATOM     13  C   UNL     1       7.928 -18.268  -4.564  1.00  0.00     0.006 C 
BRANCH  13  14
ATOM     14  C   UNL     1       7.540 -18.151  -6.049  1.00  0.00     0.053 C 
BRANCH  14  15
ATOM     15  C   UNL     1       8.253 -19.146  -6.914  1.00  0.00     0.041 C 
ATOM     16  O   UNL     1       8.464 -20.316  -6.496  1.00  0.00    -0.550 OA
ATOM     17  O   UNL     1       8.710 -18.775  -8.171  1.00  0.00    -0.550 OA
ENDBRANCH  14  15
ENDBRANCH  13  14
ENDBRANCH  12  13
ENDBRANCH  11  12
ENDBRANCH  10  11
ENDBRANCH   9  10
ENDBRANCH   8   9
ENDBRANCH   7   8
ENDBRANCH   6   7
ENDBRANCH   5   6
ENDBRANCH   4   5
ENDBRANCH   3   4
ENDBRANCH   2   3
ENDBRANCH   1   2
BRANCH   1  18
ATOM     18  C   UNL     1       0.386 -22.104  -6.023  1.00  0.00     0.000 C 
BRANCH  18  19
ATOM     19  C   UNL     1       0.995 -20.976  -5.171  1.00  0.00     0.000 C 
BRANCH  19  20
ATOM     20  C   UNL     1       0.123 -20.600  -3.965  1.00  0.00     0.000 C 
BRANCH  20  21
ATOM     21  C   UNL     1       0.543 -19.243  -3.386  1.00  0.00     0.000 C 
BRANCH  21  22
ATOM     22  C   UNL     1       1.419 -18.469  -4.378  1.00  0.00     0.000 C 
BRANCH  22  23
ATOM     23  C   UNL     1       1.701 -17.046  -3.872  1.00  0.00     0.000 C 
BRANCH  23  24
ATOM     24  C   UNL     1       1.980 -16.992  -2.360  1.00  0.00    -0.000 C 
BRANCH  24  25
ATOM     25  C   UNL     1       2.198 -15.578  -1.786  1.00  0.00    -0.000 C 
BRANCH  25  26
ATOM     26  C   UNL     1       3.196 -15.491  -0.615  1.00  0.00    -0.000 C 
BRANCH  26  27
ATOM     27  C   UNL     1       3.867 -14.109  -0.465  1.00  0.00    -0.000 C 
BRANCH  27  28
ATOM     28  C   UNL     1       5.322 -14.203   0.029  1.00  0.00    -0.000 C 
BRANCH  28  29
ATOM     29  C   UNL     1       5.998 -15.526  -0.367  1.00  0.00    -0.000 C 
BRANCH  29  30
ATOM     30  C   UNL     1       7.530 -15.425  -0.401  1.00  0.00    -0.000 C 
BRANCH  30  31
ATOM     31  C   UNL     1       8.167 -16.439   0.555  1.00  0.00    -0.003 C 
ATOM     32  C   UNL     1       7.940 -17.870   0.074  1.00  0.00     0.004 C 
ENDBRANCH  30  31
ENDBRANCH  29  30
ENDBRANCH  28  29
ENDBRANCH  27  28
ENDBRANCH  26  27
ENDBRANCH  25  26
ENDBRANCH  24  25
ENDBRANCH  23  24
ENDBRANCH  22  23
ENDBRANCH  21  22
ENDBRANCH  20  21
ENDBRANCH  19  20
ENDBRANCH  18  19
ENDBRANCH   1  18
TORSDOF 28
ENDMDL
