MODEL 1
REMARK VINA RESULT:    -3.777      0.000      0.000
REMARK INTER + INTRA:          -4.386
REMARK INTER:                  -4.329
REMARK INTRA:                  -0.057
REMARK UNBOUND:                -0.057
REMARK SMILES CC(C)[C@@H]([NH3+])C(=O)[O-]
REMARK SMILES IDX 4 1 5 2 6 6 7 7 8 8 2 9 1 10 3 11
REMARK H PARENT 5 3 5 4 5 5
REMARK Flexibility Score: inf
ROOT
ATOM      1  C   UNL     1     136.237 134.819 131.193  1.00  0.00     0.230 C 
ENDROOT
BRANCH   1   2
ATOM      2  N   UNL     1     137.509 134.969 131.915  1.00  0.00    -0.350 N 
ATOM      3  H   UNL     1     137.318 135.104 132.935  1.00  0.00     0.345 HD
ATOM      4  H   UNL     1     138.087 134.105 131.805  1.00  0.00     0.345 HD
ATOM      5  H   UNL     1     138.051 135.792 131.567  1.00  0.00     0.345 HD
ENDBRANCH   1   2
BRANCH   1   6
ATOM      6  C   UNL     1     135.123 134.458 132.149  1.00  0.00     0.099 C 
ATOM      7  O   UNL     1     134.074 133.913 131.716  1.00  0.00    -0.544 OA
ATOM      8  O   UNL     1     135.231 134.749 133.504  1.00  0.00    -0.544 OA
ENDBRANCH   1   6
BRANCH   1   9
ATOM      9  C   UNL     1     135.909 136.078 130.336  1.00  0.00     0.047 C 
ATOM     10  C   UNL     1     136.209 137.372 131.108  1.00  0.00     0.014 C 
ATOM     11  C   UNL     1     136.621 136.102 128.973  1.00  0.00     0.014 C 
ENDBRANCH   1   9
TORSDOF 3
ENDMDL
MODEL 2
REMARK VINA RESULT:    -3.763      1.041      1.103
REMARK INTER + INTRA:          -4.370
REMARK INTER:                  -4.320
REMARK INTRA:                  -0.050
REMARK UNBOUND:                -0.057
REMARK SMILES CC(C)[C@@H]([NH3+])C(=O)[O-]
REMARK SMILES IDX 4 1 5 2 6 6 7 7 8 8 2 9 1 10 3 11
REMARK H PARENT 5 3 5 4 5 5
REMARK Flexibility Score: inf
ROOT
ATOM      1  C   UNL     1     136.170 134.967 130.896  1.00  0.00     0.230 C 
ENDROOT
BRANCH   1   2
ATOM      2  N   UNL     1     137.200 134.760 131.925  1.00  0.00    -0.350 N 
ATOM      3  H   UNL     1     137.740 133.891 131.707  1.00  0.00     0.345 HD
ATOM      4  H   UNL     1     137.868 135.564 131.928  1.00  0.00     0.345 HD
ATOM      5  H   UNL     1     136.777 134.660 132.875  1.00  0.00     0.345 HD
ENDBRANCH   1   2
BRANCH   1   6
ATOM      6  C   UNL     1     134.791 134.955 131.514  1.00  0.00     0.099 C 
ATOM      7  O   UNL     1     134.217 133.860 131.750  1.00  0.00    -0.544 OA
ATOM      8  O   UNL     1     134.133 136.146 131.801  1.00  0.00    -0.544 OA
ENDBRANCH   1   6
BRANCH   1   9
ATOM      9  C   UNL     1     136.442 136.253 130.059  1.00  0.00     0.047 C 
ATOM     10  C   UNL     1     137.554 137.105 130.692  1.00  0.00     0.014 C 
ATOM     11  C   UNL     1     136.771 135.973 128.583  1.00  0.00     0.014 C 
ENDBRANCH   1   9
TORSDOF 3
ENDMDL
MODEL 3
REMARK VINA RESULT:    -3.673      2.536      3.176
REMARK INTER + INTRA:          -4.267
REMARK INTER:                  -4.219
REMARK INTRA:                  -0.048
REMARK UNBOUND:                -0.057
REMARK SMILES CC(C)[C@@H]([NH3+])C(=O)[O-]
REMARK SMILES IDX 4 1 5 2 6 6 7 7 8 8 2 9 1 10 3 11
REMARK H PARENT 5 3 5 4 5 5
REMARK Flexibility Score: inf
ROOT
ATOM      1  C   UNL     1     134.140 134.825 133.211  1.00  0.00     0.230 C 
ENDROOT
BRANCH   1   2
ATOM      2  N   UNL     1     133.639 133.443 133.268  1.00  0.00    -0.350 N 
ATOM      3  H   UNL     1     134.229 132.834 132.654  1.00  0.00     0.345 HD
ATOM      4  H   UNL     1     133.706 133.079 134.246  1.00  0.00     0.345 HD
ATOM      5  H   UNL     1     132.648 133.382 132.944  1.00  0.00     0.345 HD
ENDBRANCH   1   2
BRANCH   1   6
ATOM      6  C   UNL     1     134.588 135.284 134.579  1.00  0.00     0.099 C 
ATOM      7  O   UNL     1     133.758 135.801 135.373  1.00  0.00    -0.544 OA
ATOM      8  O   UNL     1     135.919 135.169 134.964  1.00  0.00    -0.544 OA
ENDBRANCH   1   6
BRANCH   1   9
ATOM      9  C   UNL     1     135.248 134.992 132.128  1.00  0.00     0.047 C 
ATOM     10  C   UNL     1     135.416 133.708 131.301  1.00  0.00     0.014 C 
ATOM     11  C   UNL     1     135.024 136.194 131.194  1.00  0.00     0.014 C 
ENDBRANCH   1   9
TORSDOF 3
ENDMDL
MODEL 4
REMARK VINA RESULT:    -3.581      2.611      3.745
REMARK INTER + INTRA:          -4.161
REMARK INTER:                  -4.113
REMARK INTRA:                  -0.048
REMARK UNBOUND:                -0.057
REMARK SMILES CC(C)[C@@H]([NH3+])C(=O)[O-]
REMARK SMILES IDX 4 1 5 2 6 6 7 7 8 8 2 9 1 10 3 11
REMARK H PARENT 5 3 5 4 5 5
REMARK Flexibility Score: inf
ROOT
ATOM      1  C   UNL     1     134.939 134.345 133.037  1.00  0.00     0.230 C 
ENDROOT
BRANCH   1   2
ATOM      2  N   UNL     1     133.694 133.566 133.124  1.00  0.00    -0.350 N 
ATOM      3  H   UNL     1     133.193 133.606 132.206  1.00  0.00     0.345 HD
ATOM      4  H   UNL     1     133.913 132.564 133.331  1.00  0.00     0.345 HD
ATOM      5  H   UNL     1     133.060 133.940 133.865  1.00  0.00     0.345 HD
ENDBRANCH   1   2
BRANCH   1   6
ATOM      6  C   UNL     1     135.164 134.831 131.624  1.00  0.00     0.099 C 
ATOM      7  O   UNL     1     135.834 134.132 130.819  1.00  0.00    -0.544 OA
ATOM      8  O   UNL     1     134.664 136.059 131.210  1.00  0.00    -0.544 OA
ENDBRANCH   1   6
BRANCH   1   9
ATOM      9  C   UNL     1     134.969 135.500 134.082  1.00  0.00     0.047 C 
ATOM     10  C   UNL     1     133.606 135.663 134.772  1.00  0.00     0.014 C 
ATOM     11  C   UNL     1     136.078 135.351 135.138  1.00  0.00     0.014 C 
ENDBRANCH   1   9
TORSDOF 3
ENDMDL
MODEL 5
REMARK VINA RESULT:    -3.526      2.364      2.969
REMARK INTER + INTRA:          -4.098
REMARK INTER:                  -4.033
REMARK INTRA:                  -0.065
REMARK UNBOUND:                -0.057
REMARK SMILES CC(C)[C@@H]([NH3+])C(=O)[O-]
REMARK SMILES IDX 4 1 5 2 6 6 7 7 8 8 2 9 1 10 3 11
REMARK H PARENT 5 3 5 4 5 5
REMARK Flexibility Score: inf
ROOT
ATOM      1  C   UNL     1     134.637 136.140 132.907  1.00  0.00     0.230 C 
ENDROOT
BRANCH   1   2
ATOM      2  N   UNL     1     133.230 136.318 132.517  1.00  0.00    -0.350 N 
ATOM      3  H   UNL     1     132.617 135.768 133.163  1.00  0.00     0.345 HD
ATOM      4  H   UNL     1     132.962 137.326 132.596  1.00  0.00     0.345 HD
ATOM      5  H   UNL     1     133.060 135.992 131.539  1.00  0.00     0.345 HD
ENDBRANCH   1   2
BRANCH   1   6
ATOM      6  C   UNL     1     134.734 135.560 134.299  1.00  0.00     0.099 C 
ATOM      7  O   UNL     1     133.710 135.506 135.030  1.00  0.00    -0.544 OA
ATOM      8  O   UNL     1     135.951 135.110 134.795  1.00  0.00    -0.544 OA
ENDBRANCH   1   6
BRANCH   1   9
ATOM      9  C   UNL     1     135.425 135.306 131.852  1.00  0.00     0.047 C 
ATOM     10  C   UNL     1     134.814 133.908 131.678  1.00  0.00     0.014 C 
ATOM     11  C   UNL     1     135.552 135.999 130.485  1.00  0.00     0.014 C 
ENDBRANCH   1   9
TORSDOF 3
ENDMDL
MODEL 6
REMARK VINA RESULT:    -3.502      2.051      2.308
REMARK INTER + INTRA:          -4.071
REMARK INTER:                  -4.136
REMARK INTRA:                   0.065
REMARK UNBOUND:                -0.057
REMARK SMILES CC(C)[C@@H]([NH3+])C(=O)[O-]
REMARK SMILES IDX 4 1 5 2 6 6 7 7 8 8 2 9 1 10 3 11
REMARK H PARENT 5 3 5 4 5 5
REMARK Flexibility Score: inf
ROOT
ATOM      1  C   UNL     1     134.737 136.249 132.521  1.00  0.00     0.230 C 
ENDROOT
BRANCH   1   2
ATOM      2  N   UNL     1     133.271 136.357 132.531  1.00  0.00    -0.350 N 
ATOM      3  H   UNL     1     132.987 137.195 133.091  1.00  0.00     0.345 HD
ATOM      4  H   UNL     1     132.915 136.484 131.555  1.00  0.00     0.345 HD
ATOM      5  H   UNL     1     132.827 135.510 132.952  1.00  0.00     0.345 HD
ENDBRANCH   1   2
BRANCH   1   6
ATOM      6  C   UNL     1     135.199 135.186 133.491  1.00  0.00     0.099 C 
ATOM      7  O   UNL     1     134.432 134.234 133.791  1.00  0.00    -0.544 OA
ATOM      8  O   UNL     1     136.455 135.263 134.080  1.00  0.00    -0.544 OA
ENDBRANCH   1   6
BRANCH   1   9
ATOM      9  C   UNL     1     135.288 136.028 131.080  1.00  0.00     0.047 C 
ATOM     10  C   UNL     1     136.255 137.151 130.674  1.00  0.00     0.014 C 
ATOM     11  C   UNL     1     135.959 134.659 130.877  1.00  0.00     0.014 C 
ENDBRANCH   1   9
TORSDOF 3
ENDMDL
MODEL 7
REMARK VINA RESULT:    -3.359      1.757      2.409
REMARK INTER + INTRA:          -3.907
REMARK INTER:                  -3.865
REMARK INTRA:                  -0.043
REMARK UNBOUND:                -0.057
REMARK SMILES CC(C)[C@@H]([NH3+])C(=O)[O-]
REMARK SMILES IDX 4 1 5 2 6 6 7 7 8 8 2 9 1 10 3 11
REMARK H PARENT 5 3 5 4 5 5
REMARK Flexibility Score: inf
ROOT
ATOM      1  C   UNL     1     135.471 136.199 131.164  1.00  0.00     0.230 C 
ENDROOT
BRANCH   1   2
ATOM      2  N   UNL     1     135.560 136.320 129.701  1.00  0.00    -0.350 N 
ATOM      3  H   UNL     1     135.921 135.424 129.299  1.00  0.00     0.345 HD
ATOM      4  H   UNL     1     134.610 136.497 129.299  1.00  0.00     0.345 HD
ATOM      5  H   UNL     1     136.202 137.094 129.420  1.00  0.00     0.345 HD
ENDBRANCH   1   2
BRANCH   1   6
ATOM      6  C   UNL     1     134.973 134.827 131.555  1.00  0.00     0.099 C 
ATOM      7  O   UNL     1     134.040 134.712 132.392  1.00  0.00    -0.544 OA
ATOM      8  O   UNL     1     135.555 133.684 131.020  1.00  0.00    -0.544 OA
ENDBRANCH   1   6
BRANCH   1   9
ATOM      9  C   UNL     1     136.818 136.569 131.855  1.00  0.00     0.047 C 
ATOM     10  C   UNL     1     137.898 136.919 130.819  1.00  0.00     0.014 C 
ATOM     11  C   UNL     1     136.693 137.702 132.888  1.00  0.00     0.014 C 
ENDBRANCH   1   9
TORSDOF 3
ENDMDL
MODEL 8
REMARK VINA RESULT:    -3.357      1.613      2.138
REMARK INTER + INTRA:          -3.904
REMARK INTER:                  -3.874
REMARK INTRA:                  -0.030
REMARK UNBOUND:                -0.057
REMARK SMILES CC(C)[C@@H]([NH3+])C(=O)[O-]
REMARK SMILES IDX 4 1 5 2 6 6 7 7 8 8 2 9 1 10 3 11
REMARK H PARENT 5 3 5 4 5 5
REMARK Flexibility Score: inf
ROOT
ATOM      1  C   UNL     1     135.160 134.677 131.593  1.00  0.00     0.230 C 
ENDROOT
BRANCH   1   2
ATOM      2  N   UNL     1     135.467 133.244 131.723  1.00  0.00    -0.350 N 
ATOM      3  H   UNL     1     134.833 132.816 132.437  1.00  0.00     0.345 HD
ATOM      4  H   UNL     1     135.305 132.760 130.811  1.00  0.00     0.345 HD
ATOM      5  H   UNL     1     136.456 133.091 132.023  1.00  0.00     0.345 HD
ENDBRANCH   1   2
BRANCH   1   6
ATOM      6  C   UNL     1     134.381 135.165 132.792  1.00  0.00     0.099 C 
ATOM      7  O   UNL     1     134.371 134.487 133.854  1.00  0.00    -0.544 OA
ATOM      8  O   UNL     1     133.648 136.343 132.729  1.00  0.00    -0.544 OA
ENDBRANCH   1   6
BRANCH   1   9
ATOM      9  C   UNL     1     136.444 135.519 131.327  1.00  0.00     0.047 C 
ATOM     10  C   UNL     1     136.136 136.741 130.447  1.00  0.00     0.014 C 
ATOM     11  C   UNL     1     137.170 135.963 132.608  1.00  0.00     0.014 C 
ENDBRANCH   1   9
TORSDOF 3
ENDMDL
MODEL 9
REMARK VINA RESULT:    -3.274      2.557      3.544
REMARK INTER + INTRA:          -3.810
REMARK INTER:                  -3.768
REMARK INTRA:                  -0.042
REMARK UNBOUND:                -0.057
REMARK SMILES CC(C)[C@@H]([NH3+])C(=O)[O-]
REMARK SMILES IDX 4 1 5 2 6 6 7 7 8 8 2 9 1 10 3 11
REMARK H PARENT 5 3 5 4 5 5
REMARK Flexibility Score: inf
ROOT
ATOM      1  C   UNL     1     136.108 135.659 132.613  1.00  0.00     0.230 C 
ENDROOT
BRANCH   1   2
ATOM      2  N   UNL     1     136.830 134.731 131.729  1.00  0.00    -0.350 N 
ATOM      3  H   UNL     1     136.156 134.294 131.058  1.00  0.00     0.345 HD
ATOM      4  H   UNL     1     137.548 135.252 131.175  1.00  0.00     0.345 HD
ATOM      5  H   UNL     1     137.298 133.971 132.272  1.00  0.00     0.345 HD
ENDBRANCH   1   2
BRANCH   1   6
ATOM      6  C   UNL     1     136.348 137.090 132.192  1.00  0.00     0.099 C 
ATOM      7  O   UNL     1     136.200 137.424 130.987  1.00  0.00    -0.544 OA
ATOM      8  O   UNL     1     136.760 138.041 133.117  1.00  0.00    -0.544 OA
ENDBRANCH   1   6
BRANCH   1   9
ATOM      9  C   UNL     1     134.593 135.305 132.705  1.00  0.00     0.047 C 
ATOM     10  C   UNL     1     134.291 133.967 132.013  1.00  0.00     0.014 C 
ATOM     11  C   UNL     1     134.047 135.289 134.142  1.00  0.00     0.014 C 
ENDBRANCH   1   9
TORSDOF 3
ENDMDL
