MODEL 1
REMARK VINA RESULT:    -2.653      0.000      0.000
REMARK INTER + INTRA:          -2.974
REMARK INTER:                  -2.964
REMARK INTRA:                  -0.011
REMARK UNBOUND:                -0.011
REMARK SMILES CCCC(=O)[O-]
REMARK SMILES IDX 3 1 4 2 5 3 6 4 2 5 1 6
REMARK H PARENT
REMARK Flexibility Score: inf
ROOT
ATOM      1  C   UNL     1     183.399 196.499 190.318  1.00  0.00     0.052 C 
ENDROOT
BRANCH   1   2
ATOM      2  C   UNL     1     184.600 196.246 189.459  1.00  0.00     0.041 C 
ATOM      3  O   UNL     1     185.402 195.320 189.750  1.00  0.00    -0.550 OA
ATOM      4  O   UNL     1     184.813 197.009 188.319  1.00  0.00    -0.550 OA
ENDBRANCH   1   2
BRANCH   1   5
ATOM      5  C   UNL     1     182.564 195.227 190.518  1.00  0.00     0.003 C 
ATOM      6  C   UNL     1     181.649 195.317 191.738  1.00  0.00     0.004 C 
ENDBRANCH   1   5
TORSDOF 2
ENDMDL
MODEL 2
REMARK VINA RESULT:    -2.645     17.698     18.491
REMARK INTER + INTRA:          -2.965
REMARK INTER:                  -2.931
REMARK INTRA:                  -0.034
REMARK UNBOUND:                -0.011
REMARK SMILES CCCC(=O)[O-]
REMARK SMILES IDX 3 1 4 2 5 3 6 4 2 5 1 6
REMARK H PARENT
REMARK Flexibility Score: inf
ROOT
ATOM      1  C   UNL     1     185.623 180.114 199.840  1.00  0.00     0.052 C 
ENDROOT
BRANCH   1   2
ATOM      2  C   UNL     1     186.736 181.032 199.438  1.00  0.00     0.041 C 
ATOM      3  O   UNL     1     186.961 181.259 198.219  1.00  0.00    -0.550 OA
ATOM      4  O   UNL     1     187.501 181.665 200.409  1.00  0.00    -0.550 OA
ENDBRANCH   1   2
BRANCH   1   5
ATOM      5  C   UNL     1     185.550 179.941 201.364  1.00  0.00     0.003 C 
ATOM      6  C   UNL     1     184.246 180.484 201.948  1.00  0.00     0.004 C 
ENDBRANCH   1   5
TORSDOF 2
ENDMDL
MODEL 3
REMARK VINA RESULT:    -2.602      2.184      3.282
REMARK INTER + INTRA:          -2.917
REMARK INTER:                  -2.878
REMARK INTRA:                  -0.039
REMARK UNBOUND:                -0.011
REMARK SMILES CCCC(=O)[O-]
REMARK SMILES IDX 3 1 4 2 5 3 6 4 2 5 1 6
REMARK H PARENT
REMARK Flexibility Score: inf
ROOT
ATOM      1  C   UNL     1     183.892 195.063 189.429  1.00  0.00     0.052 C 
ENDROOT
BRANCH   1   2
ATOM      2  C   UNL     1     183.296 196.070 190.364  1.00  0.00     0.041 C 
ATOM      3  O   UNL     1     183.708 197.261 190.358  1.00  0.00    -0.550 OA
ATOM      4  O   UNL     1     182.262 195.704 191.216  1.00  0.00    -0.550 OA
ENDBRANCH   1   2
BRANCH   1   5
ATOM      5  C   UNL     1     185.133 194.391 190.032  1.00  0.00     0.003 C 
ATOM      6  C   UNL     1     186.433 195.021 189.536  1.00  0.00     0.004 C 
ENDBRANCH   1   5
TORSDOF 2
ENDMDL
MODEL 4
REMARK VINA RESULT:    -2.565      2.234      3.427
REMARK INTER + INTRA:          -2.875
REMARK INTER:                  -2.838
REMARK INTRA:                  -0.038
REMARK UNBOUND:                -0.011
REMARK SMILES CCCC(=O)[O-]
REMARK SMILES IDX 3 1 4 2 5 3 6 4 2 5 1 6
REMARK H PARENT
REMARK Flexibility Score: inf
ROOT
ATOM      1  C   UNL     1     183.493 196.509 190.513  1.00  0.00     0.052 C 
ENDROOT
BRANCH   1   2
ATOM      2  C   UNL     1     182.468 195.430 190.685  1.00  0.00     0.041 C 
ATOM      3  O   UNL     1     182.370 194.508 189.833  1.00  0.00    -0.550 OA
ATOM      4  O   UNL     1     181.646 195.424 191.804  1.00  0.00    -0.550 OA
ENDBRANCH   1   2
BRANCH   1   5
ATOM      5  C   UNL     1     184.701 196.021 189.702  1.00  0.00     0.003 C 
ATOM      6  C   UNL     1     184.774 196.670 188.321  1.00  0.00     0.004 C 
ENDBRANCH   1   5
TORSDOF 2
ENDMDL
MODEL 5
REMARK VINA RESULT:    -2.523     17.904     18.747
REMARK INTER + INTRA:          -2.828
REMARK INTER:                  -2.769
REMARK INTRA:                  -0.059
REMARK UNBOUND:                -0.011
REMARK SMILES CCCC(=O)[O-]
REMARK SMILES IDX 3 1 4 2 5 3 6 4 2 5 1 6
REMARK H PARENT
REMARK Flexibility Score: inf
ROOT
ATOM      1  C   UNL     1     185.948 179.995 199.477  1.00  0.00     0.052 C 
ENDROOT
BRANCH   1   2
ATOM      2  C   UNL     1     185.059 180.234 200.659  1.00  0.00     0.041 C 
ATOM      3  O   UNL     1     185.246 179.598 201.730  1.00  0.00    -0.550 OA
ATOM      4  O   UNL     1     184.049 181.184 200.590  1.00  0.00    -0.550 OA
ENDBRANCH   1   2
BRANCH   1   5
ATOM      5  C   UNL     1     186.705 181.266 199.068  1.00  0.00     0.003 C 
ATOM      6  C   UNL     1     187.468 181.889 200.236  1.00  0.00     0.004 C 
ENDBRANCH   1   5
TORSDOF 2
ENDMDL
MODEL 6
REMARK VINA RESULT:    -2.521     13.338     13.818
REMARK INTER + INTRA:          -2.826
REMARK INTER:                  -2.788
REMARK INTRA:                  -0.038
REMARK UNBOUND:                -0.011
REMARK SMILES CCCC(=O)[O-]
REMARK SMILES IDX 3 1 4 2 5 3 6 4 2 5 1 6
REMARK H PARENT
REMARK Flexibility Score: inf
ROOT
ATOM      1  C   UNL     1     193.420 196.966 199.912  1.00  0.00     0.052 C 
ENDROOT
BRANCH   1   2
ATOM      2  C   UNL     1     192.463 197.567 198.928  1.00  0.00     0.041 C 
ATOM      3  O   UNL     1     192.067 198.754 199.074  1.00  0.00    -0.550 OA
ATOM      4  O   UNL     1     192.036 196.828 197.832  1.00  0.00    -0.550 OA
ENDBRANCH   1   2
BRANCH   1   5
ATOM      5  C   UNL     1     193.328 197.648 201.284  1.00  0.00     0.003 C 
ATOM      6  C   UNL     1     194.625 198.361 201.666  1.00  0.00     0.004 C 
ENDBRANCH   1   5
TORSDOF 2
ENDMDL
MODEL 7
REMARK VINA RESULT:    -2.501      1.732      2.494
REMARK INTER + INTRA:          -2.804
REMARK INTER:                  -2.745
REMARK INTRA:                  -0.060
REMARK UNBOUND:                -0.011
REMARK SMILES CCCC(=O)[O-]
REMARK SMILES IDX 3 1 4 2 5 3 6 4 2 5 1 6
REMARK H PARENT
REMARK Flexibility Score: inf
ROOT
ATOM      1  C   UNL     1     183.160 194.694 189.407  1.00  0.00     0.052 C 
ENDROOT
BRANCH   1   2
ATOM      2  C   UNL     1     184.561 194.169 189.333  1.00  0.00     0.041 C 
ATOM      3  O   UNL     1     185.126 194.026 188.215  1.00  0.00    -0.550 OA
ATOM      4  O   UNL     1     185.255 193.871 190.498  1.00  0.00    -0.550 OA
ENDBRANCH   1   2
BRANCH   1   5
ATOM      5  C   UNL     1     182.998 195.726 190.531  1.00  0.00     0.003 C 
ATOM      6  C   UNL     1     183.695 197.047 190.212  1.00  0.00     0.004 C 
ENDBRANCH   1   5
TORSDOF 2
ENDMDL
MODEL 8
REMARK VINA RESULT:    -2.491     12.123     12.813
REMARK INTER + INTRA:          -2.792
REMARK INTER:                  -2.773
REMARK INTRA:                  -0.019
REMARK UNBOUND:                -0.011
REMARK SMILES CCCC(=O)[O-]
REMARK SMILES IDX 3 1 4 2 5 3 6 4 2 5 1 6
REMARK H PARENT
REMARK Flexibility Score: inf
ROOT
ATOM      1  C   UNL     1     186.673 184.405 191.081  1.00  0.00     0.052 C 
ENDROOT
BRANCH   1   2
ATOM      2  C   UNL     1     186.060 184.440 192.448  1.00  0.00     0.041 C 
ATOM      3  O   UNL     1     186.757 184.763 193.446  1.00  0.00    -0.550 OA
ATOM      4  O   UNL     1     184.712 184.150 192.614  1.00  0.00    -0.550 OA
ENDBRANCH   1   2
BRANCH   1   5
ATOM      5  C   UNL     1     187.509 183.136 190.864  1.00  0.00     0.003 C 
ATOM      6  C   UNL     1     188.876 183.438 190.252  1.00  0.00     0.004 C 
ENDBRANCH   1   5
TORSDOF 2
ENDMDL
MODEL 9
REMARK VINA RESULT:    -2.457     11.604     12.281
REMARK INTER + INTRA:          -2.755
REMARK INTER:                  -2.744
REMARK INTRA:                  -0.011
REMARK UNBOUND:                -0.011
REMARK SMILES CCCC(=O)[O-]
REMARK SMILES IDX 3 1 4 2 5 3 6 4 2 5 1 6
REMARK H PARENT
REMARK Flexibility Score: inf
ROOT
ATOM      1  C   UNL     1     186.718 184.288 192.001  1.00  0.00     0.052 C 
ENDROOT
BRANCH   1   2
ATOM      2  C   UNL     1     186.909 183.399 190.810  1.00  0.00     0.041 C 
ATOM      3  O   UNL     1     186.265 183.615 189.749  1.00  0.00    -0.550 OA
ATOM      4  O   UNL     1     187.825 182.356 190.860  1.00  0.00    -0.550 OA
ENDBRANCH   1   2
BRANCH   1   5
ATOM      5  C   UNL     1     185.925 185.553 191.645  1.00  0.00     0.003 C 
ATOM      6  C   UNL     1     186.022 186.624 192.731  1.00  0.00     0.004 C 
ENDBRANCH   1   5
TORSDOF 2
ENDMDL
