MODEL 1
REMARK VINA RESULT:    -1.021      0.000      0.000
REMARK INTER + INTRA:          -1.391
REMARK INTER:                  -1.856
REMARK INTRA:                   0.465
REMARK UNBOUND:                 0.465
REMARK SMILES CCCCCCCCCCCCCC[C@@H](C)C(=O)[O-]
REMARK SMILES IDX 9 1 10 2 11 3 12 4 13 5 14 6 15 7 16 8 17 9 18 10 19 11 8 12
REMARK SMILES IDX 7 13 6 14 5 15 4 16 3 17 2 18 1 19
REMARK H PARENT
REMARK Flexibility Score: inf
ROOT
ATOM      1  C   UNL     1      19.431  13.437 -15.095  1.00  0.00     0.000 C 
ENDROOT
BRANCH   1   2
ATOM      2  C   UNL     1      19.865  14.568 -16.042  1.00  0.00     0.000 C 
BRANCH   2   3
ATOM      3  C   UNL     1      21.390  14.774 -16.062  1.00  0.00     0.000 C 
BRANCH   3   4
ATOM      4  C   UNL     1      21.932  15.282 -14.716  1.00  0.00     0.000 C 
BRANCH   4   5
ATOM      5  C   UNL     1      22.099  16.811 -14.687  1.00  0.00     0.001 C 
BRANCH   5   6
ATOM      6  C   UNL     1      22.022  17.459 -16.084  1.00  0.00     0.009 C 
BRANCH   6   7
ATOM      7  C   UNL     1      21.219  18.781 -16.119  1.00  0.00     0.032 C 
ATOM      8  C   UNL     1      19.745  18.524 -15.787  1.00  0.00     0.014 C 
BRANCH   7   9
ATOM      9  C   UNL     1      21.769  19.797 -15.154  1.00  0.00     0.044 C 
ATOM     10  O   UNL     1      21.941  19.488 -13.945  1.00  0.00    -0.550 OA
ATOM     11  O   UNL     1      22.125  21.067 -15.593  1.00  0.00    -0.550 OA
ENDBRANCH   7   9
ENDBRANCH   6   7
ENDBRANCH   5   6
ENDBRANCH   4   5
ENDBRANCH   3   4
ENDBRANCH   2   3
ENDBRANCH   1   2
BRANCH   1  12
ATOM     12  C   UNL     1      19.627  12.043 -15.713  1.00  0.00     0.000 C 
BRANCH  12  13
ATOM     13  C   UNL     1      21.092  11.572 -15.674  1.00  0.00    -0.000 C 
BRANCH  13  14
ATOM     14  C   UNL     1      21.327  10.205 -14.999  1.00  0.00    -0.000 C 
BRANCH  14  15
ATOM     15  C   UNL     1      20.102   9.273 -14.966  1.00  0.00    -0.000 C 
BRANCH  15  16
ATOM     16  C   UNL     1      19.144   9.588 -13.807  1.00  0.00    -0.000 C 
BRANCH  16  17
ATOM     17  C   UNL     1      17.811  10.141 -14.334  1.00  0.00    -0.000 C 
BRANCH  17  18
ATOM     18  C   UNL     1      16.662   9.129 -14.211  1.00  0.00    -0.003 C 
ATOM     19  C   UNL     1      16.655   8.101 -15.342  1.00  0.00     0.004 C 
ENDBRANCH  17  18
ENDBRANCH  16  17
ENDBRANCH  15  16
ENDBRANCH  14  15
ENDBRANCH  13  14
ENDBRANCH  12  13
ENDBRANCH   1  12
TORSDOF 14
ENDMDL
MODEL 2
REMARK VINA RESULT:     0.204      3.365      7.416
REMARK INTER + INTRA:           0.836
REMARK INTER:                   0.209
REMARK INTRA:                   0.627
REMARK UNBOUND:                 0.465
REMARK SMILES CCCCCCCCCCCCCC[C@@H](C)C(=O)[O-]
REMARK SMILES IDX 9 1 10 2 11 3 12 4 13 5 14 6 15 7 16 8 17 9 18 10 19 11 8 12
REMARK SMILES IDX 7 13 6 14 5 15 4 16 3 17 2 18 1 19
REMARK H PARENT
REMARK Flexibility Score: inf
ROOT
ATOM      1  C   UNL     1      20.376   9.161 -15.637  1.00  0.00     0.000 C 
ENDROOT
BRANCH   1   2
ATOM      2  C   UNL     1      18.929   9.400 -16.094  1.00  0.00     0.000 C 
BRANCH   2   3
ATOM      3  C   UNL     1      18.043   8.150 -15.943  1.00  0.00     0.000 C 
BRANCH   3   4
ATOM      4  C   UNL     1      17.276   8.132 -14.611  1.00  0.00     0.000 C 
BRANCH   4   5
ATOM      5  C   UNL     1      17.054   9.544 -14.040  1.00  0.00     0.001 C 
BRANCH   5   6
ATOM      6  C   UNL     1      18.269  10.083 -13.261  1.00  0.00     0.009 C 
BRANCH   6   7
ATOM      7  C   UNL     1      18.271  11.620 -13.086  1.00  0.00     0.032 C 
ATOM      8  C   UNL     1      18.464  12.315 -14.440  1.00  0.00     0.014 C 
BRANCH   7   9
ATOM      9  C   UNL     1      16.996  12.116 -12.460  1.00  0.00     0.044 C 
ATOM     10  O   UNL     1      15.889  11.882 -13.015  1.00  0.00    -0.550 OA
ATOM     11  O   UNL     1      17.023  12.800 -11.250  1.00  0.00    -0.550 OA
ENDBRANCH   7   9
ENDBRANCH   6   7
ENDBRANCH   5   6
ENDBRANCH   4   5
ENDBRANCH   3   4
ENDBRANCH   2   3
ENDBRANCH   1   2
BRANCH   1  12
ATOM     12  C   UNL     1      21.041  10.435 -15.089  1.00  0.00     0.000 C 
BRANCH  12  13
ATOM     13  C   UNL     1      22.088  11.023 -16.052  1.00  0.00    -0.000 C 
BRANCH  13  14
ATOM     14  C   UNL     1      22.125  12.564 -16.124  1.00  0.00    -0.000 C 
BRANCH  14  15
ATOM     15  C   UNL     1      20.748  13.252 -16.080  1.00  0.00    -0.000 C 
BRANCH  15  16
ATOM     16  C   UNL     1      20.849  14.780 -15.960  1.00  0.00    -0.000 C 
BRANCH  16  17
ATOM     17  C   UNL     1      21.824  15.178 -14.842  1.00  0.00    -0.000 C 
BRANCH  17  18
ATOM     18  C   UNL     1      22.000  16.700 -14.725  1.00  0.00    -0.003 C 
ATOM     19  C   UNL     1      21.624  17.438 -16.009  1.00  0.00     0.004 C 
ENDBRANCH  17  18
ENDBRANCH  16  17
ENDBRANCH  15  16
ENDBRANCH  14  15
ENDBRANCH  13  14
ENDBRANCH  12  13
ENDBRANCH   1  12
TORSDOF 14
ENDMDL
MODEL 3
REMARK VINA RESULT:     0.754      2.491      4.666
REMARK INTER + INTRA:           1.837
REMARK INTER:                   2.003
REMARK INTRA:                  -0.166
REMARK UNBOUND:                 0.465
REMARK SMILES CCCCCCCCCCCCCC[C@@H](C)C(=O)[O-]
REMARK SMILES IDX 9 1 10 2 11 3 12 4 13 5 14 6 15 7 16 8 17 9 18 10 19 11 8 12
REMARK SMILES IDX 7 13 6 14 5 15 4 16 3 17 2 18 1 19
REMARK H PARENT
REMARK Flexibility Score: inf
ROOT
ATOM      1  C   UNL     1      18.407   9.527 -16.089  1.00  0.00     0.000 C 
ENDROOT
BRANCH   1   2
ATOM      2  C   UNL     1      19.942   9.594 -16.124  1.00  0.00     0.000 C 
BRANCH   2   3
ATOM      3  C   UNL     1      20.561   9.784 -14.728  1.00  0.00     0.000 C 
BRANCH   3   4
ATOM      4  C   UNL     1      20.585  11.258 -14.293  1.00  0.00     0.000 C 
BRANCH   4   5
ATOM      5  C   UNL     1      21.931  11.940 -14.596  1.00  0.00     0.001 C 
BRANCH   5   6
ATOM      6  C   UNL     1      21.965  12.635 -15.971  1.00  0.00     0.009 C 
BRANCH   6   7
ATOM      7  C   UNL     1      21.196  13.977 -16.015  1.00  0.00     0.032 C 
ATOM      8  C   UNL     1      19.715  13.759 -15.686  1.00  0.00     0.014 C 
BRANCH   7   9
ATOM      9  C   UNL     1      21.768  14.983 -15.054  1.00  0.00     0.044 C 
ATOM     10  O   UNL     1      22.010  14.650 -13.863  1.00  0.00    -0.550 OA
ATOM     11  O   UNL     1      22.069  16.272 -15.478  1.00  0.00    -0.550 OA
ENDBRANCH   7   9
ENDBRANCH   6   7
ENDBRANCH   5   6
ENDBRANCH   4   5
ENDBRANCH   3   4
ENDBRANCH   2   3
ENDBRANCH   1   2
BRANCH   1  12
ATOM     12  C   UNL     1      17.882   8.097 -15.876  1.00  0.00     0.000 C 
BRANCH  12  13
ATOM     13  C   UNL     1      17.244   7.896 -14.490  1.00  0.00    -0.000 C 
BRANCH  13  14
ATOM     14  C   UNL     1      15.873   8.577 -14.291  1.00  0.00    -0.000 C 
BRANCH  14  15
ATOM     15  C   UNL     1      15.933  10.029 -13.782  1.00  0.00    -0.000 C 
BRANCH  15  16
ATOM     16  C   UNL     1      17.292  10.390 -13.167  1.00  0.00    -0.000 C 
BRANCH  16  17
ATOM     17  C   UNL     1      17.546  11.903 -13.250  1.00  0.00    -0.000 C 
BRANCH  17  18
ATOM     18  C   UNL     1      16.468  12.724 -12.526  1.00  0.00    -0.003 C 
ATOM     19  C   UNL     1      16.497  12.532 -11.011  1.00  0.00     0.004 C 
ENDBRANCH  17  18
ENDBRANCH  16  17
ENDBRANCH  15  16
ENDBRANCH  14  15
ENDBRANCH  13  14
ENDBRANCH  12  13
ENDBRANCH   1  12
TORSDOF 14
ENDMDL
MODEL 4
REMARK VINA RESULT:     1.526      3.320      7.161
REMARK INTER + INTRA:           3.239
REMARK INTER:                   2.374
REMARK INTRA:                   0.865
REMARK UNBOUND:                 0.465
REMARK SMILES CCCCCCCCCCCCCC[C@@H](C)C(=O)[O-]
REMARK SMILES IDX 9 1 10 2 11 3 12 4 13 5 14 6 15 7 16 8 17 9 18 10 19 11 8 12
REMARK SMILES IDX 7 13 6 14 5 15 4 16 3 17 2 18 1 19
REMARK H PARENT
REMARK Flexibility Score: inf
ROOT
ATOM      1  C   UNL     1      18.104   7.875 -15.702  1.00  0.00     0.000 C 
ENDROOT
BRANCH   1   2
ATOM      2  C   UNL     1      17.151   8.228 -14.549  1.00  0.00     0.000 C 
BRANCH   2   3
ATOM      3  C   UNL     1      15.682   8.326 -14.999  1.00  0.00     0.000 C 
BRANCH   3   4
ATOM      4  C   UNL     1      14.754   8.805 -13.873  1.00  0.00     0.000 C 
BRANCH   4   5
ATOM      5  C   UNL     1      15.253  10.100 -13.209  1.00  0.00     0.001 C 
BRANCH   5   6
ATOM      6  C   UNL     1      16.735  10.406 -13.506  1.00  0.00     0.009 C 
BRANCH   6   7
ATOM      7  C   UNL     1      17.066  11.916 -13.559  1.00  0.00     0.032 C 
ATOM      8  C   UNL     1      16.700  12.593 -12.233  1.00  0.00     0.014 C 
BRANCH   7   9
ATOM      9  C   UNL     1      18.521  12.161 -13.849  1.00  0.00     0.044 C 
ATOM     10  O   UNL     1      19.401  11.427 -13.325  1.00  0.00    -0.550 OA
ATOM     11  O   UNL     1      18.906  13.171 -14.723  1.00  0.00    -0.550 OA
ENDBRANCH   7   9
ENDBRANCH   6   7
ENDBRANCH   5   6
ENDBRANCH   4   5
ENDBRANCH   3   4
ENDBRANCH   2   3
ENDBRANCH   1   2
BRANCH   1  12
ATOM     12  C   UNL     1      19.078   9.018 -16.033  1.00  0.00     0.000 C 
BRANCH  12  13
ATOM     13  C   UNL     1      20.537   8.682 -15.673  1.00  0.00    -0.000 C 
BRANCH  13  14
ATOM     14  C   UNL     1      21.553   9.819 -15.912  1.00  0.00    -0.000 C 
BRANCH  14  15
ATOM     15  C   UNL     1      20.941  11.225 -16.041  1.00  0.00    -0.000 C 
BRANCH  15  16
ATOM     16  C   UNL     1      21.996  12.340 -16.010  1.00  0.00    -0.000 C 
BRANCH  16  17
ATOM     17  C   UNL     1      22.125  12.934 -14.598  1.00  0.00    -0.000 C 
BRANCH  17  18
ATOM     18  C   UNL     1      21.768  14.427 -14.550  1.00  0.00    -0.003 C 
ATOM     19  C   UNL     1      21.635  15.048 -15.940  1.00  0.00     0.004 C 
ENDBRANCH  17  18
ENDBRANCH  16  17
ENDBRANCH  15  16
ENDBRANCH  14  15
ENDBRANCH  13  14
ENDBRANCH  12  13
ENDBRANCH   1  12
TORSDOF 14
ENDMDL
MODEL 5
REMARK VINA RESULT:     1.558      3.856      5.546
REMARK INTER + INTRA:           3.297
REMARK INTER:                   0.321
REMARK INTRA:                   2.976
REMARK UNBOUND:                 0.465
REMARK SMILES CCCCCCCCCCCCCC[C@@H](C)C(=O)[O-]
REMARK SMILES IDX 9 1 10 2 11 3 12 4 13 5 14 6 15 7 16 8 17 9 18 10 19 11 8 12
REMARK SMILES IDX 7 13 6 14 5 15 4 16 3 17 2 18 1 19
REMARK H PARENT
REMARK Flexibility Score: inf
ROOT
ATOM      1  C   UNL     1      21.351  13.333 -14.152  1.00  0.00     0.000 C 
ENDROOT
BRANCH   1   2
ATOM      2  C   UNL     1      21.748  14.320 -15.260  1.00  0.00     0.000 C 
BRANCH   2   3
ATOM      3  C   UNL     1      20.547  15.113 -15.808  1.00  0.00     0.000 C 
BRANCH   3   4
ATOM      4  C   UNL     1      19.313  14.227 -16.035  1.00  0.00     0.000 C 
BRANCH   4   5
ATOM      5  C   UNL     1      19.428  12.864 -15.331  1.00  0.00     0.001 C 
BRANCH   5   6
ATOM      6  C   UNL     1      18.612  12.781 -14.026  1.00  0.00     0.009 C 
BRANCH   6   7
ATOM      7  C   UNL     1      18.010  11.383 -13.750  1.00  0.00     0.032 C 
ATOM      8  C   UNL     1      18.941  10.565 -12.848  1.00  0.00     0.014 C 
BRANCH   7   9
ATOM      9  C   UNL     1      16.656  11.473 -13.101  1.00  0.00     0.044 C 
ATOM     10  O   UNL     1      15.729  10.703 -13.468  1.00  0.00    -0.550 OA
ATOM     11  O   UNL     1      16.425  12.377 -12.071  1.00  0.00    -0.550 OA
ENDBRANCH   7   9
ENDBRANCH   6   7
ENDBRANCH   5   6
ENDBRANCH   4   5
ENDBRANCH   3   4
ENDBRANCH   2   3
ENDBRANCH   1   2
BRANCH   1  12
ATOM     12  C   UNL     1      21.979  11.942 -14.347  1.00  0.00     0.000 C 
BRANCH  12  13
ATOM     13  C   UNL     1      21.443  11.216 -15.594  1.00  0.00    -0.000 C 
BRANCH  13  14
ATOM     14  C   UNL     1      21.920   9.758 -15.762  1.00  0.00    -0.000 C 
BRANCH  14  15
ATOM     15  C   UNL     1      20.807   8.738 -16.068  1.00  0.00    -0.000 C 
BRANCH  15  16
ATOM     16  C   UNL     1      19.401   9.291 -15.798  1.00  0.00    -0.000 C 
BRANCH  16  17
ATOM     17  C   UNL     1      18.331   8.218 -16.056  1.00  0.00    -0.000 C 
BRANCH  17  18
ATOM     18  C   UNL     1      17.445   7.960 -14.828  1.00  0.00    -0.003 C 
ATOM     19  C   UNL     1      15.953   8.008 -15.155  1.00  0.00     0.004 C 
ENDBRANCH  17  18
ENDBRANCH  16  17
ENDBRANCH  15  16
ENDBRANCH  14  15
ENDBRANCH  13  14
ENDBRANCH  12  13
ENDBRANCH   1  12
TORSDOF 14
ENDMDL
