MODEL 1
REMARK VINA RESULT:    -2.700      0.000      0.000
REMARK INTER + INTRA:          -3.034
REMARK INTER:                  -3.015
REMARK INTRA:                  -0.019
REMARK UNBOUND:                -0.019
REMARK SMILES CCCC(=O)[O-]
REMARK SMILES IDX 3 1 4 2 5 3 6 4 2 5 1 6
REMARK H PARENT
REMARK Flexibility Score: inf
ROOT
ATOM      1  C   UNL     1       4.014   7.720 402.718  1.00  0.00     0.052 C 
ENDROOT
BRANCH   1   2
ATOM      2  C   UNL     1       2.977   8.218 403.675  1.00  0.00     0.041 C 
ATOM      3  O   UNL     1       1.760   7.961 403.480  1.00  0.00    -0.550 OA
ATOM      4  O   UNL     1       3.350   9.006 404.755  1.00  0.00    -0.550 OA
ENDBRANCH   1   2
BRANCH   1   5
ATOM      5  C   UNL     1       5.394   8.270 403.088  1.00  0.00     0.003 C 
ATOM      6  C   UNL     1       6.166   8.704 401.846  1.00  0.00     0.004 C 
ENDBRANCH   1   5
TORSDOF 2
ENDMDL
MODEL 2
REMARK VINA RESULT:    -2.665      2.157      2.942
REMARK INTER + INTRA:          -2.996
REMARK INTER:                  -2.960
REMARK INTRA:                  -0.036
REMARK UNBOUND:                -0.019
REMARK SMILES CCCC(=O)[O-]
REMARK SMILES IDX 3 1 4 2 5 3 6 4 2 5 1 6
REMARK H PARENT
REMARK Flexibility Score: inf
ROOT
ATOM      1  C   UNL     1       2.799   8.354 403.517  1.00  0.00     0.052 C 
ENDROOT
BRANCH   1   2
ATOM      2  C   UNL     1       3.835   7.509 402.846  1.00  0.00     0.041 C 
ATOM      3  O   UNL     1       3.734   6.254 402.860  1.00  0.00    -0.550 OA
ATOM      4  O   UNL     1       4.937   8.105 402.246  1.00  0.00    -0.550 OA
ENDBRANCH   1   2
BRANCH   1   5
ATOM      5  C   UNL     1       2.961   8.294 405.038  1.00  0.00     0.003 C 
ATOM      6  C   UNL     1       3.642   9.550 405.570  1.00  0.00     0.004 C 
ENDBRANCH   1   5
TORSDOF 2
ENDMDL
MODEL 3
REMARK VINA RESULT:    -2.649      7.538      8.154
REMARK INTER + INTRA:          -2.977
REMARK INTER:                  -2.943
REMARK INTRA:                  -0.033
REMARK UNBOUND:                -0.019
REMARK SMILES CCCC(=O)[O-]
REMARK SMILES IDX 3 1 4 2 5 3 6 4 2 5 1 6
REMARK H PARENT
REMARK Flexibility Score: inf
ROOT
ATOM      1  C   UNL     1       3.371   0.778 400.184  1.00  0.00     0.052 C 
ENDROOT
BRANCH   1   2
ATOM      2  C   UNL     1       3.643   1.740 401.296  1.00  0.00     0.041 C 
ATOM      3  O   UNL     1       3.855   1.317 402.463  1.00  0.00    -0.550 OA
ATOM      4  O   UNL     1       3.614   3.108 401.054  1.00  0.00    -0.550 OA
ENDBRANCH   1   2
BRANCH   1   5
ATOM      5  C   UNL     1       4.510  -0.238 400.064  1.00  0.00     0.003 C 
ATOM      6  C   UNL     1       3.981  -1.668 400.114  1.00  0.00     0.004 C 
ENDBRANCH   1   5
TORSDOF 2
ENDMDL
MODEL 4
REMARK VINA RESULT:    -2.628      7.543      8.147
REMARK INTER + INTRA:          -2.954
REMARK INTER:                  -2.922
REMARK INTRA:                  -0.031
REMARK UNBOUND:                -0.019
REMARK SMILES CCCC(=O)[O-]
REMARK SMILES IDX 3 1 4 2 5 3 6 4 2 5 1 6
REMARK H PARENT
REMARK Flexibility Score: inf
ROOT
ATOM      1  C   UNL     1       3.323   0.770 400.181  1.00  0.00     0.052 C 
ENDROOT
BRANCH   1   2
ATOM      2  C   UNL     1       3.620   1.777 401.247  1.00  0.00     0.041 C 
ATOM      3  O   UNL     1       3.614   3.007 400.976  1.00  0.00    -0.550 OA
ATOM      4  O   UNL     1       3.950   1.356 402.528  1.00  0.00    -0.550 OA
ENDBRANCH   1   2
BRANCH   1   5
ATOM      5  C   UNL     1       4.484  -0.217 400.038  1.00  0.00     0.003 C 
ATOM      6  C   UNL     1       3.999  -1.659 400.151  1.00  0.00     0.004 C 
ENDBRANCH   1   5
TORSDOF 2
ENDMDL
MODEL 5
REMARK VINA RESULT:    -2.597      8.692      9.371
REMARK INTER + INTRA:          -2.920
REMARK INTER:                  -2.899
REMARK INTRA:                  -0.020
REMARK UNBOUND:                -0.019
REMARK SMILES CCCC(=O)[O-]
REMARK SMILES IDX 3 1 4 2 5 3 6 4 2 5 1 6
REMARK H PARENT
REMARK Flexibility Score: inf
ROOT
ATOM      1  C   UNL     1       4.455   0.070 400.167  1.00  0.00     0.052 C 
ENDROOT
BRANCH   1   2
ATOM      2  C   UNL     1       4.027  -1.283 400.642  1.00  0.00     0.041 C 
ATOM      3  O   UNL     1       4.035  -1.553 401.872  1.00  0.00    -0.550 OA
ATOM      4  O   UNL     1       3.667  -2.260 399.724  1.00  0.00    -0.550 OA
ENDBRANCH   1   2
BRANCH   1   5
ATOM      5  C   UNL     1       3.308   1.074 400.305  1.00  0.00     0.003 C 
ATOM      6  C   UNL     1       3.781   2.364 400.968  1.00  0.00     0.004 C 
ENDBRANCH   1   5
TORSDOF 2
ENDMDL
MODEL 6
REMARK VINA RESULT:    -2.555      2.110      2.499
REMARK INTER + INTRA:          -2.873
REMARK INTER:                  -2.834
REMARK INTRA:                  -0.038
REMARK UNBOUND:                -0.019
REMARK SMILES CCCC(=O)[O-]
REMARK SMILES IDX 3 1 4 2 5 3 6 4 2 5 1 6
REMARK H PARENT
REMARK Flexibility Score: inf
ROOT
ATOM      1  C   UNL     1       2.747   8.288 404.212  1.00  0.00     0.052 C 
ENDROOT
BRANCH   1   2
ATOM      2  C   UNL     1       3.541   8.741 405.397  1.00  0.00     0.041 C 
ATOM      3  O   UNL     1       4.164   7.903 406.100  1.00  0.00    -0.550 OA
ATOM      4  O   UNL     1       3.554  10.083 405.753  1.00  0.00    -0.550 OA
ENDBRANCH   1   2
BRANCH   1   5
ATOM      5  C   UNL     1       3.676   7.953 403.041  1.00  0.00     0.003 C 
ATOM      6  C   UNL     1       3.751   6.447 402.811  1.00  0.00     0.004 C 
ENDBRANCH   1   5
TORSDOF 2
ENDMDL
MODEL 7
REMARK VINA RESULT:    -2.515      2.143      2.934
REMARK INTER + INTRA:          -2.827
REMARK INTER:                  -2.760
REMARK INTRA:                  -0.067
REMARK UNBOUND:                -0.019
REMARK SMILES CCCC(=O)[O-]
REMARK SMILES IDX 3 1 4 2 5 3 6 4 2 5 1 6
REMARK H PARENT
REMARK Flexibility Score: inf
ROOT
ATOM      1  C   UNL     1       4.850   7.902 402.872  1.00  0.00     0.052 C 
ENDROOT
BRANCH   1   2
ATOM      2  C   UNL     1       5.382   8.095 404.257  1.00  0.00     0.041 C 
ATOM      3  O   UNL     1       5.498   7.111 405.034  1.00  0.00    -0.550 OA
ATOM      4  O   UNL     1       5.703   9.369 404.707  1.00  0.00    -0.550 OA
ENDBRANCH   1   2
BRANCH   1   5
ATOM      5  C   UNL     1       3.471   7.239 402.915  1.00  0.00     0.003 C 
ATOM      6  C   UNL     1       2.445   8.146 403.587  1.00  0.00     0.004 C 
ENDBRANCH   1   5
TORSDOF 2
ENDMDL
MODEL 8
REMARK VINA RESULT:    -2.483      2.739      3.749
REMARK INTER + INTRA:          -2.792
REMARK INTER:                  -2.778
REMARK INTRA:                  -0.013
REMARK UNBOUND:                -0.019
REMARK SMILES CCCC(=O)[O-]
REMARK SMILES IDX 3 1 4 2 5 3 6 4 2 5 1 6
REMARK H PARENT
REMARK Flexibility Score: inf
ROOT
ATOM      1  C   UNL     1       5.114   8.174 403.602  1.00  0.00     0.052 C 
ENDROOT
BRANCH   1   2
ATOM      2  C   UNL     1       6.302   8.242 402.695  1.00  0.00     0.041 C 
ATOM      3  O   UNL     1       7.442   7.918 403.120  1.00  0.00    -0.550 OA
ATOM      4  O   UNL     1       6.159   8.711 401.396  1.00  0.00    -0.550 OA
ENDBRANCH   1   2
BRANCH   1   5
ATOM      5  C   UNL     1       3.877   7.707 402.830  1.00  0.00     0.003 C 
ATOM      6  C   UNL     1       2.594   8.184 403.504  1.00  0.00     0.004 C 
ENDBRANCH   1   5
TORSDOF 2
ENDMDL
MODEL 9
REMARK VINA RESULT:    -2.465     13.795     14.807
REMARK INTER + INTRA:          -2.772
REMARK INTER:                  -2.761
REMARK INTRA:                  -0.012
REMARK UNBOUND:                -0.019
REMARK SMILES CCCC(=O)[O-]
REMARK SMILES IDX 3 1 4 2 5 3 6 4 2 5 1 6
REMARK H PARENT
REMARK Flexibility Score: inf
ROOT
ATOM      1  C   UNL     1      14.542   3.075 394.321  1.00  0.00     0.052 C 
ENDROOT
BRANCH   1   2
ATOM      2  C   UNL     1      14.554   3.523 395.748  1.00  0.00     0.041 C 
ATOM      3  O   UNL     1      15.200   4.551 396.083  1.00  0.00    -0.550 OA
ATOM      4  O   UNL     1      13.893   2.780 396.716  1.00  0.00    -0.550 OA
ENDBRANCH   1   2
BRANCH   1   5
ATOM      5  C   UNL     1      15.674   3.746 393.538  1.00  0.00     0.003 C 
ATOM      6  C   UNL     1      15.667   3.310 392.076  1.00  0.00     0.004 C 
ENDBRANCH   1   5
TORSDOF 2
ENDMDL
