MODEL 1
REMARK VINA RESULT:    -7.652      0.000      0.000
REMARK INTER + INTRA:         -11.202
REMARK INTER:                 -10.560
REMARK INTRA:                  -0.642
REMARK UNBOUND:                -0.642
REMARK SMILES C=C(CC[C@H](C(=O)[O-])[C@H]1CC[C@@]2(C)C3=C(CC[C@@]12C)[C@]1(C)CC[C@H](O)C(C)(C)[C@H]1CC3)C(C)C
REMARK SMILES IDX 4 1 5 2 6 3 7 4 8 5 9 6 10 7 18 8 11 9 12 10 17 11 19 12
REMARK SMILES IDX 13 13 14 14 16 15 15 16 31 17 20 18 30 19 29 20 22 21 21 22
REMARK SMILES IDX 26 23 23 24 24 25 27 26 28 27 25 28 3 30 2 31 1 32 32 33
REMARK SMILES IDX 33 34 34 35
REMARK H PARENT 25 29
REMARK Flexibility Score: inf
ROOT
ATOM      1  C   UNL     1      10.550   6.060  51.944  1.00  0.00     0.014 C 
ENDROOT
BRANCH   1   2
ATOM      2  C   UNL     1      10.487   4.960  50.858  1.00  0.00     0.039 C 
BRANCH   2   3
ATOM      3  C   UNL     1      11.708   4.095  50.937  1.00  0.00     0.045 C 
ATOM      4  O   UNL     1      12.445   4.045  49.914  1.00  0.00    -0.550 OA
ATOM      5  O   UNL     1      11.987   3.278  52.030  1.00  0.00    -0.550 OA
ENDBRANCH   2   3
BRANCH   2   6
ATOM      6  C   UNL     1      10.170   5.540  49.449  1.00  0.00     0.004 C 
ATOM      7  C   UNL     1       8.851   5.101  48.775  1.00  0.00     0.006 C 
ATOM      8  C   UNL     1      10.244   7.084  49.209  1.00  0.00    -0.020 C 
ATOM      9  C   UNL     1       8.531   6.189  47.732  1.00  0.00     0.012 C 
ATOM     10  C   UNL     1       9.749   7.169  47.724  1.00  0.00    -0.006 C 
ATOM     11  C   UNL     1       9.251   7.850  50.130  1.00  0.00     0.012 C 
ATOM     12  C   UNL     1      11.671   7.629  49.421  1.00  0.00     0.012 C 
ATOM     13  C   UNL     1      10.765   6.574  46.689  1.00  0.00     0.017 C 
ATOM     14  C   UNL     1       9.355   8.627  47.310  1.00  0.00    -0.064 C 
ATOM     15  C   UNL     1       8.924   9.262  49.689  1.00  0.00     0.032 C 
ATOM     16  C   UNL     1       8.726   9.462  48.182  1.00  0.00    -0.064 C 
ATOM     17  C   UNL     1       9.773   9.154  45.919  1.00  0.00     0.032 C 
ATOM     18  C   UNL     1       7.976  10.778  47.731  1.00  0.00    -0.008 C 
ATOM     19  C   UNL     1       9.491  10.633  45.701  1.00  0.00     0.009 C 
ATOM     20  C   UNL     1       8.017  10.892  46.144  1.00  0.00     0.007 C 
ATOM     21  C   UNL     1       6.472  10.646  48.134  1.00  0.00     0.014 C 
ATOM     22  C   UNL     1       8.622  12.035  48.426  1.00  0.00     0.016 C 
ATOM     23  C   UNL     1       7.152  12.038  45.500  1.00  0.00    -0.006 C 
ATOM     24  C   UNL     1       5.550  11.721  47.456  1.00  0.00     0.033 C 
ATOM     25  C   UNL     1       5.653  11.680  45.914  1.00  0.00     0.120 C 
ATOM     26  C   UNL     1       7.287  11.990  43.951  1.00  0.00     0.014 C 
ATOM     27  C   UNL     1       7.596  13.489  45.852  1.00  0.00     0.014 C 
BRANCH  25  28
ATOM     28  O   UNL     1       5.301  10.356  45.553  1.00  0.00    -0.393 OA
ATOM     29  H   UNL     1       6.117   9.835  45.451  1.00  0.00     0.210 HD
ENDBRANCH  25  28
ENDBRANCH   2   6
ENDBRANCH   1   2
BRANCH   1  30
ATOM     30  C   UNL     1       9.623   5.761  53.127  1.00  0.00     0.031 C 
BRANCH  30  31
ATOM     31  C   UNL     1       8.116   5.761  52.857  1.00  0.00    -0.075 C 
ATOM     32  C   UNL     1       7.385   6.839  53.235  1.00  0.00     0.008 C 
BRANCH  31  33
ATOM     33  C   UNL     1       7.360   4.425  52.744  1.00  0.00     0.008 C 
ATOM     34  C   UNL     1       7.753   3.414  53.856  1.00  0.00     0.012 C 
ATOM     35  C   UNL     1       5.839   4.682  52.761  1.00  0.00     0.012 C 
ENDBRANCH  31  33
ENDBRANCH  30  31
ENDBRANCH   1  30
TORSDOF 7
ENDMDL
MODEL 2
REMARK VINA RESULT:    -7.449      2.504      3.897
REMARK INTER + INTRA:         -10.922
REMARK INTER:                  -9.214
REMARK INTRA:                  -1.708
REMARK UNBOUND:                -0.642
REMARK SMILES C=C(CC[C@H](C(=O)[O-])[C@H]1CC[C@@]2(C)C3=C(CC[C@@]12C)[C@]1(C)CC[C@H](O)C(C)(C)[C@H]1CC3)C(C)C
REMARK SMILES IDX 4 1 5 2 6 3 7 4 8 5 9 6 10 7 18 8 11 9 12 10 17 11 19 12
REMARK SMILES IDX 13 13 14 14 16 15 15 16 31 17 20 18 30 19 29 20 22 21 21 22
REMARK SMILES IDX 26 23 23 24 24 25 27 26 28 27 25 28 3 30 2 31 1 32 32 33
REMARK SMILES IDX 33 34 34 35
REMARK H PARENT 25 29
REMARK Flexibility Score: inf
ROOT
ATOM      1  C   UNL     1      10.052   4.352  54.712  1.00  0.00     0.014 C 
ENDROOT
BRANCH   1   2
ATOM      2  C   UNL     1       9.125   5.241  53.849  1.00  0.00     0.039 C 
BRANCH   2   3
ATOM      3  C   UNL     1       7.720   4.724  53.912  1.00  0.00     0.045 C 
ATOM      4  O   UNL     1       7.567   3.508  54.215  1.00  0.00    -0.550 OA
ATOM      5  O   UNL     1       6.615   5.489  53.544  1.00  0.00    -0.550 OA
ENDBRANCH   2   3
BRANCH   2   6
ATOM      6  C   UNL     1       9.690   5.465  52.416  1.00  0.00     0.004 C 
ATOM      7  C   UNL     1       8.979   4.748  51.247  1.00  0.00     0.006 C 
ATOM      8  C   UNL     1       9.937   6.920  51.898  1.00  0.00    -0.020 C 
ATOM      9  C   UNL     1       9.348   5.544  49.980  1.00  0.00     0.012 C 
ATOM     10  C   UNL     1      10.383   6.629  50.423  1.00  0.00    -0.006 C 
ATOM     11  C   UNL     1       8.622   7.751  51.885  1.00  0.00     0.012 C 
ATOM     12  C   UNL     1      11.003   7.653  52.736  1.00  0.00     0.012 C 
ATOM     13  C   UNL     1      11.789   5.942  50.317  1.00  0.00     0.017 C 
ATOM     14  C   UNL     1      10.344   7.910  49.524  1.00  0.00    -0.064 C 
ATOM     15  C   UNL     1       8.651   8.990  51.013  1.00  0.00     0.032 C 
ATOM     16  C   UNL     1       9.357   8.838  49.661  1.00  0.00    -0.064 C 
ATOM     17  C   UNL     1      11.499   8.169  48.531  1.00  0.00     0.032 C 
ATOM     18  C   UNL     1       9.043   9.935  48.567  1.00  0.00    -0.008 C 
ATOM     19  C   UNL     1      11.440   9.526  47.845  1.00  0.00     0.009 C 
ATOM     20  C   UNL     1       9.988   9.708  47.306  1.00  0.00     0.007 C 
ATOM     21  C   UNL     1       7.576   9.725  48.073  1.00  0.00     0.014 C 
ATOM     22  C   UNL     1       9.216  11.375  49.179  1.00  0.00     0.016 C 
ATOM     23  C   UNL     1       9.684  10.585  46.035  1.00  0.00    -0.006 C 
ATOM     24  C   UNL     1       7.242  10.520  46.760  1.00  0.00     0.033 C 
ATOM     25  C   UNL     1       8.207  10.160  45.607  1.00  0.00     0.120 C 
ATOM     26  C   UNL     1      10.679  10.221  44.897  1.00  0.00     0.014 C 
ATOM     27  C   UNL     1       9.894  12.119  46.215  1.00  0.00     0.014 C 
BRANCH  25  28
ATOM     28  O   UNL     1       8.081   8.758  45.441  1.00  0.00    -0.393 OA
ATOM     29  H   UNL     1       7.139   8.523  45.505  1.00  0.00     0.210 HD
ENDBRANCH  25  28
ENDBRANCH   2   6
ENDBRANCH   1   2
BRANCH   1  30
ATOM     30  C   UNL     1      10.748   5.147  55.822  1.00  0.00     0.031 C 
BRANCH  30  31
ATOM     31  C   UNL     1      12.261   5.342  55.703  1.00  0.00    -0.075 C 
ATOM     32  C   UNL     1      12.779   6.577  55.920  1.00  0.00     0.008 C 
BRANCH  31  33
ATOM     33  C   UNL     1      13.085   4.401  54.806  1.00  0.00     0.008 C 
ATOM     34  C   UNL     1      13.564   5.083  53.495  1.00  0.00     0.012 C 
ATOM     35  C   UNL     1      14.289   3.847  55.596  1.00  0.00     0.012 C 
ENDBRANCH  31  33
ENDBRANCH  30  31
ENDBRANCH   1  30
TORSDOF 7
ENDMDL
MODEL 3
REMARK VINA RESULT:    -7.310      1.765      3.423
REMARK INTER + INTRA:         -10.731
REMARK INTER:                  -9.126
REMARK INTRA:                  -1.605
REMARK UNBOUND:                -0.642
REMARK SMILES C=C(CC[C@H](C(=O)[O-])[C@H]1CC[C@@]2(C)C3=C(CC[C@@]12C)[C@]1(C)CC[C@H](O)C(C)(C)[C@H]1CC3)C(C)C
REMARK SMILES IDX 4 1 5 2 6 3 7 4 8 5 9 6 10 7 18 8 11 9 12 10 17 11 19 12
REMARK SMILES IDX 13 13 14 14 16 15 15 16 31 17 20 18 30 19 29 20 22 21 21 22
REMARK SMILES IDX 26 23 23 24 24 25 27 26 28 27 25 28 3 30 2 31 1 32 32 33
REMARK SMILES IDX 33 34 34 35
REMARK H PARENT 25 29
REMARK Flexibility Score: inf
ROOT
ATOM      1  C   UNL     1      11.907   3.745  52.891  1.00  0.00     0.014 C 
ENDROOT
BRANCH   1   2
ATOM      2  C   UNL     1      12.150   4.394  51.508  1.00  0.00     0.039 C 
BRANCH   2   3
ATOM      3  C   UNL     1      13.609   4.339  51.168  1.00  0.00     0.045 C 
ATOM      4  O   UNL     1      14.424   4.335  52.132  1.00  0.00    -0.550 OA
ATOM      5  O   UNL     1      14.084   4.407  49.861  1.00  0.00    -0.550 OA
ENDBRANCH   2   3
BRANCH   2   6
ATOM      6  C   UNL     1      11.490   5.799  51.392  1.00  0.00     0.004 C 
ATOM      7  C   UNL     1      12.423   7.030  51.401  1.00  0.00     0.006 C 
ATOM      8  C   UNL     1      10.468   6.084  50.242  1.00  0.00    -0.020 C 
ATOM      9  C   UNL     1      11.624   8.167  50.736  1.00  0.00     0.012 C 
ATOM     10  C   UNL     1      10.187   7.608  50.479  1.00  0.00    -0.006 C 
ATOM     11  C   UNL     1      11.118   5.890  48.842  1.00  0.00     0.012 C 
ATOM     12  C   UNL     1       9.214   5.195  50.358  1.00  0.00     0.012 C 
ATOM     13  C   UNL     1       9.378   7.900  51.791  1.00  0.00     0.017 C 
ATOM     14  C   UNL     1       9.482   8.282  49.254  1.00  0.00    -0.064 C 
ATOM     15  C   UNL     1      10.380   6.548  47.694  1.00  0.00     0.032 C 
ATOM     16  C   UNL     1       9.810   7.942  47.977  1.00  0.00    -0.064 C 
ATOM     17  C   UNL     1       8.328   9.279  49.503  1.00  0.00     0.032 C 
ATOM     18  C   UNL     1       9.427   8.823  46.722  1.00  0.00    -0.008 C 
ATOM     19  C   UNL     1       7.608   9.729  48.241  1.00  0.00     0.009 C 
ATOM     20  C   UNL     1       8.702  10.153  47.212  1.00  0.00     0.007 C 
ATOM     21  C   UNL     1      10.749   9.266  46.015  1.00  0.00     0.014 C 
ATOM     22  C   UNL     1       8.526   7.994  45.732  1.00  0.00     0.016 C 
ATOM     23  C   UNL     1       8.422  11.245  46.114  1.00  0.00    -0.006 C 
ATOM     24  C   UNL     1      10.537  10.411  44.961  1.00  0.00     0.033 C 
ATOM     25  C   UNL     1       9.872  11.657  45.590  1.00  0.00     0.120 C 
ATOM     26  C   UNL     1       7.736  12.479  46.765  1.00  0.00     0.014 C 
ATOM     27  C   UNL     1       7.421  10.827  44.995  1.00  0.00     0.014 C 
BRANCH  25  28
ATOM     28  O   UNL     1      10.732  12.044  46.648  1.00  0.00    -0.393 OA
ATOM     29  H   UNL     1      10.645  13.004  46.782  1.00  0.00     0.210 HD
ENDBRANCH  25  28
ENDBRANCH   2   6
ENDBRANCH   1   2
BRANCH   1  30
ATOM     30  C   UNL     1      10.471   3.235  53.048  1.00  0.00     0.031 C 
BRANCH  30  31
ATOM     31  C   UNL     1       9.492   4.120  53.823  1.00  0.00    -0.075 C 
ATOM     32  C   UNL     1       9.988   5.080  54.643  1.00  0.00     0.008 C 
BRANCH  31  33
ATOM     33  C   UNL     1       8.085   3.591  54.158  1.00  0.00     0.008 C 
ATOM     34  C   UNL     1       7.009   4.054  53.137  1.00  0.00     0.012 C 
ATOM     35  C   UNL     1       8.114   2.052  54.251  1.00  0.00     0.012 C 
ENDBRANCH  31  33
ENDBRANCH  30  31
ENDBRANCH   1  30
TORSDOF 7
ENDMDL
MODEL 4
REMARK VINA RESULT:    -7.285      3.730      5.744
REMARK INTER + INTRA:         -10.696
REMARK INTER:                  -8.741
REMARK INTRA:                  -1.955
REMARK UNBOUND:                -0.642
REMARK SMILES C=C(CC[C@H](C(=O)[O-])[C@H]1CC[C@@]2(C)C3=C(CC[C@@]12C)[C@]1(C)CC[C@H](O)C(C)(C)[C@H]1CC3)C(C)C
REMARK SMILES IDX 4 1 5 2 6 3 7 4 8 5 9 6 10 7 18 8 11 9 12 10 17 11 19 12
REMARK SMILES IDX 13 13 14 14 16 15 15 16 31 17 20 18 30 19 29 20 22 21 21 22
REMARK SMILES IDX 26 23 23 24 24 25 27 26 28 27 25 28 3 30 2 31 1 32 32 33
REMARK SMILES IDX 33 34 34 35
REMARK H PARENT 25 29
REMARK Flexibility Score: inf
ROOT
ATOM      1  C   UNL     1      13.407  10.751  48.344  1.00  0.00     0.014 C 
ENDROOT
BRANCH   1   2
ATOM      2  C   UNL     1      12.168  11.412  48.995  1.00  0.00     0.039 C 
BRANCH   2   3
ATOM      3  C   UNL     1      12.427  11.660  50.450  1.00  0.00     0.045 C 
ATOM      4  O   UNL     1      13.294  10.934  51.012  1.00  0.00    -0.550 OA
ATOM      5  O   UNL     1      11.683  12.560  51.207  1.00  0.00    -0.550 OA
ENDBRANCH   2   3
BRANCH   2   6
ATOM      6  C   UNL     1      10.853  10.643  48.673  1.00  0.00     0.004 C 
ATOM      7  C   UNL     1      10.153   9.905  49.836  1.00  0.00     0.006 C 
ATOM      8  C   UNL     1       9.696  11.368  47.911  1.00  0.00    -0.020 C 
ATOM      9  C   UNL     1       8.685   9.733  49.401  1.00  0.00     0.012 C 
ATOM     10  C   UNL     1       8.594  10.253  47.930  1.00  0.00    -0.006 C 
ATOM     11  C   UNL     1       9.187  12.610  48.697  1.00  0.00     0.012 C 
ATOM     12  C   UNL     1      10.124  11.794  46.492  1.00  0.00     0.012 C 
ATOM     13  C   UNL     1       8.935   9.019  47.022  1.00  0.00     0.017 C 
ATOM     14  C   UNL     1       7.177  10.808  47.567  1.00  0.00    -0.064 C 
ATOM     15  C   UNL     1       7.818  13.114  48.288  1.00  0.00     0.032 C 
ATOM     16  C   UNL     1       6.769  12.036  47.994  1.00  0.00    -0.064 C 
ATOM     17  C   UNL     1       6.263   9.988  46.629  1.00  0.00     0.032 C 
ATOM     18  C   UNL     1       5.257  12.495  47.991  1.00  0.00    -0.008 C 
ATOM     19  C   UNL     1       4.990  10.709  46.210  1.00  0.00     0.009 C 
ATOM     20  C   UNL     1       4.340  11.288  47.504  1.00  0.00     0.007 C 
ATOM     21  C   UNL     1       4.840  12.811  49.464  1.00  0.00     0.014 C 
ATOM     22  C   UNL     1       5.080  13.770  47.085  1.00  0.00     0.016 C 
ATOM     23  C   UNL     1       2.784  11.496  47.623  1.00  0.00    -0.006 C 
ATOM     24  C   UNL     1       3.288  12.952  49.654  1.00  0.00     0.033 C 
ATOM     25  C   UNL     1       2.532  11.687  49.187  1.00  0.00     0.120 C 
ATOM     26  C   UNL     1       2.045  10.220  47.130  1.00  0.00     0.014 C 
ATOM     27  C   UNL     1       2.190  12.623  46.726  1.00  0.00     0.014 C 
BRANCH  25  28
ATOM     28  O   UNL     1       3.078  10.625  49.950  1.00  0.00    -0.393 OA
ATOM     29  H   UNL     1       3.910  10.930  50.353  1.00  0.00     0.210 HD
ENDBRANCH  25  28
ENDBRANCH   2   6
ENDBRANCH   1   2
BRANCH   1  30
ATOM     30  C   UNL     1      13.028   9.576  47.437  1.00  0.00     0.031 C 
BRANCH  30  31
ATOM     31  C   UNL     1      13.750   8.247  47.671  1.00  0.00    -0.075 C 
ATOM     32  C   UNL     1      14.723   7.871  46.804  1.00  0.00     0.008 C 
BRANCH  31  33
ATOM     33  C   UNL     1      13.040   7.117  48.438  1.00  0.00     0.008 C 
ATOM     34  C   UNL     1      12.936   7.396  49.963  1.00  0.00     0.012 C 
ATOM     35  C   UNL     1      11.640   6.876  47.837  1.00  0.00     0.012 C 
ENDBRANCH  31  33
ENDBRANCH  30  31
ENDBRANCH   1  30
TORSDOF 7
ENDMDL
MODEL 5
REMARK VINA RESULT:    -7.257      2.874      5.025
REMARK INTER + INTRA:         -10.656
REMARK INTER:                  -8.923
REMARK INTRA:                  -1.734
REMARK UNBOUND:                -0.642
REMARK SMILES C=C(CC[C@H](C(=O)[O-])[C@H]1CC[C@@]2(C)C3=C(CC[C@@]12C)[C@]1(C)CC[C@H](O)C(C)(C)[C@H]1CC3)C(C)C
REMARK SMILES IDX 4 1 5 2 6 3 7 4 8 5 9 6 10 7 18 8 11 9 12 10 17 11 19 12
REMARK SMILES IDX 13 13 14 14 16 15 15 16 31 17 20 18 30 19 29 20 22 21 21 22
REMARK SMILES IDX 26 23 23 24 24 25 27 26 28 27 25 28 3 30 2 31 1 32 32 33
REMARK SMILES IDX 33 34 34 35
REMARK H PARENT 25 29
REMARK Flexibility Score: inf
ROOT
ATOM      1  C   UNL     1      11.549   3.825  55.603  1.00  0.00     0.014 C 
ENDROOT
BRANCH   1   2
ATOM      2  C   UNL     1      10.627   4.017  54.375  1.00  0.00     0.039 C 
BRANCH   2   3
ATOM      3  C   UNL     1       9.845   2.764  54.125  1.00  0.00     0.045 C 
ATOM      4  O   UNL     1       8.623   2.896  53.835  1.00  0.00    -0.550 OA
ATOM      5  O   UNL     1      10.377   1.490  54.308  1.00  0.00    -0.550 OA
ENDBRANCH   2   3
BRANCH   2   6
ATOM      6  C   UNL     1      11.395   4.582  53.144  1.00  0.00     0.004 C 
ATOM      7  C   UNL     1      11.636   3.628  51.952  1.00  0.00     0.006 C 
ATOM      8  C   UNL     1      10.933   5.925  52.490  1.00  0.00    -0.020 C 
ATOM      9  C   UNL     1      11.879   4.536  50.732  1.00  0.00     0.012 C 
ATOM     10  C   UNL     1      11.913   6.003  51.269  1.00  0.00    -0.006 C 
ATOM     11  C   UNL     1       9.469   5.832  51.973  1.00  0.00     0.012 C 
ATOM     12  C   UNL     1      11.061   7.111  53.467  1.00  0.00     0.012 C 
ATOM     13  C   UNL     1      13.404   6.270  51.678  1.00  0.00     0.017 C 
ATOM     14  C   UNL     1      11.454   7.053  50.203  1.00  0.00    -0.064 C 
ATOM     15  C   UNL     1       9.077   6.886  50.958  1.00  0.00     0.032 C 
ATOM     16  C   UNL     1      10.137   7.226  49.904  1.00  0.00    -0.064 C 
ATOM     17  C   UNL     1      12.509   7.974  49.549  1.00  0.00     0.032 C 
ATOM     18  C   UNL     1       9.635   7.972  48.604  1.00  0.00    -0.008 C 
ATOM     19  C   UNL     1      11.923   9.066  48.666  1.00  0.00     0.009 C 
ATOM     20  C   UNL     1      10.890   8.387  47.715  1.00  0.00     0.007 C 
ATOM     21  C   UNL     1       8.796   6.964  47.755  1.00  0.00     0.014 C 
ATOM     22  C   UNL     1       8.759   9.219  49.000  1.00  0.00     0.016 C 
ATOM     23  C   UNL     1      10.577   8.968  46.287  1.00  0.00    -0.006 C 
ATOM     24  C   UNL     1       8.520   7.463  46.291  1.00  0.00     0.033 C 
ATOM     25  C   UNL     1       9.829   7.777  45.532  1.00  0.00     0.120 C 
ATOM     26  C   UNL     1      11.907   9.294  45.551  1.00  0.00     0.014 C 
ATOM     27  C   UNL     1       9.815  10.327  46.270  1.00  0.00     0.014 C 
BRANCH  25  28
ATOM     28  O   UNL     1      10.576   6.572  45.565  1.00  0.00    -0.393 OA
ATOM     29  H   UNL     1      10.204   5.997  46.256  1.00  0.00     0.210 HD
ENDBRANCH  25  28
ENDBRANCH   2   6
ENDBRANCH   1   2
BRANCH   1  30
ATOM     30  C   UNL     1      12.132   5.151  56.104  1.00  0.00     0.031 C 
BRANCH  30  31
ATOM     31  C   UNL     1      13.616   5.412  55.836  1.00  0.00    -0.075 C 
ATOM     32  C   UNL     1      14.044   6.695  55.730  1.00  0.00     0.008 C 
BRANCH  31  33
ATOM     33  C   UNL     1      14.463   4.345  55.120  1.00  0.00     0.008 C 
ATOM     34  C   UNL     1      15.715   4.940  54.419  1.00  0.00     0.012 C 
ATOM     35  C   UNL     1      14.876   3.247  56.122  1.00  0.00     0.012 C 
ENDBRANCH  31  33
ENDBRANCH  30  31
ENDBRANCH   1  30
TORSDOF 7
ENDMDL
MODEL 6
REMARK VINA RESULT:    -7.252      1.635      3.529
REMARK INTER + INTRA:         -10.650
REMARK INTER:                  -9.129
REMARK INTRA:                  -1.522
REMARK UNBOUND:                -0.642
REMARK SMILES C=C(CC[C@H](C(=O)[O-])[C@H]1CC[C@@]2(C)C3=C(CC[C@@]12C)[C@]1(C)CC[C@H](O)C(C)(C)[C@H]1CC3)C(C)C
REMARK SMILES IDX 4 1 5 2 6 3 7 4 8 5 9 6 10 7 18 8 11 9 12 10 17 11 19 12
REMARK SMILES IDX 13 13 14 14 16 15 15 16 31 17 20 18 30 19 29 20 22 21 21 22
REMARK SMILES IDX 26 23 23 24 24 25 27 26 28 27 25 28 3 30 2 31 1 32 32 33
REMARK SMILES IDX 33 34 34 35
REMARK H PARENT 25 29
REMARK Flexibility Score: inf
ROOT
ATOM      1  C   UNL     1      11.720   4.191  51.039  1.00  0.00     0.014 C 
ENDROOT
BRANCH   1   2
ATOM      2  C   UNL     1      10.625   5.283  51.074  1.00  0.00     0.039 C 
BRANCH   2   3
ATOM      3  C   UNL     1       9.465   4.816  51.900  1.00  0.00     0.045 C 
ATOM      4  O   UNL     1       9.558   3.673  52.428  1.00  0.00    -0.550 OA
ATOM      5  O   UNL     1       8.275   5.532  52.006  1.00  0.00    -0.550 OA
ENDBRANCH   2   3
BRANCH   2   6
ATOM      6  C   UNL     1      10.264   5.803  49.651  1.00  0.00     0.004 C 
ATOM      7  C   UNL     1       8.957   5.286  49.011  1.00  0.00     0.006 C 
ATOM      8  C   UNL     1      10.267   7.340  49.362  1.00  0.00    -0.020 C 
ATOM      9  C   UNL     1       8.576   6.325  47.939  1.00  0.00     0.012 C 
ATOM     10  C   UNL     1       9.749   7.356  47.882  1.00  0.00    -0.006 C 
ATOM     11  C   UNL     1       9.255   8.092  50.272  1.00  0.00     0.012 C 
ATOM     12  C   UNL     1      11.672   7.952  49.535  1.00  0.00     0.012 C 
ATOM     13  C   UNL     1      10.777   6.771  46.852  1.00  0.00     0.017 C 
ATOM     14  C   UNL     1       9.287   8.781  47.428  1.00  0.00    -0.064 C 
ATOM     15  C   UNL     1       8.860   9.474  49.791  1.00  0.00     0.032 C 
ATOM     16  C   UNL     1       8.634   9.617  48.282  1.00  0.00    -0.064 C 
ATOM     17  C   UNL     1       9.663   9.280  46.014  1.00  0.00     0.032 C 
ATOM     18  C   UNL     1       7.822  10.884  47.800  1.00  0.00    -0.008 C 
ATOM     19  C   UNL     1       9.314  10.738  45.754  1.00  0.00     0.009 C 
ATOM     20  C   UNL     1       7.837  10.947  46.209  1.00  0.00     0.007 C 
ATOM     21  C   UNL     1       6.331  10.700  48.229  1.00  0.00     0.014 C 
ATOM     22  C   UNL     1       8.421  12.189  48.445  1.00  0.00     0.016 C 
ATOM     23  C   UNL     1       6.914  12.033  45.541  1.00  0.00    -0.006 C 
ATOM     24  C   UNL     1       5.353  11.712  47.530  1.00  0.00     0.033 C 
ATOM     25  C   UNL     1       5.438  11.625  45.989  1.00  0.00     0.120 C 
ATOM     26  C   UNL     1       7.031  11.940  43.994  1.00  0.00     0.014 C 
ATOM     27  C   UNL     1       7.299  13.513  45.841  1.00  0.00     0.014 C 
BRANCH  25  28
ATOM     28  O   UNL     1       5.139  10.276  45.676  1.00  0.00    -0.393 OA
ATOM     29  H   UNL     1       5.925   9.871  45.267  1.00  0.00     0.210 HD
ENDBRANCH  25  28
ENDBRANCH   2   6
ENDBRANCH   1   2
BRANCH   1  30
ATOM     30  C   UNL     1      13.132   4.785  51.040  1.00  0.00     0.031 C 
BRANCH  30  31
ATOM     31  C   UNL     1      14.017   4.497  49.824  1.00  0.00    -0.075 C 
ATOM     32  C   UNL     1      15.356   4.381  50.005  1.00  0.00     0.008 C 
BRANCH  31  33
ATOM     33  C   UNL     1      13.548   4.919  48.420  1.00  0.00     0.008 C 
ATOM     34  C   UNL     1      14.437   6.030  47.796  1.00  0.00     0.012 C 
ATOM     35  C   UNL     1      13.496   3.686  47.494  1.00  0.00     0.012 C 
ENDBRANCH  31  33
ENDBRANCH  30  31
ENDBRANCH   1  30
TORSDOF 7
ENDMDL
MODEL 7
REMARK VINA RESULT:    -7.223      2.491      4.057
REMARK INTER + INTRA:         -10.610
REMARK INTER:                  -8.774
REMARK INTRA:                  -1.837
REMARK UNBOUND:                -0.642
REMARK SMILES C=C(CC[C@H](C(=O)[O-])[C@H]1CC[C@@]2(C)C3=C(CC[C@@]12C)[C@]1(C)CC[C@H](O)C(C)(C)[C@H]1CC3)C(C)C
REMARK SMILES IDX 4 1 5 2 6 3 7 4 8 5 9 6 10 7 18 8 11 9 12 10 17 11 19 12
REMARK SMILES IDX 13 13 14 14 16 15 15 16 31 17 20 18 30 19 29 20 22 21 21 22
REMARK SMILES IDX 26 23 23 24 24 25 27 26 28 27 25 28 3 30 2 31 1 32 32 33
REMARK SMILES IDX 33 34 34 35
REMARK H PARENT 25 29
REMARK Flexibility Score: inf
ROOT
ATOM      1  C   UNL     1      10.868   3.222  54.314  1.00  0.00     0.014 C 
ENDROOT
BRANCH   1   2
ATOM      2  C   UNL     1      11.336   4.617  53.832  1.00  0.00     0.039 C 
BRANCH   2   3
ATOM      3  C   UNL     1      11.549   5.518  55.011  1.00  0.00     0.045 C 
ATOM      4  O   UNL     1      10.818   5.326  56.021  1.00  0.00    -0.550 OA
ATOM      5  O   UNL     1      12.424   6.601  54.985  1.00  0.00    -0.550 OA
ENDBRANCH   2   3
BRANCH   2   6
ATOM      6  C   UNL     1      10.421   5.191  52.711  1.00  0.00     0.004 C 
ATOM      7  C   UNL     1       9.591   6.451  53.040  1.00  0.00     0.006 C 
ATOM      8  C   UNL     1      11.014   5.466  51.290  1.00  0.00    -0.020 C 
ATOM      9  C   UNL     1       9.252   7.097  51.683  1.00  0.00     0.012 C 
ATOM     10  C   UNL     1       9.776   6.118  50.583  1.00  0.00    -0.006 C 
ATOM     11  C   UNL     1      12.177   6.497  51.349  1.00  0.00     0.012 C 
ATOM     12  C   UNL     1      11.505   4.170  50.614  1.00  0.00     0.012 C 
ATOM     13  C   UNL     1       8.603   5.111  50.318  1.00  0.00     0.017 C 
ATOM     14  C   UNL     1      10.165   6.848  49.253  1.00  0.00    -0.064 C 
ATOM     15  C   UNL     1      12.521   7.156  50.028  1.00  0.00     0.032 C 
ATOM     16  C   UNL     1      11.330   7.544  49.146  1.00  0.00    -0.064 C 
ATOM     17  C   UNL     1       9.253   6.694  48.015  1.00  0.00     0.032 C 
ATOM     18  C   UNL     1      11.607   8.595  47.998  1.00  0.00    -0.008 C 
ATOM     19  C   UNL     1       9.824   7.300  46.741  1.00  0.00     0.009 C 
ATOM     20  C   UNL     1      10.307   8.742  47.091  1.00  0.00     0.007 C 
ATOM     21  C   UNL     1      11.853   9.988  48.660  1.00  0.00     0.014 C 
ATOM     22  C   UNL     1      12.863   8.158  47.155  1.00  0.00     0.016 C 
ATOM     23  C   UNL     1      10.328   9.888  46.014  1.00  0.00    -0.006 C 
ATOM     24  C   UNL     1      11.808  11.180  47.638  1.00  0.00     0.033 C 
ATOM     25  C   UNL     1      10.468  11.229  46.868  1.00  0.00     0.120 C 
ATOM     26  C   UNL     1       8.980   9.905  45.239  1.00  0.00     0.014 C 
ATOM     27  C   UNL     1      11.388   9.724  44.883  1.00  0.00     0.014 C 
BRANCH  25  28
ATOM     28  O   UNL     1       9.469  11.332  47.867  1.00  0.00    -0.393 OA
ATOM     29  H   UNL     1       8.620  11.046  47.486  1.00  0.00     0.210 HD
ENDBRANCH  25  28
ENDBRANCH   2   6
ENDBRANCH   1   2
BRANCH   1  30
ATOM     30  C   UNL     1       9.650   2.718  53.533  1.00  0.00     0.031 C 
BRANCH  30  31
ATOM     31  C   UNL     1       8.272   2.933  54.165  1.00  0.00    -0.075 C 
ATOM     32  C   UNL     1       7.996   2.333  55.349  1.00  0.00     0.008 C 
BRANCH  31  33
ATOM     33  C   UNL     1       7.067   3.274  53.271  1.00  0.00     0.008 C 
ATOM     34  C   UNL     1       5.875   2.297  53.467  1.00  0.00     0.012 C 
ATOM     35  C   UNL     1       6.619   4.728  53.528  1.00  0.00     0.012 C 
ENDBRANCH  31  33
ENDBRANCH  30  31
ENDBRANCH   1  30
TORSDOF 7
ENDMDL
MODEL 8
REMARK VINA RESULT:    -7.091      2.327      8.072
REMARK INTER + INTRA:         -10.428
REMARK INTER:                  -8.582
REMARK INTRA:                  -1.846
REMARK UNBOUND:                -0.642
REMARK SMILES C=C(CC[C@H](C(=O)[O-])[C@H]1CC[C@@]2(C)C3=C(CC[C@@]12C)[C@]1(C)CC[C@H](O)C(C)(C)[C@H]1CC3)C(C)C
REMARK SMILES IDX 4 1 5 2 6 3 7 4 8 5 9 6 10 7 18 8 11 9 12 10 17 11 19 12
REMARK SMILES IDX 13 13 14 14 16 15 15 16 31 17 20 18 30 19 29 20 22 21 21 22
REMARK SMILES IDX 26 23 23 24 24 25 27 26 28 27 25 28 3 30 2 31 1 32 32 33
REMARK SMILES IDX 33 34 34 35
REMARK H PARENT 25 29
REMARK Flexibility Score: inf
ROOT
ATOM      1  C   UNL     1       7.406  13.964  47.114  1.00  0.00     0.014 C 
ENDROOT
BRANCH   1   2
ATOM      2  C   UNL     1       8.187  12.728  46.608  1.00  0.00     0.039 C 
BRANCH   2   3
ATOM      3  C   UNL     1       7.853  12.467  45.171  1.00  0.00     0.045 C 
ATOM      4  O   UNL     1       8.794  12.083  44.422  1.00  0.00    -0.550 OA
ATOM      5  O   UNL     1       6.601  12.737  44.625  1.00  0.00    -0.550 OA
ENDBRANCH   2   3
BRANCH   2   6
ATOM      6  C   UNL     1       8.037  11.506  47.560  1.00  0.00     0.004 C 
ATOM      7  C   UNL     1       7.288  10.267  47.022  1.00  0.00     0.006 C 
ATOM      8  C   UNL     1       9.297  10.925  48.282  1.00  0.00    -0.020 C 
ATOM      9  C   UNL     1       7.758   9.083  47.889  1.00  0.00     0.012 C 
ATOM     10  C   UNL     1       8.668   9.685  49.007  1.00  0.00    -0.006 C 
ATOM     11  C   UNL     1      10.365  10.439  47.261  1.00  0.00     0.012 C 
ATOM     12  C   UNL     1       9.931  11.951  49.243  1.00  0.00     0.012 C 
ATOM     13  C   UNL     1       7.700  10.069  50.180  1.00  0.00     0.017 C 
ATOM     14  C   UNL     1       9.753   8.679  49.518  1.00  0.00    -0.064 C 
ATOM     15  C   UNL     1      11.400   9.482  47.817  1.00  0.00     0.032 C 
ATOM     16  C   UNL     1      10.873   8.419  48.788  1.00  0.00    -0.064 C 
ATOM     17  C   UNL     1       9.592   8.042  50.916  1.00  0.00     0.032 C 
ATOM     18  C   UNL     1      11.803   7.167  49.046  1.00  0.00    -0.008 C 
ATOM     19  C   UNL     1      10.792   7.224  51.372  1.00  0.00     0.009 C 
ATOM     20  C   UNL     1      11.171   6.268  50.198  1.00  0.00     0.007 C 
ATOM     21  C   UNL     1      11.816   6.294  47.750  1.00  0.00     0.014 C 
ATOM     22  C   UNL     1      13.261   7.640  49.404  1.00  0.00     0.016 C 
ATOM     23  C   UNL     1      11.856   4.876  50.457  1.00  0.00    -0.006 C 
ATOM     24  C   UNL     1      12.421   4.861  47.972  1.00  0.00     0.033 C 
ATOM     25  C   UNL     1      11.675   4.086  49.082  1.00  0.00     0.120 C 
ATOM     26  C   UNL     1      11.102   4.123  51.590  1.00  0.00     0.014 C 
ATOM     27  C   UNL     1      13.322   4.939  50.983  1.00  0.00     0.014 C 
BRANCH  25  28
ATOM     28  O   UNL     1      10.322   4.046  48.663  1.00  0.00    -0.393 OA
ATOM     29  H   UNL     1      10.301   3.936  47.696  1.00  0.00     0.210 HD
ENDBRANCH  25  28
ENDBRANCH   2   6
ENDBRANCH   1   2
BRANCH   1  30
ATOM     30  C   UNL     1       6.636  13.674  48.407  1.00  0.00     0.031 C 
BRANCH  30  31
ATOM     31  C   UNL     1       5.148  13.341  48.279  1.00  0.00    -0.075 C 
ATOM     32  C   UNL     1       4.387  14.068  47.423  1.00  0.00     0.008 C 
BRANCH  31  33
ATOM     33  C   UNL     1       4.411  12.672  49.453  1.00  0.00     0.008 C 
ATOM     34  C   UNL     1       2.988  13.251  49.680  1.00  0.00     0.012 C 
ATOM     35  C   UNL     1       4.343  11.147  49.226  1.00  0.00     0.012 C 
ENDBRANCH  31  33
ENDBRANCH  30  31
ENDBRANCH   1  30
TORSDOF 7
ENDMDL
MODEL 9
REMARK VINA RESULT:    -7.064      2.476      8.325
REMARK INTER + INTRA:         -10.390
REMARK INTER:                  -9.185
REMARK INTRA:                  -1.205
REMARK UNBOUND:                -0.642
REMARK SMILES C=C(CC[C@H](C(=O)[O-])[C@H]1CC[C@@]2(C)C3=C(CC[C@@]12C)[C@]1(C)CC[C@H](O)C(C)(C)[C@H]1CC3)C(C)C
REMARK SMILES IDX 4 1 5 2 6 3 7 4 8 5 9 6 10 7 18 8 11 9 12 10 17 11 19 12
REMARK SMILES IDX 13 13 14 14 16 15 15 16 31 17 20 18 30 19 29 20 22 21 21 22
REMARK SMILES IDX 26 23 23 24 24 25 27 26 28 27 25 28 3 30 2 31 1 32 32 33
REMARK SMILES IDX 33 34 34 35
REMARK H PARENT 25 29
REMARK Flexibility Score: inf
ROOT
ATOM      1  C   UNL     1       8.493   7.855  46.321  1.00  0.00     0.014 C 
ENDROOT
BRANCH   1   2
ATOM      2  C   UNL     1      10.021   8.096  46.355  1.00  0.00     0.039 C 
BRANCH   2   3
ATOM      3  C   UNL     1      10.542   8.262  44.960  1.00  0.00     0.045 C 
ATOM      4  O   UNL     1      10.393   7.289  44.170  1.00  0.00    -0.550 OA
ATOM      5  O   UNL     1      11.267   9.379  44.552  1.00  0.00    -0.550 OA
ENDBRANCH   2   3
BRANCH   2   6
ATOM      6  C   UNL     1      10.766   7.040  47.224  1.00  0.00     0.004 C 
ATOM      7  C   UNL     1      12.247   7.312  47.567  1.00  0.00     0.006 C 
ATOM      8  C   UNL     1      10.131   6.554  48.568  1.00  0.00    -0.020 C 
ATOM      9  C   UNL     1      12.549   6.472  48.822  1.00  0.00     0.012 C 
ATOM     10  C   UNL     1      11.270   5.619  49.103  1.00  0.00    -0.006 C 
ATOM     11  C   UNL     1       9.924   7.734  49.560  1.00  0.00     0.012 C 
ATOM     12  C   UNL     1       8.789   5.829  48.339  1.00  0.00     0.012 C 
ATOM     13  C   UNL     1      11.447   4.304  48.266  1.00  0.00     0.017 C 
ATOM     14  C   UNL     1      11.092   5.268  50.618  1.00  0.00    -0.064 C 
ATOM     15  C   UNL     1       9.737   7.332  51.009  1.00  0.00     0.032 C 
ATOM     16  C   UNL     1      10.633   6.193  51.507  1.00  0.00    -0.064 C 
ATOM     17  C   UNL     1      11.353   3.821  51.093  1.00  0.00     0.032 C 
ATOM     18  C   UNL     1      10.783   6.037  53.072  1.00  0.00    -0.008 C 
ATOM     19  C   UNL     1      10.977   3.563  52.545  1.00  0.00     0.009 C 
ATOM     20  C   UNL     1      11.604   4.711  53.395  1.00  0.00     0.007 C 
ATOM     21  C   UNL     1      11.636   7.234  53.603  1.00  0.00     0.014 C 
ATOM     22  C   UNL     1       9.364   6.029  53.755  1.00  0.00     0.016 C 
ATOM     23  C   UNL     1      12.022   4.493  54.896  1.00  0.00    -0.006 C 
ATOM     24  C   UNL     1      12.145   7.032  55.075  1.00  0.00     0.033 C 
ATOM     25  C   UNL     1      12.969   5.733  55.227  1.00  0.00     0.120 C 
ATOM     26  C   UNL     1      12.832   3.172  55.028  1.00  0.00     0.014 C 
ATOM     27  C   UNL     1      10.843   4.290  55.896  1.00  0.00     0.014 C 
BRANCH  25  28
ATOM     28  O   UNL     1      14.031   5.856  54.296  1.00  0.00    -0.393 OA
ATOM     29  H   UNL     1      14.872   5.705  54.765  1.00  0.00     0.210 HD
ENDBRANCH  25  28
ENDBRANCH   2   6
ENDBRANCH   1   2
BRANCH   1  30
ATOM     30  C   UNL     1       7.698   9.162  46.402  1.00  0.00     0.031 C 
BRANCH  30  31
ATOM     31  C   UNL     1       8.079  10.150  47.507  1.00  0.00    -0.075 C 
ATOM     32  C   UNL     1       7.352  10.162  48.652  1.00  0.00     0.008 C 
BRANCH  31  33
ATOM     33  C   UNL     1       8.812  11.455  47.145  1.00  0.00     0.008 C 
ATOM     34  C   UNL     1      10.285  11.476  47.639  1.00  0.00     0.012 C 
ATOM     35  C   UNL     1       8.751  11.684  45.621  1.00  0.00     0.012 C 
ENDBRANCH  31  33
ENDBRANCH  30  31
ENDBRANCH   1  30
TORSDOF 7
ENDMDL
