MODEL 1
REMARK VINA RESULT:    -5.512      0.000      0.000
REMARK INTER + INTRA:          -7.591
REMARK INTER:                  -6.963
REMARK INTRA:                  -0.629
REMARK UNBOUND:                -0.629
REMARK SMILES Oc1cc(O)cc(CCc2ccccc2O)c1
REMARK SMILES IDX 9 1 10 2 12 3 13 4 11 5 14 6 15 7 16 8 8 10 7 11 6 12 17 13
REMARK SMILES IDX 4 14 2 15 3 16 5 17 1 19
REMARK H PARENT 16 9 5 18 1 20
REMARK Flexibility Score: inf
ROOT
ATOM      1  C   UNL     1     173.427 174.819 181.605  1.00  0.00     0.044 C 
ENDROOT
BRANCH   1   2
ATOM      2  C   UNL     1     172.208 175.450 182.230  1.00  0.00    -0.006 A 
ATOM      3  C   UNL     1     170.238 175.247 183.642  1.00  0.00     0.001 A 
ATOM      4  C   UNL     1     169.967 176.606 183.467  1.00  0.00     0.004 A 
ATOM      5  C   UNL     1     171.355 174.671 183.031  1.00  0.00     0.007 A 
ATOM      6  C   UNL     1     170.816 177.393 182.685  1.00  0.00     0.046 A 
ATOM      7  C   UNL     1     171.940 176.825 182.068  1.00  0.00     0.118 A 
BRANCH   7   8
ATOM      8  O   UNL     1     172.791 177.620 181.300  1.00  0.00    -0.508 OA
ATOM      9  H   UNL     1     172.794 178.630 181.386  1.00  0.00     0.293 HD
ENDBRANCH   7   8
ENDBRANCH   1   2
BRANCH   1  10
ATOM     10  C   UNL     1     174.567 174.728 182.623  1.00  0.00     0.040 C 
BRANCH  10  11
ATOM     11  C   UNL     1     175.585 175.809 182.374  1.00  0.00    -0.040 A 
ATOM     12  C   UNL     1     176.194 176.471 183.452  1.00  0.00     0.050 A 
ATOM     13  C   UNL     1     175.976 176.124 181.062  1.00  0.00     0.050 A 
ATOM     14  C   UNL     1     177.166 177.455 183.221  1.00  0.00     0.119 A 
ATOM     15  C   UNL     1     176.947 177.108 180.829  1.00  0.00     0.119 A 
ATOM     16  C   UNL     1     177.536 177.772 181.910  1.00  0.00     0.092 A 
BRANCH  14  17
ATOM     17  O   UNL     1     177.768 178.121 184.285  1.00  0.00    -0.508 OA
ATOM     18  H   UNL     1     178.041 179.094 184.213  1.00  0.00     0.293 HD
ENDBRANCH  14  17
BRANCH  15  19
ATOM     19  O   UNL     1     177.334 177.430 179.531  1.00  0.00    -0.508 OA
ATOM     20  H   UNL     1     177.114 178.329 179.120  1.00  0.00     0.293 HD
ENDBRANCH  15  19
ENDBRANCH  10  11
ENDBRANCH   1  10
TORSDOF 6
ENDMDL
MODEL 2
REMARK VINA RESULT:    -5.506      2.158      6.372
REMARK INTER + INTRA:          -7.584
REMARK INTER:                  -7.062
REMARK INTRA:                  -0.522
REMARK UNBOUND:                -0.629
REMARK SMILES Oc1cc(O)cc(CCc2ccccc2O)c1
REMARK SMILES IDX 9 1 10 2 12 3 13 4 11 5 14 6 15 7 16 8 8 10 7 11 6 12 17 13
REMARK SMILES IDX 4 14 2 15 3 16 5 17 1 19
REMARK H PARENT 16 9 5 18 1 20
REMARK Flexibility Score: inf
ROOT
ATOM      1  C   UNL     1     173.918 176.207 182.522  1.00  0.00     0.044 C 
ENDROOT
BRANCH   1   2
ATOM      2  C   UNL     1     175.065 176.768 181.719  1.00  0.00    -0.006 A 
ATOM      3  C   UNL     1     175.916 177.645 179.615  1.00  0.00     0.001 A 
ATOM      4  C   UNL     1     177.156 177.881 180.210  1.00  0.00     0.004 A 
ATOM      5  C   UNL     1     174.872 177.096 180.366  1.00  0.00     0.007 A 
ATOM      6  C   UNL     1     177.355 177.574 181.559  1.00  0.00     0.046 A 
ATOM      7  C   UNL     1     176.315 177.022 182.320  1.00  0.00     0.118 A 
BRANCH   7   8
ATOM      8  O   UNL     1     176.517 176.731 183.669  1.00  0.00    -0.508 OA
ATOM      9  H   UNL     1     175.959 176.035 184.151  1.00  0.00     0.293 HD
ENDBRANCH   7   8
ENDBRANCH   1   2
BRANCH   1  10
ATOM     10  C   UNL     1     172.863 177.286 182.781  1.00  0.00     0.040 C 
BRANCH  10  11
ATOM     11  C   UNL     1     171.496 176.793 182.391  1.00  0.00    -0.040 A 
ATOM     12  C   UNL     1     170.980 175.614 182.953  1.00  0.00     0.050 A 
ATOM     13  C   UNL     1     170.701 177.537 181.504  1.00  0.00     0.050 A 
ATOM     14  C   UNL     1     169.694 175.172 182.615  1.00  0.00     0.119 A 
ATOM     15  C   UNL     1     169.415 177.096 181.164  1.00  0.00     0.119 A 
ATOM     16  C   UNL     1     168.917 175.913 181.719  1.00  0.00     0.092 A 
BRANCH  14  17
ATOM     17  O   UNL     1     169.179 174.000 183.164  1.00  0.00    -0.508 OA
ATOM     18  H   UNL     1     169.740 173.405 183.762  1.00  0.00     0.293 HD
ENDBRANCH  14  17
BRANCH  15  19
ATOM     19  O   UNL     1     168.624 177.827 180.281  1.00  0.00    -0.508 OA
ATOM     20  H   UNL     1     167.777 177.440 179.884  1.00  0.00     0.293 HD
ENDBRANCH  15  19
ENDBRANCH  10  11
ENDBRANCH   1  10
TORSDOF 6
ENDMDL
MODEL 3
REMARK VINA RESULT:    -5.493      2.146      6.515
REMARK INTER + INTRA:          -7.567
REMARK INTER:                  -7.043
REMARK INTRA:                  -0.523
REMARK UNBOUND:                -0.629
REMARK SMILES Oc1cc(O)cc(CCc2ccccc2O)c1
REMARK SMILES IDX 9 1 10 2 12 3 13 4 11 5 14 6 15 7 16 8 8 10 7 11 6 12 17 13
REMARK SMILES IDX 4 14 2 15 3 16 5 17 1 19
REMARK H PARENT 16 9 5 18 1 20
REMARK Flexibility Score: inf
ROOT
ATOM      1  C   UNL     1     173.930 176.189 182.518  1.00  0.00     0.044 C 
ENDROOT
BRANCH   1   2
ATOM      2  C   UNL     1     175.083 176.754 181.727  1.00  0.00    -0.006 A 
ATOM      3  C   UNL     1     175.949 177.640 179.633  1.00  0.00     0.001 A 
ATOM      4  C   UNL     1     177.185 177.875 180.238  1.00  0.00     0.004 A 
ATOM      5  C   UNL     1     174.900 177.086 180.374  1.00  0.00     0.007 A 
ATOM      6  C   UNL     1     177.374 177.562 181.588  1.00  0.00     0.046 A 
ATOM      7  C   UNL     1     176.327 177.008 182.339  1.00  0.00     0.118 A 
BRANCH   7   8
ATOM      8  O   UNL     1     176.519 176.711 183.688  1.00  0.00    -0.508 OA
ATOM      9  H   UNL     1     176.551 177.440 184.392  1.00  0.00     0.293 HD
ENDBRANCH   7   8
ENDBRANCH   1   2
BRANCH   1  10
ATOM     10  C   UNL     1     172.886 177.273 182.798  1.00  0.00     0.040 C 
BRANCH  10  11
ATOM     11  C   UNL     1     171.508 176.784 182.442  1.00  0.00    -0.040 A 
ATOM     12  C   UNL     1     170.717 177.496 181.526  1.00  0.00     0.050 A 
ATOM     13  C   UNL     1     171.023 175.580 182.980  1.00  0.00     0.050 A 
ATOM     14  C   UNL     1     169.447 177.023 181.168  1.00  0.00     0.119 A 
ATOM     15  C   UNL     1     169.753 175.105 182.624  1.00  0.00     0.119 A 
ATOM     16  C   UNL     1     168.968 175.831 181.722  1.00  0.00     0.092 A 
BRANCH  14  17
ATOM     17  O   UNL     1     168.655 177.728 180.266  1.00  0.00    -0.508 OA
ATOM     18  H   UNL     1     168.937 177.855 179.301  1.00  0.00     0.293 HD
ENDBRANCH  14  17
BRANCH  15  19
ATOM     19  O   UNL     1     169.265 173.916 183.159  1.00  0.00    -0.508 OA
ATOM     20  H   UNL     1     168.273 173.768 183.303  1.00  0.00     0.293 HD
ENDBRANCH  15  19
ENDBRANCH  10  11
ENDBRANCH   1  10
TORSDOF 6
ENDMDL
MODEL 4
REMARK VINA RESULT:    -5.377      1.446      2.768
REMARK INTER + INTRA:          -7.420
REMARK INTER:                  -7.021
REMARK INTRA:                  -0.399
REMARK UNBOUND:                -0.629
REMARK SMILES Oc1cc(O)cc(CCc2ccccc2O)c1
REMARK SMILES IDX 9 1 10 2 12 3 13 4 11 5 14 6 15 7 16 8 8 10 7 11 6 12 17 13
REMARK SMILES IDX 4 14 2 15 3 16 5 17 1 19
REMARK H PARENT 16 9 5 18 1 20
REMARK Flexibility Score: inf
ROOT
ATOM      1  C   UNL     1     172.489 177.526 182.501  1.00  0.00     0.044 C 
ENDROOT
BRANCH   1   2
ATOM      2  C   UNL     1     171.096 177.323 181.959  1.00  0.00    -0.006 A 
ATOM      3  C   UNL     1     168.740 176.867 182.360  1.00  0.00     0.001 A 
ATOM      4  C   UNL     1     168.476 177.006 180.997  1.00  0.00     0.004 A 
ATOM      5  C   UNL     1     170.043 177.029 182.842  1.00  0.00     0.007 A 
ATOM      6  C   UNL     1     169.513 177.314 180.111  1.00  0.00     0.046 A 
ATOM      7  C   UNL     1     170.823 177.478 180.585  1.00  0.00     0.118 A 
BRANCH   7   8
ATOM      8  O   UNL     1     171.850 177.799 179.697  1.00  0.00    -0.508 OA
ATOM      9  H   UNL     1     172.078 177.201 178.912  1.00  0.00     0.293 HD
ENDBRANCH   7   8
ENDBRANCH   1   2
BRANCH   1  10
ATOM     10  C   UNL     1     173.338 176.270 182.288  1.00  0.00     0.040 C 
BRANCH  10  11
ATOM     11  C   UNL     1     174.774 176.641 182.030  1.00  0.00    -0.040 A 
ATOM     12  C   UNL     1     175.283 176.637 180.721  1.00  0.00     0.050 A 
ATOM     13  C   UNL     1     175.601 177.050 183.089  1.00  0.00     0.050 A 
ATOM     14  C   UNL     1     176.610 177.015 180.476  1.00  0.00     0.119 A 
ATOM     15  C   UNL     1     176.929 177.427 182.846  1.00  0.00     0.119 A 
ATOM     16  C   UNL     1     177.429 177.405 181.540  1.00  0.00     0.092 A 
BRANCH  14  17
ATOM     17  O   UNL     1     177.124 177.006 179.181  1.00  0.00    -0.508 OA
ATOM     18  H   UNL     1     178.083 177.272 178.991  1.00  0.00     0.293 HD
ENDBRANCH  14  17
BRANCH  15  19
ATOM     19  O   UNL     1     177.756 177.827 183.892  1.00  0.00    -0.508 OA
ATOM     20  H   UNL     1     178.160 177.156 184.534  1.00  0.00     0.293 HD
ENDBRANCH  15  19
ENDBRANCH  10  11
ENDBRANCH   1  10
TORSDOF 6
ENDMDL
MODEL 5
REMARK VINA RESULT:    -5.343      1.470      1.911
REMARK INTER + INTRA:          -7.377
REMARK INTER:                  -6.988
REMARK INTRA:                  -0.390
REMARK UNBOUND:                -0.629
REMARK SMILES Oc1cc(O)cc(CCc2ccccc2O)c1
REMARK SMILES IDX 9 1 10 2 12 3 13 4 11 5 14 6 15 7 16 8 8 10 7 11 6 12 17 13
REMARK SMILES IDX 4 14 2 15 3 16 5 17 1 19
REMARK H PARENT 16 9 5 18 1 20
REMARK Flexibility Score: inf
ROOT
ATOM      1  C   UNL     1     172.456 177.521 182.539  1.00  0.00     0.044 C 
ENDROOT
BRANCH   1   2
ATOM      2  C   UNL     1     171.076 177.322 181.963  1.00  0.00    -0.006 A 
ATOM      3  C   UNL     1     168.709 176.880 182.307  1.00  0.00     0.001 A 
ATOM      4  C   UNL     1     168.480 177.013 180.936  1.00  0.00     0.004 A 
ATOM      5  C   UNL     1     170.000 177.039 182.821  1.00  0.00     0.007 A 
ATOM      6  C   UNL     1     169.541 177.309 180.076  1.00  0.00     0.046 A 
ATOM      7  C   UNL     1     170.839 177.470 180.581  1.00  0.00     0.118 A 
BRANCH   7   8
ATOM      8  O   UNL     1     171.890 177.780 179.718  1.00  0.00    -0.508 OA
ATOM      9  H   UNL     1     172.603 178.454 179.971  1.00  0.00     0.293 HD
ENDBRANCH   7   8
ENDBRANCH   1   2
BRANCH   1  10
ATOM     10  C   UNL     1     173.325 176.284 182.296  1.00  0.00     0.040 C 
BRANCH  10  11
ATOM     11  C   UNL     1     174.745 176.687 181.995  1.00  0.00    -0.040 A 
ATOM     12  C   UNL     1     175.603 177.086 183.032  1.00  0.00     0.050 A 
ATOM     13  C   UNL     1     175.238 176.612 180.682  1.00  0.00     0.050 A 
ATOM     14  C   UNL     1     176.934 177.429 182.756  1.00  0.00     0.119 A 
ATOM     15  C   UNL     1     176.568 176.956 180.404  1.00  0.00     0.119 A 
ATOM     16  C   UNL     1     177.410 177.366 181.443  1.00  0.00     0.092 A 
BRANCH  14  17
ATOM     17  O   UNL     1     177.789 177.833 183.778  1.00  0.00    -0.508 OA
ATOM     18  H   UNL     1     178.031 178.808 183.912  1.00  0.00     0.293 HD
ENDBRANCH  14  17
BRANCH  15  19
ATOM     19  O   UNL     1     177.062 176.890 179.104  1.00  0.00    -0.508 OA
ATOM     20  H   UNL     1     176.999 177.680 178.473  1.00  0.00     0.293 HD
ENDBRANCH  15  19
ENDBRANCH  10  11
ENDBRANCH   1  10
TORSDOF 6
ENDMDL
MODEL 6
REMARK VINA RESULT:    -5.282      2.159      6.451
REMARK INTER + INTRA:          -7.300
REMARK INTER:                  -6.847
REMARK INTRA:                  -0.453
REMARK UNBOUND:                -0.629
REMARK SMILES Oc1cc(O)cc(CCc2ccccc2O)c1
REMARK SMILES IDX 9 1 10 2 12 3 13 4 11 5 14 6 15 7 16 8 8 10 7 11 6 12 17 13
REMARK SMILES IDX 4 14 2 15 3 16 5 17 1 19
REMARK H PARENT 16 9 5 18 1 20
REMARK Flexibility Score: inf
ROOT
ATOM      1  C   UNL     1     173.918 176.288 182.490  1.00  0.00     0.044 C 
ENDROOT
BRANCH   1   2
ATOM      2  C   UNL     1     175.080 176.889 181.739  1.00  0.00    -0.006 A 
ATOM      3  C   UNL     1     177.349 177.765 181.746  1.00  0.00     0.001 A 
ATOM      4  C   UNL     1     177.289 177.945 180.364  1.00  0.00     0.004 A 
ATOM      5  C   UNL     1     176.252 177.234 182.432  1.00  0.00     0.007 A 
ATOM      6  C   UNL     1     176.134 177.591 179.661  1.00  0.00     0.046 A 
ATOM      7  C   UNL     1     175.028 177.058 180.340  1.00  0.00     0.118 A 
BRANCH   7   8
ATOM      8  O   UNL     1     173.884 176.693 179.631  1.00  0.00    -0.508 OA
ATOM      9  H   UNL     1     173.780 176.908 178.646  1.00  0.00     0.293 HD
ENDBRANCH   7   8
ENDBRANCH   1   2
BRANCH   1  10
ATOM     10  C   UNL     1     172.858 177.353 182.784  1.00  0.00     0.040 C 
BRANCH  10  11
ATOM     11  C   UNL     1     171.485 176.842 182.434  1.00  0.00    -0.040 A 
ATOM     12  C   UNL     1     170.684 177.538 181.515  1.00  0.00     0.050 A 
ATOM     13  C   UNL     1     171.018 175.636 182.982  1.00  0.00     0.050 A 
ATOM     14  C   UNL     1     169.419 177.045 181.163  1.00  0.00     0.119 A 
ATOM     15  C   UNL     1     169.753 175.143 182.632  1.00  0.00     0.119 A 
ATOM     16  C   UNL     1     168.958 175.851 181.727  1.00  0.00     0.092 A 
BRANCH  14  17
ATOM     17  O   UNL     1     168.616 177.733 180.257  1.00  0.00    -0.508 OA
ATOM     18  H   UNL     1     168.703 178.735 180.128  1.00  0.00     0.293 HD
ENDBRANCH  14  17
BRANCH  15  19
ATOM     19  O   UNL     1     169.282 173.951 183.176  1.00  0.00    -0.508 OA
ATOM     20  H   UNL     1     168.347 173.613 182.982  1.00  0.00     0.293 HD
ENDBRANCH  15  19
ENDBRANCH  10  11
ENDBRANCH   1  10
TORSDOF 6
ENDMDL
MODEL 7
REMARK VINA RESULT:    -5.207      1.702      2.155
REMARK INTER + INTRA:          -7.206
REMARK INTER:                  -6.739
REMARK INTRA:                  -0.467
REMARK UNBOUND:                -0.629
REMARK SMILES Oc1cc(O)cc(CCc2ccccc2O)c1
REMARK SMILES IDX 9 1 10 2 12 3 13 4 11 5 14 6 15 7 16 8 8 10 7 11 6 12 17 13
REMARK SMILES IDX 4 14 2 15 3 16 5 17 1 19
REMARK H PARENT 16 9 5 18 1 20
REMARK Flexibility Score: inf
ROOT
ATOM      1  C   UNL     1     172.574 177.298 182.572  1.00  0.00     0.044 C 
ENDROOT
BRANCH   1   2
ATOM      2  C   UNL     1     171.173 177.201 182.022  1.00  0.00    -0.006 A 
ATOM      3  C   UNL     1     168.791 176.894 182.406  1.00  0.00     0.001 A 
ATOM      4  C   UNL     1     168.542 177.085 181.045  1.00  0.00     0.004 A 
ATOM      5  C   UNL     1     170.099 176.956 182.894  1.00  0.00     0.007 A 
ATOM      6  C   UNL     1     169.600 177.345 180.171  1.00  0.00     0.046 A 
ATOM      7  C   UNL     1     170.916 177.410 180.651  1.00  0.00     0.118 A 
BRANCH   7   8
ATOM      8  O   UNL     1     171.966 177.684 179.774  1.00  0.00    -0.508 OA
ATOM      9  H   UNL     1     172.645 176.975 179.523  1.00  0.00     0.293 HD
ENDBRANCH   7   8
ENDBRANCH   1   2
BRANCH   1  10
ATOM     10  C   UNL     1     173.272 175.936 182.509  1.00  0.00     0.040 C 
BRANCH  10  11
ATOM     11  C   UNL     1     174.635 176.069 181.884  1.00  0.00    -0.040 A 
ATOM     12  C   UNL     1     175.541 177.031 182.359  1.00  0.00     0.050 A 
ATOM     13  C   UNL     1     175.032 175.195 180.860  1.00  0.00     0.050 A 
ATOM     14  C   UNL     1     176.822 177.134 181.799  1.00  0.00     0.119 A 
ATOM     15  C   UNL     1     176.312 175.296 180.298  1.00  0.00     0.119 A 
ATOM     16  C   UNL     1     177.201 176.268 180.768  1.00  0.00     0.092 A 
BRANCH  14  17
ATOM     17  O   UNL     1     177.723 178.090 182.259  1.00  0.00    -0.508 OA
ATOM     18  H   UNL     1     177.658 179.060 181.972  1.00  0.00     0.293 HD
ENDBRANCH  14  17
BRANCH  15  19
ATOM     19  O   UNL     1     176.710 174.436 179.278  1.00  0.00    -0.508 OA
ATOM     20  H   UNL     1     176.040 173.868 178.773  1.00  0.00     0.293 HD
ENDBRANCH  15  19
ENDBRANCH  10  11
ENDBRANCH   1  10
TORSDOF 6
ENDMDL
MODEL 8
REMARK VINA RESULT:    -5.060      2.782      5.190
REMARK INTER + INTRA:          -7.020
REMARK INTER:                  -6.209
REMARK INTRA:                  -0.811
REMARK UNBOUND:                -0.629
REMARK SMILES Oc1cc(O)cc(CCc2ccccc2O)c1
REMARK SMILES IDX 9 1 10 2 12 3 13 4 11 5 14 6 15 7 16 8 8 10 7 11 6 12 17 13
REMARK SMILES IDX 4 14 2 15 3 16 5 17 1 19
REMARK H PARENT 16 9 5 18 1 20
REMARK Flexibility Score: inf
ROOT
ATOM      1  C   UNL     1     173.984 175.959 182.497  1.00  0.00     0.044 C 
ENDROOT
BRANCH   1   2
ATOM      2  C   UNL     1     175.130 176.719 181.875  1.00  0.00    -0.006 A 
ATOM      3  C   UNL     1     177.330 177.734 182.092  1.00  0.00     0.001 A 
ATOM      4  C   UNL     1     177.313 178.071 180.737  1.00  0.00     0.004 A 
ATOM      5  C   UNL     1     176.246 177.057 182.659  1.00  0.00     0.007 A 
ATOM      6  C   UNL     1     176.215 177.727 179.945  1.00  0.00     0.046 A 
ATOM      7  C   UNL     1     175.123 177.047 180.504  1.00  0.00     0.118 A 
BRANCH   7   8
ATOM      8  O   UNL     1     174.036 176.694 179.704  1.00  0.00    -0.508 OA
ATOM      9  H   UNL     1     173.201 177.266 179.660  1.00  0.00     0.293 HD
ENDBRANCH   7   8
ENDBRANCH   1   2
BRANCH   1  10
ATOM     10  C   UNL     1     174.456 174.593 183.002  1.00  0.00     0.040 C 
BRANCH  10  11
ATOM     11  C   UNL     1     174.806 173.694 181.846  1.00  0.00    -0.040 A 
ATOM     12  C   UNL     1     176.093 173.143 181.742  1.00  0.00     0.050 A 
ATOM     13  C   UNL     1     173.831 173.354 180.894  1.00  0.00     0.050 A 
ATOM     14  C   UNL     1     176.410 172.279 180.684  1.00  0.00     0.119 A 
ATOM     15  C   UNL     1     174.147 172.492 179.835  1.00  0.00     0.119 A 
ATOM     16  C   UNL     1     175.436 171.960 179.732  1.00  0.00     0.092 A 
BRANCH  14  17
ATOM     17  O   UNL     1     177.686 171.735 180.570  1.00  0.00    -0.508 OA
ATOM     18  H   UNL     1     177.827 170.768 180.301  1.00  0.00     0.293 HD
ENDBRANCH  14  17
BRANCH  15  19
ATOM     19  O   UNL     1     173.187 172.156 178.884  1.00  0.00    -0.508 OA
ATOM     20  H   UNL     1     173.428 172.033 177.908  1.00  0.00     0.293 HD
ENDBRANCH  15  19
ENDBRANCH  10  11
ENDBRANCH   1  10
TORSDOF 6
ENDMDL
MODEL 9
REMARK VINA RESULT:    -3.309      1.273      2.661
REMARK INTER + INTRA:          -4.808
REMARK INTER:                  -4.189
REMARK INTRA:                  -0.618
REMARK UNBOUND:                -0.629
REMARK SMILES Oc1cc(O)cc(CCc2ccccc2O)c1
REMARK SMILES IDX 9 1 10 2 12 3 13 4 11 5 14 6 15 7 16 8 8 10 7 11 6 12 17 13
REMARK SMILES IDX 4 14 2 15 3 16 5 17 1 19
REMARK H PARENT 16 9 5 18 1 20
REMARK Flexibility Score: inf
ROOT
ATOM      1  C   UNL     1     173.479 174.410 181.986  1.00  0.00     0.044 C 
ENDROOT
BRANCH   1   2
ATOM      2  C   UNL     1     172.332 175.253 182.487  1.00  0.00    -0.006 A 
ATOM      3  C   UNL     1     171.230 177.417 182.625  1.00  0.00     0.001 A 
ATOM      4  C   UNL     1     170.179 176.842 183.341  1.00  0.00     0.004 A 
ATOM      5  C   UNL     1     172.300 176.628 182.194  1.00  0.00     0.007 A 
ATOM      6  C   UNL     1     170.192 175.474 183.624  1.00  0.00     0.046 A 
ATOM      7  C   UNL     1     171.261 174.672 183.196  1.00  0.00     0.118 A 
BRANCH   7   8
ATOM      8  O   UNL     1     171.261 173.305 183.471  1.00  0.00    -0.508 OA
ATOM      9  H   UNL     1     171.752 172.924 184.271  1.00  0.00     0.293 HD
ENDBRANCH   7   8
ENDBRANCH   1   2
BRANCH   1  10
ATOM     10  C   UNL     1     174.652 174.459 182.970  1.00  0.00     0.040 C 
BRANCH  10  11
ATOM     11  C   UNL     1     175.626 175.537 182.577  1.00  0.00    -0.040 A 
ATOM     12  C   UNL     1     175.877 175.806 181.222  1.00  0.00     0.050 A 
ATOM     13  C   UNL     1     176.248 176.322 183.562  1.00  0.00     0.050 A 
ATOM     14  C   UNL     1     176.759 176.833 180.855  1.00  0.00     0.119 A 
ATOM     15  C   UNL     1     177.130 177.348 183.197  1.00  0.00     0.119 A 
ATOM     16  C   UNL     1     177.385 177.597 181.845  1.00  0.00     0.092 A 
BRANCH  14  17
ATOM     17  O   UNL     1     177.018 177.100 179.514  1.00  0.00    -0.508 OA
ATOM     18  H   UNL     1     176.269 177.287 178.857  1.00  0.00     0.293 HD
ENDBRANCH  14  17
BRANCH  15  19
ATOM     19  O   UNL     1     177.755 178.125 184.169  1.00  0.00    -0.508 OA
ATOM     20  H   UNL     1     178.021 177.738 185.067  1.00  0.00     0.293 HD
ENDBRANCH  15  19
ENDBRANCH  10  11
ENDBRANCH   1  10
TORSDOF 6
ENDMDL
