MODEL 1
REMARK VINA RESULT:    -5.151      0.000      0.000
REMARK INTER + INTRA:          -6.733
REMARK INTER:                  -6.356
REMARK INTRA:                  -0.377
REMARK UNBOUND:                -0.377
REMARK SMILES Oc1cc(O)c2cc(O)c(-c3cc(O)c(O)c(O)c3)[o+]c2c1
REMARK SMILES IDX 10 1 20 2 21 3 22 4 2 5 3 6 4 7 6 8 7 9 8 10 11 11 12 12
REMARK SMILES IDX 13 13 19 14 15 15 17 16 14 17 16 19 18 21 9 23 1 25 5 27
REMARK H PARENT 14 18 16 20 18 22 9 24 1 26 5 28
REMARK Flexibility Score: inf
ROOT
ATOM      1  C   UNL     1      11.249  36.898  86.684  1.00  0.00     0.402 A 
ATOM      2  O   UNL     1      10.496  35.892  87.120  1.00  0.00    -0.202 OA
ATOM      3  C   UNL     1       9.195  36.007  87.367  1.00  0.00     0.368 A 
ATOM      4  C   UNL     1       8.488  34.891  87.820  1.00  0.00     0.162 A 
ATOM      5  C   UNL     1       7.118  34.984  88.085  1.00  0.00     0.128 A 
ATOM      6  C   UNL     1       6.453  36.198  87.893  1.00  0.00     0.093 A 
ATOM      7  C   UNL     1       7.139  37.330  87.439  1.00  0.00     0.136 A 
ATOM      8  C   UNL     1       8.531  37.242  87.172  1.00  0.00     0.125 A 
ATOM      9  C   UNL     1       9.302  38.328  86.727  1.00  0.00     0.078 A 
ATOM     10  C   UNL     1      10.670  38.167  86.489  1.00  0.00     0.223 A 
ENDROOT
BRANCH   1  11
ATOM     11  C   UNL     1      12.686  36.642  86.436  1.00  0.00     0.091 A 
ATOM     12  C   UNL     1      13.138  36.138  85.204  1.00  0.00     0.068 A 
ATOM     13  C   UNL     1      14.500  35.881  84.997  1.00  0.00     0.162 A 
ATOM     14  C   UNL     1      13.612  36.852  87.469  1.00  0.00     0.068 A 
ATOM     15  C   UNL     1      15.422  36.114  86.026  1.00  0.00     0.200 A 
ATOM     16  C   UNL     1      14.976  36.598  87.268  1.00  0.00     0.162 A 
BRANCH  13  17
ATOM     17  O   UNL     1      14.945  35.387  83.773  1.00  0.00    -0.504 OA
ATOM     18  H   UNL     1      14.348  34.824  83.178  1.00  0.00     0.293 HD
ENDBRANCH  13  17
BRANCH  15  19
ATOM     19  O   UNL     1      16.774  35.856  85.801  1.00  0.00    -0.502 OA
ATOM     20  H   UNL     1      17.290  35.171  86.340  1.00  0.00     0.293 HD
ENDBRANCH  15  19
BRANCH  16  21
ATOM     21  O   UNL     1      15.890  36.824  88.296  1.00  0.00    -0.504 OA
ATOM     22  H   UNL     1      16.881  36.926  88.113  1.00  0.00     0.293 HD
ENDBRANCH  16  21
ENDBRANCH   1  11
BRANCH  10  23
ATOM     23  O   UNL     1      11.446  39.257  86.095  1.00  0.00    -0.500 OA
ATOM     24  H   UNL     1      12.044  39.748  86.749  1.00  0.00     0.294 HD
ENDBRANCH  10  23
BRANCH   5  25
ATOM     25  O   UNL     1       6.406  33.875  88.537  1.00  0.00    -0.507 OA
ATOM     26  H   UNL     1       6.820  32.950  88.552  1.00  0.00     0.293 HD
ENDBRANCH   5  25
BRANCH   7  27
ATOM     27  O   UNL     1       6.402  38.505  87.269  1.00  0.00    -0.507 OA
ATOM     28  H   UNL     1       6.482  39.320  87.860  1.00  0.00     0.293 HD
ENDBRANCH   7  27
TORSDOF 7
ENDMDL
MODEL 2
REMARK VINA RESULT:    -4.904      1.319      7.144
REMARK INTER + INTRA:          -6.428
REMARK INTER:                  -6.053
REMARK INTRA:                  -0.375
REMARK UNBOUND:                -0.377
REMARK SMILES Oc1cc(O)c2cc(O)c(-c3cc(O)c(O)c(O)c3)[o+]c2c1
REMARK SMILES IDX 10 1 20 2 21 3 22 4 2 5 3 6 4 7 6 8 7 9 8 10 11 11 12 12
REMARK SMILES IDX 13 13 19 14 15 15 17 16 14 17 16 19 18 21 9 23 1 25 5 27
REMARK H PARENT 14 18 16 20 18 22 9 24 1 26 5 28
REMARK Flexibility Score: inf
ROOT
ATOM      1  C   UNL     1      11.487  36.412  86.800  1.00  0.00     0.402 A 
ATOM      2  O   UNL     1      11.876  36.062  85.577  1.00  0.00    -0.202 OA
ATOM      3  C   UNL     1      13.142  36.090  85.177  1.00  0.00     0.368 A 
ATOM      4  C   UNL     1      13.453  35.701  83.872  1.00  0.00     0.162 A 
ATOM      5  C   UNL     1      14.778  35.718  83.427  1.00  0.00     0.128 A 
ATOM      6  C   UNL     1      15.797  36.125  84.292  1.00  0.00     0.093 A 
ATOM      7  C   UNL     1      15.512  36.519  85.605  1.00  0.00     0.136 A 
ATOM      8  C   UNL     1      14.168  36.506  86.060  1.00  0.00     0.125 A 
ATOM      9  C   UNL     1      13.788  36.897  87.355  1.00  0.00     0.078 A 
ATOM     10  C   UNL     1      12.442  36.863  87.731  1.00  0.00     0.223 A 
ENDROOT
BRANCH   1  11
ATOM     11  C   UNL     1      10.045  36.329  87.129  1.00  0.00     0.091 A 
ATOM     12  C   UNL     1       9.464  35.129  87.574  1.00  0.00     0.068 A 
ATOM     13  C   UNL     1       8.093  35.065  87.857  1.00  0.00     0.162 A 
ATOM     14  C   UNL     1       9.229  37.454  86.939  1.00  0.00     0.068 A 
ATOM     15  C   UNL     1       7.288  36.199  87.687  1.00  0.00     0.200 A 
ATOM     16  C   UNL     1       7.857  37.397  87.223  1.00  0.00     0.162 A 
BRANCH  13  17
ATOM     17  O   UNL     1       7.522  33.876  88.304  1.00  0.00    -0.504 OA
ATOM     18  H   UNL     1       6.586  33.848  88.692  1.00  0.00     0.293 HD
ENDBRANCH  13  17
BRANCH  15  19
ATOM     19  O   UNL     1       5.926  36.118  87.978  1.00  0.00    -0.502 OA
ATOM     20  H   UNL     1       5.520  35.312  88.438  1.00  0.00     0.293 HD
ENDBRANCH  15  19
BRANCH  16  21
ATOM     21  O   UNL     1       7.058  38.525  87.044  1.00  0.00    -0.504 OA
ATOM     22  H   UNL     1       7.325  39.271  86.412  1.00  0.00     0.293 HD
ENDBRANCH  16  21
ENDBRANCH   1  11
BRANCH  10  23
ATOM     23  O   UNL     1      12.058  37.298  89.000  1.00  0.00    -0.500 OA
ATOM     24  H   UNL     1      11.369  36.795  89.548  1.00  0.00     0.294 HD
ENDBRANCH  10  23
BRANCH   5  25
ATOM     25  O   UNL     1      15.095  35.331  82.127  1.00  0.00    -0.507 OA
ATOM     26  H   UNL     1      16.054  35.304  81.801  1.00  0.00     0.293 HD
ENDBRANCH   5  25
BRANCH   7  27
ATOM     27  O   UNL     1      16.588  36.908  86.408  1.00  0.00    -0.507 OA
ATOM     28  H   UNL     1      17.111  37.763  86.286  1.00  0.00     0.293 HD
ENDBRANCH   7  27
TORSDOF 7
ENDMDL
MODEL 3
REMARK VINA RESULT:    -4.869      1.332      7.160
REMARK INTER + INTRA:          -6.384
REMARK INTER:                  -6.026
REMARK INTRA:                  -0.359
REMARK UNBOUND:                -0.377
REMARK SMILES Oc1cc(O)c2cc(O)c(-c3cc(O)c(O)c(O)c3)[o+]c2c1
REMARK SMILES IDX 10 1 20 2 21 3 22 4 2 5 3 6 4 7 6 8 7 9 8 10 11 11 12 12
REMARK SMILES IDX 13 13 19 14 15 15 17 16 14 17 16 19 18 21 9 23 1 25 5 27
REMARK H PARENT 14 18 16 20 18 22 9 24 1 26 5 28
REMARK Flexibility Score: inf
ROOT
ATOM      1  C   UNL     1      11.502  36.453  86.787  1.00  0.00     0.402 A 
ATOM      2  O   UNL     1      11.873  36.121  85.553  1.00  0.00    -0.202 OA
ATOM      3  C   UNL     1      13.137  36.129  85.144  1.00  0.00     0.368 A 
ATOM      4  C   UNL     1      13.428  35.761  83.828  1.00  0.00     0.162 A 
ATOM      5  C   UNL     1      14.750  35.758  83.372  1.00  0.00     0.128 A 
ATOM      6  C   UNL     1      15.784  36.122  84.237  1.00  0.00     0.093 A 
ATOM      7  C   UNL     1      15.519  36.494  85.561  1.00  0.00     0.136 A 
ATOM      8  C   UNL     1      14.178  36.502  86.027  1.00  0.00     0.125 A 
ATOM      9  C   UNL     1      13.818  36.874  87.333  1.00  0.00     0.078 A 
ATOM     10  C   UNL     1      12.475  36.861  87.719  1.00  0.00     0.223 A 
ENDROOT
BRANCH   1  11
ATOM     11  C   UNL     1      10.062  36.395  87.126  1.00  0.00     0.091 A 
ATOM     12  C   UNL     1       9.258  37.547  87.108  1.00  0.00     0.068 A 
ATOM     13  C   UNL     1       7.901  37.475  87.453  1.00  0.00     0.162 A 
ATOM     14  C   UNL     1       9.496  35.175  87.527  1.00  0.00     0.068 A 
ATOM     15  C   UNL     1       7.339  36.249  87.832  1.00  0.00     0.200 A 
ATOM     16  C   UNL     1       8.140  35.095  87.872  1.00  0.00     0.162 A 
BRANCH  13  17
ATOM     17  O   UNL     1       7.107  38.619  87.429  1.00  0.00    -0.504 OA
ATOM     18  H   UNL     1       6.713  38.974  86.565  1.00  0.00     0.293 HD
ENDBRANCH  13  17
BRANCH  15  19
ATOM     19  O   UNL     1       5.986  36.195  88.168  1.00  0.00    -0.502 OA
ATOM     20  H   UNL     1       5.644  36.490  89.074  1.00  0.00     0.293 HD
ENDBRANCH  15  19
BRANCH  16  21
ATOM     21  O   UNL     1       7.586  33.875  88.256  1.00  0.00    -0.504 OA
ATOM     22  H   UNL     1       6.597  33.681  88.141  1.00  0.00     0.293 HD
ENDBRANCH  16  21
ENDBRANCH   1  11
BRANCH  10  23
ATOM     23  O   UNL     1      12.110  37.277  89.000  1.00  0.00    -0.500 OA
ATOM     24  H   UNL     1      12.790  37.653  89.651  1.00  0.00     0.294 HD
ENDBRANCH  10  23
BRANCH   5  25
ATOM     25  O   UNL     1      15.047  35.392  82.061  1.00  0.00    -0.507 OA
ATOM     26  H   UNL     1      14.996  34.427  81.756  1.00  0.00     0.293 HD
ENDBRANCH   5  25
BRANCH   7  27
ATOM     27  O   UNL     1      16.610  36.842  86.362  1.00  0.00    -0.507 OA
ATOM     28  H   UNL     1      16.784  36.466  87.283  1.00  0.00     0.293 HD
ENDBRANCH   7  27
TORSDOF 7
ENDMDL
MODEL 4
REMARK VINA RESULT:    -4.702     12.330     13.971
REMARK INTER + INTRA:          -6.179
REMARK INTER:                  -5.813
REMARK INTRA:                  -0.367
REMARK UNBOUND:                -0.377
REMARK SMILES Oc1cc(O)c2cc(O)c(-c3cc(O)c(O)c(O)c3)[o+]c2c1
REMARK SMILES IDX 10 1 20 2 21 3 22 4 2 5 3 6 4 7 6 8 7 9 8 10 11 11 12 12
REMARK SMILES IDX 13 13 19 14 15 15 17 16 14 17 16 19 18 21 9 23 1 25 5 27
REMARK H PARENT 14 18 16 20 18 22 9 24 1 26 5 28
REMARK Flexibility Score: inf
ROOT
ATOM      1  C   UNL     1      11.065  48.345  93.494  1.00  0.00     0.402 A 
ATOM      2  O   UNL     1      11.210  47.102  93.042  1.00  0.00    -0.202 OA
ATOM      3  C   UNL     1      10.591  46.642  91.960  1.00  0.00     0.368 A 
ATOM      4  C   UNL     1      10.808  45.321  91.562  1.00  0.00     0.162 A 
ATOM      5  C   UNL     1      10.172  44.813  90.425  1.00  0.00     0.128 A 
ATOM      6  C   UNL     1       9.317  45.631  89.683  1.00  0.00     0.093 A 
ATOM      7  C   UNL     1       9.083  46.958  90.061  1.00  0.00     0.136 A 
ATOM      8  C   UNL     1       9.724  47.478  91.216  1.00  0.00     0.125 A 
ATOM      9  C   UNL     1       9.538  48.791  91.676  1.00  0.00     0.078 A 
ATOM     10  C   UNL     1      10.200  49.232  92.826  1.00  0.00     0.223 A 
ENDROOT
BRANCH   1  11
ATOM     11  C   UNL     1      11.817  48.742  94.707  1.00  0.00     0.091 A 
ATOM     12  C   UNL     1      11.225  48.703  95.981  1.00  0.00     0.068 A 
ATOM     13  C   UNL     1      11.947  49.104  97.114  1.00  0.00     0.162 A 
ATOM     14  C   UNL     1      13.130  49.219  94.578  1.00  0.00     0.068 A 
ATOM     15  C   UNL     1      13.265  49.559  96.980  1.00  0.00     0.200 A 
ATOM     16  C   UNL     1      13.858  49.620  95.708  1.00  0.00     0.162 A 
BRANCH  13  17
ATOM     17  O   UNL     1      11.358  49.059  98.375  1.00  0.00    -0.504 OA
ATOM     18  H   UNL     1      11.415  49.841  99.017  1.00  0.00     0.293 HD
ENDBRANCH  13  17
BRANCH  15  19
ATOM     19  O   UNL     1      13.970  49.950  98.119  1.00  0.00    -0.502 OA
ATOM     20  H   UNL     1      13.503  50.274  98.957  1.00  0.00     0.293 HD
ENDBRANCH  15  19
BRANCH  16  21
ATOM     21  O   UNL     1      15.167  50.080  95.570  1.00  0.00    -0.504 OA
ATOM     22  H   UNL     1      15.453  50.983  95.931  1.00  0.00     0.293 HD
ENDBRANCH  16  21
ENDBRANCH   1  11
BRANCH  10  23
ATOM     23  O   UNL     1       9.978  50.521  93.313  1.00  0.00    -0.500 OA
ATOM     24  H   UNL     1       9.057  50.828  93.602  1.00  0.00     0.294 HD
ENDBRANCH  10  23
BRANCH   5  25
ATOM     25  O   UNL     1      10.385  43.496  90.022  1.00  0.00    -0.507 OA
ATOM     26  H   UNL     1      10.518  43.256  89.047  1.00  0.00     0.293 HD
ENDBRANCH   5  25
BRANCH   7  27
ATOM     27  O   UNL     1       8.216  47.711  89.263  1.00  0.00    -0.507 OA
ATOM     28  H   UNL     1       8.118  48.715  89.316  1.00  0.00     0.293 HD
ENDBRANCH   7  27
TORSDOF 7
ENDMDL
MODEL 5
REMARK VINA RESULT:    -4.666      3.161      6.965
REMARK INTER + INTRA:          -6.135
REMARK INTER:                  -5.891
REMARK INTRA:                  -0.244
REMARK UNBOUND:                -0.377
REMARK SMILES Oc1cc(O)c2cc(O)c(-c3cc(O)c(O)c(O)c3)[o+]c2c1
REMARK SMILES IDX 10 1 20 2 21 3 22 4 2 5 3 6 4 7 6 8 7 9 8 10 11 11 12 12
REMARK SMILES IDX 13 13 19 14 15 15 17 16 14 17 16 19 18 21 9 23 1 25 5 27
REMARK H PARENT 14 18 16 20 18 22 9 24 1 26 5 28
REMARK Flexibility Score: inf
ROOT
ATOM      1  C   UNL     1      10.609  37.747  88.379  1.00  0.00     0.402 A 
ATOM      2  O   UNL     1      10.422  38.808  89.159  1.00  0.00    -0.202 OA
ATOM      3  C   UNL     1      11.418  39.488  89.717  1.00  0.00     0.368 A 
ATOM      4  C   UNL     1      11.123  40.591  90.520  1.00  0.00     0.162 A 
ATOM      5  C   UNL     1      12.152  41.326  91.117  1.00  0.00     0.128 A 
ATOM      6  C   UNL     1      13.483  40.955  90.907  1.00  0.00     0.093 A 
ATOM      7  C   UNL     1      13.806  39.853  90.107  1.00  0.00     0.136 A 
ATOM      8  C   UNL     1      12.764  39.102  89.502  1.00  0.00     0.125 A 
ATOM      9  C   UNL     1      12.993  37.976  88.695  1.00  0.00     0.078 A 
ATOM     10  C   UNL     1      11.915  37.283  88.135  1.00  0.00     0.223 A 
ENDROOT
BRANCH   1  11
ATOM     11  C   UNL     1       9.416  37.079  87.807  1.00  0.00     0.091 A 
ATOM     12  C   UNL     1       8.600  37.723  86.862  1.00  0.00     0.068 A 
ATOM     13  C   UNL     1       7.462  37.083  86.350  1.00  0.00     0.162 A 
ATOM     14  C   UNL     1       9.060  35.799  88.258  1.00  0.00     0.068 A 
ATOM     15  C   UNL     1       7.126  35.796  86.789  1.00  0.00     0.200 A 
ATOM     16  C   UNL     1       7.925  35.153  87.749  1.00  0.00     0.162 A 
BRANCH  13  17
ATOM     17  O   UNL     1       6.659  37.722  85.409  1.00  0.00    -0.504 OA
ATOM     18  H   UNL     1       5.772  38.141  85.664  1.00  0.00     0.293 HD
ENDBRANCH  13  17
BRANCH  15  19
ATOM     19  O   UNL     1       5.993  35.172  86.265  1.00  0.00    -0.502 OA
ATOM     20  H   UNL     1       5.062  35.549  86.394  1.00  0.00     0.293 HD
ENDBRANCH  15  19
BRANCH  16  21
ATOM     21  O   UNL     1       7.589  33.875  88.193  1.00  0.00    -0.504 OA
ATOM     22  H   UNL     1       7.701  33.060  87.601  1.00  0.00     0.293 HD
ENDBRANCH  16  21
ENDBRANCH   1  11
BRANCH  10  23
ATOM     23  O   UNL     1      12.139  36.135  87.375  1.00  0.00    -0.500 OA
ATOM     24  H   UNL     1      11.405  35.718  86.813  1.00  0.00     0.294 HD
ENDBRANCH  10  23
BRANCH   5  25
ATOM     25  O   UNL     1      11.865  42.428  91.919  1.00  0.00    -0.507 OA
ATOM     26  H   UNL     1      12.551  43.155  92.087  1.00  0.00     0.293 HD
ENDBRANCH   5  25
BRANCH   7  27
ATOM     27  O   UNL     1      15.160  39.550  89.945  1.00  0.00    -0.507 OA
ATOM     28  H   UNL     1      15.702  39.779  89.124  1.00  0.00     0.293 HD
ENDBRANCH   7  27
TORSDOF 7
ENDMDL
MODEL 6
REMARK VINA RESULT:    -4.636     11.757     13.764
REMARK INTER + INTRA:          -6.098
REMARK INTER:                  -5.724
REMARK INTRA:                  -0.374
REMARK UNBOUND:                -0.377
REMARK SMILES Oc1cc(O)c2cc(O)c(-c3cc(O)c(O)c(O)c3)[o+]c2c1
REMARK SMILES IDX 10 1 20 2 21 3 22 4 2 5 3 6 4 7 6 8 7 9 8 10 11 11 12 12
REMARK SMILES IDX 13 13 19 14 15 15 17 16 14 17 16 19 18 21 9 23 1 25 5 27
REMARK H PARENT 14 18 16 20 18 22 9 24 1 26 5 28
REMARK Flexibility Score: inf
ROOT
ATOM      1  C   UNL     1      10.543  47.047  94.047  1.00  0.00     0.402 A 
ATOM      2  O   UNL     1      11.062  45.822  94.004  1.00  0.00    -0.202 OA
ATOM      3  C   UNL     1      11.172  45.115  92.884  1.00  0.00     0.368 A 
ATOM      4  C   UNL     1      11.732  43.837  92.939  1.00  0.00     0.162 A 
ATOM      5  C   UNL     1      11.862  43.073  91.775  1.00  0.00     0.128 A 
ATOM      6  C   UNL     1      11.431  43.592  90.551  1.00  0.00     0.093 A 
ATOM      7  C   UNL     1      10.866  44.870  90.469  1.00  0.00     0.136 A 
ATOM      8  C   UNL     1      10.729  45.648  91.649  1.00  0.00     0.125 A 
ATOM      9  C   UNL     1      10.163  46.933  91.664  1.00  0.00     0.078 A 
ATOM     10  C   UNL     1      10.056  47.638  92.867  1.00  0.00     0.223 A 
ENDROOT
BRANCH   1  11
ATOM     11  C   UNL     1      10.485  47.736  95.357  1.00  0.00     0.091 A 
ATOM     12  C   UNL     1      11.582  48.461  95.852  1.00  0.00     0.068 A 
ATOM     13  C   UNL     1      11.514  49.088  97.104  1.00  0.00     0.162 A 
ATOM     14  C   UNL     1       9.330  47.619  96.146  1.00  0.00     0.068 A 
ATOM     15  C   UNL     1      10.350  48.985  97.877  1.00  0.00     0.200 A 
ATOM     16  C   UNL     1       9.255  48.246  97.398  1.00  0.00     0.162 A 
BRANCH  13  17
ATOM     17  O   UNL     1      12.602  49.810  97.590  1.00  0.00    -0.504 OA
ATOM     18  H   UNL     1      12.812  50.744  97.256  1.00  0.00     0.293 HD
ENDBRANCH  13  17
BRANCH  15  19
ATOM     19  O   UNL     1      10.299  49.619  99.119  1.00  0.00    -0.502 OA
ATOM     20  H   UNL     1      10.055  49.123  99.968  1.00  0.00     0.293 HD
ENDBRANCH  15  19
BRANCH  16  21
ATOM     21  O   UNL     1       8.099  48.134  98.168  1.00  0.00    -0.504 OA
ATOM     22  H   UNL     1       7.341  47.517  97.901  1.00  0.00     0.293 HD
ENDBRANCH  16  21
ENDBRANCH   1  11
BRANCH  10  23
ATOM     23  O   UNL     1       9.449  48.894  92.891  1.00  0.00    -0.500 OA
ATOM     24  H   UNL     1       8.473  49.017  92.650  1.00  0.00     0.294 HD
ENDBRANCH  10  23
BRANCH   5  25
ATOM     25  O   UNL     1      12.421  41.798  91.822  1.00  0.00    -0.507 OA
ATOM     26  H   UNL     1      11.889  40.977  91.558  1.00  0.00     0.293 HD
ENDBRANCH   5  25
BRANCH   7  27
ATOM     27  O   UNL     1      10.463  45.316  89.208  1.00  0.00    -0.507 OA
ATOM     28  H   UNL     1      11.041  45.288  88.381  1.00  0.00     0.293 HD
ENDBRANCH   7  27
TORSDOF 7
ENDMDL
MODEL 7
REMARK VINA RESULT:    -4.586     12.341     14.459
REMARK INTER + INTRA:          -6.036
REMARK INTER:                  -5.652
REMARK INTRA:                  -0.384
REMARK UNBOUND:                -0.377
REMARK SMILES Oc1cc(O)c2cc(O)c(-c3cc(O)c(O)c(O)c3)[o+]c2c1
REMARK SMILES IDX 10 1 20 2 21 3 22 4 2 5 3 6 4 7 6 8 7 9 8 10 11 11 12 12
REMARK SMILES IDX 13 13 19 14 15 15 17 16 14 17 16 19 18 21 9 23 1 25 5 27
REMARK H PARENT 14 18 16 20 18 22 9 24 1 26 5 28
REMARK Flexibility Score: inf
ROOT
ATOM      1  C   UNL     1      10.342  47.698  93.782  1.00  0.00     0.402 A 
ATOM      2  O   UNL     1      11.527  48.262  94.002  1.00  0.00    -0.202 OA
ATOM      3  C   UNL     1      11.910  48.713  95.192  1.00  0.00     0.368 A 
ATOM      4  C   UNL     1      13.175  49.289  95.326  1.00  0.00     0.162 A 
ATOM      5  C   UNL     1      13.605  49.769  96.567  1.00  0.00     0.128 A 
ATOM      6  C   UNL     1      12.765  49.670  97.679  1.00  0.00     0.093 A 
ATOM      7  C   UNL     1      11.492  49.096  97.572  1.00  0.00     0.136 A 
ATOM      8  C   UNL     1      11.051  48.611  96.313  1.00  0.00     0.125 A 
ATOM      9  C   UNL     1       9.787  48.034  96.109  1.00  0.00     0.078 A 
ATOM     10  C   UNL     1       9.419  47.582  94.838  1.00  0.00     0.223 A 
ENDROOT
BRANCH   1  11
ATOM     11  C   UNL     1      10.036  47.226  92.412  1.00  0.00     0.091 A 
ATOM     12  C   UNL     1      10.306  45.905  92.015  1.00  0.00     0.068 A 
ATOM     13  C   UNL     1      10.029  45.485  90.706  1.00  0.00     0.162 A 
ATOM     14  C   UNL     1       9.516  48.129  91.471  1.00  0.00     0.068 A 
ATOM     15  C   UNL     1       9.489  46.386  89.780  1.00  0.00     0.200 A 
ATOM     16  C   UNL     1       9.235  47.714  90.162  1.00  0.00     0.162 A 
BRANCH  13  17
ATOM     17  O   UNL     1      10.293  44.173  90.318  1.00  0.00    -0.504 OA
ATOM     18  H   UNL     1      11.184  43.731  90.512  1.00  0.00     0.293 HD
ENDBRANCH  13  17
BRANCH  15  19
ATOM     19  O   UNL     1       9.216  45.949  88.483  1.00  0.00    -0.502 OA
ATOM     20  H   UNL     1       9.947  45.815  87.795  1.00  0.00     0.293 HD
ENDBRANCH  15  19
BRANCH  16  21
ATOM     21  O   UNL     1       8.706  48.616  89.240  1.00  0.00    -0.504 OA
ATOM     22  H   UNL     1       7.873  48.400  88.705  1.00  0.00     0.293 HD
ENDBRANCH  16  21
ENDBRANCH   1  11
BRANCH  10  23
ATOM     23  O   UNL     1       8.146  47.054  94.623  1.00  0.00    -0.500 OA
ATOM     24  H   UNL     1       7.885  46.138  94.969  1.00  0.00     0.294 HD
ENDBRANCH  10  23
BRANCH   5  25
ATOM     25  O   UNL     1      14.866  50.344  96.708  1.00  0.00    -0.507 OA
ATOM     26  H   UNL     1      15.702  49.776  96.786  1.00  0.00     0.293 HD
ENDBRANCH   5  25
BRANCH   7  27
ATOM     27  O   UNL     1      10.716  49.032  98.731  1.00  0.00    -0.507 OA
ATOM     28  H   UNL     1      11.066  48.764  99.639  1.00  0.00     0.293 HD
ENDBRANCH   7  27
TORSDOF 7
ENDMDL
