MODEL 1
REMARK VINA RESULT:    -5.010      0.000      0.000
REMARK INTER + INTRA:          -5.010
REMARK INTER:                  -5.010
REMARK INTRA:                   0.000
REMARK UNBOUND:                 0.000
REMARK SMILES c1ccc2ccccc2c1
REMARK SMILES IDX 2 1 1 2 10 3 9 4 8 5 7 6 6 7 5 8 4 9 3 10
REMARK H PARENT
REMARK Flexibility Score: inf
ROOT
ATOM      1  C   UNL     1     -23.266  94.499 -31.999  1.00  0.00     0.001 A 
ATOM      2  C   UNL     1     -23.387  95.887 -31.888  1.00  0.00     0.001 A 
ATOM      3  C   UNL     1     -23.998  96.453 -30.766  1.00  0.00     0.009 A 
ATOM      4  C   UNL     1     -24.492  95.629 -29.743  1.00  0.00    -0.018 A 
ATOM      5  C   UNL     1     -25.107  96.184 -28.610  1.00  0.00     0.009 A 
ATOM      6  C   UNL     1     -25.595  95.351 -27.598  1.00  0.00     0.001 A 
ATOM      7  C   UNL     1     -25.474  93.964 -27.708  1.00  0.00     0.001 A 
ATOM      8  C   UNL     1     -24.863  93.398 -28.831  1.00  0.00     0.009 A 
ATOM      9  C   UNL     1     -24.369  94.222 -29.854  1.00  0.00    -0.018 A 
ATOM     10  C   UNL     1     -23.754  93.666 -30.987  1.00  0.00     0.009 A 
ENDROOT
TORSDOF 0
ENDMDL
MODEL 2
REMARK VINA RESULT:    -4.986      0.256      4.012
REMARK INTER + INTRA:          -4.986
REMARK INTER:                  -4.986
REMARK INTRA:                   0.000
REMARK UNBOUND:                 0.000
REMARK SMILES c1ccc2ccccc2c1
REMARK SMILES IDX 2 1 1 2 10 3 9 4 8 5 7 6 6 7 5 8 4 9 3 10
REMARK H PARENT
REMARK Flexibility Score: inf
ROOT
ATOM      1  C   UNL     1     -25.482  95.605 -27.718  1.00  0.00     0.001 A 
ATOM      2  C   UNL     1     -25.447  94.209 -27.691  1.00  0.00     0.001 A 
ATOM      3  C   UNL     1     -24.893  93.497 -28.759  1.00  0.00     0.009 A 
ATOM      4  C   UNL     1     -24.369  94.183 -29.865  1.00  0.00    -0.018 A 
ATOM      5  C   UNL     1     -23.810  93.481 -30.945  1.00  0.00     0.009 A 
ATOM      6  C   UNL     1     -23.290  94.178 -32.040  1.00  0.00     0.001 A 
ATOM      7  C   UNL     1     -23.325  95.574 -32.068  1.00  0.00     0.001 A 
ATOM      8  C   UNL     1     -23.879  96.286 -31.000  1.00  0.00     0.009 A 
ATOM      9  C   UNL     1     -24.403  95.600 -29.894  1.00  0.00    -0.018 A 
ATOM     10  C   UNL     1     -24.962  96.301 -28.814  1.00  0.00     0.009 A 
ENDROOT
TORSDOF 0
ENDMDL
MODEL 3
REMARK VINA RESULT:    -4.985      0.244      3.435
REMARK INTER + INTRA:          -4.985
REMARK INTER:                  -4.985
REMARK INTRA:                   0.000
REMARK UNBOUND:                 0.000
REMARK SMILES c1ccc2ccccc2c1
REMARK SMILES IDX 2 1 1 2 10 3 9 4 8 5 7 6 6 7 5 8 4 9 3 10
REMARK H PARENT
REMARK Flexibility Score: inf
ROOT
ATOM      1  C   UNL     1     -25.460  94.169 -27.696  1.00  0.00     0.001 A 
ATOM      2  C   UNL     1     -25.489  95.566 -27.709  1.00  0.00     0.001 A 
ATOM      3  C   UNL     1     -24.956  96.271 -28.792  1.00  0.00     0.009 A 
ATOM      4  C   UNL     1     -24.389  95.578 -29.872  1.00  0.00    -0.018 A 
ATOM      5  C   UNL     1     -23.850  96.273 -30.966  1.00  0.00     0.009 A 
ATOM      6  C   UNL     1     -23.288  95.570 -32.037  1.00  0.00     0.001 A 
ATOM      7  C   UNL     1     -23.259  94.174 -32.023  1.00  0.00     0.001 A 
ATOM      8  C   UNL     1     -23.793  93.469 -30.941  1.00  0.00     0.009 A 
ATOM      9  C   UNL     1     -24.359  94.161 -29.860  1.00  0.00    -0.018 A 
ATOM     10  C   UNL     1     -24.898  93.466 -28.766  1.00  0.00     0.009 A 
ENDROOT
TORSDOF 0
ENDMDL
MODEL 4
REMARK VINA RESULT:    -4.985      0.197      2.086
REMARK INTER + INTRA:          -4.985
REMARK INTER:                  -4.985
REMARK INTRA:                   0.000
REMARK UNBOUND:                 0.000
REMARK SMILES c1ccc2ccccc2c1
REMARK SMILES IDX 2 1 1 2 10 3 9 4 8 5 7 6 6 7 5 8 4 9 3 10
REMARK H PARENT
REMARK Flexibility Score: inf
ROOT
ATOM      1  C   UNL     1     -23.292  95.653 -32.015  1.00  0.00     0.001 A 
ATOM      2  C   UNL     1     -23.274  94.256 -32.047  1.00  0.00     0.001 A 
ATOM      3  C   UNL     1     -23.811  93.521 -30.987  1.00  0.00     0.009 A 
ATOM      4  C   UNL     1     -24.373  94.183 -29.885  1.00  0.00    -0.018 A 
ATOM      5  C   UNL     1     -24.917  93.456 -28.814  1.00  0.00     0.009 A 
ATOM      6  C   UNL     1     -25.474  94.129 -27.722  1.00  0.00     0.001 A 
ATOM      7  C   UNL     1     -25.492  95.525 -27.689  1.00  0.00     0.001 A 
ATOM      8  C   UNL     1     -24.955  96.261 -28.750  1.00  0.00     0.009 A 
ATOM      9  C   UNL     1     -24.393  95.599 -29.852  1.00  0.00    -0.018 A 
ATOM     10  C   UNL     1     -23.849  96.325 -30.923  1.00  0.00     0.009 A 
ENDROOT
TORSDOF 0
ENDMDL
MODEL 5
REMARK VINA RESULT:    -4.780      1.238      3.043
REMARK INTER + INTRA:          -4.780
REMARK INTER:                  -4.780
REMARK INTRA:                   0.000
REMARK UNBOUND:                 0.000
REMARK SMILES c1ccc2ccccc2c1
REMARK SMILES IDX 2 1 1 2 10 3 9 4 8 5 7 6 6 7 5 8 4 9 3 10
REMARK H PARENT
REMARK Flexibility Score: inf
ROOT
ATOM      1  C   UNL     1     -23.622  91.574 -30.288  1.00  0.00     0.001 A 
ATOM      2  C   UNL     1     -24.025  91.524 -28.951  1.00  0.00     0.001 A 
ATOM      3  C   UNL     1     -24.403  92.693 -28.285  1.00  0.00     0.009 A 
ATOM      4  C   UNL     1     -24.379  93.925 -28.958  1.00  0.00    -0.018 A 
ATOM      5  C   UNL     1     -24.756  95.107 -28.302  1.00  0.00     0.009 A 
ATOM      6  C   UNL     1     -24.728  96.327 -28.985  1.00  0.00     0.001 A 
ATOM      7  C   UNL     1     -24.325  96.377 -30.321  1.00  0.00     0.001 A 
ATOM      8  C   UNL     1     -23.948  95.208 -30.987  1.00  0.00     0.009 A 
ATOM      9  C   UNL     1     -23.971  93.976 -30.314  1.00  0.00    -0.018 A 
ATOM     10  C   UNL     1     -23.594  92.794 -30.970  1.00  0.00     0.009 A 
ENDROOT
TORSDOF 0
ENDMDL
MODEL 6
REMARK VINA RESULT:    -4.778      1.256      2.999
REMARK INTER + INTRA:          -4.778
REMARK INTER:                  -4.778
REMARK INTRA:                   0.000
REMARK UNBOUND:                 0.000
REMARK SMILES c1ccc2ccccc2c1
REMARK SMILES IDX 2 1 1 2 10 3 9 4 8 5 7 6 6 7 5 8 4 9 3 10
REMARK H PARENT
REMARK Flexibility Score: inf
ROOT
ATOM      1  C   UNL     1     -24.363  96.343 -30.252  1.00  0.00     0.001 A 
ATOM      2  C   UNL     1     -24.766  96.258 -28.917  1.00  0.00     0.001 A 
ATOM      3  C   UNL     1     -24.774  95.023 -28.262  1.00  0.00     0.009 A 
ATOM      4  C   UNL     1     -24.375  93.862 -28.942  1.00  0.00    -0.018 A 
ATOM      5  C   UNL     1     -24.377  92.616 -28.296  1.00  0.00     0.009 A 
ATOM      6  C   UNL     1     -23.977  91.467 -28.986  1.00  0.00     0.001 A 
ATOM      7  C   UNL     1     -23.574  91.553 -30.321  1.00  0.00     0.001 A 
ATOM      8  C   UNL     1     -23.566  92.788 -30.977  1.00  0.00     0.009 A 
ATOM      9  C   UNL     1     -23.965  93.948 -30.296  1.00  0.00    -0.018 A 
ATOM     10  C   UNL     1     -23.963  95.195 -30.942  1.00  0.00     0.009 A 
ENDROOT
TORSDOF 0
ENDMDL
MODEL 7
REMARK VINA RESULT:    -4.774      1.221      3.009
REMARK INTER + INTRA:          -4.774
REMARK INTER:                  -4.774
REMARK INTRA:                   0.000
REMARK UNBOUND:                 0.000
REMARK SMILES c1ccc2ccccc2c1
REMARK SMILES IDX 2 1 1 2 10 3 9 4 8 5 7 6 6 7 5 8 4 9 3 10
REMARK H PARENT
REMARK Flexibility Score: inf
ROOT
ATOM      1  C   UNL     1     -24.770  96.300 -28.854  1.00  0.00     0.001 A 
ATOM      2  C   UNL     1     -24.360  96.383 -30.187  1.00  0.00     0.001 A 
ATOM      3  C   UNL     1     -23.984  95.230 -30.881  1.00  0.00     0.009 A 
ATOM      4  C   UNL     1     -24.019  93.981 -30.242  1.00  0.00    -0.018 A 
ATOM      5  C   UNL     1     -23.645  92.814 -30.927  1.00  0.00     0.009 A 
ATOM      6  C   UNL     1     -23.684  91.576 -30.278  1.00  0.00     0.001 A 
ATOM      7  C   UNL     1     -24.094  91.493 -28.945  1.00  0.00     0.001 A 
ATOM      8  C   UNL     1     -24.469  92.647 -28.251  1.00  0.00     0.009 A 
ATOM      9  C   UNL     1     -24.435  93.896 -28.890  1.00  0.00    -0.018 A 
ATOM     10  C   UNL     1     -24.809  95.062 -28.205  1.00  0.00     0.009 A 
ENDROOT
TORSDOF 0
ENDMDL
MODEL 8
REMARK VINA RESULT:    -4.770      1.290      3.117
REMARK INTER + INTRA:          -4.770
REMARK INTER:                  -4.770
REMARK INTRA:                   0.000
REMARK UNBOUND:                 0.000
REMARK SMILES c1ccc2ccccc2c1
REMARK SMILES IDX 2 1 1 2 10 3 9 4 8 5 7 6 6 7 5 8 4 9 3 10
REMARK H PARENT
REMARK Flexibility Score: inf
ROOT
ATOM      1  C   UNL     1     -24.006  91.430 -28.894  1.00  0.00     0.001 A 
ATOM      2  C   UNL     1     -23.595  91.486 -30.228  1.00  0.00     0.001 A 
ATOM      3  C   UNL     1     -23.577  92.707 -30.908  1.00  0.00     0.009 A 
ATOM      4  C   UNL     1     -23.971  93.884 -30.253  1.00  0.00    -0.018 A 
ATOM      5  C   UNL     1     -23.957  95.117 -30.924  1.00  0.00     0.009 A 
ATOM      6  C   UNL     1     -24.353  96.282 -30.259  1.00  0.00     0.001 A 
ATOM      7  C   UNL     1     -24.764  96.225 -28.925  1.00  0.00     0.001 A 
ATOM      8  C   UNL     1     -24.782  95.004 -28.245  1.00  0.00     0.009 A 
ATOM      9  C   UNL     1     -24.388  93.828 -28.900  1.00  0.00    -0.018 A 
ATOM     10  C   UNL     1     -24.402  92.595 -28.229  1.00  0.00     0.009 A 
ENDROOT
TORSDOF 0
ENDMDL
MODEL 9
REMARK VINA RESULT:    -4.730     18.100     19.915
REMARK INTER + INTRA:          -4.730
REMARK INTER:                  -4.730
REMARK INTRA:                   0.000
REMARK UNBOUND:                 0.000
REMARK SMILES c1ccc2ccccc2c1
REMARK SMILES IDX 2 1 1 2 10 3 9 4 8 5 7 6 6 7 5 8 4 9 3 10
REMARK H PARENT
REMARK Flexibility Score: inf
ROOT
ATOM      1  C   UNL     1     -35.104  85.063 -18.410  1.00  0.00     0.001 A 
ATOM      2  C   UNL     1     -35.867  84.459 -17.408  1.00  0.00     0.001 A 
ATOM      3  C   UNL     1     -36.709  83.386 -17.714  1.00  0.00     0.009 A 
ATOM      4  C   UNL     1     -36.791  82.909 -19.031  1.00  0.00    -0.018 A 
ATOM      5  C   UNL     1     -37.633  81.832 -19.352  1.00  0.00     0.009 A 
ATOM      6  C   UNL     1     -37.705  81.368 -20.669  1.00  0.00     0.001 A 
ATOM      7  C   UNL     1     -36.943  81.972 -21.672  1.00  0.00     0.001 A 
ATOM      8  C   UNL     1     -36.100  83.045 -21.366  1.00  0.00     0.009 A 
ATOM      9  C   UNL     1     -36.018  83.521 -20.048  1.00  0.00    -0.018 A 
ATOM     10  C   UNL     1     -35.177  84.598 -19.727  1.00  0.00     0.009 A 
ENDROOT
TORSDOF 0
ENDMDL
