MODEL 1
REMARK VINA RESULT:    -4.901      0.000      0.000
REMARK INTER + INTRA:          -5.187
REMARK INTER:                  -5.187
REMARK INTRA:                   0.000
REMARK UNBOUND:                 0.000
REMARK SMILES Cc1cc(O)c(C)c(C)c1O
REMARK SMILES IDX 1 1 2 2 3 3 4 4 6 5 8 6 10 7 9 8 7 9 11 10 5 12
REMARK H PARENT 11 11 5 13
REMARK Flexibility Score: inf
ROOT
ATOM      1  C   UNL     1      37.423  21.700  55.912  1.00  0.00     0.048 C 
ATOM      2  C   UNL     1      38.026  21.028  54.709  1.00  0.00    -0.005 A 
ATOM      3  C   UNL     1      39.360  20.614  54.737  1.00  0.00     0.053 A 
ATOM      4  C   UNL     1      39.952  20.021  53.623  1.00  0.00     0.119 A 
ATOM      5  C   UNL     1      39.205  19.845  52.433  1.00  0.00    -0.003 A 
ATOM      6  C   UNL     1      37.814  20.149  52.437  1.00  0.00    -0.002 A 
ATOM      7  C   UNL     1      37.251  20.807  53.559  1.00  0.00     0.121 A 
ATOM      8  C   UNL     1      36.935  19.792  51.258  1.00  0.00     0.049 C 
ATOM      9  C   UNL     1      39.890  19.325  51.189  1.00  0.00     0.049 C 
ENDROOT
BRANCH   7  10
ATOM     10  O   UNL     1      35.928  21.265  53.557  1.00  0.00    -0.507 OA
ATOM     11  H   UNL     1      35.524  21.811  52.808  1.00  0.00     0.293 HD
ENDBRANCH   7  10
BRANCH   4  12
ATOM     12  O   UNL     1      41.282  19.609  53.740  1.00  0.00    -0.508 OA
ATOM     13  H   UNL     1      42.057  20.245  53.874  1.00  0.00     0.293 HD
ENDBRANCH   4  12
TORSDOF 2
ENDMDL
MODEL 2
REMARK VINA RESULT:    -4.755      1.788      3.854
REMARK INTER + INTRA:          -5.033
REMARK INTER:                  -5.033
REMARK INTRA:                   0.000
REMARK UNBOUND:                 0.000
REMARK SMILES Cc1cc(O)c(C)c(C)c1O
REMARK SMILES IDX 1 1 2 2 3 3 4 4 6 5 8 6 10 7 9 8 7 9 11 10 5 12
REMARK H PARENT 11 11 5 13
REMARK Flexibility Score: inf
ROOT
ATOM      1  C   UNL     1      41.483  21.393  52.807  1.00  0.00     0.048 C 
ATOM      2  C   UNL     1      40.276  20.653  53.314  1.00  0.00    -0.005 A 
ATOM      3  C   UNL     1      39.186  21.363  53.824  1.00  0.00     0.053 A 
ATOM      4  C   UNL     1      38.071  20.698  54.332  1.00  0.00     0.119 A 
ATOM      5  C   UNL     1      38.037  19.283  54.351  1.00  0.00    -0.003 A 
ATOM      6  C   UNL     1      39.085  18.556  53.720  1.00  0.00    -0.002 A 
ATOM      7  C   UNL     1      40.236  19.250  53.267  1.00  0.00     0.121 A 
ATOM      8  C   UNL     1      38.995  17.056  53.538  1.00  0.00     0.049 C 
ATOM      9  C   UNL     1      36.884  18.570  55.024  1.00  0.00     0.049 C 
ENDROOT
BRANCH   7  10
ATOM     10  O   UNL     1      41.360  18.573  52.778  1.00  0.00    -0.507 OA
ATOM     11  H   UNL     1      41.319  17.864  52.058  1.00  0.00     0.293 HD
ENDBRANCH   7  10
BRANCH   4  12
ATOM     12  O   UNL     1      37.011  21.479  54.799  1.00  0.00    -0.508 OA
ATOM     13  H   UNL     1      37.036  21.999  55.667  1.00  0.00     0.293 HD
ENDBRANCH   4  12
TORSDOF 2
ENDMDL
MODEL 3
REMARK VINA RESULT:    -4.716      1.975      2.429
REMARK INTER + INTRA:          -4.992
REMARK INTER:                  -4.992
REMARK INTRA:                   0.000
REMARK UNBOUND:                 0.000
REMARK SMILES Cc1cc(O)c(C)c(C)c1O
REMARK SMILES IDX 1 1 2 2 3 3 4 4 6 5 8 6 10 7 9 8 7 9 11 10 5 12
REMARK H PARENT 11 11 5 13
REMARK Flexibility Score: inf
ROOT
ATOM      1  C   UNL     1      39.643  22.482  53.478  1.00  0.00     0.048 C 
ATOM      2  C   UNL     1      39.503  20.985  53.543  1.00  0.00    -0.005 A 
ATOM      3  C   UNL     1      40.551  20.167  53.113  1.00  0.00     0.053 A 
ATOM      4  C   UNL     1      40.431  18.778  53.131  1.00  0.00     0.119 A 
ATOM      5  C   UNL     1      39.228  18.176  53.574  1.00  0.00    -0.003 A 
ATOM      6  C   UNL     1      38.206  18.997  54.130  1.00  0.00    -0.002 A 
ATOM      7  C   UNL     1      38.325  20.407  54.043  1.00  0.00     0.121 A 
ATOM      8  C   UNL     1      36.993  18.386  54.797  1.00  0.00     0.049 C 
ATOM      9  C   UNL     1      39.057  16.677  53.465  1.00  0.00     0.049 C 
ENDROOT
BRANCH   7  10
ATOM     10  O   UNL     1      37.285  21.259  54.434  1.00  0.00    -0.507 OA
ATOM     11  H   UNL     1      36.310  21.087  54.229  1.00  0.00     0.293 HD
ENDBRANCH   7  10
BRANCH   4  12
ATOM     12  O   UNL     1      41.533  18.029  52.712  1.00  0.00    -0.508 OA
ATOM     13  H   UNL     1      42.379  18.438  52.337  1.00  0.00     0.293 HD
ENDBRANCH   4  12
TORSDOF 2
ENDMDL
MODEL 4
REMARK VINA RESULT:    -4.688      2.172      3.398
REMARK INTER + INTRA:          -4.962
REMARK INTER:                  -4.962
REMARK INTRA:                   0.000
REMARK UNBOUND:                 0.000
REMARK SMILES Cc1cc(O)c(C)c(C)c1O
REMARK SMILES IDX 1 1 2 2 3 3 4 4 6 5 8 6 10 7 9 8 7 9 11 10 5 12
REMARK H PARENT 11 11 5 13
REMARK Flexibility Score: inf
ROOT
ATOM      1  C   UNL     1      41.348  21.643  52.625  1.00  0.00     0.048 C 
ATOM      2  C   UNL     1      40.271  20.841  53.305  1.00  0.00    -0.005 A 
ATOM      3  C   UNL     1      40.234  19.453  53.150  1.00  0.00     0.053 A 
ATOM      4  C   UNL     1      39.227  18.692  53.741  1.00  0.00     0.119 A 
ATOM      5  C   UNL     1      38.211  19.325  54.497  1.00  0.00    -0.003 A 
ATOM      6  C   UNL     1      38.312  20.720  54.763  1.00  0.00    -0.002 A 
ATOM      7  C   UNL     1      39.308  21.482  54.101  1.00  0.00     0.121 A 
ATOM      8  C   UNL     1      37.366  21.401  55.728  1.00  0.00     0.049 C 
ATOM      9  C   UNL     1      37.049  18.510  55.022  1.00  0.00     0.049 C 
ENDROOT
BRANCH   7  10
ATOM     10  O   UNL     1      39.360  22.877  54.205  1.00  0.00    -0.507 OA
ATOM     11  H   UNL     1      38.831  23.409  54.884  1.00  0.00     0.293 HD
ENDBRANCH   7  10
BRANCH   4  12
ATOM     12  O   UNL     1      39.275  17.307  53.564  1.00  0.00    -0.508 OA
ATOM     13  H   UNL     1      38.974  16.839  52.718  1.00  0.00     0.293 HD
ENDBRANCH   4  12
TORSDOF 2
ENDMDL
MODEL 5
REMARK VINA RESULT:    -4.663      5.642      5.942
REMARK INTER + INTRA:          -4.936
REMARK INTER:                  -4.936
REMARK INTRA:                   0.000
REMARK UNBOUND:                 0.000
REMARK SMILES Cc1cc(O)c(C)c(C)c1O
REMARK SMILES IDX 1 1 2 2 3 3 4 4 6 5 8 6 10 7 9 8 7 9 11 10 5 12
REMARK H PARENT 11 11 5 13
REMARK Flexibility Score: inf
ROOT
ATOM      1  C   UNL     1      40.871  27.403  55.298  1.00  0.00     0.048 C 
ATOM      2  C   UNL     1      41.457  26.328  54.423  1.00  0.00    -0.005 A 
ATOM      3  C   UNL     1      42.843  26.222  54.282  1.00  0.00     0.053 A 
ATOM      4  C   UNL     1      43.408  25.257  53.450  1.00  0.00     0.119 A 
ATOM      5  C   UNL     1      42.575  24.376  52.718  1.00  0.00    -0.003 A 
ATOM      6  C   UNL     1      41.171  24.396  52.952  1.00  0.00    -0.002 A 
ATOM      7  C   UNL     1      40.615  25.425  53.753  1.00  0.00     0.121 A 
ATOM      8  C   UNL     1      40.265  23.345  52.348  1.00  0.00     0.049 C 
ATOM      9  C   UNL     1      43.189  23.423  51.717  1.00  0.00     0.049 C 
ENDROOT
BRANCH   7  10
ATOM     10  O   UNL     1      39.231  25.584  53.894  1.00  0.00    -0.507 OA
ATOM     11  H   UNL     1      38.803  26.219  54.554  1.00  0.00     0.293 HD
ENDBRANCH   7  10
BRANCH   4  12
ATOM     12  O   UNL     1      44.802  25.197  53.384  1.00  0.00    -0.508 OA
ATOM     13  H   UNL     1      45.331  25.366  52.538  1.00  0.00     0.293 HD
ENDBRANCH   4  12
TORSDOF 2
ENDMDL
MODEL 6
REMARK VINA RESULT:    -4.585      1.747      1.826
REMARK INTER + INTRA:          -4.853
REMARK INTER:                  -4.853
REMARK INTRA:                   0.000
REMARK UNBOUND:                 0.000
REMARK SMILES Cc1cc(O)c(C)c(C)c1O
REMARK SMILES IDX 1 1 2 2 3 3 4 4 6 5 8 6 10 7 9 8 7 9 11 10 5 12
REMARK H PARENT 11 11 5 13
REMARK Flexibility Score: inf
ROOT
ATOM      1  C   UNL     1      37.253  21.522  55.849  1.00  0.00     0.048 C 
ATOM      2  C   UNL     1      38.162  20.678  54.997  1.00  0.00    -0.005 A 
ATOM      3  C   UNL     1      39.417  21.165  54.624  1.00  0.00     0.053 A 
ATOM      4  C   UNL     1      40.263  20.417  53.806  1.00  0.00     0.119 A 
ATOM      5  C   UNL     1      39.848  19.150  53.328  1.00  0.00    -0.003 A 
ATOM      6  C   UNL     1      38.627  18.595  53.805  1.00  0.00    -0.002 A 
ATOM      7  C   UNL     1      37.757  19.399  54.584  1.00  0.00     0.121 A 
ATOM      8  C   UNL     1      38.240  17.168  53.481  1.00  0.00     0.049 C 
ATOM      9  C   UNL     1      40.713  18.404  52.335  1.00  0.00     0.049 C 
ENDROOT
BRANCH   7  10
ATOM     10  O   UNL     1      36.479  18.960  54.952  1.00  0.00    -0.507 OA
ATOM     11  H   UNL     1      35.771  19.563  55.348  1.00  0.00     0.293 HD
ENDBRANCH   7  10
BRANCH   4  12
ATOM     12  O   UNL     1      41.513  20.960  53.500  1.00  0.00    -0.508 OA
ATOM     13  H   UNL     1      41.720  21.435  52.631  1.00  0.00     0.293 HD
ENDBRANCH   4  12
TORSDOF 2
ENDMDL
MODEL 7
REMARK VINA RESULT:    -4.576      2.541      3.694
REMARK INTER + INTRA:          -4.844
REMARK INTER:                  -4.844
REMARK INTRA:                   0.000
REMARK UNBOUND:                 0.000
REMARK SMILES Cc1cc(O)c(C)c(C)c1O
REMARK SMILES IDX 1 1 2 2 3 3 4 4 6 5 8 6 10 7 9 8 7 9 11 10 5 12
REMARK H PARENT 11 11 5 13
REMARK Flexibility Score: inf
ROOT
ATOM      1  C   UNL     1      37.702  20.986  55.345  1.00  0.00     0.048 C 
ATOM      2  C   UNL     1      37.788  19.711  54.550  1.00  0.00    -0.005 A 
ATOM      3  C   UNL     1      36.619  19.077  54.121  1.00  0.00     0.053 A 
ATOM      4  C   UNL     1      36.672  17.877  53.414  1.00  0.00     0.119 A 
ATOM      5  C   UNL     1      37.922  17.274  53.132  1.00  0.00    -0.003 A 
ATOM      6  C   UNL     1      39.118  17.976  53.454  1.00  0.00    -0.002 A 
ATOM      7  C   UNL     1      39.040  19.162  54.228  1.00  0.00     0.121 A 
ATOM      8  C   UNL     1      40.468  17.469  52.995  1.00  0.00     0.049 C 
ATOM      9  C   UNL     1      37.966  15.908  52.483  1.00  0.00     0.049 C 
ENDROOT
BRANCH   7  10
ATOM     10  O   UNL     1      40.187  19.810  54.702  1.00  0.00    -0.507 OA
ATOM     11  H   UNL     1      40.624  20.592  54.234  1.00  0.00     0.293 HD
ENDBRANCH   7  10
BRANCH   4  12
ATOM     12  O   UNL     1      35.461  17.319  52.996  1.00  0.00    -0.508 OA
ATOM     13  H   UNL     1      34.876  17.722  52.276  1.00  0.00     0.293 HD
ENDBRANCH   4  12
TORSDOF 2
ENDMDL
MODEL 8
REMARK VINA RESULT:    -4.530      2.149      3.787
REMARK INTER + INTRA:          -4.795
REMARK INTER:                  -4.795
REMARK INTRA:                   0.000
REMARK UNBOUND:                 0.000
REMARK SMILES Cc1cc(O)c(C)c(C)c1O
REMARK SMILES IDX 1 1 2 2 3 3 4 4 6 5 8 6 10 7 9 8 7 9 11 10 5 12
REMARK H PARENT 11 11 5 13
REMARK Flexibility Score: inf
ROOT
ATOM      1  C   UNL     1      40.524  18.407  52.108  1.00  0.00     0.048 C 
ATOM      2  C   UNL     1      39.673  19.214  53.051  1.00  0.00    -0.005 A 
ATOM      3  C   UNL     1      39.881  20.590  53.174  1.00  0.00     0.053 A 
ATOM      4  C   UNL     1      39.129  21.352  54.066  1.00  0.00     0.119 A 
ATOM      5  C   UNL     1      38.148  20.732  54.877  1.00  0.00    -0.003 A 
ATOM      6  C   UNL     1      37.845  19.357  54.668  1.00  0.00    -0.002 A 
ATOM      7  C   UNL     1      38.664  18.589  53.802  1.00  0.00     0.121 A 
ATOM      8  C   UNL     1      36.673  18.702  55.366  1.00  0.00     0.049 C 
ATOM      9  C   UNL     1      37.431  21.540  55.936  1.00  0.00     0.049 C 
ENDROOT
BRANCH   7  10
ATOM     10  O   UNL     1      38.507  17.204  53.675  1.00  0.00    -0.507 OA
ATOM     11  H   UNL     1      37.893  16.768  53.000  1.00  0.00     0.293 HD
ENDBRANCH   7  10
BRANCH   4  12
ATOM     12  O   UNL     1      39.377  22.726  54.111  1.00  0.00    -0.508 OA
ATOM     13  H   UNL     1      40.288  23.126  54.292  1.00  0.00     0.293 HD
ENDBRANCH   4  12
TORSDOF 2
ENDMDL
MODEL 9
REMARK VINA RESULT:    -4.398      2.247      2.909
REMARK INTER + INTRA:          -4.655
REMARK INTER:                  -4.655
REMARK INTRA:                   0.000
REMARK UNBOUND:                 0.000
REMARK SMILES Cc1cc(O)c(C)c(C)c1O
REMARK SMILES IDX 1 1 2 2 3 3 4 4 6 5 8 6 10 7 9 8 7 9 11 10 5 12
REMARK H PARENT 11 11 5 13
REMARK Flexibility Score: inf
ROOT
ATOM      1  C   UNL     1      36.608  18.697  55.327  1.00  0.00     0.048 C 
ATOM      2  C   UNL     1      37.792  19.306  54.626  1.00  0.00    -0.005 A 
ATOM      3  C   UNL     1      38.047  20.674  54.748  1.00  0.00     0.053 A 
ATOM      4  C   UNL     1      39.116  21.268  54.080  1.00  0.00     0.119 A 
ATOM      5  C   UNL     1      39.955  20.486  53.249  1.00  0.00    -0.003 A 
ATOM      6  C   UNL     1      39.779  19.073  53.220  1.00  0.00    -0.002 A 
ATOM      7  C   UNL     1      38.648  18.502  53.856  1.00  0.00     0.121 A 
ATOM      8  C   UNL     1      40.771  18.178  52.509  1.00  0.00     0.049 C 
ATOM      9  C   UNL     1      41.030  21.159  52.424  1.00  0.00     0.049 C 
ENDROOT
BRANCH   7  10
ATOM     10  O   UNL     1      38.342  17.141  53.732  1.00  0.00    -0.507 OA
ATOM     11  H   UNL     1      37.799  16.755  52.972  1.00  0.00     0.293 HD
ENDBRANCH   7  10
BRANCH   4  12
ATOM     12  O   UNL     1      39.321  22.636  54.275  1.00  0.00    -0.508 OA
ATOM     13  H   UNL     1      39.226  23.327  53.542  1.00  0.00     0.293 HD
ENDBRANCH   4  12
TORSDOF 2
ENDMDL
