MODEL 1
REMARK VINA RESULT:    -3.918      0.000      0.000
REMARK INTER + INTRA:          -4.792
REMARK INTER:                  -4.490
REMARK INTRA:                  -0.302
REMARK UNBOUND:                -0.302
REMARK SMILES COC(=O)c1ccccc1O
REMARK SMILES IDX 5 1 6 2 7 3 8 4 9 5 10 6 3 7 4 8 2 9 1 10 11 11
REMARK H PARENT 11 12
REMARK Flexibility Score: inf
ROOT
ATOM      1  C   UNL     1       0.830 -14.068   8.959  1.00  0.00     0.101 A 
ATOM      2  C   UNL     1      -0.080 -15.097   8.645  1.00  0.00     0.019 A 
ATOM      3  C   UNL     1       0.256 -16.437   8.859  1.00  0.00     0.001 A 
ATOM      4  C   UNL     1       1.503 -16.770   9.386  1.00  0.00     0.004 A 
ATOM      5  C   UNL     1       2.418 -15.766   9.703  1.00  0.00     0.047 A 
ATOM      6  C   UNL     1       2.094 -14.416   9.493  1.00  0.00     0.130 A 
ENDROOT
BRANCH   1   7
ATOM      7  C   UNL     1       0.445 -12.652   8.722  1.00  0.00     0.341 C 
ATOM      8  O   UNL     1       0.272 -11.875   9.703  1.00  0.00    -0.246 OA
BRANCH   7   9
ATOM      9  O   UNL     1       0.271 -12.169   7.421  1.00  0.00    -0.465 OA
ATOM     10  C   UNL     1       1.360 -11.917   6.541  1.00  0.00     0.282 C 
ENDBRANCH   7   9
ENDBRANCH   1   7
BRANCH   6  11
ATOM     11  O   UNL     1       3.029 -13.432   9.819  1.00  0.00    -0.507 OA
ATOM     12  H   UNL     1       3.886 -13.655  10.310  1.00  0.00     0.293 HD
ENDBRANCH   6  11
TORSDOF 3
ENDMDL
MODEL 2
REMARK VINA RESULT:    -3.798      3.040      4.999
REMARK INTER + INTRA:          -4.655
REMARK INTER:                  -4.402
REMARK INTRA:                  -0.253
REMARK UNBOUND:                -0.302
REMARK SMILES COC(=O)c1ccccc1O
REMARK SMILES IDX 5 1 6 2 7 3 8 4 9 5 10 6 3 7 4 8 2 9 1 10 11 11
REMARK H PARENT 11 12
REMARK Flexibility Score: inf
ROOT
ATOM      1  C   UNL     1       1.764 -15.533  11.039  1.00  0.00     0.101 A 
ATOM      2  C   UNL     1       1.509 -14.178  11.329  1.00  0.00     0.019 A 
ATOM      3  C   UNL     1       0.758 -13.389  10.453  1.00  0.00     0.001 A 
ATOM      4  C   UNL     1       0.253 -13.939   9.276  1.00  0.00     0.004 A 
ATOM      5  C   UNL     1       0.494 -15.278   8.971  1.00  0.00     0.047 A 
ATOM      6  C   UNL     1       1.247 -16.082   9.842  1.00  0.00     0.130 A 
ENDROOT
BRANCH   1   7
ATOM      7  C   UNL     1       2.565 -16.348  11.990  1.00  0.00     0.341 C 
ATOM      8  O   UNL     1       3.778 -16.062  12.196  1.00  0.00    -0.246 OA
BRANCH   7   9
ATOM      9  O   UNL     1       1.988 -17.431  12.660  1.00  0.00    -0.465 OA
ATOM     10  C   UNL     1       1.598 -17.373  14.027  1.00  0.00     0.282 C 
ENDBRANCH   7   9
ENDBRANCH   1   7
BRANCH   6  11
ATOM     11  O   UNL     1       1.473 -17.419   9.510  1.00  0.00    -0.507 OA
ATOM     12  H   UNL     1       2.381 -17.851   9.633  1.00  0.00     0.293 HD
ENDBRANCH   6  11
TORSDOF 3
ENDMDL
MODEL 3
REMARK VINA RESULT:    -3.749      3.012      4.407
REMARK INTER + INTRA:          -4.599
REMARK INTER:                  -4.332
REMARK INTRA:                  -0.267
REMARK UNBOUND:                -0.302
REMARK SMILES COC(=O)c1ccccc1O
REMARK SMILES IDX 5 1 6 2 7 3 8 4 9 5 10 6 3 7 4 8 2 9 1 10 11 11
REMARK H PARENT 11 12
REMARK Flexibility Score: inf
ROOT
ATOM      1  C   UNL     1       1.659 -15.538  10.700  1.00  0.00     0.101 A 
ATOM      2  C   UNL     1       1.333 -14.181  10.896  1.00  0.00     0.019 A 
ATOM      3  C   UNL     1       0.508 -13.507   9.991  1.00  0.00     0.001 A 
ATOM      4  C   UNL     1      -0.002 -14.175   8.879  1.00  0.00     0.004 A 
ATOM      5  C   UNL     1       0.309 -15.518   8.667  1.00  0.00     0.047 A 
ATOM      6  C   UNL     1       1.136 -16.208   9.568  1.00  0.00     0.130 A 
ENDROOT
BRANCH   1   7
ATOM      7  C   UNL     1       2.538 -16.229  11.680  1.00  0.00     0.341 C 
ATOM      8  O   UNL     1       2.049 -17.089  12.466  1.00  0.00    -0.246 OA
BRANCH   7   9
ATOM      9  O   UNL     1       3.904 -15.936  11.741  1.00  0.00    -0.465 OA
ATOM     10  C   UNL     1       4.681 -15.643  10.587  1.00  0.00     0.282 C 
ENDBRANCH   7   9
ENDBRANCH   1   7
BRANCH   6  11
ATOM     11  O   UNL     1       1.431 -17.551   9.331  1.00  0.00    -0.507 OA
ATOM     12  H   UNL     1       2.358 -17.852   9.055  1.00  0.00     0.293 HD
ENDBRANCH   6  11
TORSDOF 3
ENDMDL
MODEL 4
REMARK VINA RESULT:    -3.720      2.390      2.898
REMARK INTER + INTRA:          -4.566
REMARK INTER:                  -4.276
REMARK INTRA:                  -0.289
REMARK UNBOUND:                -0.302
REMARK SMILES COC(=O)c1ccccc1O
REMARK SMILES IDX 5 1 6 2 7 3 8 4 9 5 10 6 3 7 4 8 2 9 1 10 11 11
REMARK H PARENT 11 12
REMARK Flexibility Score: inf
ROOT
ATOM      1  C   UNL     1       1.107 -14.954  10.196  1.00  0.00     0.101 A 
ATOM      2  C   UNL     1       1.116 -14.027  11.257  1.00  0.00     0.019 A 
ATOM      3  C   UNL     1       1.593 -14.392  12.520  1.00  0.00     0.001 A 
ATOM      4  C   UNL     1       2.064 -15.685  12.742  1.00  0.00     0.004 A 
ATOM      5  C   UNL     1       2.063 -16.617  11.705  1.00  0.00     0.047 A 
ATOM      6  C   UNL     1       1.587 -16.265  10.432  1.00  0.00     0.130 A 
ENDROOT
BRANCH   1   7
ATOM      7  C   UNL     1       0.595 -14.538   8.864  1.00  0.00     0.341 C 
ATOM      8  O   UNL     1      -0.263 -15.250   8.270  1.00  0.00    -0.246 OA
BRANCH   7   9
ATOM      9  O   UNL     1       1.056 -13.364   8.259  1.00  0.00    -0.465 OA
ATOM     10  C   UNL     1       0.242 -12.563   7.411  1.00  0.00     0.282 C 
ENDBRANCH   7   9
ENDBRANCH   1   7
BRANCH   6  11
ATOM     11  O   UNL     1       1.597 -17.218   9.413  1.00  0.00    -0.507 OA
ATOM     12  H   UNL     1       1.933 -17.000   8.483  1.00  0.00     0.293 HD
ENDBRANCH   6  11
TORSDOF 3
ENDMDL
MODEL 5
REMARK VINA RESULT:    -3.693      1.761      3.801
REMARK INTER + INTRA:          -4.534
REMARK INTER:                  -4.221
REMARK INTRA:                  -0.314
REMARK UNBOUND:                -0.302
REMARK SMILES COC(=O)c1ccccc1O
REMARK SMILES IDX 5 1 6 2 7 3 8 4 9 5 10 6 3 7 4 8 2 9 1 10 11 11
REMARK H PARENT 11 12
REMARK Flexibility Score: inf
ROOT
ATOM      1  C   UNL     1       2.078 -15.591  10.059  1.00  0.00     0.101 A 
ATOM      2  C   UNL     1       1.259 -16.636   9.588  1.00  0.00     0.019 A 
ATOM      3  C   UNL     1       0.145 -16.365   8.788  1.00  0.00     0.001 A 
ATOM      4  C   UNL     1      -0.169 -15.050   8.448  1.00  0.00     0.004 A 
ATOM      5  C   UNL     1       0.629 -14.001   8.905  1.00  0.00     0.047 A 
ATOM      6  C   UNL     1       1.751 -14.258   9.710  1.00  0.00     0.130 A 
ENDROOT
BRANCH   1   7
ATOM      7  C   UNL     1       3.256 -15.909  10.908  1.00  0.00     0.341 C 
ATOM      8  O   UNL     1       3.089 -16.435  12.044  1.00  0.00    -0.246 OA
BRANCH   7   9
ATOM      9  O   UNL     1       4.552 -15.629  10.460  1.00  0.00    -0.465 OA
ATOM     10  C   UNL     1       5.034 -16.043   9.188  1.00  0.00     0.282 C 
ENDBRANCH   7   9
ENDBRANCH   1   7
BRANCH   6  11
ATOM     11  O   UNL     1       2.531 -13.190  10.153  1.00  0.00    -0.507 OA
ATOM     12  H   UNL     1       2.185 -12.238  10.142  1.00  0.00     0.293 HD
ENDBRANCH   6  11
TORSDOF 3
ENDMDL
MODEL 6
REMARK VINA RESULT:    -3.635      1.925      4.111
REMARK INTER + INTRA:          -4.468
REMARK INTER:                  -4.146
REMARK INTRA:                  -0.322
REMARK UNBOUND:                -0.302
REMARK SMILES COC(=O)c1ccccc1O
REMARK SMILES IDX 5 1 6 2 7 3 8 4 9 5 10 6 3 7 4 8 2 9 1 10 11 11
REMARK H PARENT 11 12
REMARK Flexibility Score: inf
ROOT
ATOM      1  C   UNL     1       1.758 -15.507   9.938  1.00  0.00     0.101 A 
ATOM      2  C   UNL     1       0.811 -16.390   9.381  1.00  0.00     0.019 A 
ATOM      3  C   UNL     1      -0.161 -15.925   8.490  1.00  0.00     0.001 A 
ATOM      4  C   UNL     1      -0.203 -14.576   8.144  1.00  0.00     0.004 A 
ATOM      5  C   UNL     1       0.725 -13.686   8.684  1.00  0.00     0.047 A 
ATOM      6  C   UNL     1       1.707 -14.139   9.581  1.00  0.00     0.130 A 
ENDROOT
BRANCH   1   7
ATOM      7  C   UNL     1       2.780 -16.030  10.882  1.00  0.00     0.341 C 
ATOM      8  O   UNL     1       4.007 -15.848  10.644  1.00  0.00    -0.246 OA
BRANCH   7   9
ATOM      9  O   UNL     1       2.397 -16.724  12.034  1.00  0.00    -0.465 OA
ATOM     10  C   UNL     1       1.878 -16.075  13.188  1.00  0.00     0.282 C 
ENDBRANCH   7   9
ENDBRANCH   1   7
BRANCH   6  11
ATOM     11  O   UNL     1       2.622 -13.226  10.106  1.00  0.00    -0.507 OA
ATOM     12  H   UNL     1       3.587 -13.480  10.279  1.00  0.00     0.293 HD
ENDBRANCH   6  11
TORSDOF 3
ENDMDL
MODEL 7
REMARK VINA RESULT:    -3.617      1.927      2.510
REMARK INTER + INTRA:          -4.448
REMARK INTER:                  -4.138
REMARK INTRA:                  -0.310
REMARK UNBOUND:                -0.302
REMARK SMILES COC(=O)c1ccccc1O
REMARK SMILES IDX 5 1 6 2 7 3 8 4 9 5 10 6 3 7 4 8 2 9 1 10 11 11
REMARK H PARENT 11 12
REMARK Flexibility Score: inf
ROOT
ATOM      1  C   UNL     1       2.149 -14.487   9.591  1.00  0.00     0.101 A 
ATOM      2  C   UNL     1       0.872 -14.126   9.117  1.00  0.00     0.019 A 
ATOM      3  C   UNL     1      -0.055 -15.104   8.747  1.00  0.00     0.001 A 
ATOM      4  C   UNL     1       0.277 -16.454   8.843  1.00  0.00     0.004 A 
ATOM      5  C   UNL     1       1.536 -16.832   9.310  1.00  0.00     0.047 A 
ATOM      6  C   UNL     1       2.478 -15.860   9.685  1.00  0.00     0.130 A 
ENDROOT
BRANCH   1   7
ATOM      7  C   UNL     1       3.114 -13.424   9.979  1.00  0.00     0.341 C 
ATOM      8  O   UNL     1       3.478 -13.315  11.183  1.00  0.00    -0.246 OA
BRANCH   7   9
ATOM      9  O   UNL     1       3.623 -12.542   9.020  1.00  0.00    -0.465 OA
ATOM     10  C   UNL     1       4.143 -12.978   7.770  1.00  0.00     0.282 C 
ENDBRANCH   7   9
ENDBRANCH   1   7
BRANCH   6  11
ATOM     11  O   UNL     1       3.730 -16.267  10.148  1.00  0.00    -0.507 OA
ATOM     12  H   UNL     1       3.865 -17.165  10.597  1.00  0.00     0.293 HD
ENDBRANCH   6  11
TORSDOF 3
ENDMDL
MODEL 8
REMARK VINA RESULT:    -3.557      1.241      2.486
REMARK INTER + INTRA:          -4.378
REMARK INTER:                  -4.021
REMARK INTRA:                  -0.357
REMARK UNBOUND:                -0.302
REMARK SMILES COC(=O)c1ccccc1O
REMARK SMILES IDX 5 1 6 2 7 3 8 4 9 5 10 6 3 7 4 8 2 9 1 10 11 11
REMARK H PARENT 11 12
REMARK Flexibility Score: inf
ROOT
ATOM      1  C   UNL     1       1.853 -14.070   9.296  1.00  0.00     0.101 A 
ATOM      2  C   UNL     1       2.212 -15.329   9.818  1.00  0.00     0.019 A 
ATOM      3  C   UNL     1       1.399 -16.447   9.607  1.00  0.00     0.001 A 
ATOM      4  C   UNL     1       0.219 -16.325   8.875  1.00  0.00     0.004 A 
ATOM      5  C   UNL     1      -0.153 -15.087   8.351  1.00  0.00     0.047 A 
ATOM      6  C   UNL     1       0.653 -13.956   8.555  1.00  0.00     0.130 A 
ENDROOT
BRANCH   1   7
ATOM      7  C   UNL     1       2.737 -12.899   9.536  1.00  0.00     0.341 C 
ATOM      8  O   UNL     1       3.187 -12.678  10.695  1.00  0.00    -0.246 OA
BRANCH   7   9
ATOM      9  O   UNL     1       3.075 -12.036   8.488  1.00  0.00    -0.465 OA
ATOM     10  C   UNL     1       3.914 -12.427   7.408  1.00  0.00     0.282 C 
ENDBRANCH   7   9
ENDBRANCH   1   7
BRANCH   6  11
ATOM     11  O   UNL     1       0.256 -12.731   8.019  1.00  0.00    -0.507 OA
ATOM     12  H   UNL     1      -0.690 -12.384   8.127  1.00  0.00     0.293 HD
ENDBRANCH   6  11
TORSDOF 3
ENDMDL
MODEL 9
REMARK VINA RESULT:    -3.503      1.792      3.595
REMARK INTER + INTRA:          -4.317
REMARK INTER:                  -4.040
REMARK INTRA:                  -0.278
REMARK UNBOUND:                -0.302
REMARK SMILES COC(=O)c1ccccc1O
REMARK SMILES IDX 5 1 6 2 7 3 8 4 9 5 10 6 3 7 4 8 2 9 1 10 11 11
REMARK H PARENT 11 12
REMARK Flexibility Score: inf
ROOT
ATOM      1  C   UNL     1       1.519 -13.489   8.787  1.00  0.00     0.101 A 
ATOM      2  C   UNL     1       0.558 -12.945   7.912  1.00  0.00     0.019 A 
ATOM      3  C   UNL     1       0.946 -12.154   6.827  1.00  0.00     0.001 A 
ATOM      4  C   UNL     1       2.297 -11.894   6.599  1.00  0.00     0.004 A 
ATOM      5  C   UNL     1       3.264 -12.424   7.454  1.00  0.00     0.047 A 
ATOM      6  C   UNL     1       2.888 -13.219   8.548  1.00  0.00     0.130 A 
ENDROOT
BRANCH   1   7
ATOM      7  C   UNL     1       1.076 -14.327   9.932  1.00  0.00     0.341 C 
ATOM      8  O   UNL     1       1.131 -13.865  11.107  1.00  0.00    -0.246 OA
BRANCH   7   9
ATOM      9  O   UNL     1       0.599 -15.625   9.722  1.00  0.00    -0.465 OA
ATOM     10  C   UNL     1       1.450 -16.712   9.382  1.00  0.00     0.282 C 
ENDBRANCH   7   9
ENDBRANCH   1   7
BRANCH   6  11
ATOM     11  O   UNL     1       3.876 -13.736   9.387  1.00  0.00    -0.507 OA
ATOM     12  H   UNL     1       3.786 -14.648   9.818  1.00  0.00     0.293 HD
ENDBRANCH   6  11
TORSDOF 3
ENDMDL
