MODEL 1
REMARK VINA RESULT:    -3.648      0.000      0.000
REMARK INTER + INTRA:          -5.037
REMARK INTER:                  -4.927
REMARK INTRA:                  -0.109
REMARK UNBOUND:                -0.109
REMARK SMILES [NH3+]CCCC[C@H]([NH3+])C(=O)[O-]
REMARK SMILES IDX 4 1 3 2 2 3 1 4 5 8 6 9 7 10 8 14 9 15 10 16
REMARK H PARENT 1 5 1 6 1 7 7 11 7 12 7 13
REMARK Flexibility Score: inf
ROOT
ATOM      1  C   UNL     1      28.930   5.808  26.308  1.00  0.00     0.012 C 
ENDROOT
BRANCH   1   2
ATOM      2  C   UNL     1      27.556   5.144  26.157  1.00  0.00     0.061 C 
BRANCH   2   3
ATOM      3  C   UNL     1      26.791   5.722  24.959  1.00  0.00     0.258 C 
BRANCH   3   4
ATOM      4  N   UNL     1      25.445   5.156  24.875  1.00  0.00    -0.358 N 
ATOM      5  H   UNL     1      24.872   5.733  24.218  1.00  0.00     0.344 HD
ATOM      6  H   UNL     1      24.992   5.166  25.818  1.00  0.00     0.344 HD
ATOM      7  H   UNL     1      25.489   4.175  24.514  1.00  0.00     0.344 HD
ENDBRANCH   3   4
ENDBRANCH   2   3
ENDBRANCH   1   2
BRANCH   1   8
ATOM      8  C   UNL     1      28.867   6.979  27.305  1.00  0.00     0.072 C 
BRANCH   8   9
ATOM      9  C   UNL     1      27.559   7.044  28.127  1.00  0.00     0.227 C 
BRANCH   9  10
ATOM     10  N   UNL     1      26.704   8.167  27.717  1.00  0.00    -0.350 N 
ATOM     11  H   UNL     1      27.050   9.048  28.164  1.00  0.00     0.345 HD
ATOM     12  H   UNL     1      26.710   8.293  26.680  1.00  0.00     0.345 HD
ATOM     13  H   UNL     1      25.722   8.003  28.039  1.00  0.00     0.345 HD
ENDBRANCH   9  10
BRANCH   9  14
ATOM     14  C   UNL     1      27.837   7.079  29.609  1.00  0.00     0.099 C 
ATOM     15  O   UNL     1      28.977   6.761  30.039  1.00  0.00    -0.544 OA
ATOM     16  O   UNL     1      26.865   7.506  30.505  1.00  0.00    -0.544 OA
ENDBRANCH   9  14
ENDBRANCH   8   9
ENDBRANCH   1   8
TORSDOF 7
ENDMDL
MODEL 2
REMARK VINA RESULT:    -3.593      1.762      1.997
REMARK INTER + INTRA:          -4.963
REMARK INTER:                  -4.399
REMARK INTRA:                  -0.564
REMARK UNBOUND:                -0.109
REMARK SMILES [NH3+]CCCC[C@H]([NH3+])C(=O)[O-]
REMARK SMILES IDX 4 1 3 2 2 3 1 4 5 8 6 9 7 10 8 14 9 15 10 16
REMARK H PARENT 1 5 1 6 1 7 7 11 7 12 7 13
REMARK Flexibility Score: inf
ROOT
ATOM      1  C   UNL     1      29.396   6.247  27.196  1.00  0.00     0.012 C 
ENDROOT
BRANCH   1   2
ATOM      2  C   UNL     1      28.709   6.072  25.836  1.00  0.00     0.061 C 
BRANCH   2   3
ATOM      3  C   UNL     1      27.401   5.282  25.975  1.00  0.00     0.258 C 
BRANCH   3   4
ATOM      4  N   UNL     1      26.250   6.110  25.613  1.00  0.00    -0.358 N 
ATOM      5  H   UNL     1      25.395   5.728  26.079  1.00  0.00     0.344 HD
ATOM      6  H   UNL     1      26.107   6.094  24.577  1.00  0.00     0.344 HD
ATOM      7  H   UNL     1      26.400   7.094  25.935  1.00  0.00     0.344 HD
ENDBRANCH   3   4
ENDBRANCH   2   3
ENDBRANCH   1   2
BRANCH   1   8
ATOM      8  C   UNL     1      29.064   7.620  27.805  1.00  0.00     0.072 C 
BRANCH   8   9
ATOM      9  C   UNL     1      28.040   7.572  28.963  1.00  0.00     0.227 C 
BRANCH   9  10
ATOM     10  N   UNL     1      27.730   6.194  29.368  1.00  0.00    -0.350 N 
ATOM     11  H   UNL     1      28.354   5.531  28.853  1.00  0.00     0.345 HD
ATOM     12  H   UNL     1      27.869   6.056  30.395  1.00  0.00     0.345 HD
ATOM     13  H   UNL     1      26.738   5.966  29.122  1.00  0.00     0.345 HD
ENDBRANCH   9  10
BRANCH   9  14
ATOM     14  C   UNL     1      26.787   8.340  28.626  1.00  0.00     0.099 C 
ATOM     15  O   UNL     1      26.546   8.653  27.430  1.00  0.00    -0.544 OA
ATOM     16  O   UNL     1      25.865   8.667  29.614  1.00  0.00    -0.544 OA
ENDBRANCH   9  14
ENDBRANCH   8   9
ENDBRANCH   1   8
TORSDOF 7
ENDMDL
MODEL 3
REMARK VINA RESULT:    -3.419     14.383     15.303
REMARK INTER + INTRA:          -4.727
REMARK INTER:                  -4.239
REMARK INTRA:                  -0.489
REMARK UNBOUND:                -0.109
REMARK SMILES [NH3+]CCCC[C@H]([NH3+])C(=O)[O-]
REMARK SMILES IDX 4 1 3 2 2 3 1 4 5 8 6 9 7 10 8 14 9 15 10 16
REMARK H PARENT 1 5 1 6 1 7 7 11 7 12 7 13
REMARK Flexibility Score: inf
ROOT
ATOM      1  C   UNL     1      14.200   8.946  32.426  1.00  0.00     0.012 C 
ENDROOT
BRANCH   1   2
ATOM      2  C   UNL     1      12.686   8.711  32.424  1.00  0.00     0.061 C 
BRANCH   2   3
ATOM      3  C   UNL     1      11.920  10.031  32.259  1.00  0.00     0.258 C 
BRANCH   3   4
ATOM      4  N   UNL     1      11.248  10.405  33.503  1.00  0.00    -0.358 N 
ATOM      5  H   UNL     1      11.162   9.559  34.112  1.00  0.00     0.344 HD
ATOM      6  H   UNL     1      10.291  10.773  33.298  1.00  0.00     0.344 HD
ATOM      7  H   UNL     1      11.805  11.131  34.010  1.00  0.00     0.344 HD
ENDBRANCH   3   4
ENDBRANCH   2   3
ENDBRANCH   1   2
BRANCH   1   8
ATOM      8  C   UNL     1      14.525  10.434  32.205  1.00  0.00     0.072 C 
BRANCH   8   9
ATOM      9  C   UNL     1      15.364  11.077  33.334  1.00  0.00     0.227 C 
BRANCH   9  10
ATOM     10  N   UNL     1      16.800  10.805  33.177  1.00  0.00    -0.350 N 
ATOM     11  H   UNL     1      17.051  10.837  32.162  1.00  0.00     0.345 HD
ATOM     12  H   UNL     1      17.380  11.508  33.689  1.00  0.00     0.345 HD
ATOM     13  H   UNL     1      17.022   9.848  33.538  1.00  0.00     0.345 HD
ENDBRANCH   9  10
BRANCH   9  14
ATOM     14  C   UNL     1      14.872  10.657  34.696  1.00  0.00     0.099 C 
ATOM     15  O   UNL     1      13.791  11.123  35.143  1.00  0.00    -0.544 OA
ATOM     16  O   UNL     1      15.574   9.723  35.450  1.00  0.00    -0.544 OA
ENDBRANCH   9  14
ENDBRANCH   8   9
ENDBRANCH   1   8
TORSDOF 7
ENDMDL
MODEL 4
REMARK VINA RESULT:    -3.370      2.306      4.109
REMARK INTER + INTRA:          -4.662
REMARK INTER:                  -4.079
REMARK INTRA:                  -0.583
REMARK UNBOUND:                -0.109
REMARK SMILES [NH3+]CCCC[C@H]([NH3+])C(=O)[O-]
REMARK SMILES IDX 4 1 3 2 2 3 1 4 5 8 6 9 7 10 8 14 9 15 10 16
REMARK H PARENT 1 5 1 6 1 7 7 11 7 12 7 13
REMARK Flexibility Score: inf
ROOT
ATOM      1  C   UNL     1      26.448   9.184  28.089  1.00  0.00     0.012 C 
ENDROOT
BRANCH   1   2
ATOM      2  C   UNL     1      26.451   9.138  29.622  1.00  0.00     0.061 C 
BRANCH   2   3
ATOM      3  C   UNL     1      26.219   7.710  30.133  1.00  0.00     0.258 C 
BRANCH   3   4
ATOM      4  N   UNL     1      27.478   7.094  30.552  1.00  0.00    -0.358 N 
ATOM      5  H   UNL     1      27.802   7.546  31.437  1.00  0.00     0.344 HD
ATOM      6  H   UNL     1      28.208   7.231  29.815  1.00  0.00     0.344 HD
ATOM      7  H   UNL     1      27.338   6.071  30.725  1.00  0.00     0.344 HD
ENDBRANCH   3   4
ENDBRANCH   2   3
ENDBRANCH   1   2
BRANCH   1   8
ATOM      8  C   UNL     1      27.883   9.124  27.536  1.00  0.00     0.072 C 
BRANCH   8   9
ATOM      9  C   UNL     1      28.232   7.801  26.815  1.00  0.00     0.227 C 
BRANCH   9  10
ATOM     10  N   UNL     1      27.075   6.901  26.721  1.00  0.00    -0.350 N 
ATOM     11  H   UNL     1      26.646   6.985  25.771  1.00  0.00     0.345 HD
ATOM     12  H   UNL     1      27.350   5.906  26.878  1.00  0.00     0.345 HD
ATOM     13  H   UNL     1      26.353   7.175  27.429  1.00  0.00     0.345 HD
ENDBRANCH   9  10
BRANCH   9  14
ATOM     14  C   UNL     1      29.410   7.114  27.459  1.00  0.00     0.099 C 
ATOM     15  O   UNL     1      29.667   7.319  28.674  1.00  0.00    -0.544 OA
ATOM     16  O   UNL     1      30.192   6.218  26.738  1.00  0.00    -0.544 OA
ENDBRANCH   9  14
ENDBRANCH   8   9
ENDBRANCH   1   8
TORSDOF 7
ENDMDL
MODEL 5
REMARK VINA RESULT:    -3.361      2.469      4.011
REMARK INTER + INTRA:          -4.650
REMARK INTER:                  -4.395
REMARK INTRA:                  -0.255
REMARK UNBOUND:                -0.109
REMARK SMILES [NH3+]CCCC[C@H]([NH3+])C(=O)[O-]
REMARK SMILES IDX 4 1 3 2 2 3 1 4 5 8 6 9 7 10 8 14 9 15 10 16
REMARK H PARENT 1 5 1 6 1 7 7 11 7 12 7 13
REMARK Flexibility Score: inf
ROOT
ATOM      1  C   UNL     1      27.863   6.920  29.192  1.00  0.00     0.012 C 
ENDROOT
BRANCH   1   2
ATOM      2  C   UNL     1      26.698   7.522  29.986  1.00  0.00     0.061 C 
BRANCH   2   3
ATOM      3  C   UNL     1      26.445   8.980  29.578  1.00  0.00     0.258 C 
BRANCH   3   4
ATOM      4  N   UNL     1      25.012   9.276  29.560  1.00  0.00    -0.358 N 
ATOM      5  H   UNL     1      24.573   8.894  30.428  1.00  0.00     0.344 HD
ATOM      6  H   UNL     1      24.563   8.828  28.728  1.00  0.00     0.344 HD
ATOM      7  H   UNL     1      24.859  10.311  29.529  1.00  0.00     0.344 HD
ENDBRANCH   3   4
ENDBRANCH   2   3
ENDBRANCH   1   2
BRANCH   1   8
ATOM      8  C   UNL     1      28.323   7.879  28.080  1.00  0.00     0.072 C 
BRANCH   8   9
ATOM      9  C   UNL     1      28.080   7.354  26.646  1.00  0.00     0.227 C 
BRANCH   9  10
ATOM     10  N   UNL     1      26.667   7.446  26.256  1.00  0.00    -0.350 N 
ATOM     11  H   UNL     1      26.068   7.067  27.026  1.00  0.00     0.345 HD
ATOM     12  H   UNL     1      26.385   8.435  26.069  1.00  0.00     0.345 HD
ATOM     13  H   UNL     1      26.496   6.871  25.398  1.00  0.00     0.345 HD
ENDBRANCH   9  10
BRANCH   9  14
ATOM     14  C   UNL     1      28.606   5.951  26.475  1.00  0.00     0.099 C 
ATOM     15  O   UNL     1      29.848   5.741  26.491  1.00  0.00    -0.544 OA
ATOM     16  O   UNL     1      27.735   4.875  26.345  1.00  0.00    -0.544 OA
ENDBRANCH   9  14
ENDBRANCH   8   9
ENDBRANCH   1   8
TORSDOF 7
ENDMDL
MODEL 6
REMARK VINA RESULT:    -3.271      2.192      3.701
REMARK INTER + INTRA:          -4.527
REMARK INTER:                  -4.026
REMARK INTRA:                  -0.501
REMARK UNBOUND:                -0.109
REMARK SMILES [NH3+]CCCC[C@H]([NH3+])C(=O)[O-]
REMARK SMILES IDX 4 1 3 2 2 3 1 4 5 8 6 9 7 10 8 14 9 15 10 16
REMARK H PARENT 1 5 1 6 1 7 7 11 7 12 7 13
REMARK Flexibility Score: inf
ROOT
ATOM      1  C   UNL     1      30.374   6.253  26.849  1.00  0.00     0.012 C 
ENDROOT
BRANCH   1   2
ATOM      2  C   UNL     1      30.851   7.709  26.793  1.00  0.00     0.061 C 
BRANCH   2   3
ATOM      3  C   UNL     1      30.830   8.352  28.187  1.00  0.00     0.258 C 
BRANCH   3   4
ATOM      4  N   UNL     1      30.713   7.334  29.231  1.00  0.00    -0.358 N 
ATOM      5  H   UNL     1      30.518   6.408  28.785  1.00  0.00     0.344 HD
ATOM      6  H   UNL     1      29.925   7.571  29.877  1.00  0.00     0.344 HD
ATOM      7  H   UNL     1      31.607   7.269  29.771  1.00  0.00     0.344 HD
ENDBRANCH   3   4
ENDBRANCH   2   3
ENDBRANCH   1   2
BRANCH   1   8
ATOM      8  C   UNL     1      29.108   6.057  25.998  1.00  0.00     0.072 C 
BRANCH   8   9
ATOM      9  C   UNL     1      27.858   5.633  26.804  1.00  0.00     0.227 C 
BRANCH   9  10
ATOM     10  N   UNL     1      26.686   5.433  25.941  1.00  0.00    -0.350 N 
ATOM     11  H   UNL     1      26.776   6.033  25.089  1.00  0.00     0.345 HD
ATOM     12  H   UNL     1      26.597   4.436  25.642  1.00  0.00     0.345 HD
ATOM     13  H   UNL     1      25.817   5.719  26.450  1.00  0.00     0.345 HD
ENDBRANCH   9  10
BRANCH   9  14
ATOM     14  C   UNL     1      27.561   6.608  27.916  1.00  0.00     0.099 C 
ATOM     15  O   UNL     1      27.709   6.253  29.115  1.00  0.00    -0.544 OA
ATOM     16  O   UNL     1      27.170   7.911  27.634  1.00  0.00    -0.544 OA
ENDBRANCH   9  14
ENDBRANCH   8   9
ENDBRANCH   1   8
TORSDOF 7
ENDMDL
MODEL 7
REMARK VINA RESULT:    -3.249      2.274      3.779
REMARK INTER + INTRA:          -4.498
REMARK INTER:                  -4.027
REMARK INTRA:                  -0.471
REMARK UNBOUND:                -0.109
REMARK SMILES [NH3+]CCCC[C@H]([NH3+])C(=O)[O-]
REMARK SMILES IDX 4 1 3 2 2 3 1 4 5 8 6 9 7 10 8 14 9 15 10 16
REMARK H PARENT 1 5 1 6 1 7 7 11 7 12 7 13
REMARK Flexibility Score: inf
ROOT
ATOM      1  C   UNL     1      28.103   9.653  27.545  1.00  0.00     0.012 C 
ENDROOT
BRANCH   1   2
ATOM      2  C   UNL     1      27.136  10.454  28.425  1.00  0.00     0.061 C 
BRANCH   2   3
ATOM      3  C   UNL     1      25.895   9.624  28.781  1.00  0.00     0.258 C 
BRANCH   3   4
ATOM      4  N   UNL     1      25.939   9.189  30.177  1.00  0.00    -0.358 N 
ATOM      5  H   UNL     1      26.208  10.000  30.779  1.00  0.00     0.344 HD
ATOM      6  H   UNL     1      26.650   8.430  30.294  1.00  0.00     0.344 HD
ATOM      7  H   UNL     1      24.998   8.842  30.475  1.00  0.00     0.344 HD
ENDBRANCH   3   4
ENDBRANCH   2   3
ENDBRANCH   1   2
BRANCH   1   8
ATOM      8  C   UNL     1      27.430   8.377  27.011  1.00  0.00     0.072 C 
BRANCH   8   9
ATOM      9  C   UNL     1      28.189   7.071  27.343  1.00  0.00     0.227 C 
BRANCH   9  10
ATOM     10  N   UNL     1      27.359   5.879  27.121  1.00  0.00    -0.350 N 
ATOM     11  H   UNL     1      27.805   5.275  26.393  1.00  0.00     0.345 HD
ATOM     12  H   UNL     1      27.249   5.321  27.998  1.00  0.00     0.345 HD
ATOM     13  H   UNL     1      26.413   6.163  26.773  1.00  0.00     0.345 HD
ENDBRANCH   9  10
BRANCH   9  14
ATOM     14  C   UNL     1      28.749   7.097  28.742  1.00  0.00     0.099 C 
ATOM     15  O   UNL     1      29.984   7.269  28.920  1.00  0.00    -0.544 OA
ATOM     16  O   UNL     1      27.912   6.981  29.846  1.00  0.00    -0.544 OA
ENDBRANCH   9  14
ENDBRANCH   8   9
ENDBRANCH   1   8
TORSDOF 7
ENDMDL
MODEL 8
REMARK VINA RESULT:    -3.136      2.377      3.838
REMARK INTER + INTRA:          -4.345
REMARK INTER:                  -3.859
REMARK INTRA:                  -0.486
REMARK UNBOUND:                -0.109
REMARK SMILES [NH3+]CCCC[C@H]([NH3+])C(=O)[O-]
REMARK SMILES IDX 4 1 3 2 2 3 1 4 5 8 6 9 7 10 8 14 9 15 10 16
REMARK H PARENT 1 5 1 6 1 7 7 11 7 12 7 13
REMARK Flexibility Score: inf
ROOT
ATOM      1  C   UNL     1      29.876   7.747  27.452  1.00  0.00     0.012 C 
ENDROOT
BRANCH   1   2
ATOM      2  C   UNL     1      30.506   9.121  27.714  1.00  0.00     0.061 C 
BRANCH   2   3
ATOM      3  C   UNL     1      29.724  10.233  27.001  1.00  0.00     0.258 C 
BRANCH   3   4
ATOM      4  N   UNL     1      28.977  11.045  27.961  1.00  0.00    -0.358 N 
ATOM      5  H   UNL     1      28.625  10.429  28.729  1.00  0.00     0.344 HD
ATOM      6  H   UNL     1      28.160  11.498  27.490  1.00  0.00     0.344 HD
ATOM      7  H   UNL     1      29.599  11.778  28.374  1.00  0.00     0.344 HD
ENDBRANCH   3   4
ENDBRANCH   2   3
ENDBRANCH   1   2
BRANCH   1   8
ATOM      8  C   UNL     1      29.215   7.195  28.727  1.00  0.00     0.072 C 
BRANCH   8   9
ATOM      9  C   UNL     1      27.712   6.863  28.573  1.00  0.00     0.227 C 
BRANCH   9  10
ATOM     10  N   UNL     1      27.375   6.455  27.202  1.00  0.00    -0.350 N 
ATOM     11  H   UNL     1      27.534   5.427  27.096  1.00  0.00     0.345 HD
ATOM     12  H   UNL     1      26.377   6.665  26.975  1.00  0.00     0.345 HD
ATOM     13  H   UNL     1      27.995   6.952  26.520  1.00  0.00     0.345 HD
ENDBRANCH   9  10
BRANCH   9  14
ATOM     14  C   UNL     1      26.843   8.006  29.034  1.00  0.00     0.099 C 
ATOM     15  O   UNL     1      26.355   7.992  30.195  1.00  0.00    -0.544 OA
ATOM     16  O   UNL     1      26.611   9.101  28.210  1.00  0.00    -0.544 OA
ENDBRANCH   9  14
ENDBRANCH   8   9
ENDBRANCH   1   8
TORSDOF 7
ENDMDL
MODEL 9
REMARK VINA RESULT:    -3.054      3.357      4.300
REMARK INTER + INTRA:          -4.235
REMARK INTER:                  -3.748
REMARK INTRA:                  -0.487
REMARK UNBOUND:                -0.109
REMARK SMILES [NH3+]CCCC[C@H]([NH3+])C(=O)[O-]
REMARK SMILES IDX 4 1 3 2 2 3 1 4 5 8 6 9 7 10 8 14 9 15 10 16
REMARK H PARENT 1 5 1 6 1 7 7 11 7 12 7 13
REMARK Flexibility Score: inf
ROOT
ATOM      1  C   UNL     1      27.291   7.320  29.777  1.00  0.00     0.012 C 
ENDROOT
BRANCH   1   2
ATOM      2  C   UNL     1      26.198   8.393  29.848  1.00  0.00     0.061 C 
BRANCH   2   3
ATOM      3  C   UNL     1      26.177   9.246  28.572  1.00  0.00     0.258 C 
BRANCH   3   4
ATOM      4  N   UNL     1      26.936  10.482  28.756  1.00  0.00    -0.358 N 
ATOM      5  H   UNL     1      26.379  11.284  28.382  1.00  0.00     0.344 HD
ATOM      6  H   UNL     1      27.842  10.428  28.237  1.00  0.00     0.344 HD
ATOM      7  H   UNL     1      27.120  10.643  29.773  1.00  0.00     0.344 HD
ENDBRANCH   3   4
ENDBRANCH   2   3
ENDBRANCH   1   2
BRANCH   1   8
ATOM      8  C   UNL     1      27.615   6.962  28.316  1.00  0.00     0.072 C 
BRANCH   8   9
ATOM      9  C   UNL     1      29.116   7.055  27.956  1.00  0.00     0.227 C 
BRANCH   9  10
ATOM     10  N   UNL     1      29.954   7.288  29.140  1.00  0.00    -0.350 N 
ATOM     11  H   UNL     1      30.535   8.145  28.993  1.00  0.00     0.345 HD
ATOM     12  H   UNL     1      29.374   7.420  30.000  1.00  0.00     0.345 HD
ATOM     13  H   UNL     1      30.601   6.477  29.283  1.00  0.00     0.345 HD
ENDBRANCH   9  10
BRANCH   9  14
ATOM     14  C   UNL     1      29.367   8.096  26.894  1.00  0.00     0.099 C 
ATOM     15  O   UNL     1      29.498   7.745  25.692  1.00  0.00    -0.544 OA
ATOM     16  O   UNL     1      29.409   9.447  27.217  1.00  0.00    -0.544 OA
ENDBRANCH   9  14
ENDBRANCH   8   9
ENDBRANCH   1   8
TORSDOF 7
ENDMDL
