MODEL 1
REMARK VINA RESULT:    -3.280      0.000      0.000
REMARK INTER + INTRA:          -2.823
REMARK INTER:                  -5.005
REMARK INTRA:                   2.182
REMARK UNBOUND:                 2.182
REMARK SMILES CC1=CCC[C@H](C)C(=O)C[C@@H](C(C)C)C(=O)C1
REMARK SMILES IDX 8 1 9 2 6 3 7 4 5 5 4 6 3 7 2 8 1 9 10 11 11 12 15 13 16 14
REMARK SMILES IDX 17 15 12 17 13 18 14 19
REMARK H PARENT
REMARK Flexibility Score: 70.00
ROOT
ATOM      1  C   UNL     1     102.797  49.618  56.723  1.00  0.00     0.136 C 
ATOM      2  O   UNL     1     102.914  50.453  57.607  1.00  0.00    -0.299 OA
ENDROOT
BRANCH   1   3
ATOM      3  C   UNL     1     103.125  48.166  57.008  1.00  0.00     0.053 C 
ATOM      4  C   UNL     1     103.528  48.016  58.478  1.00  0.00     0.016 C 
BRANCH   3   5
ATOM      5  C   UNL     1     101.934  47.235  56.682  1.00  0.00     0.015 C 
BRANCH   5   6
ATOM      6  C   UNL     1     102.245  46.215  55.575  1.00  0.00     0.028 C 
BRANCH   6   7
ATOM      7  C   UNL     1     101.938  46.779  54.208  1.00  0.00    -0.028 C 
ATOM      8  C   UNL     1     102.813  47.429  53.407  1.00  0.00    -0.070 CG0
ATOM      9  C   UNL     1     102.318  47.923  52.072  1.00  0.00     0.039 C 
ATOM     10  G   UNL     1     104.268  47.650  53.774  1.00  0.00     0.000 G0
ENDBRANCH   6   7
ENDBRANCH   5   6
ENDBRANCH   3   5
ENDBRANCH   1   3
BRANCH   1  11
ATOM     11  C   UNL     1     102.344  50.059  55.355  1.00  0.00     0.087 C 
BRANCH  11  12
ATOM     12  C   UNL     1     103.522  50.121  54.349  1.00  0.00     0.066 C 
BRANCH  12  13
ATOM     13  C   UNL     1     104.457  48.938  54.534  1.00  0.00     0.140 C 
ATOM     14  O   UNL     1     105.411  49.028  55.293  1.00  0.00    -0.299 OA
BRANCH  13  15
ATOM     15  C   UNL     1     104.267  47.661  53.756  1.00  0.00     0.106 CG0
ATOM     16  G   UNL     1     102.804  47.443  53.421  1.00  0.00     0.000 G0
ENDBRANCH  13  15
ENDBRANCH  12  13
BRANCH  12  17
ATOM     17  C   UNL     1     104.323  51.460  54.409  1.00  0.00    -0.006 C 
ATOM     18  C   UNL     1     103.512  52.691  53.966  1.00  0.00     0.008 C 
ATOM     19  C   UNL     1     105.633  51.376  53.607  1.00  0.00     0.008 C 
ENDBRANCH  12  17
ENDBRANCH  11  12
ENDBRANCH   1  11
TORSDOF 1
ENDMDL
MODEL 2
REMARK VINA RESULT:    -3.208      1.893      4.356
REMARK INTER + INTRA:          -2.714
REMARK INTER:                  -3.628
REMARK INTRA:                   0.914
REMARK UNBOUND:                 2.182
REMARK SMILES CC1=CCC[C@H](C)C(=O)C[C@@H](C(C)C)C(=O)C1
REMARK SMILES IDX 8 1 9 2 6 3 7 4 5 5 4 6 3 7 2 8 1 9 10 11 11 12 15 13 16 14
REMARK SMILES IDX 17 15 12 17 13 18 14 19
REMARK H PARENT
REMARK Flexibility Score: 70.00
ROOT
ATOM      1  C   UNL     1     104.500  50.488  53.998  1.00  0.00     0.136 C 
ATOM      2  O   UNL     1     105.707  50.650  53.895  1.00  0.00    -0.299 OA
ENDROOT
BRANCH   1   3
ATOM      3  C   UNL     1     103.658  51.524  54.714  1.00  0.00     0.053 C 
ATOM      4  C   UNL     1     103.102  52.520  53.691  1.00  0.00     0.016 C 
BRANCH   3   5
ATOM      5  C   UNL     1     102.503  50.873  55.510  1.00  0.00     0.015 C 
BRANCH   5   6
ATOM      6  C   UNL     1     102.751  50.843  57.027  1.00  0.00     0.028 C 
BRANCH   6   7
ATOM      7  C   UNL     1     102.467  49.476  57.602  1.00  0.00    -0.028 C 
ATOM      8  C   UNL     1     103.283  48.400  57.521  1.00  0.00    -0.070 CG0
ATOM      9  C   UNL     1     102.823  47.114  58.159  1.00  0.00     0.039 C 
ATOM     10  G   UNL     1     104.645  48.438  56.855  1.00  0.00     0.000 G0
ENDBRANCH   6   7
ENDBRANCH   5   6
ENDBRANCH   3   5
ENDBRANCH   1   3
BRANCH   1  11
ATOM     11  C   UNL     1     103.878  49.242  53.423  1.00  0.00     0.087 C 
BRANCH  11  12
ATOM     12  C   UNL     1     103.409  48.265  54.533  1.00  0.00     0.066 C 
BRANCH  12  13
ATOM     13  C   UNL     1     104.560  47.897  55.454  1.00  0.00     0.140 C 
ATOM     14  O   UNL     1     105.426  47.126  55.068  1.00  0.00    -0.299 OA
BRANCH  13  15
ATOM     15  C   UNL     1     104.632  48.422  56.865  1.00  0.00     0.106 CG0
ATOM     16  G   UNL     1     103.269  48.378  57.529  1.00  0.00     0.000 G0
ENDBRANCH  13  15
ENDBRANCH  12  13
BRANCH  12  17
ATOM     17  C   UNL     1     102.724  46.976  53.979  1.00  0.00    -0.006 C 
ATOM     18  C   UNL     1     102.026  47.176  52.621  1.00  0.00     0.008 C 
ATOM     19  C   UNL     1     101.737  46.375  54.994  1.00  0.00     0.008 C 
ENDBRANCH  12  17
ENDBRANCH  11  12
ENDBRANCH   1  11
TORSDOF 1
ENDMDL
MODEL 3
REMARK VINA RESULT:    -3.198      8.334     10.935
REMARK INTER + INTRA:          -2.698
REMARK INTER:                  -5.315
REMARK INTRA:                   2.616
REMARK UNBOUND:                 2.182
REMARK SMILES CC1=CCC[C@H](C)C(=O)C[C@@H](C(C)C)C(=O)C1
REMARK SMILES IDX 8 1 9 2 6 3 7 4 5 5 4 6 3 7 2 8 1 9 10 11 11 12 15 13 16 14
REMARK SMILES IDX 17 15 12 17 13 18 14 19
REMARK H PARENT
REMARK Flexibility Score: 70.00
ROOT
ATOM      1  C   UNL     1     108.864  48.987  62.269  1.00  0.00     0.136 C 
ATOM      2  O   UNL     1     109.000  49.669  61.264  1.00  0.00    -0.299 OA
ENDROOT
BRANCH   1   3
ATOM      3  C   UNL     1     108.120  47.669  62.192  1.00  0.00     0.053 C 
ATOM      4  C   UNL     1     107.604  47.462  60.765  1.00  0.00     0.016 C 
BRANCH   3   5
ATOM      5  C   UNL     1     109.015  46.480  62.616  1.00  0.00     0.015 C 
BRANCH   5   6
ATOM      6  C   UNL     1     108.438  45.674  63.790  1.00  0.00     0.028 C 
BRANCH   6   7
ATOM      7  C   UNL     1     108.800  46.300  65.116  1.00  0.00    -0.028 C 
ATOM      8  C   UNL     1     108.101  47.271  65.747  1.00  0.00    -0.070 CG0
ATOM      9  C   UNL     1     108.624  47.773  67.069  1.00  0.00     0.039 C 
ATOM     10  G   UNL     1     106.806  47.847  65.208  1.00  0.00     0.000 G0
ENDBRANCH   6   7
ENDBRANCH   5   6
ENDBRANCH   3   5
ENDBRANCH   1   3
BRANCH   1  11
ATOM     11  C   UNL     1     109.429  49.487  63.574  1.00  0.00     0.087 C 
BRANCH  11  12
ATOM     12  C   UNL     1     108.312  49.921  64.558  1.00  0.00     0.066 C 
BRANCH  12  13
ATOM     13  C   UNL     1     107.064  49.076  64.370  1.00  0.00     0.140 C 
ATOM     14  O   UNL     1     106.226  49.402  63.540  1.00  0.00    -0.299 OA
BRANCH  13  15
ATOM     15  C   UNL     1     106.802  47.864  65.226  1.00  0.00     0.106 CG0
ATOM     16  G   UNL     1     108.101  47.283  65.753  1.00  0.00     0.000 G0
ENDBRANCH  13  15
ENDBRANCH  12  13
BRANCH  12  17
ATOM     17  C   UNL     1     107.957  51.439  64.467  1.00  0.00    -0.006 C 
ATOM     18  C   UNL     1     109.098  52.373  64.911  1.00  0.00     0.008 C 
ATOM     19  C   UNL     1     106.673  51.772  65.243  1.00  0.00     0.008 C 
ENDBRANCH  12  17
ENDBRANCH  11  12
ENDBRANCH   1  11
TORSDOF 1
ENDMDL
MODEL 4
REMARK VINA RESULT:    -2.830      1.476      3.635
REMARK INTER + INTRA:          -2.137
REMARK INTER:                  -3.773
REMARK INTRA:                   1.636
REMARK UNBOUND:                 2.182
REMARK SMILES CC1=CCC[C@H](C)C(=O)C[C@@H](C(C)C)C(=O)C1
REMARK SMILES IDX 8 1 9 2 6 3 7 4 5 5 4 6 3 7 2 8 1 9 10 11 11 12 15 13 16 14
REMARK SMILES IDX 17 15 12 17 13 18 14 19
REMARK H PARENT
REMARK Flexibility Score: 70.00
ROOT
ATOM      1  C   UNL     1     104.205  47.808  53.854  1.00  0.00     0.136 C 
ATOM      2  O   UNL     1     105.001  47.644  52.941  1.00  0.00    -0.299 OA
ENDROOT
BRANCH   1   3
ATOM      3  C   UNL     1     102.726  47.578  53.617  1.00  0.00     0.053 C 
ATOM      4  C   UNL     1     102.393  47.894  52.156  1.00  0.00     0.016 C 
BRANCH   3   5
ATOM      5  C   UNL     1     102.309  46.129  53.961  1.00  0.00     0.015 C 
BRANCH   5   6
ATOM      6  C   UNL     1     101.338  46.043  55.149  1.00  0.00     0.028 C 
BRANCH   6   7
ATOM      7  C   UNL     1     102.053  46.272  56.460  1.00  0.00    -0.028 C 
ATOM      8  C   UNL     1     102.365  47.477  56.989  1.00  0.00    -0.070 CG0
ATOM      9  C   UNL     1     103.085  47.503  58.313  1.00  0.00     0.039 C 
ATOM     10  G   UNL     1     101.994  48.793  56.334  1.00  0.00     0.000 G0
ENDBRANCH   6   7
ENDBRANCH   5   6
ENDBRANCH   3   5
ENDBRANCH   1   3
BRANCH   1  11
ATOM     11  C   UNL     1     104.717  48.257  55.199  1.00  0.00     0.087 C 
BRANCH  11  12
ATOM     12  C   UNL     1     104.330  49.727  55.503  1.00  0.00     0.066 C 
BRANCH  12  13
ATOM     13  C   UNL     1     103.124  49.791  56.425  1.00  0.00     0.140 C 
ATOM     14  O   UNL     1     103.077  50.637  57.307  1.00  0.00    -0.299 OA
BRANCH  13  15
ATOM     15  C   UNL     1     101.999  48.795  56.314  1.00  0.00     0.106 CG0
ATOM     16  G   UNL     1     102.365  47.488  56.992  1.00  0.00     0.000 G0
ENDBRANCH  13  15
ENDBRANCH  12  13
BRANCH  12  17
ATOM     17  C   UNL     1     104.078  50.583  54.221  1.00  0.00    -0.006 C 
ATOM     18  C   UNL     1     105.364  51.141  53.583  1.00  0.00     0.008 C 
ATOM     19  C   UNL     1     103.083  51.726  54.485  1.00  0.00     0.008 C 
ENDBRANCH  12  17
ENDBRANCH  11  12
ENDBRANCH   1  11
TORSDOF 1
ENDMDL
MODEL 5
REMARK VINA RESULT:    -2.803      8.480     10.553
REMARK INTER + INTRA:          -2.096
REMARK INTER:                  -3.088
REMARK INTRA:                   0.991
REMARK UNBOUND:                 2.182
REMARK SMILES CC1=CCC[C@H](C)C(=O)C[C@@H](C(C)C)C(=O)C1
REMARK SMILES IDX 8 1 9 2 6 3 7 4 5 5 4 6 3 7 2 8 1 9 10 11 11 12 15 13 16 14
REMARK SMILES IDX 17 15 12 17 13 18 14 19
REMARK H PARENT
REMARK Flexibility Score: 70.00
ROOT
ATOM      1  C   UNL     1     107.629  50.662  64.958  1.00  0.00     0.136 C 
ATOM      2  O   UNL     1     106.516  51.157  65.066  1.00  0.00    -0.299 OA
ENDROOT
BRANCH   1   3
ATOM      3  C   UNL     1     108.698  51.377  64.157  1.00  0.00     0.053 C 
ATOM      4  C   UNL     1     109.497  52.297  65.085  1.00  0.00     0.016 C 
BRANCH   3   5
ATOM      5  C   UNL     1     109.644  50.380  63.447  1.00  0.00     0.015 C 
BRANCH   5   6
ATOM      6  C   UNL     1     109.399  50.283  61.933  1.00  0.00     0.028 C 
BRANCH   6   7
ATOM      7  C   UNL     1     109.241  48.846  61.495  1.00  0.00    -0.028 C 
ATOM      8  C   UNL     1     108.122  48.098  61.630  1.00  0.00    -0.070 CG0
ATOM      9  C   UNL     1     108.158  46.675  61.131  1.00  0.00     0.039 C 
ATOM     10  G   UNL     1     106.833  48.630  62.224  1.00  0.00     0.000 G0
ENDBRANCH   6   7
ENDBRANCH   5   6
ENDBRANCH   3   5
ENDBRANCH   1   3
BRANCH   1  11
ATOM     11  C   UNL     1     107.906  49.334  65.614  1.00  0.00     0.087 C 
BRANCH  11  12
ATOM     12  C   UNL     1     107.906  48.172  64.588  1.00  0.00     0.066 C 
BRANCH  12  13
ATOM     13  C   UNL     1     106.692  48.251  63.678  1.00  0.00     0.140 C 
ATOM     14  O   UNL     1     105.585  47.969  64.113  1.00  0.00    -0.299 OA
BRANCH  13  15
ATOM     15  C   UNL     1     106.827  48.620  62.223  1.00  0.00     0.106 CG0
ATOM     16  G   UNL     1     108.123  48.083  61.647  1.00  0.00     0.000 G0
ENDBRANCH  13  15
ENDBRANCH  12  13
BRANCH  12  17
ATOM     17  C   UNL     1     107.999  46.759  65.247  1.00  0.00    -0.006 C 
ATOM     18  C   UNL     1     108.790  46.738  66.567  1.00  0.00     0.008 C 
ATOM     19  C   UNL     1     108.571  45.714  64.275  1.00  0.00     0.008 C 
ENDBRANCH  12  17
ENDBRANCH  11  12
ENDBRANCH   1  11
TORSDOF 1
ENDMDL
MODEL 6
REMARK VINA RESULT:    -2.744      7.783      9.979
REMARK INTER + INTRA:          -2.005
REMARK INTER:                  -3.677
REMARK INTRA:                   1.671
REMARK UNBOUND:                 2.182
REMARK SMILES CC1=CCC[C@H](C)C(=O)C[C@@H](C(C)C)C(=O)C1
REMARK SMILES IDX 8 1 9 2 6 3 7 4 5 5 4 6 3 7 2 8 1 9 10 11 11 12 15 13 16 14
REMARK SMILES IDX 17 15 12 17 13 18 14 19
REMARK H PARENT
REMARK Flexibility Score: 70.00
ROOT
ATOM      1  C   UNL     1     107.088  48.080  65.215  1.00  0.00     0.136 C 
ATOM      2  O   UNL     1     106.390  48.160  66.214  1.00  0.00    -0.299 OA
ENDROOT
BRANCH   1   3
ATOM      3  C   UNL     1     108.380  47.288  65.258  1.00  0.00     0.053 C 
ATOM      4  C   UNL     1     108.642  46.826  66.695  1.00  0.00     0.016 C 
BRANCH   3   5
ATOM      5  C   UNL     1     108.340  46.073  64.303  1.00  0.00     0.015 C 
BRANCH   5   6
ATOM      6  C   UNL     1     109.076  46.318  62.976  1.00  0.00     0.028 C 
BRANCH   6   7
ATOM      7  C   UNL     1     108.117  46.732  61.886  1.00  0.00    -0.028 C 
ATOM      8  C   UNL     1     108.074  47.947  61.292  1.00  0.00    -0.070 CG0
ATOM      9  C   UNL     1     107.040  48.173  60.218  1.00  0.00     0.039 C 
ATOM     10  G   UNL     1     109.035  49.071  61.629  1.00  0.00     0.000 G0
ENDBRANCH   6   7
ENDBRANCH   5   6
ENDBRANCH   3   5
ENDBRANCH   1   3
BRANCH   1  11
ATOM     11  C   UNL     1     106.654  48.791  63.959  1.00  0.00     0.087 C 
BRANCH  11  12
ATOM     12  C   UNL     1     107.573  49.995  63.630  1.00  0.00     0.066 C 
BRANCH  12  13
ATOM     13  C   UNL     1     108.901  49.525  63.063  1.00  0.00     0.140 C 
ATOM     14  O   UNL     1     109.901  49.531  63.767  1.00  0.00    -0.299 OA
BRANCH  13  15
ATOM     15  C   UNL     1     109.032  49.099  61.623  1.00  0.00     0.106 CG0
ATOM     16  G   UNL     1     108.088  47.954  61.310  1.00  0.00     0.000 G0
ENDBRANCH  13  15
ENDBRANCH  12  13
BRANCH  12  17
ATOM     17  C   UNL     1     107.808  50.949  64.843  1.00  0.00    -0.006 C 
ATOM     18  C   UNL     1     106.510  51.458  65.497  1.00  0.00     0.008 C 
ATOM     19  C   UNL     1     108.708  52.138  64.467  1.00  0.00     0.008 C 
ENDBRANCH  12  17
ENDBRANCH  11  12
ENDBRANCH   1  11
TORSDOF 1
ENDMDL
MODEL 7
REMARK VINA RESULT:    -2.442      8.292     10.769
REMARK INTER + INTRA:          -1.544
REMARK INTER:                  -3.218
REMARK INTRA:                   1.674
REMARK UNBOUND:                 2.182
REMARK SMILES CC1=CCC[C@H](C)C(=O)C[C@@H](C(C)C)C(=O)C1
REMARK SMILES IDX 8 1 9 2 6 3 7 4 5 5 4 6 3 7 2 8 1 9 10 11 11 12 15 13 16 14
REMARK SMILES IDX 17 15 12 17 13 18 14 19
REMARK H PARENT
REMARK Flexibility Score: 70.00
ROOT
ATOM      1  C   UNL     1     107.940  46.826  64.432  1.00  0.00     0.136 C 
ATOM      2  O   UNL     1     108.384  45.780  63.983  1.00  0.00    -0.299 OA
ENDROOT
BRANCH   1   3
ATOM      3  C   UNL     1     107.876  47.038  65.931  1.00  0.00     0.053 C 
ATOM      4  C   UNL     1     109.077  46.353  66.591  1.00  0.00     0.016 C 
BRANCH   3   5
ATOM      5  C   UNL     1     107.850  48.541  66.296  1.00  0.00     0.015 C 
BRANCH   5   6
ATOM      6  C   UNL     1     106.786  49.336  65.523  1.00  0.00     0.028 C 
BRANCH   6   7
ATOM      7  C   UNL     1     107.249  50.746  65.245  1.00  0.00    -0.028 C 
ATOM      8  C   UNL     1     108.413  51.092  64.649  1.00  0.00    -0.070 CG0
ATOM      9  C   UNL     1     108.702  52.559  64.459  1.00  0.00     0.039 C 
ATOM     10  G   UNL     1     109.417  50.077  64.135  1.00  0.00     0.000 G0
ENDBRANCH   6   7
ENDBRANCH   5   6
ENDBRANCH   3   5
ENDBRANCH   1   3
BRANCH   1  11
ATOM     11  C   UNL     1     107.443  47.879  63.475  1.00  0.00     0.087 C 
BRANCH  11  12
ATOM     12  C   UNL     1     108.518  48.259  62.425  1.00  0.00     0.066 C 
BRANCH  12  13
ATOM     13  C   UNL     1     109.106  49.628  62.721  1.00  0.00     0.140 C 
ATOM     14  O   UNL     1     109.368  50.390  61.801  1.00  0.00    -0.299 OA
BRANCH  13  15
ATOM     15  C   UNL     1     109.430  50.054  64.130  1.00  0.00     0.106 CG0
ATOM     16  G   UNL     1     108.415  51.061  64.637  1.00  0.00     0.000 G0
ENDBRANCH  13  15
ENDBRANCH  12  13
BRANCH  12  17
ATOM     17  C   UNL     1     108.001  48.197  60.953  1.00  0.00    -0.006 C 
ATOM     18  C   UNL     1     106.467  48.229  60.830  1.00  0.00     0.008 C 
ATOM     19  C   UNL     1     108.564  46.978  60.203  1.00  0.00     0.008 C 
ENDBRANCH  12  17
ENDBRANCH  11  12
ENDBRANCH   1  11
TORSDOF 1
ENDMDL
MODEL 8
REMARK VINA RESULT:    -2.416      1.725      3.747
REMARK INTER + INTRA:          -1.504
REMARK INTER:                  -2.267
REMARK INTRA:                   0.762
REMARK UNBOUND:                 2.182
REMARK SMILES CC1=CCC[C@H](C)C(=O)C[C@@H](C(C)C)C(=O)C1
REMARK SMILES IDX 8 1 9 2 6 3 7 4 5 5 4 6 3 7 2 8 1 9 10 11 11 12 15 13 16 14
REMARK SMILES IDX 17 15 12 17 13 18 14 19
REMARK H PARENT
REMARK Flexibility Score: 70.00
ROOT
ATOM      1  C   UNL     1     102.310  46.650  55.552  1.00  0.00     0.136 C 
ATOM      2  O   UNL     1     101.245  46.826  56.126  1.00  0.00    -0.299 OA
ENDROOT
BRANCH   1   3
ATOM      3  C   UNL     1     102.327  46.067  54.154  1.00  0.00     0.053 C 
ATOM      4  C   UNL     1     101.256  44.976  54.047  1.00  0.00     0.016 C 
BRANCH   3   5
ATOM      5  C   UNL     1     102.094  47.152  53.077  1.00  0.00     0.015 C 
BRANCH   5   6
ATOM      6  C   UNL     1     103.332  48.025  52.817  1.00  0.00     0.028 C 
BRANCH   6   7
ATOM      7  C   UNL     1     103.087  49.459  53.222  1.00  0.00    -0.028 C 
ATOM      8  C   UNL     1     103.945  50.241  53.916  1.00  0.00    -0.070 CG0
ATOM      9  C   UNL     1     103.520  51.653  54.230  1.00  0.00     0.039 C 
ATOM     10  G   UNL     1     105.319  49.777  54.360  1.00  0.00     0.000 G0
ENDBRANCH   6   7
ENDBRANCH   5   6
ENDBRANCH   3   5
ENDBRANCH   1   3
BRANCH   1  11
ATOM     11  C   UNL     1     103.591  47.002  56.264  1.00  0.00     0.087 C 
BRANCH  11  12
ATOM     12  C   UNL     1     103.890  48.522  56.196  1.00  0.00     0.066 C 
BRANCH  12  13
ATOM     13  C   UNL     1     105.214  48.785  55.499  1.00  0.00     0.140 C 
ATOM     14  O   UNL     1     106.226  48.212  55.878  1.00  0.00    -0.299 OA
BRANCH  13  15
ATOM     15  C   UNL     1     105.324  49.784  54.376  1.00  0.00     0.106 CG0
ATOM     16  G   UNL     1     103.951  50.240  53.922  1.00  0.00     0.000 G0
ENDBRANCH  13  15
ENDBRANCH  12  13
BRANCH  12  17
ATOM     17  C   UNL     1     103.862  49.225  57.590  1.00  0.00    -0.006 C 
ATOM     18  C   UNL     1     103.777  48.249  58.778  1.00  0.00     0.008 C 
ATOM     19  C   UNL     1     102.733  50.265  57.681  1.00  0.00     0.008 C 
ENDBRANCH  12  17
ENDBRANCH  11  12
ENDBRANCH   1  11
TORSDOF 1
ENDMDL
MODEL 9
REMARK VINA RESULT:    -2.065      8.244     10.805
REMARK INTER + INTRA:          -0.969
REMARK INTER:                  -1.796
REMARK INTRA:                   0.826
REMARK UNBOUND:                 2.182
REMARK SMILES CC1=CCC[C@H](C)C(=O)C[C@@H](C(C)C)C(=O)C1
REMARK SMILES IDX 8 1 9 2 6 3 7 4 5 5 4 6 3 7 2 8 1 9 10 11 11 12 15 13 16 14
REMARK SMILES IDX 17 15 12 17 13 18 14 19
REMARK H PARENT
REMARK Flexibility Score: 70.00
ROOT
ATOM      1  C   UNL     1     109.099  50.821  63.246  1.00  0.00     0.136 C 
ATOM      2  O   UNL     1     109.139  51.753  62.456  1.00  0.00    -0.299 OA
ENDROOT
BRANCH   1   3
ATOM      3  C   UNL     1     108.734  51.075  64.695  1.00  0.00     0.053 C 
ATOM      4  C   UNL     1     109.452  52.336  65.184  1.00  0.00     0.016 C 
BRANCH   3   5
ATOM      5  C   UNL     1     107.206  51.220  64.885  1.00  0.00     0.015 C 
BRANCH   5   6
ATOM      6  C   UNL     1     106.513  49.902  65.265  1.00  0.00     0.028 C 
BRANCH   6   7
ATOM      7  C   UNL     1     107.422  49.023  66.091  1.00  0.00    -0.028 C 
ATOM      8  C   UNL     1     107.766  47.748  65.799  1.00  0.00    -0.070 CG0
ATOM      9  C   UNL     1     108.688  47.028  66.750  1.00  0.00     0.039 C 
ATOM     10  G   UNL     1     107.299  47.027  64.549  1.00  0.00     0.000 G0
ENDBRANCH   6   7
ENDBRANCH   5   6
ENDBRANCH   3   5
ENDBRANCH   1   3
BRANCH   1  11
ATOM     11  C   UNL     1     109.434  49.434  62.759  1.00  0.00     0.087 C 
BRANCH  11  12
ATOM     12  C   UNL     1     108.165  48.560  62.589  1.00  0.00     0.066 C 
BRANCH  12  13
ATOM     13  C   UNL     1     108.270  47.285  63.409  1.00  0.00     0.140 C 
ATOM     14  O   UNL     1     109.102  46.438  63.114  1.00  0.00    -0.299 OA
BRANCH  13  15
ATOM     15  C   UNL     1     107.329  47.010  64.554  1.00  0.00     0.106 CG0
ATOM     16  G   UNL     1     107.772  47.744  65.805  1.00  0.00     0.000 G0
ENDBRANCH  13  15
ENDBRANCH  12  13
BRANCH  12  17
ATOM     17  C   UNL     1     107.836  48.222  61.100  1.00  0.00    -0.006 C 
ATOM     18  C   UNL     1     106.330  48.228  60.778  1.00  0.00     0.008 C 
ATOM     19  C   UNL     1     108.461  46.885  60.668  1.00  0.00     0.008 C 
ENDBRANCH  12  17
ENDBRANCH  11  12
ENDBRANCH   1  11
TORSDOF 1
ENDMDL
