MODEL 1
REMARK VINA RESULT:    -3.228      0.000      0.000
REMARK INTER + INTRA:          -4.322
REMARK INTER:                  -4.549
REMARK INTRA:                   0.227
REMARK UNBOUND:                 0.227
REMARK SMILES CC1=CCC(=C(C)C)C(=O)CC(C)=CCC1
REMARK SMILES IDX 12 1 14 2 13 3 15 4 16 5 2 6 1 7 3 8 11 10 9 11 10 12 5 13
REMARK SMILES IDX 6 14 7 15 8 16 4 17
REMARK H PARENT
REMARK Flexibility Score: 60.00
ROOT
ATOM      1  C   UNL     1      20.771  29.641  30.098  1.00  0.00    -0.070 C 
ATOM      2  C   UNL     1      19.655  30.272  29.673  1.00  0.00    -0.027 C 
ATOM      3  C   UNL     1      21.665  29.011  29.059  1.00  0.00     0.039 C 
ENDROOT
BRANCH   2   4
ATOM      4  C   UNL     1      18.589  30.878  30.561  1.00  0.00     0.032 C 
BRANCH   4   5
ATOM      5  C   UNL     1      19.090  31.991  31.505  1.00  0.00     0.034 C 
BRANCH   5   6
ATOM      6  C   UNL     1      19.950  33.027  30.802  1.00  0.00    -0.077 C 
ATOM      7  C   UNL     1      19.307  33.854  29.718  1.00  0.00     0.039 C 
ATOM      8  C   UNL     1      21.273  33.208  31.037  1.00  0.00    -0.023 CG0
ATOM      9  G   UNL     1      22.120  32.510  32.083  1.00  0.00     0.000 G0
ENDBRANCH   5   6
ENDBRANCH   4   5
ENDBRANCH   2   4
BRANCH   1  10
ATOM     10  C   UNL     1      21.118  29.459  31.561  1.00  0.00     0.111 C 
BRANCH  10  11
ATOM     11  C   UNL     1      22.497  29.977  31.875  1.00  0.00     0.163 C 
ATOM     12  O   UNL     1      23.283  29.227  32.514  1.00  0.00    -0.294 OA
BRANCH  11  13
ATOM     13  C   UNL     1      22.935  31.357  31.511  1.00  0.00    -0.002 C 
ATOM     14  C   UNL     1      24.060  31.558  30.761  1.00  0.00    -0.069 C 
ATOM     15  C   UNL     1      24.619  32.942  30.511  1.00  0.00     0.039 C 
ATOM     16  C   UNL     1      24.808  30.398  30.142  1.00  0.00     0.039 C 
BRANCH  13  17
ATOM     17  C   UNL     1      22.137  32.516  32.089  1.00  0.00     0.066 CG0
ATOM     18  G   UNL     1      21.269  33.193  31.048  1.00  0.00     0.000 G0
ENDBRANCH  13  17
ENDBRANCH  11  13
ENDBRANCH  10  11
ENDBRANCH   1  10
TORSDOF 0
ENDMDL
MODEL 2
REMARK VINA RESULT:    -3.226      2.773      4.506
REMARK INTER + INTRA:          -4.319
REMARK INTER:                  -4.786
REMARK INTRA:                   0.467
REMARK UNBOUND:                 0.227
REMARK SMILES CC1=CCC(=C(C)C)C(=O)CC(C)=CCC1
REMARK SMILES IDX 12 1 14 2 13 3 15 4 16 5 2 6 1 7 3 8 11 10 9 11 10 12 5 13
REMARK SMILES IDX 6 14 7 15 8 16 4 17
REMARK H PARENT
REMARK Flexibility Score: 60.00
ROOT
ATOM      1  C   UNL     1      17.577  32.085  29.272  1.00  0.00    -0.070 C 
ATOM      2  C   UNL     1      16.300  32.146  29.707  1.00  0.00    -0.027 C 
ATOM      3  C   UNL     1      18.261  33.378  28.905  1.00  0.00     0.039 C 
ENDROOT
BRANCH   2   4
ATOM      4  C   UNL     1      15.417  30.960  30.028  1.00  0.00     0.032 C 
BRANCH   4   5
ATOM      5  C   UNL     1      15.314  30.617  31.528  1.00  0.00     0.034 C 
BRANCH   5   6
ATOM      6  C   UNL     1      16.303  29.550  31.967  1.00  0.00    -0.077 C 
ATOM      7  C   UNL     1      15.829  28.119  31.983  1.00  0.00     0.039 C 
ATOM      8  C   UNL     1      17.557  29.808  32.410  1.00  0.00    -0.023 CG0
ATOM      9  G   UNL     1      18.249  31.156  32.465  1.00  0.00     0.000 G0
ENDBRANCH   5   6
ENDBRANCH   4   5
ENDBRANCH   2   4
BRANCH   1  10
ATOM     10  C   UNL     1      18.319  30.782  29.049  1.00  0.00     0.111 C 
BRANCH  10  11
ATOM     11  C   UNL     1      19.241  30.464  30.196  1.00  0.00     0.163 C 
ATOM     12  O   UNL     1      19.920  29.404  30.137  1.00  0.00    -0.294 OA
BRANCH  11  13
ATOM     13  C   UNL     1      19.330  31.323  31.415  1.00  0.00    -0.002 C 
ATOM     14  C   UNL     1      20.392  32.163  31.602  1.00  0.00    -0.069 C 
ATOM     15  C   UNL     1      20.591  32.925  32.895  1.00  0.00     0.039 C 
ATOM     16  C   UNL     1      21.429  32.370  30.521  1.00  0.00     0.039 C 
BRANCH  13  17
ATOM     17  C   UNL     1      18.246  31.151  32.468  1.00  0.00     0.066 CG0
ATOM     18  G   UNL     1      17.570  29.796  32.382  1.00  0.00     0.000 G0
ENDBRANCH  13  17
ENDBRANCH  11  13
ENDBRANCH  10  11
ENDBRANCH   1  10
TORSDOF 0
ENDMDL
MODEL 3
REMARK VINA RESULT:    -3.135      1.658      4.206
REMARK INTER + INTRA:          -4.190
REMARK INTER:                  -4.475
REMARK INTRA:                   0.284
REMARK UNBOUND:                 0.227
REMARK SMILES CC1=CCC(=C(C)C)C(=O)CC(C)=CCC1
REMARK SMILES IDX 12 1 14 2 13 3 15 4 16 5 2 6 1 7 3 8 11 10 9 11 10 12 5 13
REMARK SMILES IDX 6 14 7 15 8 16 4 17
REMARK H PARENT
REMARK Flexibility Score: 60.00
ROOT
ATOM      1  C   UNL     1      24.586  29.281  29.798  1.00  0.00    -0.070 C 
ATOM      2  C   UNL     1      25.628  30.140  29.763  1.00  0.00    -0.027 C 
ATOM      3  C   UNL     1      24.524  28.203  28.746  1.00  0.00     0.039 C 
ENDROOT
BRANCH   2   4
ATOM      4  C   UNL     1      25.815  31.341  30.665  1.00  0.00     0.032 C 
BRANCH   4   5
ATOM      5  C   UNL     1      25.085  32.619  30.202  1.00  0.00     0.034 C 
BRANCH   5   6
ATOM      6  C   UNL     1      24.142  33.181  31.252  1.00  0.00    -0.077 C 
ATOM      7  C   UNL     1      24.753  33.879  32.442  1.00  0.00     0.039 C 
ATOM      8  C   UNL     1      22.795  33.037  31.225  1.00  0.00    -0.023 CG0
ATOM      9  G   UNL     1      21.966  32.395  30.130  1.00  0.00     0.000 G0
ENDBRANCH   5   6
ENDBRANCH   4   5
ENDBRANCH   2   4
BRANCH   1  10
ATOM     10  C   UNL     1      23.439  29.405  30.780  1.00  0.00     0.111 C 
BRANCH  10  11
ATOM     11  C   UNL     1      22.165  29.828  30.097  1.00  0.00     0.163 C 
ATOM     12  O   UNL     1      21.774  29.161  29.102  1.00  0.00    -0.294 OA
BRANCH  11  13
ATOM     13  C   UNL     1      21.393  31.035  30.519  1.00  0.00    -0.002 C 
ATOM     14  C   UNL     1      20.192  30.908  31.160  1.00  0.00    -0.069 C 
ATOM     15  C   UNL     1      19.313  32.104  31.457  1.00  0.00     0.039 C 
ATOM     16  C   UNL     1      19.679  29.557  31.604  1.00  0.00     0.039 C 
BRANCH  13  17
ATOM     17  C   UNL     1      21.952  32.393  30.121  1.00  0.00     0.066 CG0
ATOM     18  G   UNL     1      22.777  33.022  31.226  1.00  0.00     0.000 G0
ENDBRANCH  13  17
ENDBRANCH  11  13
ENDBRANCH  10  11
ENDBRANCH   1  10
TORSDOF 0
ENDMDL
MODEL 4
REMARK VINA RESULT:    -3.110      1.686      4.085
REMARK INTER + INTRA:          -4.155
REMARK INTER:                  -4.632
REMARK INTRA:                   0.477
REMARK UNBOUND:                 0.227
REMARK SMILES CC1=CCC(=C(C)C)C(=O)CC(C)=CCC1
REMARK SMILES IDX 12 1 14 2 13 3 15 4 16 5 2 6 1 7 3 8 11 10 9 11 10 12 5 13
REMARK SMILES IDX 6 14 7 15 8 16 4 17
REMARK H PARENT
REMARK Flexibility Score: 60.00
ROOT
ATOM      1  C   UNL     1      22.723  29.290  30.309  1.00  0.00    -0.070 C 
ATOM      2  C   UNL     1      24.012  29.636  30.517  1.00  0.00    -0.027 C 
ATOM      3  C   UNL     1      22.441  28.146  29.367  1.00  0.00     0.039 C 
ENDROOT
BRANCH   2   4
ATOM      4  C   UNL     1      24.490  30.810  31.344  1.00  0.00     0.032 C 
BRANCH   4   5
ATOM      5  C   UNL     1      24.442  32.172  30.621  1.00  0.00     0.034 C 
BRANCH   5   6
ATOM      6  C   UNL     1      23.540  33.182  31.308  1.00  0.00    -0.077 C 
ATOM      7  C   UNL     1      24.007  33.763  32.619  1.00  0.00     0.039 C 
ATOM      8  C   UNL     1      22.314  33.542  30.856  1.00  0.00    -0.023 CG0
ATOM      9  G   UNL     1      21.650  33.106  29.565  1.00  0.00     0.000 G0
ENDBRANCH   5   6
ENDBRANCH   4   5
ENDBRANCH   2   4
BRANCH   1  10
ATOM     10  C   UNL     1      21.552  30.049  30.900  1.00  0.00     0.111 C 
BRANCH  10  11
ATOM     11  C   UNL     1      20.723  30.712  29.832  1.00  0.00     0.163 C 
ATOM     12  O   UNL     1      20.292  30.000  28.885  1.00  0.00    -0.294 OA
BRANCH  11  13
ATOM     13  C   UNL     1      20.451  32.181  29.826  1.00  0.00    -0.002 C 
ATOM     14  C   UNL     1      19.177  32.656  29.965  1.00  0.00    -0.069 C 
ATOM     15  C   UNL     1      18.848  34.125  29.804  1.00  0.00     0.039 C 
ATOM     16  C   UNL     1      18.024  31.730  30.285  1.00  0.00     0.039 C 
BRANCH  13  17
ATOM     17  C   UNL     1      21.630  33.106  29.565  1.00  0.00     0.066 CG0
ATOM     18  G   UNL     1      22.315  33.541  30.845  1.00  0.00     0.000 G0
ENDBRANCH  13  17
ENDBRANCH  11  13
ENDBRANCH  10  11
ENDBRANCH   1  10
TORSDOF 0
ENDMDL
MODEL 5
REMARK VINA RESULT:    -3.048      1.720      3.022
REMARK INTER + INTRA:          -4.068
REMARK INTER:                  -4.278
REMARK INTRA:                   0.211
REMARK UNBOUND:                 0.227
REMARK SMILES CC1=CCC(=C(C)C)C(=O)CC(C)=CCC1
REMARK SMILES IDX 12 1 14 2 13 3 15 4 16 5 2 6 1 7 3 8 11 10 9 11 10 12 5 13
REMARK SMILES IDX 6 14 7 15 8 16 4 17
REMARK H PARENT
REMARK Flexibility Score: 60.00
ROOT
ATOM      1  C   UNL     1      24.119  28.611  29.124  1.00  0.00    -0.070 C 
ATOM      2  C   UNL     1      22.874  28.122  29.313  1.00  0.00    -0.027 C 
ATOM      3  C   UNL     1      25.191  27.654  28.664  1.00  0.00     0.039 C 
ENDROOT
BRANCH   2   4
ATOM      4  C   UNL     1      21.694  28.896  29.861  1.00  0.00     0.032 C 
BRANCH   4   5
ATOM      5  C   UNL     1      21.752  29.176  31.377  1.00  0.00     0.034 C 
BRANCH   5   6
ATOM      6  C   UNL     1      21.433  30.619  31.730  1.00  0.00    -0.077 C 
ATOM      7  C   UNL     1      20.075  31.151  31.348  1.00  0.00     0.039 C 
ATOM      8  C   UNL     1      22.312  31.477  32.304  1.00  0.00    -0.023 CG0
ATOM      9  G   UNL     1      23.714  31.163  32.787  1.00  0.00     0.000 G0
ENDBRANCH   5   6
ENDBRANCH   4   5
ENDBRANCH   2   4
BRANCH   1  10
ATOM     10  C   UNL     1      24.507  30.042  29.436  1.00  0.00     0.111 C 
BRANCH  10  11
ATOM     11  C   UNL     1      25.068  30.175  30.827  1.00  0.00     0.163 C 
ATOM     12  O   UNL     1      25.763  29.227  31.281  1.00  0.00    -0.294 OA
BRANCH  11  13
ATOM     13  C   UNL     1      24.778  31.354  31.697  1.00  0.00    -0.002 C 
ATOM     14  C   UNL     1      25.490  32.513  31.564  1.00  0.00    -0.069 C 
ATOM     15  C   UNL     1      25.331  33.666  32.532  1.00  0.00     0.039 C 
ATOM     16  C   UNL     1      26.481  32.700  30.437  1.00  0.00     0.039 C 
BRANCH  13  17
ATOM     17  C   UNL     1      23.734  31.172  32.789  1.00  0.00     0.066 CG0
ATOM     18  G   UNL     1      22.332  31.481  32.301  1.00  0.00     0.000 G0
ENDBRANCH  13  17
ENDBRANCH  11  13
ENDBRANCH  10  11
ENDBRANCH   1  10
TORSDOF 0
ENDMDL
MODEL 6
REMARK VINA RESULT:    -3.043      2.311      3.566
REMARK INTER + INTRA:          -4.061
REMARK INTER:                  -5.078
REMARK INTRA:                   1.017
REMARK UNBOUND:                 0.227
REMARK SMILES CC1=CCC(=C(C)C)C(=O)CC(C)=CCC1
REMARK SMILES IDX 12 1 14 2 13 3 15 4 16 5 2 6 1 7 3 8 11 10 9 11 10 12 5 13
REMARK SMILES IDX 6 14 7 15 8 16 4 17
REMARK H PARENT
REMARK Flexibility Score: 60.00
ROOT
ATOM      1  C   UNL     1      17.875  29.860  30.169  1.00  0.00    -0.070 C 
ATOM      2  C   UNL     1      16.590  29.980  30.569  1.00  0.00    -0.027 C 
ATOM      3  C   UNL     1      18.749  28.866  30.892  1.00  0.00     0.039 C 
ENDROOT
BRANCH   2   4
ATOM      4  C   UNL     1      15.589  30.984  30.037  1.00  0.00     0.032 C 
BRANCH   4   5
ATOM      5  C   UNL     1      16.023  32.459  30.164  1.00  0.00     0.034 C 
BRANCH   5   6
ATOM      6  C   UNL     1      16.671  32.778  31.501  1.00  0.00    -0.077 C 
ATOM      7  C   UNL     1      15.821  32.657  32.740  1.00  0.00     0.039 C 
ATOM      8  C   UNL     1      17.941  33.230  31.645  1.00  0.00    -0.023 CG0
ATOM      9  G   UNL     1      18.977  33.410  30.553  1.00  0.00     0.000 G0
ENDBRANCH   5   6
ENDBRANCH   4   5
ENDBRANCH   2   4
BRANCH   1  10
ATOM     10  C   UNL     1      18.499  30.733  29.099  1.00  0.00     0.111 C 
BRANCH  10  11
ATOM     11  C   UNL     1      19.858  31.233  29.512  1.00  0.00     0.163 C 
ATOM     12  O   UNL     1      20.873  30.672  29.020  1.00  0.00    -0.294 OA
BRANCH  11  13
ATOM     13  C   UNL     1      20.038  32.319  30.522  1.00  0.00    -0.002 C 
ATOM     14  C   UNL     1      21.052  32.261  31.437  1.00  0.00    -0.069 C 
ATOM     15  C   UNL     1      21.167  33.258  32.570  1.00  0.00     0.039 C 
ATOM     16  C   UNL     1      22.115  31.187  31.363  1.00  0.00     0.039 C 
BRANCH  13  17
ATOM     17  C   UNL     1      18.997  33.427  30.546  1.00  0.00     0.066 CG0
ATOM     18  G   UNL     1      17.967  33.226  31.641  1.00  0.00     0.000 G0
ENDBRANCH  13  17
ENDBRANCH  11  13
ENDBRANCH  10  11
ENDBRANCH   1  10
TORSDOF 0
ENDMDL
MODEL 7
REMARK VINA RESULT:    -2.853      1.269      2.013
REMARK INTER + INTRA:          -3.793
REMARK INTER:                  -4.280
REMARK INTRA:                   0.487
REMARK UNBOUND:                 0.227
REMARK SMILES CC1=CCC(=C(C)C)C(=O)CC(C)=CCC1
REMARK SMILES IDX 12 1 14 2 13 3 15 4 16 5 2 6 1 7 3 8 11 10 9 11 10 12 5 13
REMARK SMILES IDX 6 14 7 15 8 16 4 17
REMARK H PARENT
REMARK Flexibility Score: 60.00
ROOT
ATOM      1  C   UNL     1      23.084  29.346  30.218  1.00  0.00    -0.070 C 
ATOM      2  C   UNL     1      21.980  29.221  29.449  1.00  0.00    -0.027 C 
ATOM      3  C   UNL     1      24.425  29.095  29.575  1.00  0.00     0.039 C 
ENDROOT
BRANCH   2   4
ATOM      4  C   UNL     1      20.550  29.336  29.931  1.00  0.00     0.032 C 
BRANCH   4   5
ATOM      5  C   UNL     1      19.812  30.609  29.469  1.00  0.00     0.034 C 
BRANCH   5   6
ATOM      6  C   UNL     1      19.743  31.682  30.543  1.00  0.00    -0.077 C 
ATOM      7  C   UNL     1      18.477  31.782  31.355  1.00  0.00     0.039 C 
ATOM      8  C   UNL     1      20.717  32.598  30.771  1.00  0.00    -0.023 CG0
ATOM      9  G   UNL     1      22.071  32.680  30.095  1.00  0.00     0.000 G0
ENDBRANCH   5   6
ENDBRANCH   4   5
ENDBRANCH   2   4
BRANCH   1  10
ATOM     10  C   UNL     1      23.034  29.633  31.705  1.00  0.00     0.111 C 
BRANCH  10  11
ATOM     11  C   UNL     1      22.859  31.102  31.982  1.00  0.00     0.163 C 
ATOM     12  O   UNL     1      22.348  31.443  33.083  1.00  0.00    -0.294 OA
BRANCH  11  13
ATOM     13  C   UNL     1      23.210  32.154  30.981  1.00  0.00    -0.002 C 
ATOM     14  C   UNL     1      24.475  32.668  30.923  1.00  0.00    -0.069 C 
ATOM     15  C   UNL     1      24.821  33.842  30.032  1.00  0.00     0.039 C 
ATOM     16  C   UNL     1      25.597  32.088  31.754  1.00  0.00     0.039 C 
BRANCH  13  17
ATOM     17  C   UNL     1      22.085  32.686  30.107  1.00  0.00     0.066 CG0
ATOM     18  G   UNL     1      20.733  32.588  30.787  1.00  0.00     0.000 G0
ENDBRANCH  13  17
ENDBRANCH  11  13
ENDBRANCH  10  11
ENDBRANCH   1  10
TORSDOF 0
ENDMDL
MODEL 8
REMARK VINA RESULT:    -2.830      2.290      4.379
REMARK INTER + INTRA:          -3.760
REMARK INTER:                  -4.461
REMARK INTRA:                   0.701
REMARK UNBOUND:                 0.227
REMARK SMILES CC1=CCC(=C(C)C)C(=O)CC(C)=CCC1
REMARK SMILES IDX 12 1 14 2 13 3 15 4 16 5 2 6 1 7 3 8 11 10 9 11 10 12 5 13
REMARK SMILES IDX 6 14 7 15 8 16 4 17
REMARK H PARENT
REMARK Flexibility Score: 60.00
ROOT
ATOM      1  C   UNL     1      20.307  30.009  31.423  1.00  0.00    -0.070 C 
ATOM      2  C   UNL     1      21.539  30.457  31.097  1.00  0.00    -0.027 C 
ATOM      3  C   UNL     1      19.658  28.999  30.511  1.00  0.00     0.039 C 
ENDROOT
BRANCH   2   4
ATOM      4  C   UNL     1      22.309  31.536  31.827  1.00  0.00     0.032 C 
BRANCH   4   5
ATOM      5  C   UNL     1      21.516  32.834  32.088  1.00  0.00     0.034 C 
BRANCH   5   6
ATOM      6  C   UNL     1      20.968  33.464  30.819  1.00  0.00    -0.077 C 
ATOM      7  C   UNL     1      21.956  33.871  29.755  1.00  0.00     0.039 C 
ATOM      8  C   UNL     1      19.659  33.747  30.610  1.00  0.00    -0.023 CG0
ATOM      9  G   UNL     1      18.495  33.415  31.523  1.00  0.00     0.000 G0
ENDBRANCH   5   6
ENDBRANCH   4   5
ENDBRANCH   2   4
BRANCH   1  10
ATOM     10  C   UNL     1      19.516  30.536  32.603  1.00  0.00     0.111 C 
BRANCH  10  11
ATOM     11  C   UNL     1      18.126  30.952  32.200  1.00  0.00     0.163 C 
ATOM     12  O   UNL     1      17.151  30.306  32.670  1.00  0.00    -0.294 OA
BRANCH  11  13
ATOM     13  C   UNL     1      17.872  32.053  31.223  1.00  0.00    -0.002 C 
ATOM     14  C   UNL     1      17.198  31.812  30.058  1.00  0.00    -0.069 C 
ATOM     15  C   UNL     1      17.064  32.864  28.978  1.00  0.00     0.039 C 
ATOM     16  C   UNL     1      16.552  30.471  29.788  1.00  0.00     0.039 C 
BRANCH  13  17
ATOM     17  C   UNL     1      18.475  33.414  31.536  1.00  0.00     0.066 CG0
ATOM     18  G   UNL     1      19.649  33.744  30.635  1.00  0.00     0.000 G0
ENDBRANCH  13  17
ENDBRANCH  11  13
ENDBRANCH  10  11
ENDBRANCH   1  10
TORSDOF 0
ENDMDL
MODEL 9
REMARK VINA RESULT:    -2.760      1.455      3.095
REMARK INTER + INTRA:          -3.663
REMARK INTER:                  -4.344
REMARK INTRA:                   0.681
REMARK UNBOUND:                 0.227
REMARK SMILES CC1=CCC(=C(C)C)C(=O)CC(C)=CCC1
REMARK SMILES IDX 12 1 14 2 13 3 15 4 16 5 2 6 1 7 3 8 11 10 9 11 10 12 5 13
REMARK SMILES IDX 6 14 7 15 8 16 4 17
REMARK H PARENT
REMARK Flexibility Score: 60.00
ROOT
ATOM      1  C   UNL     1      23.464  32.705  31.259  1.00  0.00    -0.070 C 
ATOM      2  C   UNL     1      22.510  33.646  31.087  1.00  0.00    -0.027 C 
ATOM      3  C   UNL     1      24.457  32.493  30.144  1.00  0.00     0.039 C 
ENDROOT
BRANCH   2   4
ATOM      4  C   UNL     1      21.373  33.938  32.043  1.00  0.00     0.032 C 
BRANCH   4   5
ATOM      5  C   UNL     1      20.305  32.828  32.135  1.00  0.00     0.034 C 
BRANCH   5   6
ATOM      6  C   UNL     1      20.086  32.099  30.820  1.00  0.00    -0.077 C 
ATOM      7  C   UNL     1      19.379  32.843  29.715  1.00  0.00     0.039 C 
ATOM      8  C   UNL     1      20.422  30.805  30.599  1.00  0.00    -0.023 CG0
ATOM      9  G   UNL     1      21.151  29.874  31.548  1.00  0.00     0.000 G0
ENDBRANCH   5   6
ENDBRANCH   4   5
ENDBRANCH   2   4
BRANCH   1  10
ATOM     10  C   UNL     1      23.527  31.796  32.471  1.00  0.00     0.111 C 
BRANCH  10  11
ATOM     11  C   UNL     1      23.629  30.347  32.074  1.00  0.00     0.163 C 
ATOM     12  O   UNL     1      24.631  29.692  32.467  1.00  0.00    -0.294 OA
BRANCH  11  13
ATOM     13  C   UNL     1      22.623  29.686  31.190  1.00  0.00    -0.002 C 
ATOM     14  C   UNL     1      23.013  29.031  30.055  1.00  0.00    -0.069 C 
ATOM     15  C   UNL     1      22.011  28.490  29.058  1.00  0.00     0.039 C 
ATOM     16  C   UNL     1      24.476  28.815  29.738  1.00  0.00     0.039 C 
BRANCH  13  17
ATOM     17  C   UNL     1      21.156  29.858  31.555  1.00  0.00     0.066 CG0
ATOM     18  G   UNL     1      20.430  30.786  30.600  1.00  0.00     0.000 G0
ENDBRANCH  13  17
ENDBRANCH  11  13
ENDBRANCH  10  11
ENDBRANCH   1  10
TORSDOF 0
ENDMDL
