MODEL 1
REMARK VINA RESULT:    -3.009      0.000      0.000
REMARK INTER + INTRA:          -3.273
REMARK INTER:                  -3.273
REMARK INTRA:                   0.000
REMARK UNBOUND:                 0.000
REMARK SMILES [NH3+]CC(=O)[O-]
REMARK SMILES IDX 2 1 1 2 3 6 4 7 5 8
REMARK H PARENT 1 3 1 4 1 5
REMARK Flexibility Score: inf
ROOT
ATOM      1  C   UNL     1       3.154  -6.342   8.896  1.00  0.00     0.312 C 
ENDROOT
BRANCH   1   2
ATOM      2  N   UNL     1       4.091  -6.799   7.870  1.00  0.00    -0.353 N 
ATOM      3  H   UNL     1       5.032  -6.384   8.058  1.00  0.00     0.344 HD
ATOM      4  H   UNL     1       4.170  -7.842   7.895  1.00  0.00     0.344 HD
ATOM      5  H   UNL     1       3.766  -6.491   6.925  1.00  0.00     0.344 HD
ENDBRANCH   1   2
BRANCH   1   6
ATOM      6  C   UNL     1       2.136  -5.416   8.307  1.00  0.00     0.096 C 
ATOM      7  O   UNL     1       1.168  -5.877   7.648  1.00  0.00    -0.544 OA
ATOM      8  O   UNL     1       2.285  -4.042   8.441  1.00  0.00    -0.544 OA
ENDBRANCH   1   6
TORSDOF 2
ENDMDL
MODEL 2
REMARK VINA RESULT:    -2.998      2.047      2.507
REMARK INTER + INTRA:          -3.261
REMARK INTER:                  -3.261
REMARK INTRA:                   0.000
REMARK UNBOUND:                 0.000
REMARK SMILES [NH3+]CC(=O)[O-]
REMARK SMILES IDX 2 1 1 2 3 6 4 7 5 8
REMARK H PARENT 1 3 1 4 1 5
REMARK Flexibility Score: inf
ROOT
ATOM      1  C   UNL     1       2.214  -5.747   9.930  1.00  0.00     0.312 C 
ENDROOT
BRANCH   1   2
ATOM      2  N   UNL     1       0.967  -5.925  10.673  1.00  0.00    -0.353 N 
ATOM      3  H   UNL     1       0.616  -4.990  10.980  1.00  0.00     0.344 HD
ATOM      4  H   UNL     1       0.247  -6.375  10.062  1.00  0.00     0.344 HD
ATOM      5  H   UNL     1       1.136  -6.519  11.518  1.00  0.00     0.344 HD
ENDBRANCH   1   2
BRANCH   1   6
ATOM      6  C   UNL     1       1.952  -5.105   8.603  1.00  0.00     0.096 C 
ATOM      7  O   UNL     1       2.299  -3.913   8.398  1.00  0.00    -0.544 OA
ATOM      8  O   UNL     1       1.276  -5.806   7.613  1.00  0.00    -0.544 OA
ENDBRANCH   1   6
TORSDOF 2
ENDMDL
MODEL 3
REMARK VINA RESULT:    -2.905     10.251     10.753
REMARK INTER + INTRA:          -3.160
REMARK INTER:                  -3.160
REMARK INTRA:                   0.000
REMARK UNBOUND:                 0.000
REMARK SMILES [NH3+]CC(=O)[O-]
REMARK SMILES IDX 2 1 1 2 3 6 4 7 5 8
REMARK H PARENT 1 3 1 4 1 5
REMARK Flexibility Score: inf
ROOT
ATOM      1  C   UNL     1       1.621   5.270   9.565  1.00  0.00     0.312 C 
ENDROOT
BRANCH   1   2
ATOM      2  N   UNL     1       0.781   4.474  10.459  1.00  0.00    -0.353 N 
ATOM      3  H   UNL     1       0.088   3.938   9.889  1.00  0.00     0.344 HD
ATOM      4  H   UNL     1       1.370   3.799  10.999  1.00  0.00     0.344 HD
ATOM      5  H   UNL     1       0.265   5.101  11.119  1.00  0.00     0.344 HD
ENDBRANCH   1   2
BRANCH   1   6
ATOM      6  C   UNL     1       3.010   4.712   9.509  1.00  0.00     0.096 C 
ATOM      7  O   UNL     1       3.199   3.523   9.141  1.00  0.00    -0.544 OA
ATOM      8  O   UNL     1       4.088   5.489   9.913  1.00  0.00    -0.544 OA
ENDBRANCH   1   6
TORSDOF 2
ENDMDL
MODEL 4
REMARK VINA RESULT:    -2.869     10.487     10.821
REMARK INTER + INTRA:          -3.121
REMARK INTER:                  -3.121
REMARK INTRA:                   0.000
REMARK UNBOUND:                 0.000
REMARK SMILES [NH3+]CC(=O)[O-]
REMARK SMILES IDX 2 1 1 2 3 6 4 7 5 8
REMARK H PARENT 1 3 1 4 1 5
REMARK Flexibility Score: inf
ROOT
ATOM      1  C   UNL     1       2.685   3.892   9.060  1.00  0.00     0.312 C 
ENDROOT
BRANCH   1   2
ATOM      2  N   UNL     1       1.429   3.305   9.525  1.00  0.00    -0.353 N 
ATOM      3  H   UNL     1       1.043   2.686   8.776  1.00  0.00     0.344 HD
ATOM      4  H   UNL     1       1.597   2.733  10.384  1.00  0.00     0.344 HD
ATOM      5  H   UNL     1       0.735   4.060   9.732  1.00  0.00     0.344 HD
ENDBRANCH   1   2
BRANCH   1   6
ATOM      6  C   UNL     1       2.852   5.279   9.601  1.00  0.00     0.096 C 
ATOM      7  O   UNL     1       3.953   5.636  10.095  1.00  0.00    -0.544 OA
ATOM      8  O   UNL     1       1.777   6.158   9.607  1.00  0.00    -0.544 OA
ENDBRANCH   1   6
TORSDOF 2
ENDMDL
MODEL 5
REMARK VINA RESULT:    -2.799     16.925     17.059
REMARK INTER + INTRA:          -3.044
REMARK INTER:                  -3.044
REMARK INTRA:                   0.000
REMARK UNBOUND:                 0.000
REMARK SMILES [NH3+]CC(=O)[O-]
REMARK SMILES IDX 2 1 1 2 3 6 4 7 5 8
REMARK H PARENT 1 3 1 4 1 5
REMARK Flexibility Score: inf
ROOT
ATOM      1  C   UNL     1      -3.437   0.952  -6.915  1.00  0.00     0.312 C 
ENDROOT
BRANCH   1   2
ATOM      2  N   UNL     1      -2.314   1.406  -6.096  1.00  0.00    -0.353 N 
ATOM      3  H   UNL     1      -2.661   2.099  -5.395  1.00  0.00     0.344 HD
ATOM      4  H   UNL     1      -1.888   0.596  -5.590  1.00  0.00     0.344 HD
ATOM      5  H   UNL     1      -1.593   1.865  -6.700  1.00  0.00     0.344 HD
ENDBRANCH   1   2
BRANCH   1   6
ATOM      6  C   UNL     1      -3.702  -0.505  -6.688  1.00  0.00     0.096 C 
ATOM      7  O   UNL     1      -4.770  -0.874  -6.133  1.00  0.00    -0.544 OA
ATOM      8  O   UNL     1      -2.746  -1.449  -7.040  1.00  0.00    -0.544 OA
ENDBRANCH   1   6
TORSDOF 2
ENDMDL
MODEL 6
REMARK VINA RESULT:    -2.796      1.767      2.039
REMARK INTER + INTRA:          -3.041
REMARK INTER:                  -3.041
REMARK INTRA:                   0.000
REMARK UNBOUND:                 0.000
REMARK SMILES [NH3+]CC(=O)[O-]
REMARK SMILES IDX 2 1 1 2 3 6 4 7 5 8
REMARK H PARENT 1 3 1 4 1 5
REMARK Flexibility Score: inf
ROOT
ATOM      1  C   UNL     1       2.748  -7.844   7.036  1.00  0.00     0.312 C 
ENDROOT
BRANCH   1   2
ATOM      2  N   UNL     1       4.159  -7.795   6.656  1.00  0.00    -0.353 N 
ATOM      3  H   UNL     1       4.703  -8.434   7.278  1.00  0.00     0.344 HD
ATOM      4  H   UNL     1       4.275  -8.107   5.664  1.00  0.00     0.344 HD
ATOM      5  H   UNL     1       4.526  -6.821   6.766  1.00  0.00     0.344 HD
ENDBRANCH   1   2
BRANCH   1   6
ATOM      6  C   UNL     1       2.393  -6.677   7.904  1.00  0.00     0.096 C 
ATOM      7  O   UNL     1       3.047  -6.447   8.954  1.00  0.00    -0.544 OA
ATOM      8  O   UNL     1       1.305  -5.875   7.580  1.00  0.00    -0.544 OA
ENDBRANCH   1   6
TORSDOF 2
ENDMDL
MODEL 7
REMARK VINA RESULT:    -2.758      5.649      6.178
REMARK INTER + INTRA:          -3.000
REMARK INTER:                  -3.000
REMARK INTRA:                   0.000
REMARK UNBOUND:                 0.000
REMARK SMILES [NH3+]CC(=O)[O-]
REMARK SMILES IDX 2 1 1 2 3 6 4 7 5 8
REMARK H PARENT 1 3 1 4 1 5
REMARK Flexibility Score: inf
ROOT
ATOM      1  C   UNL     1       1.823   0.741   8.121  1.00  0.00     0.312 C 
ENDROOT
BRANCH   1   2
ATOM      2  N   UNL     1       0.455   1.122   8.468  1.00  0.00    -0.353 N 
ATOM      3  H   UNL     1      -0.208   0.424   8.062  1.00  0.00     0.344 HD
ATOM      4  H   UNL     1       0.339   1.135   9.508  1.00  0.00     0.344 HD
ATOM      5  H   UNL     1       0.236   2.067   8.076  1.00  0.00     0.344 HD
ENDBRANCH   1   2
BRANCH   1   6
ATOM      6  C   UNL     1       2.162  -0.599   8.698  1.00  0.00     0.096 C 
ATOM      7  O   UNL     1       2.182  -0.764   9.945  1.00  0.00    -0.544 OA
ATOM      8  O   UNL     1       2.507  -1.650   7.858  1.00  0.00    -0.544 OA
ENDBRANCH   1   6
TORSDOF 2
ENDMDL
MODEL 8
REMARK VINA RESULT:    -2.718      6.814      7.113
REMARK INTER + INTRA:          -2.956
REMARK INTER:                  -2.956
REMARK INTRA:                   0.000
REMARK UNBOUND:                 0.000
REMARK SMILES [NH3+]CC(=O)[O-]
REMARK SMILES IDX 2 1 1 2 3 6 4 7 5 8
REMARK H PARENT 1 3 1 4 1 5
REMARK Flexibility Score: inf
ROOT
ATOM      1  C   UNL     1       2.070   1.157   7.910  1.00  0.00     0.312 C 
ENDROOT
BRANCH   1   2
ATOM      2  N   UNL     1       2.456   2.529   8.237  1.00  0.00    -0.353 N 
ATOM      3  H   UNL     1       3.400   2.521   8.686  1.00  0.00     0.344 HD
ATOM      4  H   UNL     1       2.500   3.107   7.366  1.00  0.00     0.344 HD
ATOM      5  H   UNL     1       1.766   2.946   8.905  1.00  0.00     0.344 HD
ENDBRANCH   1   2
BRANCH   1   6
ATOM      6  C   UNL     1       1.205   0.580   8.987  1.00  0.00     0.096 C 
ATOM      7  O   UNL     1       1.682  -0.245   9.808  1.00  0.00    -0.544 OA
ATOM      8  O   UNL     1      -0.142   0.914   9.050  1.00  0.00    -0.544 OA
ENDBRANCH   1   6
TORSDOF 2
ENDMDL
MODEL 9
REMARK VINA RESULT:    -2.702      3.091      3.512
REMARK INTER + INTRA:          -2.939
REMARK INTER:                  -2.939
REMARK INTRA:                   0.000
REMARK UNBOUND:                 0.000
REMARK SMILES [NH3+]CC(=O)[O-]
REMARK SMILES IDX 2 1 1 2 3 6 4 7 5 8
REMARK H PARENT 1 3 1 4 1 5
REMARK Flexibility Score: inf
ROOT
ATOM      1  C   UNL     1       2.502  -7.212   7.517  1.00  0.00     0.312 C 
ENDROOT
BRANCH   1   2
ATOM      2  N   UNL     1       3.656  -7.136   8.412  1.00  0.00    -0.353 N 
ATOM      3  H   UNL     1       3.426  -7.623   9.307  1.00  0.00     0.344 HD
ATOM      4  H   UNL     1       4.481  -7.605   7.973  1.00  0.00     0.344 HD
ATOM      5  H   UNL     1       3.884  -6.136   8.618  1.00  0.00     0.344 HD
ENDBRANCH   1   2
BRANCH   1   6
ATOM      6  C   UNL     1       2.586  -8.428   6.647  1.00  0.00     0.096 C 
ATOM      7  O   UNL     1       2.351  -8.341   5.414  1.00  0.00    -0.544 OA
ATOM      8  O   UNL     1       2.872  -9.666   7.208  1.00  0.00    -0.544 OA
ENDBRANCH   1   6
TORSDOF 2
ENDMDL
