MODEL 1
REMARK VINA RESULT:    21.231      0.000      0.000
REMARK INTER + INTRA:          23.856
REMARK INTER:                  23.713
REMARK INTRA:                   0.143
REMARK UNBOUND:                 0.143
REMARK SMILES CC1(C)CC[C@]2(C(=O)[O-])[C@H](O)C[C@]3(C)C(=CC[C@@H]4[C@@]5(C)CC[C@@H](O)C(C)(C)[C@@H]5CC[C@@]43C)[C@@H]2C1
REMARK SMILES IDX 6 1 5 2 33 3 10 4 4 5 34 6 15 7 12 8 2 9 16 10 13 11 1 12
REMARK SMILES IDX 3 13 17 14 31 15 14 16 18 17 30 18 32 19 19 20 29 21 21 22
REMARK SMILES IDX 20 23 28 24 22 25 25 26 23 27 26 28 27 29 7 30 8 31 9 32
REMARK SMILES IDX 11 33 24 35
REMARK H PARENT 11 34 24 36
REMARK Flexibility Score: inf
ROOT
ATOM      1  C   UNL     1      24.702  -0.589  14.747  1.00  0.00     0.042 C 
ATOM      2  C   UNL     1      23.772  -1.608  15.467  1.00  0.00     0.017 C 
ATOM      3  C   UNL     1      25.346  -1.273  13.492  1.00  0.00     0.030 C 
ATOM      4  C   UNL     1      23.911   0.728  14.355  1.00  0.00     0.127 C 
ATOM      5  C   UNL     1      24.476  -2.910  15.883  1.00  0.00     0.007 C 
ATOM      6  C   UNL     1      26.062  -2.597  13.923  1.00  0.00     0.015 C 
ATOM      7  C   UNL     1      24.357  -1.412  12.318  1.00  0.00    -0.063 C 
ATOM      8  C   UNL     1      23.689   0.960  12.838  1.00  0.00     0.044 C 
ATOM      9  C   UNL     1      25.191  -3.638  14.719  1.00  0.00    -0.035 C 
ATOM     10  C   UNL     1      24.425  -2.439  11.454  1.00  0.00    -0.027 C 
ATOM     11  C   UNL     1      23.332  -0.312  12.004  1.00  0.00    -0.003 C 
ATOM     12  C   UNL     1      24.155  -4.366  13.844  1.00  0.00     0.011 C 
ATOM     13  C   UNL     1      26.124  -4.711  15.310  1.00  0.00     0.011 C 
ATOM     14  C   UNL     1      23.372  -2.621  10.405  1.00  0.00     0.032 C 
ATOM     15  C   UNL     1      23.355   0.026  10.413  1.00  0.00    -0.020 C 
ATOM     16  C   UNL     1      21.905  -0.800  12.434  1.00  0.00     0.017 C 
ATOM     17  C   UNL     1      23.195  -1.328   9.553  1.00  0.00     0.006 C 
ATOM     18  C   UNL     1      24.693   0.730   9.999  1.00  0.00     0.008 C 
ATOM     19  C   UNL     1      22.198   1.050  10.067  1.00  0.00     0.012 C 
ATOM     20  C   UNL     1      24.027  -1.446   8.184  1.00  0.00    -0.025 C 
ATOM     21  C   UNL     1      24.899   0.951   8.479  1.00  0.00     0.005 C 
ATOM     22  C   UNL     1      23.260  -2.446   7.234  1.00  0.00     0.010 C 
ATOM     23  C   UNL     1      25.470  -2.008   8.437  1.00  0.00     0.012 C 
ATOM     24  C   UNL     1      24.141  -0.023   7.537  1.00  0.00     0.003 C 
ATOM     25  C   UNL     1      23.205  -2.067   5.748  1.00  0.00     0.033 C 
ATOM     26  C   UNL     1      24.634   0.037   6.010  1.00  0.00    -0.006 C 
ATOM     27  C   UNL     1      24.484  -1.362   5.311  1.00  0.00     0.120 C 
ATOM     28  C   UNL     1      26.119   0.483   5.827  1.00  0.00     0.014 C 
ATOM     29  C   UNL     1      23.783   1.104   5.276  1.00  0.00     0.014 C 
ENDROOT
BRANCH   1  30
ATOM     30  C   UNL     1      25.727  -0.234  15.788  1.00  0.00     0.051 C 
ATOM     31  O   UNL     1      25.647   0.918  16.434  1.00  0.00    -0.549 OA
ATOM     32  O   UNL     1      25.814   0.900  16.464  1.00  0.00    -0.549 OA
ENDBRANCH   1  30
BRANCH   4  33
ATOM     33  O   UNL     1      22.658   0.800  14.994  1.00  0.00    -0.392 OA
ATOM     34  H   UNL     1      22.214   1.624  14.673  1.00  0.00     0.210 HD
ENDBRANCH   4  33
BRANCH  27  35
ATOM     35  O   UNL     1      24.552  -1.275   3.909  1.00  0.00    -0.393 OA
ATOM     36  H   UNL     1      25.498  -1.425   3.628  1.00  0.00     0.210 HD
ENDBRANCH  27  35
TORSDOF 3
ENDMDL
