MODEL 1
REMARK VINA RESULT:    -4.465      0.000      0.000
REMARK INTER + INTRA:          -9.558
REMARK INTER:                  -7.597
REMARK INTRA:                  -1.961
REMARK UNBOUND:                -1.961
REMARK SMILES CCCCCCCCCCCCCC(=O)[O-]
REMARK SMILES IDX 8 1 9 2 10 3 11 4 12 5 13 6 14 7 15 8 16 9 7 10 6 11 5 12
REMARK SMILES IDX 4 13 3 14 2 15 1 16
REMARK H PARENT
REMARK Flexibility Score: inf
ROOT
ATOM      1  C   UNL     1      15.452 -17.209  39.429  1.00  0.00     0.000 C 
ENDROOT
BRANCH   1   2
ATOM      2  C   UNL     1      14.935 -17.856  38.136  1.00  0.00     0.000 C 
BRANCH   2   3
ATOM      3  C   UNL     1      14.266 -16.845  37.191  1.00  0.00     0.000 C 
BRANCH   3   4
ATOM      4  C   UNL     1      15.034 -16.675  35.869  1.00  0.00     0.000 C 
BRANCH   4   5
ATOM      5  C   UNL     1      16.421 -16.034  36.057  1.00  0.00     0.006 C 
BRANCH   5   6
ATOM      6  C   UNL     1      16.555 -14.637  35.426  1.00  0.00     0.053 C 
BRANCH   6   7
ATOM      7  C   UNL     1      17.890 -14.010  35.693  1.00  0.00     0.041 C 
ATOM      8  O   UNL     1      18.392 -13.210  34.859  1.00  0.00    -0.550 OA
ATOM      9  O   UNL     1      18.566 -14.281  36.876  1.00  0.00    -0.550 OA
ENDBRANCH   6   7
ENDBRANCH   5   6
ENDBRANCH   4   5
ENDBRANCH   3   4
ENDBRANCH   2   3
ENDBRANCH   1   2
BRANCH   1  10
ATOM     10  C   UNL     1      14.478 -16.132  39.929  1.00  0.00     0.000 C 
BRANCH  10  11
ATOM     11  C   UNL     1      15.186 -14.821  40.311  1.00  0.00    -0.000 C 
BRANCH  11  12
ATOM     12  C   UNL     1      15.918 -14.176  39.125  1.00  0.00    -0.000 C 
BRANCH  12  13
ATOM     13  C   UNL     1      15.232 -12.873  38.698  1.00  0.00    -0.000 C 
BRANCH  13  14
ATOM     14  C   UNL     1      14.121 -13.145  37.673  1.00  0.00    -0.000 C 
BRANCH  14  15
ATOM     15  C   UNL     1      12.715 -12.969  38.263  1.00  0.00    -0.003 C 
ATOM     16  C   UNL     1      11.769 -14.109  37.885  1.00  0.00     0.004 C 
ENDBRANCH  14  15
ENDBRANCH  13  14
ENDBRANCH  12  13
ENDBRANCH  11  12
ENDBRANCH  10  11
ENDBRANCH   1  10
TORSDOF 12
ENDMDL
MODEL 2
REMARK VINA RESULT:    -4.373      2.803      5.031
REMARK INTER + INTRA:          -9.402
REMARK INTER:                  -7.557
REMARK INTRA:                  -1.845
REMARK UNBOUND:                -1.961
REMARK SMILES CCCCCCCCCCCCCC(=O)[O-]
REMARK SMILES IDX 8 1 9 2 10 3 11 4 12 5 13 6 14 7 15 8 16 9 7 10 6 11 5 12
REMARK SMILES IDX 4 13 3 14 2 15 1 16
REMARK H PARENT
REMARK Flexibility Score: inf
ROOT
ATOM      1  C   UNL     1      15.114 -16.494  39.615  1.00  0.00     0.000 C 
ENDROOT
BRANCH   1   2
ATOM      2  C   UNL     1      14.863 -15.058  40.098  1.00  0.00     0.000 C 
BRANCH   2   3
ATOM      3  C   UNL     1      15.900 -14.059  39.557  1.00  0.00     0.000 C 
BRANCH   3   4
ATOM      4  C   UNL     1      15.249 -12.857  38.852  1.00  0.00     0.000 C 
BRANCH   4   5
ATOM      5  C   UNL     1      14.151 -13.267  37.853  1.00  0.00     0.006 C 
BRANCH   5   6
ATOM      6  C   UNL     1      12.764 -12.680  38.172  1.00  0.00     0.053 C 
BRANCH   6   7
ATOM      7  C   UNL     1      11.733 -13.739  38.419  1.00  0.00     0.041 C 
ATOM      8  O   UNL     1      11.582 -14.679  37.595  1.00  0.00    -0.550 OA
ATOM      9  O   UNL     1      10.962 -13.708  39.574  1.00  0.00    -0.550 OA
ENDBRANCH   6   7
ENDBRANCH   5   6
ENDBRANCH   4   5
ENDBRANCH   3   4
ENDBRANCH   2   3
ENDBRANCH   1   2
BRANCH   1  10
ATOM     10  C   UNL     1      14.283 -16.802  38.360  1.00  0.00     0.000 C 
BRANCH  10  11
ATOM     11  C   UNL     1      15.132 -16.824  37.078  1.00  0.00    -0.000 C 
BRANCH  11  12
ATOM     12  C   UNL     1      16.617 -17.099  37.356  1.00  0.00    -0.000 C 
BRANCH  12  13
ATOM     13  C   UNL     1      17.485 -15.907  36.936  1.00  0.00    -0.000 C 
BRANCH  13  14
ATOM     14  C   UNL     1      16.778 -15.059  35.868  1.00  0.00    -0.000 C 
BRANCH  14  15
ATOM     15  C   UNL     1      17.346 -13.636  35.771  1.00  0.00    -0.003 C 
ATOM     16  C   UNL     1      18.505 -13.529  34.779  1.00  0.00     0.004 C 
ENDBRANCH  14  15
ENDBRANCH  13  14
ENDBRANCH  12  13
ENDBRANCH  11  12
ENDBRANCH  10  11
ENDBRANCH   1  10
TORSDOF 12
ENDMDL
MODEL 3
REMARK VINA RESULT:    -4.348      1.929      4.148
REMARK INTER + INTRA:          -9.360
REMARK INTER:                  -7.727
REMARK INTRA:                  -1.633
REMARK UNBOUND:                -1.961
REMARK SMILES CCCCCCCCCCCCCC(=O)[O-]
REMARK SMILES IDX 8 1 9 2 10 3 11 4 12 5 13 6 14 7 15 8 16 9 7 10 6 11 5 12
REMARK SMILES IDX 4 13 3 14 2 15 1 16
REMARK H PARENT
REMARK Flexibility Score: inf
ROOT
ATOM      1  C   UNL     1      14.703 -15.294  40.021  1.00  0.00     0.000 C 
ENDROOT
BRANCH   1   2
ATOM      2  C   UNL     1      13.313 -15.073  39.407  1.00  0.00     0.000 C 
BRANCH   2   3
ATOM      3  C   UNL     1      12.698 -16.365  38.844  1.00  0.00     0.000 C 
BRANCH   3   4
ATOM      4  C   UNL     1      12.854 -16.478  37.319  1.00  0.00     0.000 C 
BRANCH   4   5
ATOM      5  C   UNL     1      13.863 -17.561  36.895  1.00  0.00     0.006 C 
BRANCH   5   6
ATOM      6  C   UNL     1      15.238 -17.007  36.480  1.00  0.00     0.053 C 
BRANCH   6   7
ATOM      7  C   UNL     1      16.309 -17.316  37.481  1.00  0.00     0.041 C 
ATOM      8  O   UNL     1      16.068 -18.085  38.450  1.00  0.00    -0.550 OA
ATOM      9  O   UNL     1      17.584 -16.785  37.329  1.00  0.00    -0.550 OA
ENDBRANCH   6   7
ENDBRANCH   5   6
ENDBRANCH   4   5
ENDBRANCH   3   4
ENDBRANCH   2   3
ENDBRANCH   1   2
BRANCH   1  10
ATOM     10  C   UNL     1      15.693 -14.226  39.532  1.00  0.00     0.000 C 
BRANCH  10  11
ATOM     11  C   UNL     1      15.299 -13.632  38.170  1.00  0.00    -0.000 C 
BRANCH  11  12
ATOM     12  C   UNL     1      16.506 -13.434  37.240  1.00  0.00    -0.000 C 
BRANCH  12  13
ATOM     13  C   UNL     1      16.088 -13.541  35.768  1.00  0.00    -0.000 C 
BRANCH  13  14
ATOM     14  C   UNL     1      17.141 -14.302  34.950  1.00  0.00    -0.000 C 
BRANCH  14  15
ATOM     15  C   UNL     1      18.477 -13.549  34.860  1.00  0.00    -0.003 C 
ATOM     16  C   UNL     1      19.133 -13.674  33.484  1.00  0.00     0.004 C 
ENDBRANCH  14  15
ENDBRANCH  13  14
ENDBRANCH  12  13
ENDBRANCH  11  12
ENDBRANCH  10  11
ENDBRANCH   1  10
TORSDOF 12
ENDMDL
MODEL 4
REMARK VINA RESULT:    -4.237      2.052      3.469
REMARK INTER + INTRA:          -9.171
REMARK INTER:                  -7.433
REMARK INTRA:                  -1.738
REMARK UNBOUND:                -1.961
REMARK SMILES CCCCCCCCCCCCCC(=O)[O-]
REMARK SMILES IDX 8 1 9 2 10 3 11 4 12 5 13 6 14 7 15 8 16 9 7 10 6 11 5 12
REMARK SMILES IDX 4 13 3 14 2 15 1 16
REMARK H PARENT
REMARK Flexibility Score: inf
ROOT
ATOM      1  C   UNL     1      15.171 -12.853  38.691  1.00  0.00     0.000 C 
ENDROOT
BRANCH   1   2
ATOM      2  C   UNL     1      14.929 -13.206  37.216  1.00  0.00     0.000 C 
BRANCH   2   3
ATOM      3  C   UNL     1      15.916 -12.506  36.266  1.00  0.00     0.000 C 
BRANCH   3   4
ATOM      4  C   UNL     1      17.079 -13.419  35.846  1.00  0.00     0.000 C 
BRANCH   4   5
ATOM      5  C   UNL     1      16.658 -14.890  35.672  1.00  0.00     0.006 C 
BRANCH   5   6
ATOM      6  C   UNL     1      17.417 -15.871  36.584  1.00  0.00     0.053 C 
BRANCH   6   7
ATOM      7  C   UNL     1      16.601 -17.075  36.942  1.00  0.00     0.041 C 
ATOM      8  O   UNL     1      17.050 -17.925  37.756  1.00  0.00    -0.550 OA
ATOM      9  O   UNL     1      15.331 -17.244  36.405  1.00  0.00    -0.550 OA
ENDBRANCH   6   7
ENDBRANCH   5   6
ENDBRANCH   4   5
ENDBRANCH   3   4
ENDBRANCH   2   3
ENDBRANCH   1   2
BRANCH   1  10
ATOM     10  C   UNL     1      16.026 -13.929  39.377  1.00  0.00     0.000 C 
BRANCH  10  11
ATOM     11  C   UNL     1      15.217 -14.792  40.359  1.00  0.00    -0.000 C 
BRANCH  11  12
ATOM     12  C   UNL     1      14.476 -15.944  39.663  1.00  0.00    -0.000 C 
BRANCH  12  13
ATOM     13  C   UNL     1      12.959 -15.726  39.704  1.00  0.00    -0.000 C 
BRANCH  13  14
ATOM     14  C   UNL     1      12.347 -15.842  38.300  1.00  0.00    -0.000 C 
BRANCH  14  15
ATOM     15  C   UNL     1      11.629 -14.558  37.861  1.00  0.00    -0.003 C 
ATOM     16  C   UNL     1      11.474 -13.548  38.998  1.00  0.00     0.004 C 
ENDBRANCH  14  15
ENDBRANCH  13  14
ENDBRANCH  12  13
ENDBRANCH  11  12
ENDBRANCH  10  11
ENDBRANCH   1  10
TORSDOF 12
ENDMDL
MODEL 5
REMARK VINA RESULT:    -4.165      1.552      2.603
REMARK INTER + INTRA:          -9.048
REMARK INTER:                  -6.927
REMARK INTRA:                  -2.120
REMARK UNBOUND:                -1.961
REMARK SMILES CCCCCCCCCCCCCC(=O)[O-]
REMARK SMILES IDX 8 1 9 2 10 3 11 4 12 5 13 6 14 7 15 8 16 9 7 10 6 11 5 12
REMARK SMILES IDX 4 13 3 14 2 15 1 16
REMARK H PARENT
REMARK Flexibility Score: inf
ROOT
ATOM      1  C   UNL     1      15.442 -18.365  39.395  1.00  0.00     0.000 C 
ENDROOT
BRANCH   1   2
ATOM      2  C   UNL     1      16.212 -17.893  38.152  1.00  0.00     0.000 C 
BRANCH   2   3
ATOM      3  C   UNL     1      15.307 -17.204  37.117  1.00  0.00     0.000 C 
BRANCH   3   4
ATOM      4  C   UNL     1      16.004 -16.026  36.416  1.00  0.00     0.000 C 
BRANCH   4   5
ATOM      5  C   UNL     1      17.405 -15.732  36.982  1.00  0.00     0.006 C 
BRANCH   5   6
ATOM      6  C   UNL     1      17.679 -14.237  37.229  1.00  0.00     0.053 C 
BRANCH   6   7
ATOM      7  C   UNL     1      17.349 -13.387  36.040  1.00  0.00     0.041 C 
ATOM      8  O   UNL     1      18.037 -13.474  34.989  1.00  0.00    -0.550 OA
ATOM      9  O   UNL     1      16.263 -12.522  36.079  1.00  0.00    -0.550 OA
ENDBRANCH   6   7
ENDBRANCH   5   6
ENDBRANCH   4   5
ENDBRANCH   3   4
ENDBRANCH   2   3
ENDBRANCH   1   2
BRANCH   1  10
ATOM     10  C   UNL     1      13.967 -18.627  39.056  1.00  0.00     0.000 C 
BRANCH  10  11
ATOM     11  C   UNL     1      13.002 -17.910  40.015  1.00  0.00    -0.000 C 
BRANCH  11  12
ATOM     12  C   UNL     1      12.227 -16.772  39.334  1.00  0.00    -0.000 C 
BRANCH  12  13
ATOM     13  C   UNL     1      12.681 -15.406  39.860  1.00  0.00    -0.000 C 
BRANCH  13  14
ATOM     14  C   UNL     1      13.389 -14.599  38.761  1.00  0.00    -0.000 C 
BRANCH  14  15
ATOM     15  C   UNL     1      14.731 -14.015  39.226  1.00  0.00    -0.003 C 
ATOM     16  C   UNL     1      15.405 -14.869  40.301  1.00  0.00     0.004 C 
ENDBRANCH  14  15
ENDBRANCH  13  14
ENDBRANCH  12  13
ENDBRANCH  11  12
ENDBRANCH  10  11
ENDBRANCH   1  10
TORSDOF 12
ENDMDL
MODEL 6
REMARK VINA RESULT:    -4.162      1.997      4.056
REMARK INTER + INTRA:          -9.044
REMARK INTER:                  -7.386
REMARK INTRA:                  -1.658
REMARK UNBOUND:                -1.961
REMARK SMILES CCCCCCCCCCCCCC(=O)[O-]
REMARK SMILES IDX 8 1 9 2 10 3 11 4 12 5 13 6 14 7 15 8 16 9 7 10 6 11 5 12
REMARK SMILES IDX 4 13 3 14 2 15 1 16
REMARK H PARENT
REMARK Flexibility Score: inf
ROOT
ATOM      1  C   UNL     1      15.789 -13.873  39.599  1.00  0.00     0.000 C 
ENDROOT
BRANCH   1   2
ATOM      2  C   UNL     1      15.000 -13.019  38.595  1.00  0.00     0.000 C 
BRANCH   2   3
ATOM      3  C   UNL     1      15.148 -13.514  37.147  1.00  0.00     0.000 C 
BRANCH   3   4
ATOM      4  C   UNL     1      16.475 -13.076  36.506  1.00  0.00     0.000 C 
BRANCH   4   5
ATOM      5  C   UNL     1      17.293 -14.255  35.948  1.00  0.00     0.006 C 
BRANCH   5   6
ATOM      6  C   UNL     1      17.666 -15.312  37.002  1.00  0.00     0.053 C 
BRANCH   6   7
ATOM      7  C   UNL     1      16.993 -16.629  36.761  1.00  0.00     0.041 C 
ATOM      8  O   UNL     1      17.186 -17.593  37.549  1.00  0.00    -0.550 OA
ATOM      9  O   UNL     1      16.126 -16.785  35.687  1.00  0.00    -0.550 OA
ENDBRANCH   6   7
ENDBRANCH   5   6
ENDBRANCH   4   5
ENDBRANCH   3   4
ENDBRANCH   2   3
ENDBRANCH   1   2
BRANCH   1  10
ATOM     10  C   UNL     1      15.127 -15.247  39.786  1.00  0.00     0.000 C 
BRANCH  10  11
ATOM     11  C   UNL     1      13.605 -15.150  39.982  1.00  0.00    -0.000 C 
BRANCH  11  12
ATOM     12  C   UNL     1      12.854 -16.346  39.380  1.00  0.00    -0.000 C 
BRANCH  12  13
ATOM     13  C   UNL     1      13.398 -16.694  37.989  1.00  0.00    -0.000 C 
BRANCH  13  14
ATOM     14  C   UNL     1      13.658 -18.202  37.859  1.00  0.00    -0.000 C 
BRANCH  14  15
ATOM     15  C   UNL     1      13.680 -18.917  39.218  1.00  0.00    -0.003 C 
ATOM     16  C   UNL     1      15.039 -19.542  39.534  1.00  0.00     0.004 C 
ENDBRANCH  14  15
ENDBRANCH  13  14
ENDBRANCH  12  13
ENDBRANCH  11  12
ENDBRANCH  10  11
ENDBRANCH   1  10
TORSDOF 12
ENDMDL
MODEL 7
REMARK VINA RESULT:    -4.162      3.372      4.896
REMARK INTER + INTRA:          -9.043
REMARK INTER:                  -6.974
REMARK INTRA:                  -2.069
REMARK UNBOUND:                -1.961
REMARK SMILES CCCCCCCCCCCCCC(=O)[O-]
REMARK SMILES IDX 8 1 9 2 10 3 11 4 12 5 13 6 14 7 15 8 16 9 7 10 6 11 5 12
REMARK SMILES IDX 4 13 3 14 2 15 1 16
REMARK H PARENT
REMARK Flexibility Score: inf
ROOT
ATOM      1  C   UNL     1      16.559 -16.511  35.820  1.00  0.00     0.000 C 
ENDROOT
BRANCH   1   2
ATOM      2  C   UNL     1      15.061 -16.850  35.839  1.00  0.00     0.000 C 
BRANCH   2   3
ATOM      3  C   UNL     1      14.587 -17.373  37.206  1.00  0.00     0.000 C 
BRANCH   3   4
ATOM      4  C   UNL     1      15.749 -17.603  38.185  1.00  0.00     0.000 C 
BRANCH   4   5
ATOM      5  C   UNL     1      15.287 -17.741  39.647  1.00  0.00     0.006 C 
BRANCH   5   6
ATOM      6  C   UNL     1      13.929 -18.448  39.810  1.00  0.00     0.053 C 
BRANCH   6   7
ATOM      7  C   UNL     1      14.047 -19.941  39.761  1.00  0.00     0.041 C 
ATOM      8  O   UNL     1      14.612 -20.562  40.700  1.00  0.00    -0.550 OA
ATOM      9  O   UNL     1      13.505 -20.652  38.697  1.00  0.00    -0.550 OA
ENDBRANCH   6   7
ENDBRANCH   5   6
ENDBRANCH   4   5
ENDBRANCH   3   4
ENDBRANCH   2   3
ENDBRANCH   1   2
BRANCH   1  10
ATOM     10  C   UNL     1      16.776 -15.007  35.594  1.00  0.00     0.000 C 
BRANCH  10  11
ATOM     11  C   UNL     1      17.789 -14.399  36.579  1.00  0.00    -0.000 C 
BRANCH  11  12
ATOM     12  C   UNL     1      17.207 -14.216  37.989  1.00  0.00    -0.000 C 
BRANCH  12  13
ATOM     13  C   UNL     1      15.860 -13.485  37.937  1.00  0.00    -0.000 C 
BRANCH  13  14
ATOM     14  C   UNL     1      14.884 -14.052  38.978  1.00  0.00    -0.000 C 
BRANCH  14  15
ATOM     15  C   UNL     1      13.451 -14.174  38.441  1.00  0.00    -0.003 C 
ATOM     16  C   UNL     1      12.547 -15.006  39.352  1.00  0.00     0.004 C 
ENDBRANCH  14  15
ENDBRANCH  13  14
ENDBRANCH  12  13
ENDBRANCH  11  12
ENDBRANCH  10  11
ENDBRANCH   1  10
TORSDOF 12
ENDMDL
MODEL 8
REMARK VINA RESULT:    -4.099      3.131      5.105
REMARK INTER + INTRA:          -8.936
REMARK INTER:                  -7.098
REMARK INTRA:                  -1.838
REMARK UNBOUND:                -1.961
REMARK SMILES CCCCCCCCCCCCCC(=O)[O-]
REMARK SMILES IDX 8 1 9 2 10 3 11 4 12 5 13 6 14 7 15 8 16 9 7 10 6 11 5 12
REMARK SMILES IDX 4 13 3 14 2 15 1 16
REMARK H PARENT
REMARK Flexibility Score: inf
ROOT
ATOM      1  C   UNL     1      15.567 -13.508  39.061  1.00  0.00     0.000 C 
ENDROOT
BRANCH   1   2
ATOM      2  C   UNL     1      15.160 -14.746  39.874  1.00  0.00     0.000 C 
BRANCH   2   3
ATOM      3  C   UNL     1      14.071 -15.582  39.180  1.00  0.00     0.000 C 
BRANCH   3   4
ATOM      4  C   UNL     1      14.215 -17.087  39.459  1.00  0.00     0.000 C 
BRANCH   4   5
ATOM      5  C   UNL     1      13.908 -17.960  38.228  1.00  0.00     0.006 C 
BRANCH   5   6
ATOM      6  C   UNL     1      13.352 -17.175  37.027  1.00  0.00     0.053 C 
BRANCH   6   7
ATOM      7  C   UNL     1      11.891 -17.421  36.804  1.00  0.00     0.041 C 
ATOM      8  O   UNL     1      11.153 -16.497  36.368  1.00  0.00    -0.550 OA
ATOM      9  O   UNL     1      11.348 -18.676  37.045  1.00  0.00    -0.550 OA
ENDBRANCH   6   7
ENDBRANCH   5   6
ENDBRANCH   4   5
ENDBRANCH   3   4
ENDBRANCH   2   3
ENDBRANCH   1   2
BRANCH   1  10
ATOM     10  C   UNL     1      14.779 -13.436  37.744  1.00  0.00     0.000 C 
BRANCH  10  11
ATOM     11  C   UNL     1      15.579 -12.772  36.611  1.00  0.00    -0.000 C 
BRANCH  11  12
ATOM     12  C   UNL     1      16.290 -13.794  35.710  1.00  0.00    -0.000 C 
BRANCH  12  13
ATOM     13  C   UNL     1      17.763 -13.944  36.107  1.00  0.00    -0.000 C 
BRANCH  13  14
ATOM     14  C   UNL     1      17.968 -15.162  37.019  1.00  0.00    -0.000 C 
BRANCH  14  15
ATOM     15  C   UNL     1      16.987 -16.303  36.711  1.00  0.00    -0.003 C 
ATOM     16  C   UNL     1      17.370 -17.613  37.400  1.00  0.00     0.004 C 
ENDBRANCH  14  15
ENDBRANCH  13  14
ENDBRANCH  12  13
ENDBRANCH  11  12
ENDBRANCH  10  11
ENDBRANCH   1  10
TORSDOF 12
ENDMDL
MODEL 9
REMARK VINA RESULT:    -4.096      3.336      5.289
REMARK INTER + INTRA:          -8.931
REMARK INTER:                  -7.199
REMARK INTRA:                  -1.733
REMARK UNBOUND:                -1.961
REMARK SMILES CCCCCCCCCCCCCC(=O)[O-]
REMARK SMILES IDX 8 1 9 2 10 3 11 4 12 5 13 6 14 7 15 8 16 9 7 10 6 11 5 12
REMARK SMILES IDX 4 13 3 14 2 15 1 16
REMARK H PARENT
REMARK Flexibility Score: inf
ROOT
ATOM      1  C   UNL     1      15.238 -15.026  40.187  1.00  0.00     0.000 C 
ENDROOT
BRANCH   1   2
ATOM      2  C   UNL     1      13.872 -15.311  39.545  1.00  0.00     0.000 C 
BRANCH   2   3
ATOM      3  C   UNL     1      13.507 -16.805  39.560  1.00  0.00     0.000 C 
BRANCH   3   4
ATOM      4  C   UNL     1      14.745 -17.714  39.634  1.00  0.00     0.000 C 
BRANCH   4   5
ATOM      5  C   UNL     1      14.401 -19.171  39.991  1.00  0.00     0.006 C 
BRANCH   5   6
ATOM      6  C   UNL     1      12.979 -19.597  39.581  1.00  0.00     0.053 C 
BRANCH   6   7
ATOM      7  C   UNL     1      12.931 -20.202  38.211  1.00  0.00     0.041 C 
ATOM      8  O   UNL     1      13.138 -21.435  38.055  1.00  0.00    -0.550 OA
ATOM      9  O   UNL     1      12.625 -19.413  37.109  1.00  0.00    -0.550 OA
ENDBRANCH   6   7
ENDBRANCH   5   6
ENDBRANCH   4   5
ENDBRANCH   3   4
ENDBRANCH   2   3
ENDBRANCH   1   2
BRANCH   1  10
ATOM     10  C   UNL     1      15.934 -13.846  39.492  1.00  0.00     0.000 C 
BRANCH  10  11
ATOM     11  C   UNL     1      15.042 -13.169  38.439  1.00  0.00    -0.000 C 
BRANCH  11  12
ATOM     12  C   UNL     1      15.694 -13.128  37.048  1.00  0.00    -0.000 C 
BRANCH  12  13
ATOM     13  C   UNL     1      17.003 -13.927  37.032  1.00  0.00    -0.000 C 
BRANCH  13  14
ATOM     14  C   UNL     1      16.945 -15.059  35.995  1.00  0.00    -0.000 C 
BRANCH  14  15
ATOM     15  C   UNL     1      16.441 -16.381  36.591  1.00  0.00    -0.003 C 
ATOM     16  C   UNL     1      15.078 -16.798  36.035  1.00  0.00     0.004 C 
ENDBRANCH  14  15
ENDBRANCH  13  14
ENDBRANCH  12  13
ENDBRANCH  11  12
ENDBRANCH  10  11
ENDBRANCH   1  10
TORSDOF 12
ENDMDL
