MODEL 1
REMARK VINA RESULT:    -5.518      0.000      0.000
REMARK INTER + INTRA:          -6.682
REMARK INTER:                  -6.486
REMARK INTRA:                  -0.196
REMARK UNBOUND:                -0.196
REMARK SMILES O=c1c(O)c(-c2ccc(O)c(O)c2)oc2cc(O)ccc12
REMARK SMILES IDX 5 1 3 2 2 3 1 4 21 5 15 6 14 7 16 8 17 9 19 10 20 11 6 12
REMARK SMILES IDX 7 13 8 14 9 15 13 16 11 17 10 18 12 20 4 22 18 24
REMARK H PARENT 10 19 12 21 4 23 18 25
REMARK Flexibility Score: inf
ROOT
ATOM      1  C   UNL     1      -4.650  91.156 -14.865  1.00  0.00     0.180 A 
ATOM      2  C   UNL     1      -5.235  90.048 -14.218  1.00  0.00     0.208 A 
ATOM      3  C   UNL     1      -5.387  90.082 -12.823  1.00  0.00     0.235 A 
ATOM      4  O   UNL     1      -5.898  89.097 -12.221  1.00  0.00    -0.285 OA
ATOM      5  C   UNL     1      -4.974  91.218 -12.111  1.00  0.00     0.069 A 
ATOM      6  C   UNL     1      -4.420  92.296 -12.834  1.00  0.00     0.142 A 
ATOM      7  O   UNL     1      -4.285  92.221 -14.153  1.00  0.00    -0.452 OA
ATOM      8  C   UNL     1      -4.005  93.451 -12.161  1.00  0.00     0.094 A 
ATOM      9  C   UNL     1      -4.137  93.543 -10.770  1.00  0.00     0.119 A 
ATOM     10  C   UNL     1      -4.684  92.474 -10.051  1.00  0.00     0.047 A 
ATOM     11  C   UNL     1      -5.103  91.317 -10.714  1.00  0.00     0.020 A 
ENDROOT
BRANCH   1  12
ATOM     12  C   UNL     1      -4.439  91.190 -16.330  1.00  0.00     0.025 A 
ATOM     13  C   UNL     1      -3.135  91.102 -16.842  1.00  0.00     0.016 A 
ATOM     14  C   UNL     1      -2.913  91.110 -18.221  1.00  0.00     0.051 A 
ATOM     15  C   UNL     1      -3.993  91.191 -19.109  1.00  0.00     0.157 A 
ATOM     16  C   UNL     1      -5.522  91.250 -17.225  1.00  0.00     0.062 A 
ATOM     17  C   UNL     1      -5.300  91.257 -18.610  1.00  0.00     0.158 A 
BRANCH  15  18
ATOM     18  O   UNL     1      -3.777  91.203 -20.485  1.00  0.00    -0.504 OA
ATOM     19  H   UNL     1      -3.682  90.344 -21.014  1.00  0.00     0.293 HD
ENDBRANCH  15  18
BRANCH  17  20
ATOM     20  O   UNL     1      -6.374  91.324 -19.497  1.00  0.00    -0.504 OA
ATOM     21  H   UNL     1      -6.602  92.179 -19.991  1.00  0.00     0.293 HD
ENDBRANCH  17  20
ENDBRANCH   1  12
BRANCH   2  22
ATOM     22  O   UNL     1      -5.682  88.951 -14.959  1.00  0.00    -0.502 OA
ATOM     23  H   UNL     1      -5.046  88.265 -15.348  1.00  0.00     0.293 HD
ENDBRANCH   2  22
BRANCH   9  24
ATOM     24  O   UNL     1      -3.726  94.688 -10.092  1.00  0.00    -0.508 OA
ATOM     25  H   UNL     1      -4.340  95.486  -9.980  1.00  0.00     0.293 HD
ENDBRANCH   9  24
TORSDOF 5
ENDMDL
MODEL 2
REMARK VINA RESULT:    -5.224      9.810     11.866
REMARK INTER + INTRA:          -6.336
REMARK INTER:                  -6.013
REMARK INTRA:                  -0.322
REMARK UNBOUND:                -0.196
REMARK SMILES O=c1c(O)c(-c2ccc(O)c(O)c2)oc2cc(O)ccc12
REMARK SMILES IDX 5 1 3 2 2 3 1 4 21 5 15 6 14 7 16 8 17 9 19 10 20 11 6 12
REMARK SMILES IDX 7 13 8 14 9 15 13 16 11 17 10 18 12 20 4 22 18 24
REMARK H PARENT 10 19 12 21 4 23 18 25
REMARK Flexibility Score: inf
ROOT
ATOM      1  C   UNL     1      -8.289  83.870  -8.737  1.00  0.00     0.180 A 
ATOM      2  C   UNL     1      -8.633  85.235  -8.817  1.00  0.00     0.208 A 
ATOM      3  C   UNL     1      -9.980  85.583  -9.007  1.00  0.00     0.235 A 
ATOM      4  O   UNL     1     -10.311  86.798  -9.092  1.00  0.00    -0.285 OA
ATOM      5  C   UNL     1     -10.949  84.571  -9.092  1.00  0.00     0.069 A 
ATOM      6  C   UNL     1     -10.527  83.229  -8.979  1.00  0.00     0.142 A 
ATOM      7  O   UNL     1      -9.241  82.942  -8.809  1.00  0.00    -0.452 OA
ATOM      8  C   UNL     1     -11.464  82.193  -9.049  1.00  0.00     0.094 A 
ATOM      9  C   UNL     1     -12.823  82.481  -9.232  1.00  0.00     0.119 A 
ATOM     10  C   UNL     1     -13.243  83.810  -9.347  1.00  0.00     0.047 A 
ATOM     11  C   UNL     1     -12.315  84.853  -9.277  1.00  0.00     0.020 A 
ENDROOT
BRANCH   1  12
ATOM     12  C   UNL     1      -6.889  83.421  -8.556  1.00  0.00     0.025 A 
ATOM     13  C   UNL     1      -6.389  83.228  -7.259  1.00  0.00     0.016 A 
ATOM     14  C   UNL     1      -5.078  82.785  -7.065  1.00  0.00     0.051 A 
ATOM     15  C   UNL     1      -4.254  82.514  -8.165  1.00  0.00     0.157 A 
ATOM     16  C   UNL     1      -6.066  83.128  -9.658  1.00  0.00     0.062 A 
ATOM     17  C   UNL     1      -4.751  82.682  -9.464  1.00  0.00     0.158 A 
BRANCH  15  18
ATOM     18  O   UNL     1      -2.946  82.075  -7.976  1.00  0.00    -0.504 OA
ATOM     19  H   UNL     1      -2.601  81.814  -7.060  1.00  0.00     0.293 HD
ENDBRANCH  15  18
BRANCH  17  20
ATOM     20  O   UNL     1      -3.933  82.398 -10.557  1.00  0.00    -0.504 OA
ATOM     21  H   UNL     1      -3.651  83.120 -11.210  1.00  0.00     0.293 HD
ENDBRANCH  17  20
ENDBRANCH   1  12
BRANCH   2  22
ATOM     22  O   UNL     1      -7.654  86.221  -8.679  1.00  0.00    -0.502 OA
ATOM     23  H   UNL     1      -7.037  86.482  -9.439  1.00  0.00     0.293 HD
ENDBRANCH   2  22
BRANCH   9  24
ATOM     24  O   UNL     1     -13.762  81.455  -9.304  1.00  0.00    -0.508 OA
ATOM     25  H   UNL     1     -13.499  80.514  -9.570  1.00  0.00     0.293 HD
ENDBRANCH   9  24
TORSDOF 5
ENDMDL
MODEL 3
REMARK VINA RESULT:    -5.179     10.546     12.017
REMARK INTER + INTRA:          -6.283
REMARK INTER:                  -6.012
REMARK INTRA:                  -0.271
REMARK UNBOUND:                -0.196
REMARK SMILES O=c1c(O)c(-c2ccc(O)c(O)c2)oc2cc(O)ccc12
REMARK SMILES IDX 5 1 3 2 2 3 1 4 21 5 15 6 14 7 16 8 17 9 19 10 20 11 6 12
REMARK SMILES IDX 7 13 8 14 9 15 13 16 11 17 10 18 12 20 4 22 18 24
REMARK H PARENT 10 19 12 21 4 23 18 25
REMARK Flexibility Score: inf
ROOT
ATOM      1  C   UNL     1      -9.151  83.476  -8.317  1.00  0.00     0.180 A 
ATOM      2  C   UNL     1      -8.839  83.686  -6.958  1.00  0.00     0.208 A 
ATOM      3  C   UNL     1      -7.499  83.600  -6.550  1.00  0.00     0.235 A 
ATOM      4  O   UNL     1      -7.197  83.775  -5.338  1.00  0.00    -0.285 OA
ATOM      5  C   UNL     1      -6.504  83.328  -7.502  1.00  0.00     0.069 A 
ATOM      6  C   UNL     1      -6.894  83.153  -8.847  1.00  0.00     0.142 A 
ATOM      7  O   UNL     1      -8.175  83.233  -9.190  1.00  0.00    -0.452 OA
ATOM      8  C   UNL     1      -5.930  82.890  -9.827  1.00  0.00     0.094 A 
ATOM      9  C   UNL     1      -4.577  82.798  -9.478  1.00  0.00     0.119 A 
ATOM     10  C   UNL     1      -4.188  82.968  -8.145  1.00  0.00     0.047 A 
ATOM     11  C   UNL     1      -5.143  83.233  -7.159  1.00  0.00     0.020 A 
ENDROOT
BRANCH   1  12
ATOM     12  C   UNL     1     -10.542  83.531  -8.823  1.00  0.00     0.025 A 
ATOM     13  C   UNL     1     -11.143  84.778  -9.052  1.00  0.00     0.016 A 
ATOM     14  C   UNL     1     -12.447  84.855  -9.549  1.00  0.00     0.051 A 
ATOM     15  C   UNL     1     -13.162  83.685  -9.838  1.00  0.00     0.157 A 
ATOM     16  C   UNL     1     -11.255  82.360  -9.134  1.00  0.00     0.062 A 
ATOM     17  C   UNL     1     -12.563  82.436  -9.634  1.00  0.00     0.158 A 
BRANCH  15  18
ATOM     18  O   UNL     1     -14.463  83.757 -10.331  1.00  0.00    -0.504 OA
ATOM     19  H   UNL     1     -15.234  83.295  -9.863  1.00  0.00     0.293 HD
ENDBRANCH  15  18
BRANCH  17  20
ATOM     20  O   UNL     1     -13.272  81.274  -9.936  1.00  0.00    -0.504 OA
ATOM     21  H   UNL     1     -13.691  81.130 -10.848  1.00  0.00     0.293 HD
ENDBRANCH  17  20
ENDBRANCH   1  12
BRANCH   2  22
ATOM     22  O   UNL     1      -9.845  84.005  -6.043  1.00  0.00    -0.502 OA
ATOM     23  H   UNL     1     -10.820  83.784  -6.210  1.00  0.00     0.293 HD
ENDBRANCH   2  22
BRANCH   9  24
ATOM     24  O   UNL     1      -3.611  82.535 -10.447  1.00  0.00    -0.508 OA
ATOM     25  H   UNL     1      -2.980  83.257 -10.776  1.00  0.00     0.293 HD
ENDBRANCH   9  24
TORSDOF 5
ENDMDL
MODEL 4
REMARK VINA RESULT:    -5.175     13.882     16.306
REMARK INTER + INTRA:          -6.279
REMARK INTER:                  -5.962
REMARK INTRA:                  -0.317
REMARK UNBOUND:                -0.196
REMARK SMILES O=c1c(O)c(-c2ccc(O)c(O)c2)oc2cc(O)ccc12
REMARK SMILES IDX 5 1 3 2 2 3 1 4 21 5 15 6 14 7 16 8 17 9 19 10 20 11 6 12
REMARK SMILES IDX 7 13 8 14 9 15 13 16 11 17 10 18 12 20 4 22 18 24
REMARK H PARENT 10 19 12 21 4 23 18 25
REMARK Flexibility Score: inf
ROOT
ATOM      1  C   UNL     1     -13.651  80.485  -7.682  1.00  0.00     0.180 A 
ATOM      2  C   UNL     1     -13.676  79.155  -7.214  1.00  0.00     0.208 A 
ATOM      3  C   UNL     1     -14.848  78.671  -6.613  1.00  0.00     0.235 A 
ATOM      4  O   UNL     1     -14.891  77.487  -6.178  1.00  0.00    -0.285 OA
ATOM      5  C   UNL     1     -15.969  79.509  -6.512  1.00  0.00     0.069 A 
ATOM      6  C   UNL     1     -15.873  80.820  -7.025  1.00  0.00     0.142 A 
ATOM      7  O   UNL     1     -14.741  81.243  -7.578  1.00  0.00    -0.452 OA
ATOM      8  C   UNL     1     -16.972  81.683  -6.951  1.00  0.00     0.094 A 
ATOM      9  C   UNL     1     -18.170  81.252  -6.367  1.00  0.00     0.119 A 
ATOM     10  C   UNL     1     -18.266  79.954  -5.855  1.00  0.00     0.047 A 
ATOM     11  C   UNL     1     -17.175  79.083  -5.926  1.00  0.00     0.020 A 
ENDROOT
BRANCH   1  12
ATOM     12  C   UNL     1     -12.447  81.076  -8.309  1.00  0.00     0.025 A 
ATOM     13  C   UNL     1     -11.492  81.715  -7.504  1.00  0.00     0.016 A 
ATOM     14  C   UNL     1     -10.338  82.261  -8.072  1.00  0.00     0.051 A 
ATOM     15  C   UNL     1     -10.116  82.162  -9.451  1.00  0.00     0.157 A 
ATOM     16  C   UNL     1     -12.210  80.961  -9.691  1.00  0.00     0.062 A 
ATOM     17  C   UNL     1     -11.052  81.507 -10.262  1.00  0.00     0.158 A 
BRANCH  15  18
ATOM     18  O   UNL     1      -8.968  82.708 -10.022  1.00  0.00    -0.504 OA
ATOM     19  H   UNL     1      -8.920  82.928 -11.009  1.00  0.00     0.293 HD
ENDBRANCH  15  18
BRANCH  17  20
ATOM     20  O   UNL     1     -10.821  81.398 -11.632  1.00  0.00    -0.504 OA
ATOM     21  H   UNL     1     -10.031  80.879 -11.997  1.00  0.00     0.293 HD
ENDBRANCH  17  20
ENDBRANCH   1  12
BRANCH   2  22
ATOM     22  O   UNL     1     -12.561  78.328  -7.374  1.00  0.00    -0.502 OA
ATOM     23  H   UNL     1     -12.141  77.828  -6.599  1.00  0.00     0.293 HD
ENDBRANCH   2  22
BRANCH   9  24
ATOM     24  O   UNL     1     -19.268  82.105  -6.288  1.00  0.00    -0.508 OA
ATOM     25  H   UNL     1     -20.177  81.832  -6.640  1.00  0.00     0.293 HD
ENDBRANCH   9  24
TORSDOF 5
ENDMDL
MODEL 5
REMARK VINA RESULT:    -5.165      1.420      3.211
REMARK INTER + INTRA:          -6.267
REMARK INTER:                  -6.112
REMARK INTRA:                  -0.154
REMARK UNBOUND:                -0.196
REMARK SMILES O=c1c(O)c(-c2ccc(O)c(O)c2)oc2cc(O)ccc12
REMARK SMILES IDX 5 1 3 2 2 3 1 4 21 5 15 6 14 7 16 8 17 9 19 10 20 11 6 12
REMARK SMILES IDX 7 13 8 14 9 15 13 16 11 17 10 18 12 20 4 22 18 24
REMARK H PARENT 10 19 12 21 4 23 18 25
REMARK Flexibility Score: inf
ROOT
ATOM      1  C   UNL     1      -4.923  90.971 -14.489  1.00  0.00     0.180 A 
ATOM      2  C   UNL     1      -4.613  92.014 -13.591  1.00  0.00     0.208 A 
ATOM      3  C   UNL     1      -4.952  91.864 -12.237  1.00  0.00     0.235 A 
ATOM      4  O   UNL     1      -4.694  92.787 -11.417  1.00  0.00    -0.285 OA
ATOM      5  C   UNL     1      -5.569  90.679 -11.807  1.00  0.00     0.069 A 
ATOM      6  C   UNL     1      -5.824  89.672 -12.763  1.00  0.00     0.142 A 
ATOM      7  O   UNL     1      -5.496  89.857 -14.037  1.00  0.00    -0.452 OA
ATOM      8  C   UNL     1      -6.429  88.473 -12.372  1.00  0.00     0.094 A 
ATOM      9  C   UNL     1      -6.784  88.265 -11.032  1.00  0.00     0.119 A 
ATOM     10  C   UNL     1      -6.534  89.263 -10.084  1.00  0.00     0.047 A 
ATOM     11  C   UNL     1      -5.929  90.464 -10.464  1.00  0.00     0.020 A 
ENDROOT
BRANCH   1  12
ATOM     12  C   UNL     1      -4.615  91.061 -15.934  1.00  0.00     0.025 A 
ATOM     13  C   UNL     1      -3.276  91.088 -16.355  1.00  0.00     0.016 A 
ATOM     14  C   UNL     1      -2.962  91.151 -17.714  1.00  0.00     0.051 A 
ATOM     15  C   UNL     1      -3.982  91.173 -18.675  1.00  0.00     0.157 A 
ATOM     16  C   UNL     1      -5.636  91.062 -16.902  1.00  0.00     0.062 A 
ATOM     17  C   UNL     1      -5.321  91.123 -18.267  1.00  0.00     0.158 A 
BRANCH  15  18
ATOM     18  O   UNL     1      -3.673  91.238 -20.031  1.00  0.00    -0.504 OA
ATOM     19  H   UNL     1      -4.393  91.192 -20.742  1.00  0.00     0.293 HD
ENDBRANCH  15  18
BRANCH  17  20
ATOM     20  O   UNL     1      -6.334  91.131 -19.225  1.00  0.00    -0.504 OA
ATOM     21  H   UNL     1      -6.889  91.961 -19.403  1.00  0.00     0.293 HD
ENDBRANCH  17  20
ENDBRANCH   1  12
BRANCH   2  22
ATOM     22  O   UNL     1      -3.954  93.161 -14.039  1.00  0.00    -0.502 OA
ATOM     23  H   UNL     1      -4.184  93.610 -14.918  1.00  0.00     0.293 HD
ENDBRANCH   2  22
BRANCH   9  24
ATOM     24  O   UNL     1      -7.387  87.074 -10.635  1.00  0.00    -0.508 OA
ATOM     25  H   UNL     1      -6.853  86.221 -10.524  1.00  0.00     0.293 HD
ENDBRANCH   9  24
TORSDOF 5
ENDMDL
MODEL 6
REMARK VINA RESULT:    -5.138      2.806      4.095
REMARK INTER + INTRA:          -6.235
REMARK INTER:                  -5.925
REMARK INTRA:                  -0.310
REMARK UNBOUND:                -0.196
REMARK SMILES O=c1c(O)c(-c2ccc(O)c(O)c2)oc2cc(O)ccc12
REMARK SMILES IDX 5 1 3 2 2 3 1 4 21 5 15 6 14 7 16 8 17 9 19 10 20 11 6 12
REMARK SMILES IDX 7 13 8 14 9 15 13 16 11 17 10 18 12 20 4 22 18 24
REMARK H PARENT 10 19 12 21 4 23 18 25
REMARK Flexibility Score: inf
ROOT
ATOM      1  C   UNL     1      -6.241  89.800 -11.960  1.00  0.00     0.180 A 
ATOM      2  C   UNL     1      -7.206  88.843 -11.584  1.00  0.00     0.208 A 
ATOM      3  C   UNL     1      -7.171  88.324 -10.281  1.00  0.00     0.235 A 
ATOM      4  O   UNL     1      -8.018  87.458  -9.924  1.00  0.00    -0.285 OA
ATOM      5  C   UNL     1      -6.196  88.782  -9.380  1.00  0.00     0.069 A 
ATOM      6  C   UNL     1      -5.280  89.759  -9.826  1.00  0.00     0.142 A 
ATOM      7  O   UNL     1      -5.341  90.218 -11.071  1.00  0.00    -0.452 OA
ATOM      8  C   UNL     1      -4.299  90.247  -8.956  1.00  0.00     0.094 A 
ATOM      9  C   UNL     1      -4.221  89.769  -7.641  1.00  0.00     0.119 A 
ATOM     10  C   UNL     1      -5.125  88.798  -7.199  1.00  0.00     0.047 A 
ATOM     11  C   UNL     1      -6.110  88.305  -8.060  1.00  0.00     0.020 A 
ENDROOT
BRANCH   1  12
ATOM     12  C   UNL     1      -6.199  90.382 -13.321  1.00  0.00     0.025 A 
ATOM     13  C   UNL     1      -6.725  91.664 -13.540  1.00  0.00     0.016 A 
ATOM     14  C   UNL     1      -6.677  92.241 -14.812  1.00  0.00     0.051 A 
ATOM     15  C   UNL     1      -6.089  91.550 -15.879  1.00  0.00     0.157 A 
ATOM     16  C   UNL     1      -5.591  89.700 -14.391  1.00  0.00     0.062 A 
ATOM     17  C   UNL     1      -5.541  90.279 -15.667  1.00  0.00     0.158 A 
BRANCH  15  18
ATOM     18  O   UNL     1      -6.042  92.121 -17.149  1.00  0.00    -0.504 OA
ATOM     19  H   UNL     1      -5.774  91.582 -17.963  1.00  0.00     0.293 HD
ENDBRANCH  15  18
BRANCH  17  20
ATOM     20  O   UNL     1      -4.944  89.600 -16.728  1.00  0.00    -0.504 OA
ATOM     21  H   UNL     1      -5.105  89.873 -17.690  1.00  0.00     0.293 HD
ENDBRANCH  17  20
ENDBRANCH   1  12
BRANCH   2  22
ATOM     22  O   UNL     1      -8.195  88.443 -12.486  1.00  0.00    -0.502 OA
ATOM     23  H   UNL     1      -8.892  89.085 -12.844  1.00  0.00     0.293 HD
ENDBRANCH   2  22
BRANCH   9  24
ATOM     24  O   UNL     1      -3.247  90.249  -6.769  1.00  0.00    -0.508 OA
ATOM     25  H   UNL     1      -3.491  90.793  -5.950  1.00  0.00     0.293 HD
ENDBRANCH   9  24
TORSDOF 5
ENDMDL
MODEL 7
REMARK VINA RESULT:    -5.138     13.125     15.849
REMARK INTER + INTRA:          -6.235
REMARK INTER:                  -5.961
REMARK INTRA:                  -0.273
REMARK UNBOUND:                -0.196
REMARK SMILES O=c1c(O)c(-c2ccc(O)c(O)c2)oc2cc(O)ccc12
REMARK SMILES IDX 5 1 3 2 2 3 1 4 21 5 15 6 14 7 16 8 17 9 19 10 20 11 6 12
REMARK SMILES IDX 7 13 8 14 9 15 13 16 11 17 10 18 12 20 4 22 18 24
REMARK H PARENT 10 19 12 21 4 23 18 25
REMARK Flexibility Score: inf
ROOT
ATOM      1  C   UNL     1     -12.023  80.554  -7.144  1.00  0.00     0.180 A 
ATOM      2  C   UNL     1     -11.888  79.187  -6.825  1.00  0.00     0.208 A 
ATOM      3  C   UNL     1     -13.048  78.425  -6.611  1.00  0.00     0.235 A 
ATOM      4  O   UNL     1     -12.953  77.202  -6.313  1.00  0.00    -0.285 OA
ATOM      5  C   UNL     1     -14.307  79.033  -6.739  1.00  0.00     0.069 A 
ATOM      6  C   UNL     1     -14.357  80.400  -7.085  1.00  0.00     0.142 A 
ATOM      7  O   UNL     1     -13.236  81.088  -7.270  1.00  0.00    -0.452 OA
ATOM      8  C   UNL     1     -15.593  81.040  -7.231  1.00  0.00     0.094 A 
ATOM      9  C   UNL     1     -16.784  80.328  -7.034  1.00  0.00     0.119 A 
ATOM     10  C   UNL     1     -16.736  78.974  -6.689  1.00  0.00     0.047 A 
ATOM     11  C   UNL     1     -15.506  78.325  -6.542  1.00  0.00     0.020 A 
ENDROOT
BRANCH   1  12
ATOM     12  C   UNL     1     -10.848  81.428  -7.367  1.00  0.00     0.025 A 
ATOM     13  C   UNL     1     -10.119  81.897  -6.263  1.00  0.00     0.016 A 
ATOM     14  C   UNL     1      -8.995  82.706  -6.450  1.00  0.00     0.051 A 
ATOM     15  C   UNL     1      -8.576  83.045  -7.743  1.00  0.00     0.157 A 
ATOM     16  C   UNL     1     -10.412  81.753  -8.663  1.00  0.00     0.062 A 
ATOM     17  C   UNL     1      -9.283  82.563  -8.852  1.00  0.00     0.158 A 
BRANCH  15  18
ATOM     18  O   UNL     1      -7.457  83.853  -7.934  1.00  0.00    -0.504 OA
ATOM     19  H   UNL     1      -7.425  84.804  -7.586  1.00  0.00     0.293 HD
ENDBRANCH  15  18
BRANCH  17  20
ATOM     20  O   UNL     1      -8.855  82.890 -10.138  1.00  0.00    -0.504 OA
ATOM     21  H   UNL     1      -8.471  82.191 -10.763  1.00  0.00     0.293 HD
ENDBRANCH  17  20
ENDBRANCH   1  12
BRANCH   2  22
ATOM     22  O   UNL     1     -10.624  78.598  -6.753  1.00  0.00    -0.502 OA
ATOM     23  H   UNL     1      -9.887  78.966  -6.163  1.00  0.00     0.293 HD
ENDBRANCH   2  22
BRANCH   9  24
ATOM     24  O   UNL     1     -18.018  80.958  -7.177  1.00  0.00    -0.508 OA
ATOM     25  H   UNL     1     -18.147  81.932  -6.935  1.00  0.00     0.293 HD
ENDBRANCH   9  24
TORSDOF 5
ENDMDL
MODEL 8
REMARK VINA RESULT:    -5.073      8.779     11.917
REMARK INTER + INTRA:          -6.159
REMARK INTER:                  -6.046
REMARK INTRA:                  -0.112
REMARK UNBOUND:                -0.196
REMARK SMILES O=c1c(O)c(-c2ccc(O)c(O)c2)oc2cc(O)ccc12
REMARK SMILES IDX 5 1 3 2 2 3 1 4 21 5 15 6 14 7 16 8 17 9 19 10 20 11 6 12
REMARK SMILES IDX 7 13 8 14 9 15 13 16 11 17 10 18 12 20 4 22 18 24
REMARK H PARENT 10 19 12 21 4 23 18 25
REMARK Flexibility Score: inf
ROOT
ATOM      1  C   UNL     1      -9.801  83.977  -9.006  1.00  0.00     0.180 A 
ATOM      2  C   UNL     1      -9.672  85.375  -8.870  1.00  0.00     0.208 A 
ATOM      3  C   UNL     1      -8.402  85.954  -9.016  1.00  0.00     0.235 A 
ATOM      4  O   UNL     1      -8.259  87.201  -8.888  1.00  0.00    -0.285 OA
ATOM      5  C   UNL     1      -7.300  85.137  -9.314  1.00  0.00     0.069 A 
ATOM      6  C   UNL     1      -7.516  83.749  -9.458  1.00  0.00     0.142 A 
ATOM      7  O   UNL     1      -8.732  83.239  -9.302  1.00  0.00    -0.452 OA
ATOM      8  C   UNL     1      -6.444  82.903  -9.763  1.00  0.00     0.094 A 
ATOM      9  C   UNL     1      -5.155  83.426  -9.926  1.00  0.00     0.119 A 
ATOM     10  C   UNL     1      -4.939  84.800  -9.781  1.00  0.00     0.047 A 
ATOM     11  C   UNL     1      -6.003  85.655  -9.477  1.00  0.00     0.020 A 
ENDROOT
BRANCH   1  12
ATOM     12  C   UNL     1     -11.102  83.288  -8.848  1.00  0.00     0.025 A 
ATOM     13  C   UNL     1     -11.271  82.363  -7.806  1.00  0.00     0.016 A 
ATOM     14  C   UNL     1     -12.497  81.718  -7.624  1.00  0.00     0.051 A 
ATOM     15  C   UNL     1     -13.576  81.999  -8.473  1.00  0.00     0.157 A 
ATOM     16  C   UNL     1     -12.193  83.583  -9.685  1.00  0.00     0.062 A 
ATOM     17  C   UNL     1     -13.424  82.936  -9.502  1.00  0.00     0.158 A 
BRANCH  15  18
ATOM     18  O   UNL     1     -14.798  81.355  -8.297  1.00  0.00    -0.504 OA
ATOM     19  H   UNL     1     -15.101  80.613  -8.917  1.00  0.00     0.293 HD
ENDBRANCH  15  18
BRANCH  17  20
ATOM     20  O   UNL     1     -14.503  83.224 -10.337  1.00  0.00    -0.504 OA
ATOM     21  H   UNL     1     -14.368  83.495 -11.304  1.00  0.00     0.293 HD
ENDBRANCH  17  20
ENDBRANCH   1  12
BRANCH   2  22
ATOM     22  O   UNL     1     -10.794  86.168  -8.623  1.00  0.00    -0.502 OA
ATOM     23  H   UNL     1     -10.802  87.165  -8.801  1.00  0.00     0.293 HD
ENDBRANCH   2  22
BRANCH   9  24
ATOM     24  O   UNL     1      -4.083  82.590 -10.230  1.00  0.00    -0.508 OA
ATOM     25  H   UNL     1      -3.611  82.638 -11.124  1.00  0.00     0.293 HD
ENDBRANCH   9  24
TORSDOF 5
ENDMDL
MODEL 9
REMARK VINA RESULT:    -5.054      9.366     12.257
REMARK INTER + INTRA:          -6.136
REMARK INTER:                  -5.848
REMARK INTRA:                  -0.288
REMARK UNBOUND:                -0.196
REMARK SMILES O=c1c(O)c(-c2ccc(O)c(O)c2)oc2cc(O)ccc12
REMARK SMILES IDX 5 1 3 2 2 3 1 4 21 5 15 6 14 7 16 8 17 9 19 10 20 11 6 12
REMARK SMILES IDX 7 13 8 14 9 15 13 16 11 17 10 18 12 20 4 22 18 24
REMARK H PARENT 10 19 12 21 4 23 18 25
REMARK Flexibility Score: inf
ROOT
ATOM      1  C   UNL     1      -8.968  83.254  -8.135  1.00  0.00     0.180 A 
ATOM      2  C   UNL     1      -9.223  82.484  -6.981  1.00  0.00     0.208 A 
ATOM      3  C   UNL     1     -10.539  82.072  -6.721  1.00  0.00     0.235 A 
ATOM      4  O   UNL     1     -10.794  81.392  -5.689  1.00  0.00    -0.285 OA
ATOM      5  C   UNL     1     -11.561  82.415  -7.619  1.00  0.00     0.069 A 
ATOM      6  C   UNL     1     -11.221  83.168  -8.764  1.00  0.00     0.142 A 
ATOM      7  O   UNL     1      -9.964  83.546  -8.970  1.00  0.00    -0.452 OA
ATOM      8  C   UNL     1     -12.210  83.522  -9.688  1.00  0.00     0.094 A 
ATOM      9  C   UNL     1     -13.540  83.133  -9.482  1.00  0.00     0.119 A 
ATOM     10  C   UNL     1     -13.880  82.390  -8.347  1.00  0.00     0.047 A 
ATOM     11  C   UNL     1     -12.899  82.030  -7.418  1.00  0.00     0.020 A 
ENDROOT
BRANCH   1  12
ATOM     12  C   UNL     1      -7.611  83.742  -8.471  1.00  0.00     0.025 A 
ATOM     13  C   UNL     1      -7.101  84.872  -7.811  1.00  0.00     0.016 A 
ATOM     14  C   UNL     1      -5.816  85.338  -8.095  1.00  0.00     0.051 A 
ATOM     15  C   UNL     1      -5.015  84.673  -9.033  1.00  0.00     0.157 A 
ATOM     16  C   UNL     1      -6.797  83.066  -9.396  1.00  0.00     0.062 A 
ATOM     17  C   UNL     1      -5.505  83.532  -9.681  1.00  0.00     0.158 A 
BRANCH  15  18
ATOM     18  O   UNL     1      -3.733  85.136  -9.322  1.00  0.00    -0.504 OA
ATOM     19  H   UNL     1      -2.907  84.640  -9.011  1.00  0.00     0.293 HD
ENDBRANCH  15  18
BRANCH  17  20
ATOM     20  O   UNL     1      -4.701  82.864 -10.604  1.00  0.00    -0.504 OA
ATOM     21  H   UNL     1      -4.965  82.788 -11.580  1.00  0.00     0.293 HD
ENDBRANCH  17  20
ENDBRANCH   1  12
BRANCH   2  22
ATOM     22  O   UNL     1      -8.177  82.116  -6.132  1.00  0.00    -0.502 OA
ATOM     23  H   UNL     1      -8.339  81.697  -5.224  1.00  0.00     0.293 HD
ENDBRANCH   2  22
BRANCH   9  24
ATOM     24  O   UNL     1     -14.531  83.482 -10.397  1.00  0.00    -0.508 OA
ATOM     25  H   UNL     1     -15.038  84.355 -10.321  1.00  0.00     0.293 HD
ENDBRANCH   9  24
TORSDOF 5
ENDMDL
