MODEL 1
REMARK VINA RESULT:    -4.715      0.000      0.000
REMARK INTER + INTRA:          -4.853
REMARK INTER:                  -4.853
REMARK INTRA:                   0.000
REMARK UNBOUND:                 0.000
REMARK SMILES O=c1ccc2ccc(O)cc2o1
REMARK SMILES IDX 6 1 7 2 8 3 10 4 11 5 5 6 4 7 3 8 2 9 1 10 12 11 9 12
REMARK H PARENT 9 13
REMARK Flexibility Score: inf
ROOT
ATOM      1  C   UNL     1     -43.022 -36.905 -19.790  1.00  0.00     0.016 A 
ATOM      2  C   UNL     1     -43.261 -35.533 -19.653  1.00  0.00     0.047 A 
ATOM      3  C   UNL     1     -42.242 -34.608 -19.908  1.00  0.00     0.119 A 
ATOM      4  C   UNL     1     -40.972 -35.057 -20.300  1.00  0.00     0.094 A 
ATOM      5  C   UNL     1     -40.723 -36.427 -20.438  1.00  0.00     0.142 A 
ATOM      6  C   UNL     1     -41.754 -37.358 -20.181  1.00  0.00     0.018 A 
ATOM      7  C   UNL     1     -41.476 -38.720 -20.328  1.00  0.00     0.019 A 
ATOM      8  C   UNL     1     -40.198 -39.117 -20.721  1.00  0.00     0.094 A 
ATOM      9  C   UNL     1     -39.225 -38.140 -20.958  1.00  0.00     0.336 A 
ATOM     10  O   UNL     1     -38.066 -38.480 -21.313  1.00  0.00    -0.246 OA
ATOM     11  O   UNL     1     -39.517 -36.850 -20.811  1.00  0.00    -0.423 OA
ENDROOT
BRANCH   3  12
ATOM     12  O   UNL     1     -42.500 -33.246 -19.767  1.00  0.00    -0.508 OA
ATOM     13  H   UNL     1     -41.929 -32.549 -20.229  1.00  0.00     0.293 HD
ENDBRANCH   3  12
TORSDOF 1
ENDMDL
MODEL 2
REMARK VINA RESULT:    -4.564      1.712      2.459
REMARK INTER + INTRA:          -4.697
REMARK INTER:                  -4.697
REMARK INTRA:                   0.000
REMARK UNBOUND:                 0.000
REMARK SMILES O=c1ccc2ccc(O)cc2o1
REMARK SMILES IDX 6 1 7 2 8 3 10 4 11 5 5 6 4 7 3 8 2 9 1 10 12 11 9 12
REMARK H PARENT 9 13
REMARK Flexibility Score: inf
ROOT
ATOM      1  C   UNL     1     -39.738 -35.663 -20.361  1.00  0.00     0.016 A 
ATOM      2  C   UNL     1     -40.508 -34.513 -20.157  1.00  0.00     0.047 A 
ATOM      3  C   UNL     1     -41.896 -34.609 -20.004  1.00  0.00     0.119 A 
ATOM      4  C   UNL     1     -42.520 -35.864 -20.056  1.00  0.00     0.094 A 
ATOM      5  C   UNL     1     -41.758 -37.020 -20.260  1.00  0.00     0.142 A 
ATOM      6  C   UNL     1     -40.357 -36.919 -20.414  1.00  0.00     0.018 A 
ATOM      7  C   UNL     1     -39.622 -38.091 -20.616  1.00  0.00     0.019 A 
ATOM      8  C   UNL     1     -40.287 -39.316 -20.660  1.00  0.00     0.094 A 
ATOM      9  C   UNL     1     -41.677 -39.340 -20.500  1.00  0.00     0.336 A 
ATOM     10  O   UNL     1     -42.295 -40.436 -20.536  1.00  0.00    -0.246 OA
ATOM     11  O   UNL     1     -42.352 -38.210 -20.308  1.00  0.00    -0.423 OA
ENDROOT
BRANCH   3  12
ATOM     12  O   UNL     1     -42.646 -33.453 -19.802  1.00  0.00    -0.508 OA
ATOM     13  H   UNL     1     -43.378 -33.177 -20.445  1.00  0.00     0.293 HD
ENDBRANCH   3  12
TORSDOF 1
ENDMDL
MODEL 3
REMARK VINA RESULT:    -4.521      1.316      2.167
REMARK INTER + INTRA:          -4.653
REMARK INTER:                  -4.653
REMARK INTRA:                   0.000
REMARK UNBOUND:                 0.000
REMARK SMILES O=c1ccc2ccc(O)cc2o1
REMARK SMILES IDX 6 1 7 2 8 3 10 4 11 5 5 6 4 7 3 8 2 9 1 10 12 11 9 12
REMARK H PARENT 9 13
REMARK Flexibility Score: inf
ROOT
ATOM      1  C   UNL     1     -40.436 -34.848 -20.300  1.00  0.00     0.016 A 
ATOM      2  C   UNL     1     -41.689 -34.390 -19.879  1.00  0.00     0.047 A 
ATOM      3  C   UNL     1     -42.725 -35.297 -19.624  1.00  0.00     0.119 A 
ATOM      4  C   UNL     1     -42.507 -36.673 -19.793  1.00  0.00     0.094 A 
ATOM      5  C   UNL     1     -41.257 -37.140 -20.214  1.00  0.00     0.142 A 
ATOM      6  C   UNL     1     -40.214 -36.222 -20.469  1.00  0.00     0.018 A 
ATOM      7  C   UNL     1     -38.976 -36.718 -20.889  1.00  0.00     0.019 A 
ATOM      8  C   UNL     1     -38.808 -38.094 -21.041  1.00  0.00     0.094 A 
ATOM      9  C   UNL     1     -39.885 -38.944 -20.770  1.00  0.00     0.336 A 
ATOM     10  O   UNL     1     -39.752 -40.189 -20.902  1.00  0.00    -0.246 OA
ATOM     11  O   UNL     1     -41.053 -38.445 -20.373  1.00  0.00    -0.423 OA
ENDROOT
BRANCH   3  12
ATOM     12  O   UNL     1     -43.966 -34.822 -19.206  1.00  0.00    -0.508 OA
ATOM     13  H   UNL     1     -44.810 -35.015 -19.731  1.00  0.00     0.293 HD
ENDBRANCH   3  12
TORSDOF 1
ENDMDL
MODEL 4
REMARK VINA RESULT:    -4.514      7.363      8.969
REMARK INTER + INTRA:          -4.646
REMARK INTER:                  -4.646
REMARK INTRA:                   0.000
REMARK UNBOUND:                 0.000
REMARK SMILES O=c1ccc2ccc(O)cc2o1
REMARK SMILES IDX 6 1 7 2 8 3 10 4 11 5 5 6 4 7 3 8 2 9 1 10 12 11 9 12
REMARK H PARENT 9 13
REMARK Flexibility Score: inf
ROOT
ATOM      1  C   UNL     1     -47.470 -36.841 -18.373  1.00  0.00     0.016 A 
ATOM      2  C   UNL     1     -47.183 -35.587 -17.825  1.00  0.00     0.047 A 
ATOM      3  C   UNL     1     -48.142 -34.567 -17.850  1.00  0.00     0.119 A 
ATOM      4  C   UNL     1     -49.398 -34.803 -18.428  1.00  0.00     0.094 A 
ATOM      5  C   UNL     1     -49.695 -36.055 -18.978  1.00  0.00     0.142 A 
ATOM      6  C   UNL     1     -48.724 -37.081 -18.952  1.00  0.00     0.018 A 
ATOM      7  C   UNL     1     -49.049 -38.321 -19.510  1.00  0.00     0.019 A 
ATOM      8  C   UNL     1     -50.312 -38.508 -20.072  1.00  0.00     0.094 A 
ATOM      9  C   UNL     1     -51.222 -37.446 -20.064  1.00  0.00     0.336 A 
ATOM     10  O   UNL     1     -52.367 -37.596 -20.567  1.00  0.00    -0.246 OA
ATOM     11  O   UNL     1     -50.887 -36.276 -19.526  1.00  0.00    -0.423 OA
ENDROOT
BRANCH   3  12
ATOM     12  O   UNL     1     -47.838 -33.325 -17.299  1.00  0.00    -0.508 OA
ATOM     13  H   UNL     1     -47.113 -32.735 -17.690  1.00  0.00     0.293 HD
ENDBRANCH   3  12
TORSDOF 1
ENDMDL
MODEL 5
REMARK VINA RESULT:    -4.503      1.512      4.773
REMARK INTER + INTRA:          -4.635
REMARK INTER:                  -4.635
REMARK INTRA:                   0.000
REMARK UNBOUND:                 0.000
REMARK SMILES O=c1ccc2ccc(O)cc2o1
REMARK SMILES IDX 6 1 7 2 8 3 10 4 11 5 5 6 4 7 3 8 2 9 1 10 12 11 9 12
REMARK H PARENT 9 13
REMARK Flexibility Score: inf
ROOT
ATOM      1  C   UNL     1     -38.743 -37.254 -20.984  1.00  0.00     0.016 A 
ATOM      2  C   UNL     1     -38.711 -38.627 -21.250  1.00  0.00     0.047 A 
ATOM      3  C   UNL     1     -39.875 -39.396 -21.138  1.00  0.00     0.119 A 
ATOM      4  C   UNL     1     -41.080 -38.789 -20.757  1.00  0.00     0.094 A 
ATOM      5  C   UNL     1     -41.122 -37.417 -20.489  1.00  0.00     0.142 A 
ATOM      6  C   UNL     1     -39.946 -36.643 -20.603  1.00  0.00     0.018 A 
ATOM      7  C   UNL     1     -40.018 -35.274 -20.329  1.00  0.00     0.019 A 
ATOM      8  C   UNL     1     -41.240 -34.716 -19.954  1.00  0.00     0.094 A 
ATOM      9  C   UNL     1     -42.365 -35.544 -19.861  1.00  0.00     0.336 A 
ATOM     10  O   UNL     1     -43.476 -35.058 -19.524  1.00  0.00    -0.246 OA
ATOM     11  O   UNL     1     -42.268 -36.843 -20.127  1.00  0.00    -0.423 OA
ENDROOT
BRANCH   3  12
ATOM     12  O   UNL     1     -39.823 -40.762 -21.407  1.00  0.00    -0.508 OA
ATOM     13  H   UNL     1     -40.666 -41.318 -21.489  1.00  0.00     0.293 HD
ENDBRANCH   3  12
TORSDOF 1
ENDMDL
MODEL 6
REMARK VINA RESULT:    -4.305      2.006      4.301
REMARK INTER + INTRA:          -4.431
REMARK INTER:                  -4.431
REMARK INTRA:                   0.000
REMARK UNBOUND:                 0.000
REMARK SMILES O=c1ccc2ccc(O)cc2o1
REMARK SMILES IDX 6 1 7 2 8 3 10 4 11 5 5 6 4 7 3 8 2 9 1 10 12 11 9 12
REMARK H PARENT 9 13
REMARK Flexibility Score: inf
ROOT
ATOM      1  C   UNL     1     -39.657 -39.555 -20.792  1.00  0.00     0.016 A 
ATOM      2  C   UNL     1     -40.716 -40.467 -20.737  1.00  0.00     0.047 A 
ATOM      3  C   UNL     1     -42.027 -40.017 -20.541  1.00  0.00     0.119 A 
ATOM      4  C   UNL     1     -42.282 -38.645 -20.398  1.00  0.00     0.094 A 
ATOM      5  C   UNL     1     -41.228 -37.725 -20.452  1.00  0.00     0.142 A 
ATOM      6  C   UNL     1     -39.907 -38.183 -20.649  1.00  0.00     0.018 A 
ATOM      7  C   UNL     1     -38.875 -37.241 -20.698  1.00  0.00     0.019 A 
ATOM      8  C   UNL     1     -39.178 -35.887 -20.551  1.00  0.00     0.094 A 
ATOM      9  C   UNL     1     -40.510 -35.507 -20.358  1.00  0.00     0.336 A 
ATOM     10  O   UNL     1     -40.803 -34.290 -20.223  1.00  0.00    -0.246 OA
ATOM     11  O   UNL     1     -41.473 -36.424 -20.315  1.00  0.00    -0.423 OA
ENDROOT
BRANCH   3  12
ATOM     12  O   UNL     1     -43.069 -40.940 -20.489  1.00  0.00    -0.508 OA
ATOM     13  H   UNL     1     -42.898 -41.936 -20.551  1.00  0.00     0.293 HD
ENDBRANCH   3  12
TORSDOF 1
ENDMDL
MODEL 7
REMARK VINA RESULT:    -4.067      2.337      4.219
REMARK INTER + INTRA:          -4.186
REMARK INTER:                  -4.186
REMARK INTRA:                   0.000
REMARK UNBOUND:                 0.000
REMARK SMILES O=c1ccc2ccc(O)cc2o1
REMARK SMILES IDX 6 1 7 2 8 3 10 4 11 5 5 6 4 7 3 8 2 9 1 10 12 11 9 12
REMARK H PARENT 9 13
REMARK Flexibility Score: inf
ROOT
ATOM      1  C   UNL     1     -41.085 -35.473 -20.271  1.00  0.00     0.016 A 
ATOM      2  C   UNL     1     -39.780 -35.974 -20.222  1.00  0.00     0.047 A 
ATOM      3  C   UNL     1     -39.541 -37.345 -20.380  1.00  0.00     0.119 A 
ATOM      4  C   UNL     1     -40.616 -38.221 -20.589  1.00  0.00     0.094 A 
ATOM      5  C   UNL     1     -41.925 -37.730 -20.640  1.00  0.00     0.142 A 
ATOM      6  C   UNL     1     -42.161 -36.346 -20.479  1.00  0.00     0.018 A 
ATOM      7  C   UNL     1     -43.480 -35.884 -20.535  1.00  0.00     0.019 A 
ATOM      8  C   UNL     1     -44.515 -36.795 -20.745  1.00  0.00     0.094 A 
ATOM      9  C   UNL     1     -44.206 -38.151 -20.895  1.00  0.00     0.336 A 
ATOM     10  O   UNL     1     -45.127 -38.988 -21.085  1.00  0.00    -0.246 OA
ATOM     11  O   UNL     1     -42.942 -38.564 -20.838  1.00  0.00    -0.423 OA
ENDROOT
BRANCH   3  12
ATOM     12  O   UNL     1     -38.234 -37.824 -20.328  1.00  0.00    -0.508 OA
ATOM     13  H   UNL     1     -38.031 -38.814 -20.397  1.00  0.00     0.293 HD
ENDBRANCH   3  12
TORSDOF 1
ENDMDL
MODEL 8
REMARK VINA RESULT:    -4.053      2.100      3.029
REMARK INTER + INTRA:          -4.171
REMARK INTER:                  -4.171
REMARK INTRA:                   0.000
REMARK UNBOUND:                 0.000
REMARK SMILES O=c1ccc2ccc(O)cc2o1
REMARK SMILES IDX 6 1 7 2 8 3 10 4 11 5 5 6 4 7 3 8 2 9 1 10 12 11 9 12
REMARK H PARENT 9 13
REMARK Flexibility Score: inf
ROOT
ATOM      1  C   UNL     1     -41.492 -35.301 -20.234  1.00  0.00     0.016 A 
ATOM      2  C   UNL     1     -40.214 -34.860 -19.872  1.00  0.00     0.047 A 
ATOM      3  C   UNL     1     -39.140 -35.757 -19.839  1.00  0.00     0.119 A 
ATOM      4  C   UNL     1     -39.344 -37.105 -20.168  1.00  0.00     0.094 A 
ATOM      5  C   UNL     1     -40.619 -37.555 -20.530  1.00  0.00     0.142 A 
ATOM      6  C   UNL     1     -41.700 -36.647 -20.564  1.00  0.00     0.018 A 
ATOM      7  C   UNL     1     -42.962 -37.125 -20.930  1.00  0.00     0.019 A 
ATOM      8  C   UNL     1     -43.115 -38.475 -21.249  1.00  0.00     0.094 A 
ATOM      9  C   UNL     1     -41.999 -39.316 -21.194  1.00  0.00     0.336 A 
ATOM     10  O   UNL     1     -42.118 -40.537 -21.478  1.00  0.00    -0.246 OA
ATOM     11  O   UNL     1     -40.809 -38.835 -20.842  1.00  0.00    -0.423 OA
ENDROOT
BRANCH   3  12
ATOM     12  O   UNL     1     -37.875 -35.300 -19.476  1.00  0.00    -0.508 OA
ATOM     13  H   UNL     1     -37.217 -34.961 -20.167  1.00  0.00     0.293 HD
ENDBRANCH   3  12
TORSDOF 1
ENDMDL
MODEL 9
REMARK VINA RESULT:    -4.014      1.718      3.895
REMARK INTER + INTRA:          -4.132
REMARK INTER:                  -4.132
REMARK INTRA:                   0.000
REMARK UNBOUND:                 0.000
REMARK SMILES O=c1ccc2ccc(O)cc2o1
REMARK SMILES IDX 6 1 7 2 8 3 10 4 11 5 5 6 4 7 3 8 2 9 1 10 12 11 9 12
REMARK H PARENT 9 13
REMARK Flexibility Score: inf
ROOT
ATOM      1  C   UNL     1     -40.055 -38.214 -20.689  1.00  0.00     0.016 A 
ATOM      2  C   UNL     1     -38.923 -37.393 -20.673  1.00  0.00     0.047 A 
ATOM      3  C   UNL     1     -39.025 -36.054 -20.275  1.00  0.00     0.119 A 
ATOM      4  C   UNL     1     -40.269 -35.532 -19.891  1.00  0.00     0.094 A 
ATOM      5  C   UNL     1     -41.407 -36.346 -19.904  1.00  0.00     0.142 A 
ATOM      6  C   UNL     1     -41.300 -37.696 -20.306  1.00  0.00     0.018 A 
ATOM      7  C   UNL     1     -42.455 -38.485 -20.310  1.00  0.00     0.019 A 
ATOM      8  C   UNL     1     -43.669 -37.920 -19.919  1.00  0.00     0.094 A 
ATOM      9  C   UNL     1     -43.700 -36.576 -19.534  1.00  0.00     0.336 A 
ATOM     10  O   UNL     1     -44.787 -36.049 -19.178  1.00  0.00    -0.246 OA
ATOM     11  O   UNL     1     -42.586 -35.848 -19.540  1.00  0.00    -0.423 OA
ENDROOT
BRANCH   3  12
ATOM     12  O   UNL     1     -37.886 -35.252 -20.265  1.00  0.00    -0.508 OA
ATOM     13  H   UNL     1     -37.284 -35.198 -19.453  1.00  0.00     0.293 HD
ENDBRANCH   3  12
TORSDOF 1
ENDMDL
