MODEL 1
REMARK VINA RESULT:    -5.998      0.000      0.000
REMARK INTER + INTRA:         -10.401
REMARK INTER:                  -9.154
REMARK INTRA:                  -1.247
REMARK UNBOUND:                -1.247
REMARK SMILES CC(=O)CCC=C(C)CCC=C(C)CCC=C(C)C
REMARK SMILES IDX 10 1 11 2 12 3 13 4 14 5 15 6 16 7 18 8 17 9 19 10 9 11 7 12
REMARK SMILES IDX 6 13 8 14 5 15 4 16 2 17 3 18 1 19
REMARK H PARENT
REMARK Flexibility Score: inf
ROOT
ATOM      1  C   UNL     1      -1.357  -6.775   3.879  1.00  0.00     0.032 C 
ENDROOT
BRANCH   1   2
ATOM      2  C   UNL     1      -0.925  -5.373   4.236  1.00  0.00    -0.028 C 
ATOM      3  C   UNL     1       0.048  -5.062   5.121  1.00  0.00    -0.077 C 
ATOM      4  C   UNL     1       0.379  -3.609   5.338  1.00  0.00     0.039 C 
BRANCH   3   5
ATOM      5  C   UNL     1       0.770  -6.103   5.955  1.00  0.00     0.034 C 
BRANCH   5   6
ATOM      6  C   UNL     1       1.512  -5.438   7.120  1.00  0.00     0.032 C 
BRANCH   6   7
ATOM      7  C   UNL     1       0.833  -5.746   8.431  1.00  0.00    -0.028 C 
ATOM      8  C   UNL     1       2.623  -7.333   9.171  1.00  0.00     0.039 C 
ATOM      9  C   UNL     1       1.305  -6.621   9.348  1.00  0.00    -0.080 C 
ATOM     10  C   UNL     1       0.528  -6.873  10.614  1.00  0.00     0.039 C 
ENDBRANCH   6   7
ENDBRANCH   5   6
ENDBRANCH   3   5
ENDBRANCH   1   2
BRANCH   1  11
ATOM     11  C   UNL     1      -2.598  -6.776   2.973  1.00  0.00     0.034 C 
BRANCH  11  12
ATOM     12  C   UNL     1      -3.817  -7.373   3.658  1.00  0.00    -0.077 C 
ATOM     13  C   UNL     1      -5.070  -6.878   3.515  1.00  0.00    -0.028 C 
ATOM     14  C   UNL     1      -3.630  -8.574   4.550  1.00  0.00     0.039 C 
BRANCH  13  15
ATOM     15  C   UNL     1      -5.464  -5.700   2.653  1.00  0.00     0.035 C 
BRANCH  15  16
ATOM     16  C   UNL     1      -6.218  -4.641   3.468  1.00  0.00     0.079 C 
BRANCH  16  17
ATOM     17  C   UNL     1      -5.280  -3.658   4.118  1.00  0.00     0.130 C 
ATOM     18  O   UNL     1      -5.560  -3.184   5.207  1.00  0.00    -0.300 OA
ATOM     19  C   UNL     1      -3.987  -3.276   3.462  1.00  0.00     0.087 C 
ENDBRANCH  16  17
ENDBRANCH  15  16
ENDBRANCH  13  15
ENDBRANCH  11  12
ENDBRANCH   1  11
TORSDOF 9
ENDMDL
MODEL 2
REMARK VINA RESULT:    -5.568      1.993      6.867
REMARK INTER + INTRA:          -9.745
REMARK INTER:                  -7.987
REMARK INTRA:                  -1.758
REMARK UNBOUND:                -1.247
REMARK SMILES CC(=O)CCC=C(C)CCC=C(C)CCC=C(C)C
REMARK SMILES IDX 10 1 11 2 12 3 13 4 14 5 15 6 16 7 18 8 17 9 19 10 9 11 7 12
REMARK SMILES IDX 6 13 8 14 5 15 4 16 2 17 3 18 1 19
REMARK H PARENT
REMARK Flexibility Score: inf
ROOT
ATOM      1  C   UNL     1      -3.666  -6.932   3.872  1.00  0.00     0.032 C 
ENDROOT
BRANCH   1   2
ATOM      2  C   UNL     1      -4.777  -7.091   2.861  1.00  0.00    -0.028 C 
ATOM      3  C   UNL     1      -5.883  -6.316   2.795  1.00  0.00    -0.077 C 
ATOM      4  C   UNL     1      -6.882  -6.589   1.701  1.00  0.00     0.039 C 
BRANCH   3   5
ATOM      5  C   UNL     1      -6.198  -5.236   3.811  1.00  0.00     0.034 C 
BRANCH   5   6
ATOM      6  C   UNL     1      -6.097  -3.848   3.170  1.00  0.00     0.032 C 
BRANCH   6   7
ATOM      7  C   UNL     1      -4.668  -3.364   3.164  1.00  0.00    -0.028 C 
ATOM      8  C   UNL     1      -4.876  -2.225   5.385  1.00  0.00     0.039 C 
ATOM      9  C   UNL     1      -4.117  -2.605   4.138  1.00  0.00    -0.080 C 
ATOM     10  C   UNL     1      -2.684  -2.153   4.016  1.00  0.00     0.039 C 
ENDBRANCH   6   7
ENDBRANCH   5   6
ENDBRANCH   3   5
ENDBRANCH   1   2
BRANCH   1  11
ATOM     11  C   UNL     1      -2.284  -7.141   3.236  1.00  0.00     0.034 C 
BRANCH  11  12
ATOM     12  C   UNL     1      -1.498  -5.845   3.114  1.00  0.00    -0.077 C 
ATOM     13  C   UNL     1      -0.631  -5.405   4.058  1.00  0.00    -0.028 C 
ATOM     14  C   UNL     1      -1.693  -4.994   1.884  1.00  0.00     0.039 C 
BRANCH  13  15
ATOM     15  C   UNL     1      -0.284  -6.122   5.343  1.00  0.00     0.035 C 
BRANCH  15  16
ATOM     16  C   UNL     1       1.090  -5.686   5.869  1.00  0.00     0.079 C 
BRANCH  16  17
ATOM     17  C   UNL     1       1.080  -5.475   7.360  1.00  0.00     0.130 C 
ATOM     18  O   UNL     1       0.795  -4.378   7.814  1.00  0.00    -0.300 OA
ATOM     19  C   UNL     1       1.382  -6.603   8.301  1.00  0.00     0.087 C 
ENDBRANCH  16  17
ENDBRANCH  15  16
ENDBRANCH  13  15
ENDBRANCH  11  12
ENDBRANCH   1  11
TORSDOF 9
ENDMDL
MODEL 3
REMARK VINA RESULT:    -5.555     14.327     17.206
REMARK INTER + INTRA:          -9.724
REMARK INTER:                  -8.290
REMARK INTRA:                  -1.434
REMARK UNBOUND:                -1.247
REMARK SMILES CC(=O)CCC=C(C)CCC=C(C)CCC=C(C)C
REMARK SMILES IDX 10 1 11 2 12 3 13 4 14 5 15 6 16 7 18 8 17 9 19 10 9 11 7 12
REMARK SMILES IDX 6 13 8 14 5 15 4 16 2 17 3 18 1 19
REMARK H PARENT
REMARK Flexibility Score: inf
ROOT
ATOM      1  C   UNL     1       2.914   6.067  17.822  1.00  0.00     0.032 C 
ENDROOT
BRANCH   1   2
ATOM      2  C   UNL     1       2.809   4.609  17.443  1.00  0.00    -0.028 C 
ATOM      3  C   UNL     1       3.429   4.034  16.389  1.00  0.00    -0.077 C 
ATOM      4  C   UNL     1       3.244   2.556  16.170  1.00  0.00     0.039 C 
BRANCH   3   5
ATOM      5  C   UNL     1       4.242   4.821  15.378  1.00  0.00     0.034 C 
BRANCH   5   6
ATOM      6  C   UNL     1       4.436   4.007  14.094  1.00  0.00     0.032 C 
BRANCH   6   7
ATOM      7  C   UNL     1       3.544   4.524  12.993  1.00  0.00    -0.028 C 
ATOM      8  C   UNL     1       5.335   5.967  12.001  1.00  0.00     0.039 C 
ATOM      9  C   UNL     1       3.927   5.430  12.065  1.00  0.00    -0.080 C 
ATOM     10  C   UNL     1       2.942   5.900  11.025  1.00  0.00     0.039 C 
ENDBRANCH   6   7
ENDBRANCH   5   6
ENDBRANCH   3   5
ENDBRANCH   1   2
BRANCH   1  11
ATOM     11  C   UNL     1       2.127   6.382  19.103  1.00  0.00     0.034 C 
BRANCH  11  12
ATOM     12  C   UNL     1       0.838   7.138  18.823  1.00  0.00    -0.077 C 
ATOM     13  C   UNL     1      -0.370   6.755  19.299  1.00  0.00    -0.028 C 
ATOM     14  C   UNL     1       0.899   8.376  17.964  1.00  0.00     0.039 C 
BRANCH  13  15
ATOM     15  C   UNL     1      -0.633   5.562  20.190  1.00  0.00     0.035 C 
BRANCH  15  16
ATOM     16  C   UNL     1      -1.113   4.354  19.375  1.00  0.00     0.079 C 
BRANCH  16  17
ATOM     17  C   UNL     1      -0.062   3.279  19.292  1.00  0.00     0.130 C 
ATOM     18  O   UNL     1       0.805   3.213  20.149  1.00  0.00    -0.300 OA
ATOM     19  C   UNL     1      -0.083   2.262  18.190  1.00  0.00     0.087 C 
ENDBRANCH  16  17
ENDBRANCH  15  16
ENDBRANCH  13  15
ENDBRANCH  11  12
ENDBRANCH   1  11
TORSDOF 9
ENDMDL
MODEL 4
REMARK VINA RESULT:    -5.486      2.415      6.566
REMARK INTER + INTRA:          -9.620
REMARK INTER:                  -7.768
REMARK INTRA:                  -1.851
REMARK UNBOUND:                -1.247
REMARK SMILES CC(=O)CCC=C(C)CCC=C(C)CCC=C(C)C
REMARK SMILES IDX 10 1 11 2 12 3 13 4 14 5 15 6 16 7 18 8 17 9 19 10 9 11 7 12
REMARK SMILES IDX 6 13 8 14 5 15 4 16 2 17 3 18 1 19
REMARK H PARENT
REMARK Flexibility Score: inf
ROOT
ATOM      1  C   UNL     1      -4.132  -3.244   3.484  1.00  0.00     0.032 C 
ENDROOT
BRANCH   1   2
ATOM      2  C   UNL     1      -5.353  -3.367   2.604  1.00  0.00    -0.028 C 
ATOM      3  C   UNL     1      -6.285  -4.341   2.702  1.00  0.00    -0.077 C 
ATOM      4  C   UNL     1      -7.464  -4.299   1.765  1.00  0.00     0.039 C 
BRANCH   3   5
ATOM      5  C   UNL     1      -6.163  -5.510   3.660  1.00  0.00     0.034 C 
BRANCH   5   6
ATOM      6  C   UNL     1      -5.585  -6.735   2.944  1.00  0.00     0.032 C 
BRANCH   6   7
ATOM      7  C   UNL     1      -4.078  -6.718   2.986  1.00  0.00    -0.028 C 
ATOM      8  C   UNL     1      -3.945  -8.543   4.696  1.00  0.00     0.039 C 
ATOM      9  C   UNL     1      -3.329  -7.503   3.793  1.00  0.00    -0.080 C 
ATOM     10  C   UNL     1      -1.827  -7.382   3.774  1.00  0.00     0.039 C 
ENDBRANCH   6   7
ENDBRANCH   5   6
ENDBRANCH   3   5
ENDBRANCH   1   2
BRANCH   1  11
ATOM     11  C   UNL     1      -2.940  -2.642   2.725  1.00  0.00     0.034 C 
BRANCH  11  12
ATOM     12  C   UNL     1      -1.824  -3.650   2.501  1.00  0.00    -0.077 C 
ATOM     13  C   UNL     1      -0.837  -3.882   3.399  1.00  0.00    -0.028 C 
ATOM     14  C   UNL     1      -1.804  -4.432   1.211  1.00  0.00     0.039 C 
BRANCH  13  15
ATOM     15  C   UNL     1      -0.696  -3.219   4.751  1.00  0.00     0.035 C 
BRANCH  15  16
ATOM     16  C   UNL     1       0.695  -3.466   5.348  1.00  0.00     0.079 C 
BRANCH  16  17
ATOM     17  C   UNL     1       0.667  -4.521   6.423  1.00  0.00     0.130 C 
ATOM     18  O   UNL     1       0.503  -4.194   7.587  1.00  0.00    -0.300 OA
ATOM     19  C   UNL     1       0.803  -5.975   6.080  1.00  0.00     0.087 C 
ENDBRANCH  16  17
ENDBRANCH  15  16
ENDBRANCH  13  15
ENDBRANCH  11  12
ENDBRANCH   1  11
TORSDOF 9
ENDMDL
MODEL 5
REMARK VINA RESULT:    -5.451      2.679      7.636
REMARK INTER + INTRA:          -9.567
REMARK INTER:                  -8.191
REMARK INTRA:                  -1.375
REMARK UNBOUND:                -1.247
REMARK SMILES CC(=O)CCC=C(C)CCC=C(C)CCC=C(C)C
REMARK SMILES IDX 10 1 11 2 12 3 13 4 14 5 15 6 16 7 18 8 17 9 19 10 9 11 7 12
REMARK SMILES IDX 6 13 8 14 5 15 4 16 2 17 3 18 1 19
REMARK H PARENT
REMARK Flexibility Score: inf
ROOT
ATOM      1  C   UNL     1      -0.219  -3.668   4.988  1.00  0.00     0.032 C 
ENDROOT
BRANCH   1   2
ATOM      2  C   UNL     1      -0.618  -5.113   4.801  1.00  0.00    -0.028 C 
ATOM      3  C   UNL     1      -1.070  -5.650   3.647  1.00  0.00    -0.077 C 
ATOM      4  C   UNL     1      -1.393  -7.121   3.621  1.00  0.00     0.039 C 
BRANCH   3   5
ATOM      5  C   UNL     1      -1.336  -4.827   2.400  1.00  0.00     0.034 C 
BRANCH   5   6
ATOM      6  C   UNL     1      -2.788  -4.998   1.943  1.00  0.00     0.032 C 
BRANCH   6   7
ATOM      7  C   UNL     1      -3.720  -4.187   2.808  1.00  0.00    -0.028 C 
ATOM      8  C   UNL     1      -5.095  -6.173   3.469  1.00  0.00     0.039 C 
ATOM      9  C   UNL     1      -4.781  -4.698   3.473  1.00  0.00    -0.080 C 
ATOM     10  C   UNL     1      -5.664  -3.788   4.288  1.00  0.00     0.039 C 
ENDBRANCH   6   7
ENDBRANCH   5   6
ENDBRANCH   3   5
ENDBRANCH   1   2
BRANCH   1  11
ATOM     11  C   UNL     1       0.105  -3.351   6.456  1.00  0.00     0.034 C 
BRANCH  11  12
ATOM     12  C   UNL     1       1.586  -3.496   6.768  1.00  0.00    -0.077 C 
ATOM     13  C   UNL     1       2.142  -4.639   7.238  1.00  0.00    -0.028 C 
ATOM     14  C   UNL     1       2.490  -2.308   6.553  1.00  0.00     0.039 C 
BRANCH  13  15
ATOM     15  C   UNL     1       1.411  -5.937   7.498  1.00  0.00     0.035 C 
BRANCH  15  16
ATOM     16  C   UNL     1       0.934  -6.025   8.953  1.00  0.00     0.079 C 
BRANCH  16  17
ATOM     17  C   UNL     1       1.963  -6.671   9.844  1.00  0.00     0.130 C 
ATOM     18  O   UNL     1       2.934  -7.220   9.347  1.00  0.00    -0.300 OA
ATOM     19  C   UNL     1       1.833  -6.620  11.337  1.00  0.00     0.087 C 
ENDBRANCH  16  17
ENDBRANCH  15  16
ENDBRANCH  13  15
ENDBRANCH  11  12
ENDBRANCH   1  11
TORSDOF 9
ENDMDL
MODEL 6
REMARK VINA RESULT:    -5.433      2.703      7.133
REMARK INTER + INTRA:          -9.538
REMARK INTER:                  -7.539
REMARK INTRA:                  -1.999
REMARK UNBOUND:                -1.247
REMARK SMILES CC(=O)CCC=C(C)CCC=C(C)CCC=C(C)C
REMARK SMILES IDX 10 1 11 2 12 3 13 4 14 5 15 6 16 7 18 8 17 9 19 10 9 11 7 12
REMARK SMILES IDX 6 13 8 14 5 15 4 16 2 17 3 18 1 19
REMARK H PARENT
REMARK Flexibility Score: inf
ROOT
ATOM      1  C   UNL     1      -2.716  -4.960   1.819  1.00  0.00     0.032 C 
ENDROOT
BRANCH   1   2
ATOM      2  C   UNL     1      -2.734  -6.051   2.863  1.00  0.00    -0.028 C 
ATOM      3  C   UNL     1      -3.842  -6.691   3.298  1.00  0.00    -0.077 C 
ATOM      4  C   UNL     1      -3.680  -7.782   4.324  1.00  0.00     0.039 C 
BRANCH   3   5
ATOM      5  C   UNL     1      -5.243  -6.314   2.855  1.00  0.00     0.034 C 
BRANCH   5   6
ATOM      6  C   UNL     1      -5.816  -5.219   3.761  1.00  0.00     0.032 C 
BRANCH   6   7
ATOM      7  C   UNL     1      -5.994  -3.931   2.996  1.00  0.00    -0.028 C 
ATOM      8  C   UNL     1      -4.591  -2.603   4.590  1.00  0.00     0.039 C 
ATOM      9  C   UNL     1      -5.475  -2.741   3.376  1.00  0.00    -0.080 C 
ATOM     10  C   UNL     1      -5.741  -1.510   2.549  1.00  0.00     0.039 C 
ENDBRANCH   6   7
ENDBRANCH   5   6
ENDBRANCH   3   5
ENDBRANCH   1   2
BRANCH   1  11
ATOM     11  C   UNL     1      -1.369  -4.224   1.786  1.00  0.00     0.034 C 
BRANCH  11  12
ATOM     12  C   UNL     1      -1.412  -2.898   2.528  1.00  0.00    -0.077 C 
ATOM     13  C   UNL     1      -0.980  -2.741   3.802  1.00  0.00    -0.028 C 
ATOM     14  C   UNL     1      -1.971  -1.690   1.818  1.00  0.00     0.039 C 
BRANCH  13  15
ATOM     15  C   UNL     1      -0.371  -3.820   4.670  1.00  0.00     0.035 C 
BRANCH  15  16
ATOM     16  C   UNL     1       0.651  -3.233   5.652  1.00  0.00     0.079 C 
BRANCH  16  17
ATOM     17  C   UNL     1       1.642  -4.267   6.117  1.00  0.00     0.130 C 
ATOM     18  O   UNL     1       2.765  -3.922   6.449  1.00  0.00    -0.300 OA
ATOM     19  C   UNL     1       1.260  -5.714   6.213  1.00  0.00     0.087 C 
ENDBRANCH  16  17
ENDBRANCH  15  16
ENDBRANCH  13  15
ENDBRANCH  11  12
ENDBRANCH   1  11
TORSDOF 9
ENDMDL
MODEL 7
REMARK VINA RESULT:    -5.424      3.518      5.407
REMARK INTER + INTRA:          -9.524
REMARK INTER:                  -7.183
REMARK INTRA:                  -2.341
REMARK UNBOUND:                -1.247
REMARK SMILES CC(=O)CCC=C(C)CCC=C(C)CCC=C(C)C
REMARK SMILES IDX 10 1 11 2 12 3 13 4 14 5 15 6 16 7 18 8 17 9 19 10 9 11 7 12
REMARK SMILES IDX 6 13 8 14 5 15 4 16 2 17 3 18 1 19
REMARK H PARENT
REMARK Flexibility Score: inf
ROOT
ATOM      1  C   UNL     1      -5.532  -6.716   2.805  1.00  0.00     0.032 C 
ENDROOT
BRANCH   1   2
ATOM      2  C   UNL     1      -4.191  -7.054   3.411  1.00  0.00    -0.028 C 
ATOM      3  C   UNL     1      -3.028  -6.429   3.119  1.00  0.00    -0.077 C 
ATOM      4  C   UNL     1      -1.781  -6.868   3.840  1.00  0.00     0.039 C 
BRANCH   3   5
ATOM      5  C   UNL     1      -2.909  -5.360   2.050  1.00  0.00     0.034 C 
BRANCH   5   6
ATOM      6  C   UNL     1      -1.455  -4.899   1.910  1.00  0.00     0.032 C 
BRANCH   6   7
ATOM      7  C   UNL     1      -1.378  -3.397   1.794  1.00  0.00    -0.028 C 
ATOM      8  C   UNL     1      -0.952  -3.069   4.240  1.00  0.00     0.039 C 
ATOM      9  C   UNL     1      -1.185  -2.561   2.839  1.00  0.00    -0.080 C 
ATOM     10  C   UNL     1      -1.155  -1.071   2.612  1.00  0.00     0.039 C 
ENDBRANCH   6   7
ENDBRANCH   5   6
ENDBRANCH   3   5
ENDBRANCH   1   2
BRANCH   1  11
ATOM     11  C   UNL     1      -6.236  -5.587   3.572  1.00  0.00     0.034 C 
BRANCH  11  12
ATOM     12  C   UNL     1      -6.525  -4.379   2.694  1.00  0.00    -0.077 C 
ATOM     13  C   UNL     1      -5.902  -3.185   2.838  1.00  0.00    -0.028 C 
ATOM     14  C   UNL     1      -7.564  -4.507   1.608  1.00  0.00     0.039 C 
BRANCH  13  15
ATOM     15  C   UNL     1      -4.822  -2.866   3.847  1.00  0.00     0.035 C 
BRANCH  15  16
ATOM     16  C   UNL     1      -4.633  -1.351   3.998  1.00  0.00     0.079 C 
BRANCH  16  17
ATOM     17  C   UNL     1      -4.027  -0.990   5.329  1.00  0.00     0.130 C 
ATOM     18  O   UNL     1      -3.220  -0.077   5.398  1.00  0.00    -0.300 OA
ATOM     19  C   UNL     1      -4.427  -1.713   6.581  1.00  0.00     0.087 C 
ENDBRANCH  16  17
ENDBRANCH  15  16
ENDBRANCH  13  15
ENDBRANCH  11  12
ENDBRANCH   1  11
TORSDOF 9
ENDMDL
MODEL 8
REMARK VINA RESULT:    -5.357      1.363      2.255
REMARK INTER + INTRA:          -9.422
REMARK INTER:                  -7.914
REMARK INTRA:                  -1.508
REMARK UNBOUND:                -1.247
REMARK SMILES CC(=O)CCC=C(C)CCC=C(C)CCC=C(C)C
REMARK SMILES IDX 10 1 11 2 12 3 13 4 14 5 15 6 16 7 18 8 17 9 19 10 9 11 7 12
REMARK SMILES IDX 6 13 8 14 5 15 4 16 2 17 3 18 1 19
REMARK H PARENT
REMARK Flexibility Score: inf
ROOT
ATOM      1  C   UNL     1      -1.085  -4.615   3.400  1.00  0.00     0.032 C 
ENDROOT
BRANCH   1   2
ATOM      2  C   UNL     1      -0.932  -3.123   3.222  1.00  0.00    -0.028 C 
ATOM      3  C   UNL     1      -0.624  -2.252   4.209  1.00  0.00    -0.077 C 
ATOM      4  C   UNL     1      -0.475  -0.795   3.855  1.00  0.00     0.039 C 
BRANCH   3   5
ATOM      5  C   UNL     1      -0.494  -2.661   5.664  1.00  0.00     0.034 C 
BRANCH   5   6
ATOM      6  C   UNL     1       0.947  -3.078   5.978  1.00  0.00     0.032 C 
BRANCH   6   7
ATOM      7  C   UNL     1       1.000  -3.918   7.229  1.00  0.00    -0.028 C 
ATOM      8  C   UNL     1       0.841  -6.081   5.977  1.00  0.00     0.039 C 
ATOM      9  C   UNL     1       0.920  -5.268   7.245  1.00  0.00    -0.080 C 
ATOM     10  C   UNL     1       0.954  -6.005   8.559  1.00  0.00     0.039 C 
ENDBRANCH   6   7
ENDBRANCH   5   6
ENDBRANCH   3   5
ENDBRANCH   1   2
BRANCH   1  11
ATOM     11  C   UNL     1      -2.213  -5.180   2.524  1.00  0.00     0.034 C 
BRANCH  11  12
ATOM     12  C   UNL     1      -2.808  -6.458   3.094  1.00  0.00    -0.077 C 
ATOM     13  C   UNL     1      -4.138  -6.711   3.131  1.00  0.00    -0.028 C 
ATOM     14  C   UNL     1      -1.874  -7.502   3.656  1.00  0.00     0.039 C 
BRANCH  13  15
ATOM     15  C   UNL     1      -5.226  -5.805   2.601  1.00  0.00     0.035 C 
BRANCH  15  16
ATOM     16  C   UNL     1      -6.028  -5.171   3.745  1.00  0.00     0.079 C 
BRANCH  16  17
ATOM     17  C   UNL     1      -5.590  -3.756   4.021  1.00  0.00     0.130 C 
ATOM     18  O   UNL     1      -5.595  -3.335   5.167  1.00  0.00    -0.300 OA
ATOM     19  C   UNL     1      -5.113  -2.866   2.913  1.00  0.00     0.087 C 
ENDBRANCH  16  17
ENDBRANCH  15  16
ENDBRANCH  13  15
ENDBRANCH  11  12
ENDBRANCH   1  11
TORSDOF 9
ENDMDL
MODEL 9
REMARK VINA RESULT:    -5.304     13.817     16.762
REMARK INTER + INTRA:          -9.342
REMARK INTER:                  -6.994
REMARK INTRA:                  -2.348
REMARK UNBOUND:                -1.247
REMARK SMILES CC(=O)CCC=C(C)CCC=C(C)CCC=C(C)C
REMARK SMILES IDX 10 1 11 2 12 3 13 4 14 5 15 6 16 7 18 8 17 9 19 10 9 11 7 12
REMARK SMILES IDX 6 13 8 14 5 15 4 16 2 17 3 18 1 19
REMARK H PARENT
REMARK Flexibility Score: inf
ROOT
ATOM      1  C   UNL     1      -1.016   6.756  19.630  1.00  0.00     0.032 C 
ENDROOT
BRANCH   1   2
ATOM      2  C   UNL     1       0.322   6.872  18.940  1.00  0.00    -0.028 C 
ATOM      3  C   UNL     1       1.415   6.135  19.237  1.00  0.00    -0.077 C 
ATOM      4  C   UNL     1       2.667   6.354  18.427  1.00  0.00     0.039 C 
BRANCH   3   5
ATOM      5  C   UNL     1       1.462   5.151  20.391  1.00  0.00     0.034 C 
BRANCH   5   6
ATOM      6  C   UNL     1       2.613   4.157  20.204  1.00  0.00     0.032 C 
BRANCH   6   7
ATOM      7  C   UNL     1       2.086   2.754  20.041  1.00  0.00    -0.028 C 
ATOM      8  C   UNL     1       2.467   2.725  17.566  1.00  0.00     0.039 C 
ATOM      9  C   UNL     1       1.985   2.110  18.857  1.00  0.00    -0.080 C 
ATOM     10  C   UNL     1       1.415   0.715  18.807  1.00  0.00     0.039 C 
ENDBRANCH   6   7
ENDBRANCH   5   6
ENDBRANCH   3   5
ENDBRANCH   1   2
BRANCH   1  11
ATOM     11  C   UNL     1      -1.933   5.744  18.927  1.00  0.00     0.034 C 
BRANCH  11  12
ATOM     12  C   UNL     1      -2.033   4.427  19.682  1.00  0.00    -0.077 C 
ATOM     13  C   UNL     1      -1.754   3.225  19.126  1.00  0.00    -0.028 C 
ATOM     14  C   UNL     1      -2.473   4.454  21.125  1.00  0.00     0.039 C 
BRANCH  13  15
ATOM     15  C   UNL     1      -1.280   2.993  17.709  1.00  0.00     0.035 C 
BRANCH  15  16
ATOM     16  C   UNL     1      -2.221   2.044  16.956  1.00  0.00     0.079 C 
BRANCH  16  17
ATOM     17  C   UNL     1      -2.430   2.475  15.527  1.00  0.00     0.130 C 
ATOM     18  O   UNL     1      -1.633   2.130  14.669  1.00  0.00    -0.300 OA
ATOM     19  C   UNL     1      -3.622   3.294  15.135  1.00  0.00     0.087 C 
ENDBRANCH  16  17
ENDBRANCH  15  16
ENDBRANCH  13  15
ENDBRANCH  11  12
ENDBRANCH   1  11
TORSDOF 9
ENDMDL
