MODEL 1
REMARK VINA RESULT:    -4.630      0.000      0.000
REMARK INTER + INTRA:          -5.305
REMARK INTER:                  -5.171
REMARK INTRA:                  -0.134
REMARK UNBOUND:                -0.134
REMARK SMILES COc1cc2ccc(=O)oc2cc1OC
REMARK SMILES IDX 3 1 13 2 12 3 11 4 5 5 4 6 6 7 7 8 8 9 9 10 10 11 2 12 1 13
REMARK SMILES IDX 14 14 15 15
REMARK H PARENT
REMARK Flexibility Score: inf
ROOT
ATOM      1  C   UNL     1      -7.848  23.206 -10.385  1.00  0.00     0.161 A 
ATOM      2  C   UNL     1      -8.483  22.025  -9.965  1.00  0.00     0.164 A 
ATOM      3  C   UNL     1      -7.728  21.003  -9.356  1.00  0.00     0.098 A 
ATOM      4  C   UNL     1      -6.353  21.157  -9.166  1.00  0.00     0.142 A 
ATOM      5  C   UNL     1      -5.714  22.342  -9.587  1.00  0.00     0.022 A 
ATOM      6  C   UNL     1      -6.461  23.360 -10.193  1.00  0.00     0.062 A 
ATOM      7  C   UNL     1      -4.336  22.465  -9.383  1.00  0.00     0.019 A 
ATOM      8  C   UNL     1      -3.638  21.423  -8.775  1.00  0.00     0.094 A 
ATOM      9  C   UNL     1      -4.338  20.277  -8.383  1.00  0.00     0.336 A 
ATOM     10  O   UNL     1      -3.726  19.324  -7.832  1.00  0.00    -0.246 OA
ATOM     11  O   UNL     1      -5.649  20.186  -8.589  1.00  0.00    -0.423 OA
ENDROOT
BRANCH   1  12
ATOM     12  O   UNL     1      -8.631  24.203 -10.989  1.00  0.00    -0.493 OA
ATOM     13  C   UNL     1      -8.607  25.580 -10.625  1.00  0.00     0.278 C 
ENDBRANCH   1  12
BRANCH   2  14
ATOM     14  O   UNL     1      -9.867  21.904 -10.172  1.00  0.00    -0.493 OA
ATOM     15  C   UNL     1     -10.853  22.085  -9.161  1.00  0.00     0.278 C 
ENDBRANCH   2  14
TORSDOF 2
ENDMDL
MODEL 2
REMARK VINA RESULT:    -4.497      2.285      2.989
REMARK INTER + INTRA:          -5.157
REMARK INTER:                  -5.055
REMARK INTRA:                  -0.102
REMARK UNBOUND:                -0.134
REMARK SMILES COc1cc2ccc(=O)oc2cc1OC
REMARK SMILES IDX 3 1 13 2 12 3 11 4 5 5 4 6 6 7 7 8 8 9 9 10 10 11 2 12 1 13
REMARK SMILES IDX 14 14 15 15
REMARK H PARENT
REMARK Flexibility Score: inf
ROOT
ATOM      1  C   UNL     1      -8.950  21.464  -8.252  1.00  0.00     0.161 A 
ATOM      2  C   UNL     1      -8.809  21.735  -6.880  1.00  0.00     0.164 A 
ATOM      3  C   UNL     1      -7.557  21.563  -6.258  1.00  0.00     0.098 A 
ATOM      4  C   UNL     1      -6.455  21.127  -6.997  1.00  0.00     0.142 A 
ATOM      5  C   UNL     1      -6.595  20.855  -8.373  1.00  0.00     0.022 A 
ATOM      6  C   UNL     1      -7.839  21.024  -8.995  1.00  0.00     0.062 A 
ATOM      7  C   UNL     1      -5.473  20.418  -9.084  1.00  0.00     0.019 A 
ATOM      8  C   UNL     1      -4.257  20.266  -8.420  1.00  0.00     0.094 A 
ATOM      9  C   UNL     1      -4.192  20.555  -7.052  1.00  0.00     0.336 A 
ATOM     10  O   UNL     1      -3.103  20.424  -6.433  1.00  0.00    -0.246 OA
ATOM     11  O   UNL     1      -5.276  20.968  -6.400  1.00  0.00    -0.423 OA
ENDROOT
BRANCH   1  12
ATOM     12  O   UNL     1     -10.214  21.646  -8.838  1.00  0.00    -0.493 OA
ATOM     13  C   UNL     1     -10.465  21.614 -10.239  1.00  0.00     0.278 C 
ENDBRANCH   1  12
BRANCH   2  14
ATOM     14  O   UNL     1      -9.938  22.172  -6.169  1.00  0.00    -0.493 OA
ATOM     15  C   UNL     1     -10.070  22.122  -4.751  1.00  0.00     0.278 C 
ENDBRANCH   2  14
TORSDOF 2
ENDMDL
MODEL 3
REMARK VINA RESULT:    -4.473      2.339      5.568
REMARK INTER + INTRA:          -5.130
REMARK INTER:                  -5.015
REMARK INTRA:                  -0.115
REMARK UNBOUND:                -0.134
REMARK SMILES COc1cc2ccc(=O)oc2cc1OC
REMARK SMILES IDX 3 1 13 2 12 3 11 4 5 5 4 6 6 7 7 8 8 9 9 10 10 11 2 12 1 13
REMARK SMILES IDX 14 14 15 15
REMARK H PARENT
REMARK Flexibility Score: inf
ROOT
ATOM      1  C   UNL     1      -9.429  22.380  -8.087  1.00  0.00     0.161 A 
ATOM      2  C   UNL     1      -8.572  21.985  -9.128  1.00  0.00     0.164 A 
ATOM      3  C   UNL     1      -8.189  22.918 -10.112  1.00  0.00     0.098 A 
ATOM      4  C   UNL     1      -8.656  24.234 -10.057  1.00  0.00     0.142 A 
ATOM      5  C   UNL     1      -9.515  24.631  -9.013  1.00  0.00     0.022 A 
ATOM      6  C   UNL     1      -9.898  23.707  -8.033  1.00  0.00     0.062 A 
ATOM      7  C   UNL     1      -9.965  25.955  -8.988  1.00  0.00     0.019 A 
ATOM      8  C   UNL     1      -9.555  26.838  -9.986  1.00  0.00     0.094 A 
ATOM      9  C   UNL     1      -8.700  26.372 -10.991  1.00  0.00     0.336 A 
ATOM     10  O   UNL     1      -8.318  27.153 -11.902  1.00  0.00    -0.246 OA
ATOM     11  O   UNL     1      -8.288  25.107 -10.992  1.00  0.00    -0.423 OA
ENDROOT
BRANCH   1  12
ATOM     12  O   UNL     1      -9.789  21.423  -7.124  1.00  0.00    -0.493 OA
ATOM     13  C   UNL     1      -9.755  21.641  -5.717  1.00  0.00     0.278 C 
ENDBRANCH   1  12
BRANCH   2  14
ATOM     14  O   UNL     1      -8.122  20.654  -9.151  1.00  0.00    -0.493 OA
ATOM     15  C   UNL     1      -6.786  20.258  -9.445  1.00  0.00     0.278 C 
ENDBRANCH   2  14
TORSDOF 2
ENDMDL
MODEL 4
REMARK VINA RESULT:    -4.376      1.486      4.874
REMARK INTER + INTRA:          -5.021
REMARK INTER:                  -4.913
REMARK INTRA:                  -0.108
REMARK UNBOUND:                -0.134
REMARK SMILES COc1cc2ccc(=O)oc2cc1OC
REMARK SMILES IDX 3 1 13 2 12 3 11 4 5 5 4 6 6 7 7 8 8 9 9 10 10 11 2 12 1 13
REMARK SMILES IDX 14 14 15 15
REMARK H PARENT
REMARK Flexibility Score: inf
ROOT
ATOM      1  C   UNL     1      -4.603  22.467  -9.537  1.00  0.00     0.161 A 
ATOM      2  C   UNL     1      -4.938  21.187  -9.063  1.00  0.00     0.164 A 
ATOM      3  C   UNL     1      -6.282  20.765  -9.078  1.00  0.00     0.098 A 
ATOM      4  C   UNL     1      -7.283  21.610  -9.563  1.00  0.00     0.142 A 
ATOM      5  C   UNL     1      -6.948  22.894 -10.040  1.00  0.00     0.022 A 
ATOM      6  C   UNL     1      -5.613  23.318 -10.026  1.00  0.00     0.062 A 
ATOM      7  C   UNL     1      -7.973  23.716 -10.518  1.00  0.00     0.019 A 
ATOM      8  C   UNL     1      -9.286  23.248 -10.511  1.00  0.00     0.094 A 
ATOM      9  C   UNL     1      -9.544  21.962 -10.023  1.00  0.00     0.336 A 
ATOM     10  O   UNL     1     -10.723  21.520 -10.008  1.00  0.00    -0.246 OA
ATOM     11  O   UNL     1      -8.549  21.201  -9.574  1.00  0.00    -0.423 OA
ENDROOT
BRANCH   1  12
ATOM     12  O   UNL     1      -3.253  22.854  -9.506  1.00  0.00    -0.493 OA
ATOM     13  C   UNL     1      -2.787  24.122  -9.055  1.00  0.00     0.278 C 
ENDBRANCH   1  12
BRANCH   2  14
ATOM     14  O   UNL     1      -3.906  20.365  -8.582  1.00  0.00    -0.493 OA
ATOM     15  C   UNL     1      -4.062  18.992  -8.236  1.00  0.00     0.278 C 
ENDBRANCH   2  14
TORSDOF 2
ENDMDL
MODEL 5
REMARK VINA RESULT:    -4.349      1.831      2.492
REMARK INTER + INTRA:          -4.991
REMARK INTER:                  -4.828
REMARK INTRA:                  -0.163
REMARK UNBOUND:                -0.134
REMARK SMILES COc1cc2ccc(=O)oc2cc1OC
REMARK SMILES IDX 3 1 13 2 12 3 11 4 5 5 4 6 6 7 7 8 8 9 9 10 10 11 2 12 1 13
REMARK SMILES IDX 14 14 15 15
REMARK H PARENT
REMARK Flexibility Score: inf
ROOT
ATOM      1  C   UNL     1      -8.026  22.036  -9.457  1.00  0.00     0.161 A 
ATOM      2  C   UNL     1      -7.802  22.952  -8.415  1.00  0.00     0.164 A 
ATOM      3  C   UNL     1      -6.693  22.784  -7.563  1.00  0.00     0.098 A 
ATOM      4  C   UNL     1      -5.816  21.714  -7.747  1.00  0.00     0.142 A 
ATOM      5  C   UNL     1      -6.039  20.794  -8.792  1.00  0.00     0.022 A 
ATOM      6  C   UNL     1      -7.141  20.957  -9.642  1.00  0.00     0.062 A 
ATOM      7  C   UNL     1      -5.142  19.732  -8.949  1.00  0.00     0.019 A 
ATOM      8  C   UNL     1      -4.061  19.614  -8.077  1.00  0.00     0.094 A 
ATOM      9  C   UNL     1      -3.902  20.565  -7.063  1.00  0.00     0.336 A 
ATOM     10  O   UNL     1      -2.932  20.476  -6.265  1.00  0.00    -0.246 OA
ATOM     11  O   UNL     1      -4.771  21.565  -6.936  1.00  0.00    -0.423 OA
ENDROOT
BRANCH   1  12
ATOM     12  O   UNL     1      -9.142  22.234 -10.287  1.00  0.00    -0.493 OA
ATOM     13  C   UNL     1     -10.369  21.520 -10.175  1.00  0.00     0.278 C 
ENDBRANCH   1  12
BRANCH   2  14
ATOM     14  O   UNL     1      -8.705  24.016  -8.260  1.00  0.00    -0.493 OA
ATOM     15  C   UNL     1      -9.655  24.122  -7.203  1.00  0.00     0.278 C 
ENDBRANCH   2  14
TORSDOF 2
ENDMDL
MODEL 6
REMARK VINA RESULT:    -4.268      1.465      2.805
REMARK INTER + INTRA:          -4.901
REMARK INTER:                  -4.777
REMARK INTRA:                  -0.124
REMARK UNBOUND:                -0.134
REMARK SMILES COc1cc2ccc(=O)oc2cc1OC
REMARK SMILES IDX 3 1 13 2 12 3 11 4 5 5 4 6 6 7 7 8 8 9 9 10 10 11 2 12 1 13
REMARK SMILES IDX 14 14 15 15
REMARK H PARENT
REMARK Flexibility Score: inf
ROOT
ATOM      1  C   UNL     1      -8.226  22.302 -10.055  1.00  0.00     0.161 A 
ATOM      2  C   UNL     1      -7.757  23.580 -10.404  1.00  0.00     0.164 A 
ATOM      3  C   UNL     1      -6.399  23.904 -10.211  1.00  0.00     0.098 A 
ATOM      4  C   UNL     1      -5.517  22.962  -9.675  1.00  0.00     0.142 A 
ATOM      5  C   UNL     1      -5.987  21.680  -9.325  1.00  0.00     0.022 A 
ATOM      6  C   UNL     1      -7.336  21.354  -9.515  1.00  0.00     0.062 A 
ATOM      7  C   UNL     1      -5.079  20.761  -8.790  1.00  0.00     0.019 A 
ATOM      8  C   UNL     1      -3.746  21.133  -8.621  1.00  0.00     0.094 A 
ATOM      9  C   UNL     1      -3.352  22.423  -8.992  1.00  0.00     0.336 A 
ATOM     10  O   UNL     1      -2.152  22.780  -8.847  1.00  0.00    -0.246 OA
ATOM     11  O   UNL     1      -4.237  23.279  -9.497  1.00  0.00    -0.423 OA
ENDROOT
BRANCH   1  12
ATOM     12  O   UNL     1      -9.585  22.015 -10.261  1.00  0.00    -0.493 OA
ATOM     13  C   UNL     1     -10.576  22.020  -9.237  1.00  0.00     0.278 C 
ENDBRANCH   1  12
BRANCH   2  14
ATOM     14  O   UNL     1      -8.672  24.501 -10.939  1.00  0.00    -0.493 OA
ATOM     15  C   UNL     1      -8.658  25.901 -10.674  1.00  0.00     0.278 C 
ENDBRANCH   2  14
TORSDOF 2
ENDMDL
MODEL 7
REMARK VINA RESULT:    -4.139      1.637      5.581
REMARK INTER + INTRA:          -4.756
REMARK INTER:                  -4.729
REMARK INTRA:                  -0.027
REMARK UNBOUND:                -0.134
REMARK SMILES COc1cc2ccc(=O)oc2cc1OC
REMARK SMILES IDX 3 1 13 2 12 3 11 4 5 5 4 6 6 7 7 8 8 9 9 10 10 11 2 12 1 13
REMARK SMILES IDX 14 14 15 15
REMARK H PARENT
REMARK Flexibility Score: inf
ROOT
ATOM      1  C   UNL     1      -5.706  20.725  -9.057  1.00  0.00     0.161 A 
ATOM      2  C   UNL     1      -5.254  22.038  -8.839  1.00  0.00     0.164 A 
ATOM      3  C   UNL     1      -6.185  23.089  -8.730  1.00  0.00     0.098 A 
ATOM      4  C   UNL     1      -7.554  22.835  -8.837  1.00  0.00     0.142 A 
ATOM      5  C   UNL     1      -8.009  21.519  -9.056  1.00  0.00     0.022 A 
ATOM      6  C   UNL     1      -7.087  20.470  -9.165  1.00  0.00     0.062 A 
ATOM      7  C   UNL     1      -9.386  21.298  -9.159  1.00  0.00     0.019 A 
ATOM      8  C   UNL     1     -10.264  22.375  -9.043  1.00  0.00     0.094 A 
ATOM      9  C   UNL     1      -9.740  23.654  -8.826  1.00  0.00     0.336 A 
ATOM     10  O   UNL     1     -10.516  24.640  -8.718  1.00  0.00    -0.246 OA
ATOM     11  O   UNL     1      -8.425  23.836  -8.732  1.00  0.00    -0.423 OA
ENDROOT
BRANCH   1  12
ATOM     12  O   UNL     1      -4.749  19.702  -9.161  1.00  0.00    -0.493 OA
ATOM     13  C   UNL     1      -4.118  19.072  -8.051  1.00  0.00     0.278 C 
ENDBRANCH   1  12
BRANCH   2  14
ATOM     14  O   UNL     1      -3.870  22.256  -8.737  1.00  0.00    -0.493 OA
ATOM     15  C   UNL     1      -3.151  23.239  -9.476  1.00  0.00     0.278 C 
ENDBRANCH   2  14
TORSDOF 2
ENDMDL
MODEL 8
REMARK VINA RESULT:    -4.129      2.829      4.612
REMARK INTER + INTRA:          -4.745
REMARK INTER:                  -4.580
REMARK INTRA:                  -0.166
REMARK UNBOUND:                -0.134
REMARK SMILES COc1cc2ccc(=O)oc2cc1OC
REMARK SMILES IDX 3 1 13 2 12 3 11 4 5 5 4 6 6 7 7 8 8 9 9 10 10 11 2 12 1 13
REMARK SMILES IDX 14 14 15 15
REMARK H PARENT
REMARK Flexibility Score: inf
ROOT
ATOM      1  C   UNL     1      -9.762  26.159  -9.510  1.00  0.00     0.161 A 
ATOM      2  C   UNL     1      -8.844  25.880 -10.537  1.00  0.00     0.164 A 
ATOM      3  C   UNL     1      -8.304  24.585 -10.659  1.00  0.00     0.098 A 
ATOM      4  C   UNL     1      -8.675  23.577  -9.766  1.00  0.00     0.142 A 
ATOM      5  C   UNL     1      -9.595  23.856  -8.736  1.00  0.00     0.022 A 
ATOM      6  C   UNL     1     -10.136  25.142  -8.610  1.00  0.00     0.062 A 
ATOM      7  C   UNL     1      -9.946  22.825  -7.858  1.00  0.00     0.019 A 
ATOM      8  C   UNL     1      -9.381  21.561  -8.025  1.00  0.00     0.094 A 
ATOM      9  C   UNL     1      -8.474  21.358  -9.071  1.00  0.00     0.336 A 
ATOM     10  O   UNL     1      -7.953  20.224  -9.239  1.00  0.00    -0.246 OA
ATOM     11  O   UNL     1      -8.158  22.357  -9.891  1.00  0.00    -0.423 OA
ENDROOT
BRANCH   1  12
ATOM     12  O   UNL     1     -10.281  27.462  -9.418  1.00  0.00    -0.493 OA
ATOM     13  C   UNL     1      -9.841  28.441  -8.482  1.00  0.00     0.278 C 
ENDBRANCH   1  12
BRANCH   2  14
ATOM     14  O   UNL     1      -8.494  26.918 -11.416  1.00  0.00    -0.493 OA
ATOM     15  C   UNL     1      -7.254  27.619 -11.385  1.00  0.00     0.278 C 
ENDBRANCH   2  14
TORSDOF 2
ENDMDL
MODEL 9
REMARK VINA RESULT:    -4.091      2.580      5.696
REMARK INTER + INTRA:          -4.703
REMARK INTER:                  -4.542
REMARK INTRA:                  -0.161
REMARK UNBOUND:                -0.134
REMARK SMILES COc1cc2ccc(=O)oc2cc1OC
REMARK SMILES IDX 3 1 13 2 12 3 11 4 5 5 4 6 6 7 7 8 8 9 9 10 10 11 2 12 1 13
REMARK SMILES IDX 14 14 15 15
REMARK H PARENT
REMARK Flexibility Score: inf
ROOT
ATOM      1  C   UNL     1      -8.858  22.459  -9.379  1.00  0.00     0.161 A 
ATOM      2  C   UNL     1      -9.784  22.816  -8.383  1.00  0.00     0.164 A 
ATOM      3  C   UNL     1     -10.194  24.158  -8.259  1.00  0.00     0.098 A 
ATOM      4  C   UNL     1      -9.688  25.135  -9.119  1.00  0.00     0.142 A 
ATOM      5  C   UNL     1      -8.760  24.779 -10.118  1.00  0.00     0.022 A 
ATOM      6  C   UNL     1      -8.349  23.446 -10.246  1.00  0.00     0.062 A 
ATOM      7  C   UNL     1      -8.272  25.781 -10.962  1.00  0.00     0.019 A 
ATOM      8  C   UNL     1      -8.712  27.093 -10.795  1.00  0.00     0.094 A 
ATOM      9  C   UNL     1      -9.636  27.372  -9.782  1.00  0.00     0.336 A 
ATOM     10  O   UNL     1     -10.046  28.551  -9.614  1.00  0.00    -0.246 OA
ATOM     11  O   UNL     1     -10.083  26.400  -8.992  1.00  0.00    -0.423 OA
ENDROOT
BRANCH   1  12
ATOM     12  O   UNL     1      -8.471  21.112  -9.475  1.00  0.00    -0.493 OA
ATOM     13  C   UNL     1      -7.189  20.613  -9.106  1.00  0.00     0.278 C 
ENDBRANCH   1  12
BRANCH   2  14
ATOM     14  O   UNL     1     -10.271  21.807  -7.537  1.00  0.00    -0.493 OA
ATOM     15  C   UNL     1      -9.853  21.612  -6.189  1.00  0.00     0.278 C 
ENDBRANCH   2  14
TORSDOF 2
ENDMDL
