MODEL 1
REMARK VINA RESULT:    -3.841      0.000      0.000
REMARK INTER + INTRA:          -8.684
REMARK INTER:                  -7.209
REMARK INTRA:                  -1.475
REMARK UNBOUND:                -1.475
REMARK SMILES O=C([O-])CCCCCCCCCCCCCCC(=O)[O-]
REMARK SMILES IDX 10 1 9 2 8 3 7 4 6 5 5 6 4 7 2 8 1 9 3 10 11 11 12 12 13 13
REMARK SMILES IDX 14 14 15 15 16 16 17 17 18 18 19 19 20 20
REMARK H PARENT
REMARK Flexibility Score: inf
ROOT
ATOM      1  C   UNL     1      -1.069  -7.620 -10.813  1.00  0.00     0.000 C 
ENDROOT
BRANCH   1   2
ATOM      2  C   UNL     1      -1.957  -8.643 -11.538  1.00  0.00     0.000 C 
BRANCH   2   3
ATOM      3  C   UNL     1      -2.656  -9.609 -10.569  1.00  0.00     0.000 C 
BRANCH   3   4
ATOM      4  C   UNL     1      -3.033 -10.919 -11.276  1.00  0.00     0.000 C 
BRANCH   4   5
ATOM      5  C   UNL     1      -2.565 -12.170 -10.511  1.00  0.00     0.000 C 
BRANCH   5   6
ATOM      6  C   UNL     1      -1.524 -11.907  -9.403  1.00  0.00     0.006 C 
BRANCH   6   7
ATOM      7  C   UNL     1      -0.206 -12.679  -9.571  1.00  0.00     0.053 C 
BRANCH   7   8
ATOM      8  C   UNL     1       0.767 -11.945 -10.441  1.00  0.00     0.041 C 
ATOM      9  O   UNL     1       1.979 -11.867 -10.113  1.00  0.00    -0.550 OA
ATOM     10  O   UNL     1       0.338 -11.375 -11.634  1.00  0.00    -0.550 OA
ENDBRANCH   7   8
ENDBRANCH   6   7
ENDBRANCH   5   6
ENDBRANCH   4   5
ENDBRANCH   3   4
ENDBRANCH   2   3
ENDBRANCH   1   2
BRANCH   1  11
ATOM     11  C   UNL     1      -0.076  -8.282  -9.842  1.00  0.00     0.000 C 
BRANCH  11  12
ATOM     12  C   UNL     1       1.384  -8.185 -10.321  1.00  0.00     0.000 C 
BRANCH  12  13
ATOM     13  C   UNL     1       1.590  -7.385 -11.620  1.00  0.00     0.000 C 
BRANCH  13  14
ATOM     14  C   UNL     1       2.820  -6.462 -11.567  1.00  0.00     0.000 C 
BRANCH  14  15
ATOM     15  C   UNL     1       2.466  -4.991 -11.841  1.00  0.00     0.000 C 
BRANCH  15  16
ATOM     16  C   UNL     1       1.092  -4.597 -11.272  1.00  0.00     0.006 C 
BRANCH  16  17
ATOM     17  C   UNL     1       0.894  -3.076 -11.237  1.00  0.00     0.053 C 
BRANCH  17  18
ATOM     18  C   UNL     1       2.078  -2.373 -10.646  1.00  0.00     0.041 C 
ATOM     19  O   UNL     1       2.397  -2.571  -9.445  1.00  0.00    -0.550 OA
ATOM     20  O   UNL     1       2.810  -1.476 -11.415  1.00  0.00    -0.550 OA
ENDBRANCH  17  18
ENDBRANCH  16  17
ENDBRANCH  15  16
ENDBRANCH  14  15
ENDBRANCH  13  14
ENDBRANCH  12  13
ENDBRANCH  11  12
ENDBRANCH   1  11
TORSDOF 15
ENDMDL
MODEL 2
REMARK VINA RESULT:    -3.781      0.979      8.016
REMARK INTER + INTRA:          -8.572
REMARK INTER:                  -7.087
REMARK INTRA:                  -1.486
REMARK UNBOUND:                -1.475
REMARK SMILES O=C([O-])CCCCCCCCCCCCCCC(=O)[O-]
REMARK SMILES IDX 10 1 9 2 8 3 7 4 6 5 5 6 4 7 2 8 1 9 3 10 11 11 12 12 13 13
REMARK SMILES IDX 14 14 15 15 16 16 17 17 18 18 19 19 20 20
REMARK H PARENT
REMARK Flexibility Score: inf
ROOT
ATOM      1  C   UNL     1       0.390  -8.494 -10.365  1.00  0.00     0.000 C 
ENDROOT
BRANCH   1   2
ATOM      2  C   UNL     1       1.310  -8.473 -11.596  1.00  0.00     0.000 C 
BRANCH   2   3
ATOM      3  C   UNL     1       2.624  -7.721 -11.337  1.00  0.00     0.000 C 
BRANCH   3   4
ATOM      4  C   UNL     1       2.356  -6.351 -10.698  1.00  0.00     0.000 C 
BRANCH   4   5
ATOM      5  C   UNL     1       2.061  -5.252 -11.736  1.00  0.00     0.000 C 
BRANCH   5   6
ATOM      6  C   UNL     1       0.901  -4.303 -11.370  1.00  0.00     0.006 C 
BRANCH   6   7
ATOM      7  C   UNL     1       1.232  -2.809 -11.513  1.00  0.00     0.053 C 
BRANCH   7   8
ATOM      8  C   UNL     1       2.387  -2.406 -10.649  1.00  0.00     0.041 C 
ATOM      9  O   UNL     1       2.349  -2.604  -9.406  1.00  0.00    -0.550 OA
ATOM     10  O   UNL     1       3.520  -1.842 -11.222  1.00  0.00    -0.550 OA
ENDBRANCH   7   8
ENDBRANCH   6   7
ENDBRANCH   5   6
ENDBRANCH   4   5
ENDBRANCH   3   4
ENDBRANCH   2   3
ENDBRANCH   1   2
BRANCH   1  11
ATOM     11  C   UNL     1      -1.031  -7.995 -10.681  1.00  0.00     0.000 C 
BRANCH  11  12
ATOM     12  C   UNL     1      -1.928  -9.090 -11.286  1.00  0.00     0.000 C 
BRANCH  12  13
ATOM     13  C   UNL     1      -2.446 -10.136 -10.282  1.00  0.00     0.000 C 
BRANCH  13  14
ATOM     14  C   UNL     1      -3.170 -11.311 -10.961  1.00  0.00     0.000 C 
BRANCH  14  15
ATOM     15  C   UNL     1      -2.307 -11.994 -12.035  1.00  0.00     0.000 C 
BRANCH  15  16
ATOM     16  C   UNL     1      -1.302 -12.995 -11.440  1.00  0.00     0.006 C 
BRANCH  16  17
ATOM     17  C   UNL     1       0.150 -12.526 -11.604  1.00  0.00     0.053 C 
BRANCH  17  18
ATOM     18  C   UNL     1       0.833 -12.354 -10.282  1.00  0.00     0.041 C 
ATOM     19  O   UNL     1       1.935 -11.749 -10.212  1.00  0.00    -0.550 OA
ATOM     20  O   UNL     1       0.268 -12.889  -9.131  1.00  0.00    -0.550 OA
ENDBRANCH  17  18
ENDBRANCH  16  17
ENDBRANCH  15  16
ENDBRANCH  14  15
ENDBRANCH  13  14
ENDBRANCH  12  13
ENDBRANCH  11  12
ENDBRANCH   1  11
TORSDOF 15
ENDMDL
MODEL 3
REMARK VINA RESULT:    -3.548     11.990     15.547
REMARK INTER + INTRA:          -8.134
REMARK INTER:                  -6.478
REMARK INTRA:                  -1.656
REMARK UNBOUND:                -1.475
REMARK SMILES O=C([O-])CCCCCCCCCCCCCCC(=O)[O-]
REMARK SMILES IDX 10 1 9 2 8 3 7 4 6 5 5 6 4 7 2 8 1 9 3 10 11 11 12 12 13 13
REMARK SMILES IDX 14 14 15 15 16 16 17 17 18 18 19 19 20 20
REMARK H PARENT
REMARK Flexibility Score: inf
ROOT
ATOM      1  C   UNL     1      -8.780   4.873 -11.214  1.00  0.00     0.000 C 
ENDROOT
BRANCH   1   2
ATOM      2  C   UNL     1      -9.203   6.332 -10.985  1.00  0.00     0.000 C 
BRANCH   2   3
ATOM      3  C   UNL     1      -9.901   6.538  -9.632  1.00  0.00     0.000 C 
BRANCH   3   4
ATOM      4  C   UNL     1     -10.952   5.446  -9.384  1.00  0.00     0.000 C 
BRANCH   4   5
ATOM      5  C   UNL     1     -10.593   4.525  -8.204  1.00  0.00     0.000 C 
BRANCH   5   6
ATOM      6  C   UNL     1      -9.308   4.910  -7.442  1.00  0.00     0.006 C 
BRANCH   6   7
ATOM      7  C   UNL     1      -8.114   3.975  -7.692  1.00  0.00     0.053 C 
BRANCH   7   8
ATOM      8  C   UNL     1      -6.859   4.737  -7.990  1.00  0.00     0.041 C 
ATOM      9  O   UNL     1      -6.921   5.893  -8.484  1.00  0.00    -0.550 OA
ATOM     10  O   UNL     1      -5.622   4.182  -7.689  1.00  0.00    -0.550 OA
ENDBRANCH   7   8
ENDBRANCH   6   7
ENDBRANCH   5   6
ENDBRANCH   4   5
ENDBRANCH   3   4
ENDBRANCH   2   3
ENDBRANCH   1   2
BRANCH   1  11
ATOM     11  C   UNL     1      -9.758   4.110 -12.124  1.00  0.00     0.000 C 
BRANCH  11  12
ATOM     12  C   UNL     1      -9.737   2.589 -11.882  1.00  0.00     0.000 C 
BRANCH  12  13
ATOM     13  C   UNL     1     -10.925   2.043 -11.070  1.00  0.00     0.000 C 
BRANCH  13  14
ATOM     14  C   UNL     1     -10.573   0.777 -10.270  1.00  0.00     0.000 C 
BRANCH  14  15
ATOM     15  C   UNL     1      -9.751   1.086  -9.008  1.00  0.00     0.000 C 
BRANCH  15  16
ATOM     16  C   UNL     1      -8.308   0.559  -9.098  1.00  0.00     0.006 C 
BRANCH  16  17
ATOM     17  C   UNL     1      -7.428   1.430 -10.003  1.00  0.00     0.053 C 
BRANCH  17  18
ATOM     18  C   UNL     1      -6.321   0.640 -10.633  1.00  0.00     0.041 C 
ATOM     19  O   UNL     1      -6.118   0.710 -11.873  1.00  0.00    -0.550 OA
ATOM     20  O   UNL     1      -5.533  -0.198  -9.853  1.00  0.00    -0.550 OA
ENDBRANCH  17  18
ENDBRANCH  16  17
ENDBRANCH  15  16
ENDBRANCH  14  15
ENDBRANCH  13  14
ENDBRANCH  12  13
ENDBRANCH  11  12
ENDBRANCH   1  11
TORSDOF 15
ENDMDL
MODEL 4
REMARK VINA RESULT:    -3.464      3.602      7.386
REMARK INTER + INTRA:          -7.976
REMARK INTER:                  -6.857
REMARK INTRA:                  -1.119
REMARK UNBOUND:                -1.475
REMARK SMILES O=C([O-])CCCCCCCCCCCCCCC(=O)[O-]
REMARK SMILES IDX 10 1 9 2 8 3 7 4 6 5 5 6 4 7 2 8 1 9 3 10 11 11 12 12 13 13
REMARK SMILES IDX 14 14 15 15 16 16 17 17 18 18 19 19 20 20
REMARK H PARENT
REMARK Flexibility Score: inf
ROOT
ATOM      1  C   UNL     1       0.944  -8.467 -10.270  1.00  0.00     0.000 C 
ENDROOT
BRANCH   1   2
ATOM      2  C   UNL     1       2.026  -7.408 -10.008  1.00  0.00     0.000 C 
BRANCH   2   3
ATOM      3  C   UNL     1       2.594  -6.811 -11.305  1.00  0.00     0.000 C 
BRANCH   3   4
ATOM      4  C   UNL     1       3.361  -7.871 -12.108  1.00  0.00     0.000 C 
BRANCH   4   5
ATOM      5  C   UNL     1       4.883  -7.642 -12.104  1.00  0.00     0.000 C 
BRANCH   5   6
ATOM      6  C   UNL     1       5.737  -8.926 -12.065  1.00  0.00     0.006 C 
BRANCH   6   7
ATOM      7  C   UNL     1       6.931  -8.869 -11.099  1.00  0.00     0.053 C 
BRANCH   7   8
ATOM      8  C   UNL     1       7.300 -10.226 -10.584  1.00  0.00     0.041 C 
ATOM      9  O   UNL     1       8.429 -10.422 -10.062  1.00  0.00    -0.550 OA
ATOM     10  O   UNL     1       6.382 -11.267 -10.650  1.00  0.00    -0.550 OA
ENDBRANCH   7   8
ENDBRANCH   6   7
ENDBRANCH   5   6
ENDBRANCH   4   5
ENDBRANCH   3   4
ENDBRANCH   2   3
ENDBRANCH   1   2
BRANCH   1  11
ATOM     11  C   UNL     1      -0.480  -7.889 -10.191  1.00  0.00     0.000 C 
BRANCH  11  12
ATOM     12  C   UNL     1      -1.277  -8.082 -11.494  1.00  0.00     0.000 C 
BRANCH  12  13
ATOM     13  C   UNL     1      -2.510  -8.996 -11.373  1.00  0.00     0.000 C 
BRANCH  13  14
ATOM     14  C   UNL     1      -2.320 -10.125 -10.346  1.00  0.00     0.000 C 
BRANCH  14  15
ATOM     15  C   UNL     1      -2.813 -11.486 -10.866  1.00  0.00     0.000 C 
BRANCH  15  16
ATOM     16  C   UNL     1      -1.776 -12.605 -10.672  1.00  0.00     0.006 C 
BRANCH  16  17
ATOM     17  C   UNL     1      -0.368 -12.171 -11.102  1.00  0.00     0.053 C 
BRANCH  17  18
ATOM     18  C   UNL     1       0.640 -12.394 -10.015  1.00  0.00     0.041 C 
ATOM     19  O   UNL     1       1.810 -11.946 -10.135  1.00  0.00    -0.550 OA
ATOM     20  O   UNL     1       0.295 -13.124  -8.885  1.00  0.00    -0.550 OA
ENDBRANCH  17  18
ENDBRANCH  16  17
ENDBRANCH  15  16
ENDBRANCH  14  15
ENDBRANCH  13  14
ENDBRANCH  12  13
ENDBRANCH  11  12
ENDBRANCH   1  11
TORSDOF 15
ENDMDL
MODEL 5
REMARK VINA RESULT:    -3.394      2.142      7.863
REMARK INTER + INTRA:          -7.846
REMARK INTER:                  -6.689
REMARK INTRA:                  -1.156
REMARK UNBOUND:                -1.475
REMARK SMILES O=C([O-])CCCCCCCCCCCCCCC(=O)[O-]
REMARK SMILES IDX 10 1 9 2 8 3 7 4 6 5 5 6 4 7 2 8 1 9 3 10 11 11 12 12 13 13
REMARK SMILES IDX 14 14 15 15 16 16 17 17 18 18 19 19 20 20
REMARK H PARENT
REMARK Flexibility Score: inf
ROOT
ATOM      1  C   UNL     1       0.344  -7.745 -12.069  1.00  0.00     0.000 C 
ENDROOT
BRANCH   1   2
ATOM      2  C   UNL     1       0.200  -7.176 -10.649  1.00  0.00     0.000 C 
BRANCH   2   3
ATOM      3  C   UNL     1      -1.170  -6.523 -10.411  1.00  0.00     0.000 C 
BRANCH   3   4
ATOM      4  C   UNL     1      -1.434  -5.411 -11.437  1.00  0.00     0.000 C 
BRANCH   4   5
ATOM      5  C   UNL     1      -0.935  -4.031 -10.969  1.00  0.00     0.000 C 
BRANCH   5   6
ATOM      6  C   UNL     1       0.206  -3.428 -11.813  1.00  0.00     0.006 C 
BRANCH   6   7
ATOM      7  C   UNL     1       1.617  -3.843 -11.367  1.00  0.00     0.053 C 
BRANCH   7   8
ATOM      8  C   UNL     1       2.352  -2.714 -10.713  1.00  0.00     0.041 C 
ATOM      9  O   UNL     1       3.381  -2.229 -11.253  1.00  0.00    -0.550 OA
ATOM     10  O   UNL     1       1.880  -2.173  -9.524  1.00  0.00    -0.550 OA
ENDBRANCH   7   8
ENDBRANCH   6   7
ENDBRANCH   5   6
ENDBRANCH   4   5
ENDBRANCH   3   4
ENDBRANCH   2   3
ENDBRANCH   1   2
BRANCH   1  11
ATOM     11  C   UNL     1       0.103  -9.264 -12.125  1.00  0.00     0.000 C 
BRANCH  11  12
ATOM     12  C   UNL     1       1.220 -10.071 -11.438  1.00  0.00     0.000 C 
BRANCH  12  13
ATOM     13  C   UNL     1       1.157 -11.593 -11.667  1.00  0.00     0.000 C 
BRANCH  13  14
ATOM     14  C   UNL     1       1.284 -12.400 -10.364  1.00  0.00     0.000 C 
BRANCH  14  15
ATOM     15  C   UNL     1      -0.054 -13.009  -9.913  1.00  0.00     0.000 C 
BRANCH  15  16
ATOM     16  C   UNL     1      -1.241 -12.526 -10.765  1.00  0.00     0.006 C 
BRANCH  16  17
ATOM     17  C   UNL     1      -2.069 -11.451 -10.049  1.00  0.00     0.053 C 
BRANCH  17  18
ATOM     18  C   UNL     1      -3.444 -11.327 -10.631  1.00  0.00     0.041 C 
ATOM     19  O   UNL     1      -4.063 -10.233 -10.565  1.00  0.00    -0.550 OA
ATOM     20  O   UNL     1      -4.054 -12.428 -11.218  1.00  0.00    -0.550 OA
ENDBRANCH  17  18
ENDBRANCH  16  17
ENDBRANCH  15  16
ENDBRANCH  14  15
ENDBRANCH  13  14
ENDBRANCH  12  13
ENDBRANCH  11  12
ENDBRANCH   1  11
TORSDOF 15
ENDMDL
MODEL 6
REMARK VINA RESULT:    -3.267      2.142      3.089
REMARK INTER + INTRA:          -7.606
REMARK INTER:                  -6.632
REMARK INTRA:                  -0.974
REMARK UNBOUND:                -1.475
REMARK SMILES O=C([O-])CCCCCCCCCCCCCCC(=O)[O-]
REMARK SMILES IDX 10 1 9 2 8 3 7 4 6 5 5 6 4 7 2 8 1 9 3 10 11 11 12 12 13 13
REMARK SMILES IDX 14 14 15 15 16 16 17 17 18 18 19 19 20 20
REMARK H PARENT
REMARK Flexibility Score: inf
ROOT
ATOM      1  C   UNL     1       1.236  -8.810 -10.836  1.00  0.00     0.000 C 
ENDROOT
BRANCH   1   2
ATOM      2  C   UNL     1       1.519 -10.068 -11.671  1.00  0.00     0.000 C 
BRANCH   2   3
ATOM      3  C   UNL     1       0.284 -10.971 -11.814  1.00  0.00     0.000 C 
BRANCH   3   4
ATOM      4  C   UNL     1       0.309 -12.105 -10.778  1.00  0.00     0.000 C 
BRANCH   4   5
ATOM      5  C   UNL     1      -0.789 -11.965  -9.709  1.00  0.00     0.000 C 
BRANCH   5   6
ATOM      6  C   UNL     1      -1.965 -12.954  -9.846  1.00  0.00     0.006 C 
BRANCH   6   7
ATOM      7  C   UNL     1      -2.510 -13.101 -11.276  1.00  0.00     0.053 C 
BRANCH   7   8
ATOM      8  C   UNL     1      -3.867 -12.485 -11.424  1.00  0.00     0.041 C 
ATOM      9  O   UNL     1      -4.797 -13.124 -11.983  1.00  0.00    -0.550 OA
ATOM     10  O   UNL     1      -4.115 -11.218 -10.911  1.00  0.00    -0.550 OA
ENDBRANCH   7   8
ENDBRANCH   6   7
ENDBRANCH   5   6
ENDBRANCH   4   5
ENDBRANCH   3   4
ENDBRANCH   2   3
ENDBRANCH   1   2
BRANCH   1  11
ATOM     11  C   UNL     1      -0.152  -8.211 -11.121  1.00  0.00     0.000 C 
BRANCH  11  12
ATOM     12  C   UNL     1      -0.088  -6.935 -11.980  1.00  0.00     0.000 C 
BRANCH  12  13
ATOM     13  C   UNL     1       1.316  -6.319 -12.125  1.00  0.00     0.000 C 
BRANCH  13  14
ATOM     14  C   UNL     1       1.514  -5.068 -11.252  1.00  0.00     0.000 C 
BRANCH  14  15
ATOM     15  C   UNL     1       0.462  -3.981 -11.530  1.00  0.00     0.000 C 
BRANCH  15  16
ATOM     16  C   UNL     1       1.093  -2.628 -11.902  1.00  0.00     0.006 C 
BRANCH  16  17
ATOM     17  C   UNL     1       2.611  -2.614 -11.676  1.00  0.00     0.053 C 
BRANCH  17  18
ATOM     18  C   UNL     1       2.978  -1.914 -10.403  1.00  0.00     0.041 C 
ATOM     19  O   UNL     1       4.102  -1.359 -10.287  1.00  0.00    -0.550 OA
ATOM     20  O   UNL     1       2.091  -1.901  -9.334  1.00  0.00    -0.550 OA
ENDBRANCH  17  18
ENDBRANCH  16  17
ENDBRANCH  15  16
ENDBRANCH  14  15
ENDBRANCH  13  14
ENDBRANCH  12  13
ENDBRANCH  11  12
ENDBRANCH   1  11
TORSDOF 15
ENDMDL
MODEL 7
REMARK VINA RESULT:    -3.220     12.249     15.808
REMARK INTER + INTRA:          -7.519
REMARK INTER:                  -5.764
REMARK INTRA:                  -1.755
REMARK UNBOUND:                -1.475
REMARK SMILES O=C([O-])CCCCCCCCCCCCCCC(=O)[O-]
REMARK SMILES IDX 10 1 9 2 8 3 7 4 6 5 5 6 4 7 2 8 1 9 3 10 11 11 12 12 13 13
REMARK SMILES IDX 14 14 15 15 16 16 17 17 18 18 19 19 20 20
REMARK H PARENT
REMARK Flexibility Score: inf
ROOT
ATOM      1  C   UNL     1      -8.927   6.820 -10.185  1.00  0.00     0.000 C 
ENDROOT
BRANCH   1   2
ATOM      2  C   UNL     1      -9.990   6.700  -9.082  1.00  0.00     0.000 C 
BRANCH   2   3
ATOM      3  C   UNL     1     -11.051   5.634  -9.398  1.00  0.00     0.000 C 
BRANCH   3   4
ATOM      4  C   UNL     1     -11.125   4.585  -8.279  1.00  0.00     0.000 C 
BRANCH   4   5
ATOM      5  C   UNL     1      -9.940   3.603  -8.298  1.00  0.00     0.000 C 
BRANCH   5   6
ATOM      6  C   UNL     1      -8.653   4.118  -7.620  1.00  0.00     0.006 C 
BRANCH   6   7
ATOM      7  C   UNL     1      -7.364   3.847  -8.411  1.00  0.00     0.053 C 
BRANCH   7   8
ATOM      8  C   UNL     1      -6.304   4.864  -8.118  1.00  0.00     0.041 C 
ATOM      9  O   UNL     1      -6.553   6.093  -8.237  1.00  0.00    -0.550 OA
ATOM     10  O   UNL     1      -5.050   4.456  -7.681  1.00  0.00    -0.550 OA
ENDBRANCH   7   8
ENDBRANCH   6   7
ENDBRANCH   5   6
ENDBRANCH   4   5
ENDBRANCH   3   4
ENDBRANCH   2   3
ENDBRANCH   1   2
BRANCH   1  11
ATOM     11  C   UNL     1      -9.275   5.991 -11.434  1.00  0.00     0.000 C 
BRANCH  11  12
ATOM     12  C   UNL     1      -8.167   4.994 -11.819  1.00  0.00     0.000 C 
BRANCH  12  13
ATOM     13  C   UNL     1      -8.633   3.535 -11.981  1.00  0.00     0.000 C 
BRANCH  13  14
ATOM     14  C   UNL     1     -10.162   3.401 -12.075  1.00  0.00     0.000 C 
BRANCH  14  15
ATOM     15  C   UNL     1     -10.663   2.022 -11.617  1.00  0.00     0.000 C 
BRANCH  15  16
ATOM     16  C   UNL     1      -9.518   1.017 -11.402  1.00  0.00     0.006 C 
BRANCH  16  17
ATOM     17  C   UNL     1      -8.980   1.051  -9.965  1.00  0.00     0.053 C 
BRANCH  17  18
ATOM     18  C   UNL     1      -7.556   0.590  -9.892  1.00  0.00     0.041 C 
ATOM     19  O   UNL     1      -7.214  -0.279  -9.048  1.00  0.00    -0.550 OA
ATOM     20  O   UNL     1      -6.601   1.143 -10.737  1.00  0.00    -0.550 OA
ENDBRANCH  17  18
ENDBRANCH  16  17
ENDBRANCH  15  16
ENDBRANCH  14  15
ENDBRANCH  13  14
ENDBRANCH  12  13
ENDBRANCH  11  12
ENDBRANCH   1  11
TORSDOF 15
ENDMDL
MODEL 8
REMARK VINA RESULT:    -3.067      1.967      2.303
REMARK INTER + INTRA:          -7.231
REMARK INTER:                  -6.269
REMARK INTRA:                  -0.962
REMARK UNBOUND:                -1.475
REMARK SMILES O=C([O-])CCCCCCCCCCCCCCC(=O)[O-]
REMARK SMILES IDX 10 1 9 2 8 3 7 4 6 5 5 6 4 7 2 8 1 9 3 10 11 11 12 12 13 13
REMARK SMILES IDX 14 14 15 15 16 16 17 17 18 18 19 19 20 20
REMARK H PARENT
REMARK Flexibility Score: inf
ROOT
ATOM      1  C   UNL     1      -0.319  -8.159 -10.504  1.00  0.00     0.000 C 
ENDROOT
BRANCH   1   2
ATOM      2  C   UNL     1      -1.582  -8.638 -11.238  1.00  0.00     0.000 C 
BRANCH   2   3
ATOM      3  C   UNL     1      -2.392  -9.653 -10.418  1.00  0.00     0.000 C 
BRANCH   3   4
ATOM      4  C   UNL     1      -2.616 -10.948 -11.213  1.00  0.00     0.000 C 
BRANCH   4   5
ATOM      5  C   UNL     1      -2.246 -12.213 -10.418  1.00  0.00     0.000 C 
BRANCH   5   6
ATOM      6  C   UNL     1      -1.281 -11.983  -9.236  1.00  0.00     0.006 C 
BRANCH   6   7
ATOM      7  C   UNL     1      -0.038 -12.886  -9.243  1.00  0.00     0.053 C 
BRANCH   7   8
ATOM      8  C   UNL     1       0.888 -12.556 -10.372  1.00  0.00     0.041 C 
ATOM      9  O   UNL     1       0.555 -12.806 -11.561  1.00  0.00    -0.550 OA
ATOM     10  O   UNL     1       2.106 -11.940 -10.114  1.00  0.00    -0.550 OA
ENDBRANCH   7   8
ENDBRANCH   6   7
ENDBRANCH   5   6
ENDBRANCH   4   5
ENDBRANCH   3   4
ENDBRANCH   2   3
ENDBRANCH   1   2
BRANCH   1  11
ATOM     11  C   UNL     1       0.959  -8.843 -11.020  1.00  0.00     0.000 C 
BRANCH  11  12
ATOM     12  C   UNL     1       2.214  -7.968 -10.853  1.00  0.00     0.000 C 
BRANCH  12  13
ATOM     13  C   UNL     1       1.938  -6.468 -10.641  1.00  0.00     0.000 C 
BRANCH  13  14
ATOM     14  C   UNL     1       2.252  -5.619 -11.885  1.00  0.00     0.000 C 
BRANCH  14  15
ATOM     15  C   UNL     1       2.132  -4.110 -11.616  1.00  0.00     0.000 C 
BRANCH  15  16
ATOM     16  C   UNL     1       0.687  -3.599 -11.745  1.00  0.00     0.006 C 
BRANCH  16  17
ATOM     17  C   UNL     1      -0.296  -4.723 -12.099  1.00  0.00     0.053 C 
BRANCH  17  18
ATOM     18  C   UNL     1      -1.603  -4.567 -11.381  1.00  0.00     0.041 C 
ATOM     19  O   UNL     1      -1.784  -5.126 -10.268  1.00  0.00    -0.550 OA
ATOM     20  O   UNL     1      -2.629  -3.829 -11.956  1.00  0.00    -0.550 OA
ENDBRANCH  17  18
ENDBRANCH  16  17
ENDBRANCH  15  16
ENDBRANCH  14  15
ENDBRANCH  13  14
ENDBRANCH  12  13
ENDBRANCH  11  12
ENDBRANCH   1  11
TORSDOF 15
ENDMDL
MODEL 9
REMARK VINA RESULT:    -3.023      2.549      3.848
REMARK INTER + INTRA:          -7.148
REMARK INTER:                  -6.437
REMARK INTRA:                  -0.711
REMARK UNBOUND:                -1.475
REMARK SMILES O=C([O-])CCCCCCCCCCCCCCC(=O)[O-]
REMARK SMILES IDX 10 1 9 2 8 3 7 4 6 5 5 6 4 7 2 8 1 9 3 10 11 11 12 12 13 13
REMARK SMILES IDX 14 14 15 15 16 16 17 17 18 18 19 19 20 20
REMARK H PARENT
REMARK Flexibility Score: inf
ROOT
ATOM      1  C   UNL     1      -0.956  -6.122 -10.504  1.00  0.00     0.000 C 
ENDROOT
BRANCH   1   2
ATOM      2  C   UNL     1      -1.056  -7.649 -10.644  1.00  0.00     0.000 C 
BRANCH   2   3
ATOM      3  C   UNL     1       0.098  -8.382  -9.943  1.00  0.00     0.000 C 
BRANCH   3   4
ATOM      4  C   UNL     1       1.218  -8.722 -10.937  1.00  0.00     0.000 C 
BRANCH   4   5
ATOM      5  C   UNL     1       0.945 -10.015 -11.728  1.00  0.00     0.000 C 
BRANCH   5   6
ATOM      6  C   UNL     1       0.217 -11.122 -10.938  1.00  0.00     0.006 C 
BRANCH   6   7
ATOM      7  C   UNL     1      -1.225 -11.388 -11.396  1.00  0.00     0.053 C 
BRANCH   7   8
ATOM      8  C   UNL     1      -2.212 -11.174 -10.289  1.00  0.00     0.041 C 
ATOM      9  O   UNL     1      -1.903 -11.452  -9.101  1.00  0.00    -0.550 OA
ATOM     10  O   UNL     1      -3.461 -10.634 -10.568  1.00  0.00    -0.550 OA
ENDBRANCH   7   8
ENDBRANCH   6   7
ENDBRANCH   5   6
ENDBRANCH   4   5
ENDBRANCH   3   4
ENDBRANCH   2   3
ENDBRANCH   1   2
BRANCH   1  11
ATOM     11  C   UNL     1      -0.062  -5.486 -11.583  1.00  0.00     0.000 C 
BRANCH  11  12
ATOM     12  C   UNL     1       0.017  -3.953 -11.468  1.00  0.00     0.000 C 
BRANCH  12  13
ATOM     13  C   UNL     1       1.254  -3.314 -12.125  1.00  0.00     0.000 C 
BRANCH  13  14
ATOM     14  C   UNL     1       1.817  -2.131 -11.318  1.00  0.00     0.000 C 
BRANCH  14  15
ATOM     15  C   UNL     1       2.907  -1.361 -12.083  1.00  0.00     0.000 C 
BRANCH  15  16
ATOM     16  C   UNL     1       4.283  -2.045 -12.001  1.00  0.00     0.006 C 
BRANCH  16  17
ATOM     17  C   UNL     1       5.436  -1.034 -12.047  1.00  0.00     0.053 C 
BRANCH  17  18
ATOM     18  C   UNL     1       6.396  -1.232 -10.913  1.00  0.00     0.041 C 
ATOM     19  O   UNL     1       6.318  -0.511  -9.884  1.00  0.00    -0.550 OA
ATOM     20  O   UNL     1       7.396  -2.192 -11.007  1.00  0.00    -0.550 OA
ENDBRANCH  17  18
ENDBRANCH  16  17
ENDBRANCH  15  16
ENDBRANCH  14  15
ENDBRANCH  13  14
ENDBRANCH  12  13
ENDBRANCH  11  12
ENDBRANCH   1  11
TORSDOF 15
ENDMDL
