MODEL 1
REMARK VINA RESULT:    -6.309      0.000      0.000
REMARK INTER + INTRA:          -6.862
REMARK INTER:                  -6.862
REMARK INTRA:                   0.000
REMARK UNBOUND:                 0.000
REMARK SMILES Cc1cc(O)c2c(c1)C(=O)c1cc(O)cc(O)c1C2=O
REMARK SMILES IDX 1 1 2 2 8 3 7 4 6 5 4 6 3 7 19 8 20 9 18 10 11 11 9 12 10 13
REMARK SMILES IDX 12 14 13 15 15 16 16 17 5 18 17 20 14 22
REMARK H PARENT 5 19 17 21 14 23
REMARK Flexibility Score: inf
ROOT
ATOM      1  C   UNL     1     -43.435  -8.528   1.417  1.00  0.00     0.044 C 
ATOM      2  C   UNL     1     -43.723  -9.803   0.678  1.00  0.00    -0.047 A 
ATOM      3  C   UNL     1     -42.703 -10.464  -0.011  1.00  0.00     0.016 A 
ATOM      4  C   UNL     1     -42.971 -11.632  -0.745  1.00  0.00     0.038 A 
ATOM      5  C   UNL     1     -44.293 -12.133  -0.814  1.00  0.00     0.076 A 
ATOM      6  C   UNL     1     -45.313 -11.489  -0.062  1.00  0.00     0.127 A 
ATOM      7  C   UNL     1     -45.024 -10.315   0.639  1.00  0.00     0.050 A 
ATOM      8  C   UNL     1     -44.569 -13.279  -1.726  1.00  0.00     0.201 C 
ATOM      9  O   UNL     1     -45.740 -13.492  -2.139  1.00  0.00    -0.288 OA
ATOM     10  C   UNL     1     -43.449 -14.107  -2.246  1.00  0.00     0.076 A 
ATOM     11  C   UNL     1     -42.127 -13.630  -2.118  1.00  0.00     0.041 A 
ATOM     12  C   UNL     1     -41.870 -12.340  -1.439  1.00  0.00     0.194 C 
ATOM     13  O   UNL     1     -40.706 -11.853  -1.436  1.00  0.00    -0.289 OA
ATOM     14  C   UNL     1     -41.060 -14.384  -2.638  1.00  0.00     0.059 A 
ATOM     15  C   UNL     1     -41.297 -15.605  -3.276  1.00  0.00     0.120 A 
ATOM     16  C   UNL     1     -42.602 -16.083  -3.397  1.00  0.00     0.093 A 
ATOM     17  C   UNL     1     -43.680 -15.347  -2.886  1.00  0.00     0.131 A 
ENDROOT
BRANCH   6  18
ATOM     18  O   UNL     1     -46.610 -11.993   0.048  1.00  0.00    -0.507 OA
ATOM     19  H   UNL     1     -47.438 -11.478  -0.217  1.00  0.00     0.293 HD
ENDBRANCH   6  18
BRANCH  17  20
ATOM     20  O   UNL     1     -44.973 -15.854  -3.009  1.00  0.00    -0.507 OA
ATOM     21  H   UNL     1     -45.193 -16.603  -3.657  1.00  0.00     0.293 HD
ENDBRANCH  17  20
BRANCH  15  22
ATOM     22  O   UNL     1     -40.242 -16.354  -3.793  1.00  0.00    -0.508 OA
ATOM     23  H   UNL     1     -40.273 -16.737  -4.731  1.00  0.00     0.293 HD
ENDBRANCH  15  22
TORSDOF 3
ENDMDL
MODEL 2
REMARK VINA RESULT:    -6.298      1.213      3.565
REMARK INTER + INTRA:          -6.850
REMARK INTER:                  -6.850
REMARK INTRA:                   0.000
REMARK UNBOUND:                 0.000
REMARK SMILES Cc1cc(O)c2c(c1)C(=O)c1cc(O)cc(O)c1C2=O
REMARK SMILES IDX 1 1 2 2 8 3 7 4 6 5 4 6 3 7 19 8 20 9 18 10 11 11 9 12 10 13
REMARK SMILES IDX 12 14 13 15 15 16 16 17 5 18 17 20 14 22
REMARK H PARENT 5 19 17 21 14 23
REMARK Flexibility Score: inf
ROOT
ATOM      1  C   UNL     1     -43.329  -7.578   1.613  1.00  0.00     0.044 C 
ATOM      2  C   UNL     1     -42.939  -8.766   0.783  1.00  0.00    -0.047 A 
ATOM      3  C   UNL     1     -43.898  -9.714   0.414  1.00  0.00     0.016 A 
ATOM      4  C   UNL     1     -43.535 -10.854  -0.323  1.00  0.00     0.038 A 
ATOM      5  C   UNL     1     -42.180 -11.066  -0.672  1.00  0.00     0.076 A 
ATOM      6  C   UNL     1     -41.221 -10.069  -0.344  1.00  0.00     0.127 A 
ATOM      7  C   UNL     1     -41.605  -8.957   0.410  1.00  0.00     0.050 A 
ATOM      8  C   UNL     1     -41.809 -12.359  -1.314  1.00  0.00     0.201 C 
ATOM      9  O   UNL     1     -40.619 -12.770  -1.266  1.00  0.00    -0.288 OA
ATOM     10  C   UNL     1     -42.858 -13.226  -1.910  1.00  0.00     0.076 A 
ATOM     11  C   UNL     1     -44.213 -12.970  -1.608  1.00  0.00     0.041 A 
ATOM     12  C   UNL     1     -44.572 -11.828  -0.737  1.00  0.00     0.194 C 
ATOM     13  O   UNL     1     -45.768 -11.675  -0.363  1.00  0.00    -0.289 OA
ATOM     14  C   UNL     1     -45.215 -13.805  -2.134  1.00  0.00     0.059 A 
ATOM     15  C   UNL     1     -44.881 -14.882  -2.961  1.00  0.00     0.120 A 
ATOM     16  C   UNL     1     -43.544 -15.132  -3.268  1.00  0.00     0.093 A 
ATOM     17  C   UNL     1     -42.530 -14.313  -2.753  1.00  0.00     0.131 A 
ENDROOT
BRANCH   6  18
ATOM     18  O   UNL     1     -39.893 -10.121  -0.773  1.00  0.00    -0.507 OA
ATOM     19  H   UNL     1     -39.162  -9.528  -0.409  1.00  0.00     0.293 HD
ENDBRANCH   6  18
BRANCH  17  20
ATOM     20  O   UNL     1     -41.202 -14.578  -3.087  1.00  0.00    -0.507 OA
ATOM     21  H   UNL     1     -40.626 -15.201  -2.531  1.00  0.00     0.293 HD
ENDBRANCH  17  20
BRANCH  15  22
ATOM     22  O   UNL     1     -45.871 -15.710  -3.484  1.00  0.00    -0.508 OA
ATOM     23  H   UNL     1     -46.375 -16.369  -2.900  1.00  0.00     0.293 HD
ENDBRANCH  15  22
TORSDOF 3
ENDMDL
MODEL 3
REMARK VINA RESULT:    -6.081      4.313      4.750
REMARK INTER + INTRA:          -6.614
REMARK INTER:                  -6.614
REMARK INTRA:                   0.000
REMARK UNBOUND:                 0.000
REMARK SMILES Cc1cc(O)c2c(c1)C(=O)c1cc(O)cc(O)c1C2=O
REMARK SMILES IDX 1 1 2 2 8 3 7 4 6 5 4 6 3 7 19 8 20 9 18 10 11 11 9 12 10 13
REMARK SMILES IDX 12 14 13 15 15 16 16 17 5 18 17 20 14 22
REMARK H PARENT 5 19 17 21 14 23
REMARK Flexibility Score: inf
ROOT
ATOM      1  C   UNL     1     -42.357 -16.457   5.990  1.00  0.00     0.044 C 
ATOM      2  C   UNL     1     -43.132 -16.066   4.765  1.00  0.00    -0.047 A 
ATOM      3  C   UNL     1     -42.463 -15.742   3.581  1.00  0.00     0.016 A 
ATOM      4  C   UNL     1     -43.176 -15.329   2.443  1.00  0.00     0.038 A 
ATOM      5  C   UNL     1     -44.585 -15.210   2.498  1.00  0.00     0.076 A 
ATOM      6  C   UNL     1     -45.262 -15.599   3.686  1.00  0.00     0.127 A 
ATOM      7  C   UNL     1     -44.527 -15.982   4.812  1.00  0.00     0.050 A 
ATOM      8  C   UNL     1     -45.292 -14.620   1.326  1.00  0.00     0.201 C 
ATOM      9  O   UNL     1     -46.439 -14.117   1.466  1.00  0.00    -0.288 OA
ATOM     10  C   UNL     1     -44.604 -14.518   0.013  1.00  0.00     0.076 A 
ATOM     11  C   UNL     1     -43.206 -14.700  -0.046  1.00  0.00     0.041 A 
ATOM     12  C   UNL     1     -42.452 -15.025   1.186  1.00  0.00     0.194 C 
ATOM     13  O   UNL     1     -41.191 -15.061   1.160  1.00  0.00    -0.289 OA
ATOM     14  C   UNL     1     -42.535 -14.568  -1.275  1.00  0.00     0.059 A 
ATOM     15  C   UNL     1     -43.244 -14.265  -2.441  1.00  0.00     0.120 A 
ATOM     16  C   UNL     1     -44.627 -14.093  -2.389  1.00  0.00     0.093 A 
ATOM     17  C   UNL     1     -45.314 -14.219  -1.174  1.00  0.00     0.131 A 
ENDROOT
BRANCH   6  18
ATOM     18  O   UNL     1     -46.654 -15.655   3.785  1.00  0.00    -0.507 OA
ATOM     19  H   UNL     1     -47.282 -15.220   3.125  1.00  0.00     0.293 HD
ENDBRANCH   6  18
BRANCH  17  20
ATOM     20  O   UNL     1     -46.699 -14.055  -1.152  1.00  0.00    -0.507 OA
ATOM     21  H   UNL     1     -47.326 -14.838  -1.005  1.00  0.00     0.293 HD
ENDBRANCH  17  20
BRANCH  15  22
ATOM     22  O   UNL     1     -42.582 -14.134  -3.661  1.00  0.00    -0.508 OA
ATOM     23  H   UNL     1     -42.918 -14.596  -4.499  1.00  0.00     0.293 HD
ENDBRANCH  15  22
TORSDOF 3
ENDMDL
MODEL 4
REMARK VINA RESULT:    -6.030      1.276      2.014
REMARK INTER + INTRA:          -6.559
REMARK INTER:                  -6.559
REMARK INTRA:                   0.000
REMARK UNBOUND:                 0.000
REMARK SMILES Cc1cc(O)c2c(c1)C(=O)c1cc(O)cc(O)c1C2=O
REMARK SMILES IDX 1 1 2 2 8 3 7 4 6 5 4 6 3 7 19 8 20 9 18 10 11 11 9 12 10 13
REMARK SMILES IDX 12 14 13 15 15 16 16 17 5 18 17 20 14 22
REMARK H PARENT 5 19 17 21 14 23
REMARK Flexibility Score: inf
ROOT
ATOM      1  C   UNL     1     -41.346  -7.849   1.495  1.00  0.00     0.044 C 
ATOM      2  C   UNL     1     -42.268  -8.943   1.041  1.00  0.00    -0.047 A 
ATOM      3  C   UNL     1     -41.872  -9.825   0.031  1.00  0.00     0.016 A 
ATOM      4  C   UNL     1     -42.745 -10.823  -0.434  1.00  0.00     0.038 A 
ATOM      5  C   UNL     1     -44.051 -10.923   0.102  1.00  0.00     0.076 A 
ATOM      6  C   UNL     1     -44.424 -10.062   1.170  1.00  0.00     0.127 A 
ATOM      7  C   UNL     1     -43.546  -9.062   1.596  1.00  0.00     0.050 A 
ATOM      8  C   UNL     1     -45.000 -11.888  -0.522  1.00  0.00     0.201 C 
ATOM      9  O   UNL     1     -46.243 -11.735  -0.381  1.00  0.00    -0.288 OA
ATOM     10  C   UNL     1     -44.493 -12.967  -1.410  1.00  0.00     0.076 A 
ATOM     11  C   UNL     1     -43.169 -12.894  -1.891  1.00  0.00     0.041 A 
ATOM     12  C   UNL     1     -42.295 -11.772  -1.479  1.00  0.00     0.194 C 
ATOM     13  O   UNL     1     -41.157 -11.635  -2.008  1.00  0.00    -0.289 OA
ATOM     14  C   UNL     1     -42.687 -13.886  -2.763  1.00  0.00     0.059 A 
ATOM     15  C   UNL     1     -43.507 -14.950  -3.151  1.00  0.00     0.120 A 
ATOM     16  C   UNL     1     -44.814 -15.030  -2.670  1.00  0.00     0.093 A 
ATOM     17  C   UNL     1     -45.314 -14.050  -1.802  1.00  0.00     0.131 A 
ENDROOT
BRANCH   6  18
ATOM     18  O   UNL     1     -45.633 -10.183   1.858  1.00  0.00    -0.507 OA
ATOM     19  H   UNL     1     -46.532 -10.263   1.404  1.00  0.00     0.293 HD
ENDBRANCH   6  18
BRANCH  17  20
ATOM     20  O   UNL     1     -46.620 -14.161  -1.326  1.00  0.00    -0.507 OA
ATOM     21  H   UNL     1     -47.286 -13.401  -1.412  1.00  0.00     0.293 HD
ENDBRANCH  17  20
BRANCH  15  22
ATOM     22  O   UNL     1     -43.032 -15.935  -4.014  1.00  0.00    -0.508 OA
ATOM     23  H   UNL     1     -42.726 -16.839  -3.670  1.00  0.00     0.293 HD
ENDBRANCH  15  22
TORSDOF 3
ENDMDL
MODEL 5
REMARK VINA RESULT:    -5.910      1.786      5.802
REMARK INTER + INTRA:          -6.428
REMARK INTER:                  -6.428
REMARK INTRA:                   0.000
REMARK UNBOUND:                 0.000
REMARK SMILES Cc1cc(O)c2c(c1)C(=O)c1cc(O)cc(O)c1C2=O
REMARK SMILES IDX 1 1 2 2 8 3 7 4 6 5 4 6 3 7 19 8 20 9 18 10 11 11 9 12 10 13
REMARK SMILES IDX 12 14 13 15 15 16 16 17 5 18 17 20 14 22
REMARK H PARENT 5 19 17 21 14 23
REMARK Flexibility Score: inf
ROOT
ATOM      1  C   UNL     1     -42.460 -15.438  -3.500  1.00  0.00     0.044 C 
ATOM      2  C   UNL     1     -43.276 -14.522  -2.635  1.00  0.00    -0.047 A 
ATOM      3  C   UNL     1     -42.678 -13.420  -2.015  1.00  0.00     0.016 A 
ATOM      4  C   UNL     1     -43.421 -12.584  -1.165  1.00  0.00     0.038 A 
ATOM      5  C   UNL     1     -44.783 -12.871  -0.908  1.00  0.00     0.076 A 
ATOM      6  C   UNL     1     -45.398 -13.956  -1.589  1.00  0.00     0.127 A 
ATOM      7  C   UNL     1     -44.630 -14.787  -2.409  1.00  0.00     0.050 A 
ATOM      8  C   UNL     1     -45.496 -12.057   0.118  1.00  0.00     0.201 C 
ATOM      9  O   UNL     1     -46.531 -12.509   0.676  1.00  0.00    -0.288 OA
ATOM     10  C   UNL     1     -44.927 -10.762   0.572  1.00  0.00     0.076 A 
ATOM     11  C   UNL     1     -43.586 -10.453   0.258  1.00  0.00     0.041 A 
ATOM     12  C   UNL     1     -42.780 -11.400  -0.546  1.00  0.00     0.194 C 
ATOM     13  O   UNL     1     -41.548 -11.187  -0.719  1.00  0.00    -0.289 OA
ATOM     14  C   UNL     1     -43.021  -9.248   0.713  1.00  0.00     0.059 A 
ATOM     15  C   UNL     1     -43.780  -8.349   1.468  1.00  0.00     0.120 A 
ATOM     16  C   UNL     1     -45.108  -8.647   1.774  1.00  0.00     0.093 A 
ATOM     17  C   UNL     1     -45.689  -9.843   1.331  1.00  0.00     0.131 A 
ENDROOT
BRANCH   6  18
ATOM     18  O   UNL     1     -46.766 -14.226  -1.511  1.00  0.00    -0.507 OA
ATOM     19  H   UNL     1     -47.149 -15.086  -1.147  1.00  0.00     0.293 HD
ENDBRANCH   6  18
BRANCH  17  20
ATOM     20  O   UNL     1     -47.023 -10.110   1.639  1.00  0.00    -0.507 OA
ATOM     21  H   UNL     1     -47.312 -10.999   2.032  1.00  0.00     0.293 HD
ENDBRANCH  17  20
BRANCH  15  22
ATOM     22  O   UNL     1     -43.224  -7.155   1.921  1.00  0.00    -0.508 OA
ATOM     23  H   UNL     1     -43.311  -6.295   1.391  1.00  0.00     0.293 HD
ENDBRANCH  15  22
TORSDOF 3
ENDMDL
MODEL 6
REMARK VINA RESULT:    -5.905      2.166      2.900
REMARK INTER + INTRA:          -6.423
REMARK INTER:                  -6.423
REMARK INTRA:                   0.000
REMARK UNBOUND:                 0.000
REMARK SMILES Cc1cc(O)c2c(c1)C(=O)c1cc(O)cc(O)c1C2=O
REMARK SMILES IDX 1 1 2 2 8 3 7 4 6 5 4 6 3 7 19 8 20 9 18 10 11 11 9 12 10 13
REMARK SMILES IDX 12 14 13 15 15 16 16 17 5 18 17 20 14 22
REMARK H PARENT 5 19 17 21 14 23
REMARK Flexibility Score: inf
ROOT
ATOM      1  C   UNL     1     -46.370 -10.489   3.757  1.00  0.00     0.044 C 
ATOM      2  C   UNL     1     -45.794 -10.812   2.409  1.00  0.00    -0.047 A 
ATOM      3  C   UNL     1     -45.297 -12.091   2.142  1.00  0.00     0.016 A 
ATOM      4  C   UNL     1     -44.713 -12.390   0.900  1.00  0.00     0.038 A 
ATOM      5  C   UNL     1     -44.598 -11.381  -0.086  1.00  0.00     0.076 A 
ATOM      6  C   UNL     1     -45.160 -10.101   0.171  1.00  0.00     0.127 A 
ATOM      7  C   UNL     1     -45.713  -9.823   1.424  1.00  0.00     0.050 A 
ATOM      8  C   UNL     1     -43.835 -11.690  -1.329  1.00  0.00     0.201 C 
ATOM      9  O   UNL     1     -43.354 -10.756  -2.025  1.00  0.00    -0.288 OA
ATOM     10  C   UNL     1     -43.536 -13.100  -1.692  1.00  0.00     0.076 A 
ATOM     11  C   UNL     1     -43.713 -14.110  -0.722  1.00  0.00     0.041 A 
ATOM     12  C   UNL     1     -44.225 -13.761   0.622  1.00  0.00     0.194 C 
ATOM     13  O   UNL     1     -44.262 -14.640   1.528  1.00  0.00    -0.289 OA
ATOM     14  C   UNL     1     -43.399 -15.444  -1.039  1.00  0.00     0.059 A 
ATOM     15  C   UNL     1     -42.920 -15.779  -2.309  1.00  0.00     0.120 A 
ATOM     16  C   UNL     1     -42.753 -14.784  -3.272  1.00  0.00     0.093 A 
ATOM     17  C   UNL     1     -43.058 -13.449  -2.977  1.00  0.00     0.131 A 
ENDROOT
BRANCH   6  18
ATOM     18  O   UNL     1     -45.225  -9.092  -0.792  1.00  0.00    -0.507 OA
ATOM     19  H   UNL     1     -45.517  -8.145  -0.596  1.00  0.00     0.293 HD
ENDBRANCH   6  18
BRANCH  17  20
ATOM     20  O   UNL     1     -42.894 -12.476  -3.962  1.00  0.00    -0.507 OA
ATOM     21  H   UNL     1     -42.608 -12.715  -4.906  1.00  0.00     0.293 HD
ENDBRANCH  17  20
BRANCH  15  22
ATOM     22  O   UNL     1     -42.608 -17.099  -2.625  1.00  0.00    -0.508 OA
ATOM     23  H   UNL     1     -43.308 -17.738  -2.986  1.00  0.00     0.293 HD
ENDBRANCH  15  22
TORSDOF 3
ENDMDL
MODEL 7
REMARK VINA RESULT:    -5.798      8.863     10.507
REMARK INTER + INTRA:          -6.306
REMARK INTER:                  -6.306
REMARK INTRA:                   0.000
REMARK UNBOUND:                 0.000
REMARK SMILES Cc1cc(O)c2c(c1)C(=O)c1cc(O)cc(O)c1C2=O
REMARK SMILES IDX 1 1 2 2 8 3 7 4 6 5 4 6 3 7 19 8 20 9 18 10 11 11 9 12 10 13
REMARK SMILES IDX 12 14 13 15 15 16 16 17 5 18 17 20 14 22
REMARK H PARENT 5 19 17 21 14 23
REMARK Flexibility Score: inf
ROOT
ATOM      1  C   UNL     1     -45.875 -22.047   4.865  1.00  0.00     0.044 C 
ATOM      2  C   UNL     1     -45.164 -20.848   5.424  1.00  0.00    -0.047 A 
ATOM      3  C   UNL     1     -45.461 -19.568   4.949  1.00  0.00     0.016 A 
ATOM      4  C   UNL     1     -44.769 -18.444   5.430  1.00  0.00     0.038 A 
ATOM      5  C   UNL     1     -43.737 -18.608   6.386  1.00  0.00     0.076 A 
ATOM      6  C   UNL     1     -43.482 -19.905   6.907  1.00  0.00     0.127 A 
ATOM      7  C   UNL     1     -44.168 -21.009   6.393  1.00  0.00     0.050 A 
ATOM      8  C   UNL     1     -42.920 -17.417   6.756  1.00  0.00     0.201 C 
ATOM      9  O   UNL     1     -41.772 -17.567   7.253  1.00  0.00    -0.288 OA
ATOM     10  C   UNL     1     -43.405 -16.049   6.435  1.00  0.00     0.076 A 
ATOM     11  C   UNL     1     -44.476 -15.895   5.529  1.00  0.00     0.041 A 
ATOM     12  C   UNL     1     -45.124 -17.091   4.943  1.00  0.00     0.194 C 
ATOM     13  O   UNL     1     -45.993 -16.954   4.038  1.00  0.00    -0.289 OA
ATOM     14  C   UNL     1     -44.921 -14.606   5.186  1.00  0.00     0.059 A 
ATOM     15  C   UNL     1     -44.316 -13.475   5.741  1.00  0.00     0.120 A 
ATOM     16  C   UNL     1     -43.262 -13.624   6.643  1.00  0.00     0.093 A 
ATOM     17  C   UNL     1     -42.803 -14.899   6.997  1.00  0.00     0.131 A 
ENDROOT
BRANCH   6  18
ATOM     18  O   UNL     1     -42.589 -20.142   7.954  1.00  0.00    -0.507 OA
ATOM     19  H   UNL     1     -42.314 -21.064   8.260  1.00  0.00     0.293 HD
ENDBRANCH   6  18
BRANCH  17  20
ATOM     20  O   UNL     1     -41.757 -15.019   7.912  1.00  0.00    -0.507 OA
ATOM     21  H   UNL     1     -41.354 -14.209   8.370  1.00  0.00     0.293 HD
ENDBRANCH  17  20
BRANCH  15  22
ATOM     22  O   UNL     1     -44.754 -12.197   5.403  1.00  0.00    -0.508 OA
ATOM     23  H   UNL     1     -45.611 -12.050   4.881  1.00  0.00     0.293 HD
ENDBRANCH  15  22
TORSDOF 3
ENDMDL
MODEL 8
REMARK VINA RESULT:    -5.733     10.084     10.923
REMARK INTER + INTRA:          -6.236
REMARK INTER:                  -6.236
REMARK INTRA:                   0.000
REMARK UNBOUND:                 0.000
REMARK SMILES Cc1cc(O)c2c(c1)C(=O)c1cc(O)cc(O)c1C2=O
REMARK SMILES IDX 1 1 2 2 8 3 7 4 6 5 4 6 3 7 19 8 20 9 18 10 11 11 9 12 10 13
REMARK SMILES IDX 12 14 13 15 15 16 16 17 5 18 17 20 14 22
REMARK H PARENT 5 19 17 21 14 23
REMARK Flexibility Score: inf
ROOT
ATOM      1  C   UNL     1     -50.975 -15.983   9.542  1.00  0.00     0.044 C 
ATOM      2  C   UNL     1     -50.071 -16.527   8.474  1.00  0.00    -0.047 A 
ATOM      3  C   UNL     1     -49.041 -17.412   8.805  1.00  0.00     0.016 A 
ATOM      4  C   UNL     1     -48.160 -17.891   7.821  1.00  0.00     0.038 A 
ATOM      5  C   UNL     1     -48.294 -17.452   6.482  1.00  0.00     0.076 A 
ATOM      6  C   UNL     1     -49.380 -16.600   6.143  1.00  0.00     0.127 A 
ATOM      7  C   UNL     1     -50.226 -16.120   7.145  1.00  0.00     0.050 A 
ATOM      8  C   UNL     1     -47.249 -17.855   5.498  1.00  0.00     0.201 C 
ATOM      9  O   UNL     1     -47.082 -17.187   4.443  1.00  0.00    -0.288 OA
ATOM     10  C   UNL     1     -46.322 -18.975   5.808  1.00  0.00     0.076 A 
ATOM     11  C   UNL     1     -46.240 -19.450   7.135  1.00  0.00     0.041 A 
ATOM     12  C   UNL     1     -47.098 -18.857   8.185  1.00  0.00     0.194 C 
ATOM     13  O   UNL     1     -46.934 -19.191   9.392  1.00  0.00    -0.289 OA
ATOM     14  C   UNL     1     -45.340 -20.483   7.451  1.00  0.00     0.059 A 
ATOM     15  C   UNL     1     -44.532 -21.049   6.461  1.00  0.00     0.120 A 
ATOM     16  C   UNL     1     -44.617 -20.588   5.148  1.00  0.00     0.093 A 
ATOM     17  C   UNL     1     -45.506 -19.558   4.811  1.00  0.00     0.131 A 
ENDROOT
BRANCH   6  18
ATOM     18  O   UNL     1     -49.677 -16.234   4.828  1.00  0.00    -0.507 OA
ATOM     19  H   UNL     1     -49.204 -15.494   4.330  1.00  0.00     0.293 HD
ENDBRANCH   6  18
BRANCH  17  20
ATOM     20  O   UNL     1     -45.581 -19.125   3.488  1.00  0.00    -0.507 OA
ATOM     21  H   UNL     1     -46.350 -18.554   3.156  1.00  0.00     0.293 HD
ENDBRANCH  17  20
BRANCH  15  22
ATOM     22  O   UNL     1     -43.639 -22.073   6.772  1.00  0.00    -0.508 OA
ATOM     23  H   UNL     1     -43.028 -22.017   7.579  1.00  0.00     0.293 HD
ENDBRANCH  15  22
TORSDOF 3
ENDMDL
MODEL 9
REMARK VINA RESULT:    -5.651      2.218      5.971
REMARK INTER + INTRA:          -6.146
REMARK INTER:                  -6.146
REMARK INTRA:                   0.000
REMARK UNBOUND:                 0.000
REMARK SMILES Cc1cc(O)c2c(c1)C(=O)c1cc(O)cc(O)c1C2=O
REMARK SMILES IDX 1 1 2 2 8 3 7 4 6 5 4 6 3 7 19 8 20 9 18 10 11 11 9 12 10 13
REMARK SMILES IDX 12 14 13 15 15 16 16 17 5 18 17 20 14 22
REMARK H PARENT 5 19 17 21 14 23
REMARK Flexibility Score: inf
ROOT
ATOM      1  C   UNL     1     -43.738 -15.227  -2.115  1.00  0.00     0.044 C 
ATOM      2  C   UNL     1     -43.903 -13.898  -1.436  1.00  0.00    -0.047 A 
ATOM      3  C   UNL     1     -42.795 -13.072  -1.224  1.00  0.00     0.016 A 
ATOM      4  C   UNL     1     -42.930 -11.848  -0.548  1.00  0.00     0.038 A 
ATOM      5  C   UNL     1     -44.195 -11.455  -0.048  1.00  0.00     0.076 A 
ATOM      6  C   UNL     1     -45.326 -12.271  -0.320  1.00  0.00     0.127 A 
ATOM      7  C   UNL     1     -45.160 -13.495  -0.973  1.00  0.00     0.050 A 
ATOM      8  C   UNL     1     -44.271 -10.230   0.799  1.00  0.00     0.201 C 
ATOM      9  O   UNL     1     -45.239 -10.066   1.588  1.00  0.00    -0.288 OA
ATOM     10  C   UNL     1     -43.151  -9.253   0.803  1.00  0.00     0.076 A 
ATOM     11  C   UNL     1     -41.910  -9.630   0.245  1.00  0.00     0.041 A 
ATOM     12  C   UNL     1     -41.751 -10.969  -0.366  1.00  0.00     0.194 C 
ATOM     13  O   UNL     1     -40.612 -11.354  -0.748  1.00  0.00    -0.289 OA
ATOM     14  C   UNL     1     -40.829  -8.731   0.276  1.00  0.00     0.059 A 
ATOM     15  C   UNL     1     -40.976  -7.463   0.847  1.00  0.00     0.120 A 
ATOM     16  C   UNL     1     -42.203  -7.085   1.391  1.00  0.00     0.093 A 
ATOM     17  C   UNL     1     -43.292  -7.967   1.372  1.00  0.00     0.131 A 
ENDROOT
BRANCH   6  18
ATOM     18  O   UNL     1     -46.631 -11.895   0.005  1.00  0.00    -0.507 OA
ATOM     19  H   UNL     1     -47.398 -12.545   0.093  1.00  0.00     0.293 HD
ENDBRANCH   6  18
BRANCH  17  20
ATOM     20  O   UNL     1     -44.512  -7.558   1.911  1.00  0.00    -0.507 OA
ATOM     21  H   UNL     1     -45.289  -8.200   2.019  1.00  0.00     0.293 HD
ENDBRANCH  17  20
BRANCH  15  22
ATOM     22  O   UNL     1     -39.907  -6.570   0.879  1.00  0.00    -0.508 OA
ATOM     23  H   UNL     1     -39.091  -6.739   1.457  1.00  0.00     0.293 HD
ENDBRANCH  15  22
TORSDOF 3
ENDMDL
