MODEL 1
REMARK VINA RESULT:    -4.362      0.000      0.000
REMARK INTER + INTRA:          -6.946
REMARK INTER:                  -6.402
REMARK INTRA:                  -0.544
REMARK UNBOUND:                -0.544
REMARK SMILES O=C([O-])CCCCCCCC(=O)[O-]
REMARK SMILES IDX 7 1 6 2 5 3 4 4 2 5 1 6 3 7 8 8 9 9 10 10 11 11 12 12 13 13
REMARK H PARENT
REMARK Flexibility Score: inf
ROOT
ATOM      1  C   UNL     1      31.024  18.540  10.007  1.00  0.00     0.000 C 
ENDROOT
BRANCH   1   2
ATOM      2  C   UNL     1      31.913  19.217  11.061  1.00  0.00     0.000 C 
BRANCH   2   3
ATOM      3  C   UNL     1      31.320  19.130  12.478  1.00  0.00     0.006 C 
BRANCH   3   4
ATOM      4  C   UNL     1      32.395  19.270  13.565  1.00  0.00     0.053 C 
BRANCH   4   5
ATOM      5  C   UNL     1      32.620  20.701  13.947  1.00  0.00     0.041 C 
ATOM      6  O   UNL     1      31.722  21.560  13.741  1.00  0.00    -0.550 OA
ATOM      7  O   UNL     1      33.832  21.092  14.503  1.00  0.00    -0.550 OA
ENDBRANCH   4   5
ENDBRANCH   3   4
ENDBRANCH   2   3
ENDBRANCH   1   2
BRANCH   1   8
ATOM      8  C   UNL     1      29.668  18.087  10.577  1.00  0.00     0.000 C 
BRANCH   8   9
ATOM      9  C   UNL     1      28.514  19.012  10.160  1.00  0.00     0.006 C 
BRANCH   9  10
ATOM     10  C   UNL     1      27.663  19.467  11.354  1.00  0.00     0.053 C 
BRANCH  10  11
ATOM     11  C   UNL     1      27.688  20.959  11.472  1.00  0.00     0.041 C 
ATOM     12  O   UNL     1      26.665  21.634  11.177  1.00  0.00    -0.550 OA
ATOM     13  O   UNL     1      28.852  21.607  11.860  1.00  0.00    -0.550 OA
ENDBRANCH  10  11
ENDBRANCH   9  10
ENDBRANCH   8   9
ENDBRANCH   1   8
TORSDOF 8
ENDMDL
MODEL 2
REMARK VINA RESULT:    -4.214      1.548      5.456
REMARK INTER + INTRA:          -6.728
REMARK INTER:                  -6.233
REMARK INTRA:                  -0.495
REMARK UNBOUND:                -0.544
REMARK SMILES O=C([O-])CCCCCCCC(=O)[O-]
REMARK SMILES IDX 7 1 6 2 5 3 4 4 2 5 1 6 3 7 8 8 9 9 10 10 11 11 12 12 13 13
REMARK H PARENT
REMARK Flexibility Score: inf
ROOT
ATOM      1  C   UNL     1      31.213  19.097  12.562  1.00  0.00     0.000 C 
ENDROOT
BRANCH   1   2
ATOM      2  C   UNL     1      31.603  19.683  11.197  1.00  0.00     0.000 C 
BRANCH   2   3
ATOM      3  C   UNL     1      30.501  20.576  10.600  1.00  0.00     0.006 C 
BRANCH   3   4
ATOM      4  C   UNL     1      29.552  21.121  11.676  1.00  0.00     0.053 C 
BRANCH   4   5
ATOM      5  C   UNL     1      28.135  20.699  11.436  1.00  0.00     0.041 C 
ATOM      6  O   UNL     1      27.245  21.563  11.217  1.00  0.00    -0.550 OA
ATOM      7  O   UNL     1      27.791  19.354  11.484  1.00  0.00    -0.550 OA
ENDBRANCH   4   5
ENDBRANCH   3   4
ENDBRANCH   2   3
ENDBRANCH   1   2
BRANCH   1   8
ATOM      8  C   UNL     1      32.271  19.365  13.647  1.00  0.00     0.000 C 
BRANCH   8   9
ATOM      9  C   UNL     1      33.347  20.361  13.189  1.00  0.00     0.006 C 
BRANCH   9  10
ATOM     10  C   UNL     1      34.205  20.878  14.352  1.00  0.00     0.053 C 
BRANCH  10  11
ATOM     11  C   UNL     1      33.763  22.248  14.757  1.00  0.00     0.041 C 
ATOM     12  O   UNL     1      34.175  22.754  15.835  1.00  0.00    -0.550 OA
ATOM     13  O   UNL     1      32.858  22.948  13.971  1.00  0.00    -0.550 OA
ENDBRANCH  10  11
ENDBRANCH   9  10
ENDBRANCH   8   9
ENDBRANCH   1   8
TORSDOF 8
ENDMDL
MODEL 3
REMARK VINA RESULT:    -4.147      2.146      5.467
REMARK INTER + INTRA:          -6.629
REMARK INTER:                  -5.946
REMARK INTRA:                  -0.683
REMARK UNBOUND:                -0.544
REMARK SMILES O=C([O-])CCCCCCCC(=O)[O-]
REMARK SMILES IDX 7 1 6 2 5 3 4 4 2 5 1 6 3 7 8 8 9 9 10 10 11 11 12 12 13 13
REMARK H PARENT
REMARK Flexibility Score: inf
ROOT
ATOM      1  C   UNL     1      30.932  21.775  12.627  1.00  0.00     0.000 C 
ENDROOT
BRANCH   1   2
ATOM      2  C   UNL     1      29.616  21.779  11.834  1.00  0.00     0.000 C 
BRANCH   2   3
ATOM      3  C   UNL     1      29.785  21.230  10.406  1.00  0.00     0.006 C 
BRANCH   3   4
ATOM      4  C   UNL     1      28.967  19.951  10.177  1.00  0.00     0.053 C 
BRANCH   4   5
ATOM      5  C   UNL     1      29.519  18.791  10.946  1.00  0.00     0.041 C 
ATOM      6  O   UNL     1      28.891  18.329  11.936  1.00  0.00    -0.550 OA
ATOM      7  O   UNL     1      30.743  18.237  10.589  1.00  0.00    -0.550 OA
ENDBRANCH   4   5
ENDBRANCH   3   4
ENDBRANCH   2   3
ENDBRANCH   1   2
BRANCH   1   8
ATOM      8  C   UNL     1      32.146  21.396  11.760  1.00  0.00     0.000 C 
BRANCH   8   9
ATOM      9  C   UNL     1      33.019  20.311  12.409  1.00  0.00     0.006 C 
BRANCH   9  10
ATOM     10  C   UNL     1      32.935  20.326  13.942  1.00  0.00     0.053 C 
BRANCH  10  11
ATOM     11  C   UNL     1      34.053  21.136  14.517  1.00  0.00     0.041 C 
ATOM     12  O   UNL     1      33.803  22.137  15.241  1.00  0.00    -0.550 OA
ATOM     13  O   UNL     1      35.370  20.817  14.215  1.00  0.00    -0.550 OA
ENDBRANCH  10  11
ENDBRANCH   9  10
ENDBRANCH   8   9
ENDBRANCH   1   8
TORSDOF 8
ENDMDL
MODEL 4
REMARK VINA RESULT:    -4.142      1.361      2.088
REMARK INTER + INTRA:          -6.623
REMARK INTER:                  -6.056
REMARK INTRA:                  -0.567
REMARK UNBOUND:                -0.544
REMARK SMILES O=C([O-])CCCCCCCC(=O)[O-]
REMARK SMILES IDX 7 1 6 2 5 3 4 4 2 5 1 6 3 7 8 8 9 9 10 10 11 11 12 12 13 13
REMARK H PARENT
REMARK Flexibility Score: inf
ROOT
ATOM      1  C   UNL     1      32.817  19.770  10.966  1.00  0.00     0.000 C 
ENDROOT
BRANCH   1   2
ATOM      2  C   UNL     1      32.193  20.900  11.800  1.00  0.00     0.000 C 
BRANCH   2   3
ATOM      3  C   UNL     1      32.000  20.508  13.276  1.00  0.00     0.006 C 
BRANCH   3   4
ATOM      4  C   UNL     1      33.338  20.338  14.009  1.00  0.00     0.053 C 
BRANCH   4   5
ATOM      5  C   UNL     1      33.715  21.569  14.774  1.00  0.00     0.041 C 
ATOM      6  O   UNL     1      34.749  21.577  15.493  1.00  0.00    -0.550 OA
ATOM      7  O   UNL     1      32.907  22.699  14.718  1.00  0.00    -0.550 OA
ENDBRANCH   4   5
ENDBRANCH   3   4
ENDBRANCH   2   3
ENDBRANCH   1   2
BRANCH   1   8
ATOM      8  C   UNL     1      31.876  18.563  10.806  1.00  0.00     0.000 C 
BRANCH   8   9
ATOM      9  C   UNL     1      30.610  18.903  10.004  1.00  0.00     0.006 C 
BRANCH   9  10
ATOM     10  C   UNL     1      29.327  18.422  10.696  1.00  0.00     0.053 C 
BRANCH  10  11
ATOM     11  C   UNL     1      28.467  19.588  11.069  1.00  0.00     0.041 C 
ATOM     12  O   UNL     1      27.359  19.401  11.640  1.00  0.00    -0.550 OA
ATOM     13  O   UNL     1      28.864  20.878  10.743  1.00  0.00    -0.550 OA
ENDBRANCH  10  11
ENDBRANCH   9  10
ENDBRANCH   8   9
ENDBRANCH   1   8
TORSDOF 8
ENDMDL
MODEL 5
REMARK VINA RESULT:    -4.064      2.131      2.828
REMARK INTER + INTRA:          -6.509
REMARK INTER:                  -5.840
REMARK INTRA:                  -0.669
REMARK UNBOUND:                -0.544
REMARK SMILES O=C([O-])CCCCCCCC(=O)[O-]
REMARK SMILES IDX 7 1 6 2 5 3 4 4 2 5 1 6 3 7 8 8 9 9 10 10 11 11 12 12 13 13
REMARK H PARENT
REMARK Flexibility Score: inf
ROOT
ATOM      1  C   UNL     1      30.855  21.960  12.576  1.00  0.00     0.000 C 
ENDROOT
BRANCH   1   2
ATOM      2  C   UNL     1      32.065  21.356  11.847  1.00  0.00     0.000 C 
BRANCH   2   3
ATOM      3  C   UNL     1      32.548  20.044  12.490  1.00  0.00     0.006 C 
BRANCH   3   4
ATOM      4  C   UNL     1      32.734  20.178  14.008  1.00  0.00     0.053 C 
BRANCH   4   5
ATOM      5  C   UNL     1      33.900  21.052  14.352  1.00  0.00     0.041 C 
ATOM      6  O   UNL     1      33.715  22.155  14.932  1.00  0.00    -0.550 OA
ATOM      7  O   UNL     1      35.188  20.664  14.005  1.00  0.00    -0.550 OA
ENDBRANCH   4   5
ENDBRANCH   3   4
ENDBRANCH   2   3
ENDBRANCH   1   2
BRANCH   1   8
ATOM      8  C   UNL     1      29.529  21.702  11.840  1.00  0.00     0.000 C 
BRANCH   8   9
ATOM      9  C   UNL     1      29.738  21.111  10.437  1.00  0.00     0.006 C 
BRANCH   9  10
ATOM     10  C   UNL     1      28.851  19.887  10.174  1.00  0.00     0.053 C 
BRANCH  10  11
ATOM     11  C   UNL     1      29.410  18.681  10.862  1.00  0.00     0.041 C 
ATOM     12  O   UNL     1      28.916  18.289  11.953  1.00  0.00    -0.550 OA
ATOM     13  O   UNL     1      30.505  18.019  10.325  1.00  0.00    -0.550 OA
ENDBRANCH  10  11
ENDBRANCH   9  10
ENDBRANCH   8   9
ENDBRANCH   1   8
TORSDOF 8
ENDMDL
MODEL 6
REMARK VINA RESULT:    -3.913      1.925      5.717
REMARK INTER + INTRA:          -6.287
REMARK INTER:                  -5.792
REMARK INTRA:                  -0.495
REMARK UNBOUND:                -0.544
REMARK SMILES O=C([O-])CCCCCCCC(=O)[O-]
REMARK SMILES IDX 7 1 6 2 5 3 4 4 2 5 1 6 3 7 8 8 9 9 10 10 11 11 12 12 13 13
REMARK H PARENT
REMARK Flexibility Score: inf
ROOT
ATOM      1  C   UNL     1      32.047  20.014  12.717  1.00  0.00     0.000 C 
ENDROOT
BRANCH   1   2
ATOM      2  C   UNL     1      32.477  19.699  11.276  1.00  0.00     0.000 C 
BRANCH   2   3
ATOM      3  C   UNL     1      31.612  18.605  10.626  1.00  0.00     0.006 C 
BRANCH   3   4
ATOM      4  C   UNL     1      30.407  19.190   9.876  1.00  0.00     0.053 C 
BRANCH   4   5
ATOM      5  C   UNL     1      29.121  18.935  10.601  1.00  0.00     0.041 C 
ATOM      6  O   UNL     1      29.125  18.326  11.704  1.00  0.00    -0.550 OA
ATOM      7  O   UNL     1      27.915  19.342  10.045  1.00  0.00    -0.550 OA
ENDBRANCH   4   5
ENDBRANCH   3   4
ENDBRANCH   2   3
ENDBRANCH   1   2
BRANCH   1   8
ATOM      8  C   UNL     1      31.340  21.375  12.841  1.00  0.00     0.000 C 
BRANCH   8   9
ATOM      9  C   UNL     1      31.873  22.213  14.013  1.00  0.00     0.006 C 
BRANCH   9  10
ATOM     10  C   UNL     1      33.301  22.720  13.773  1.00  0.00     0.053 C 
BRANCH  10  11
ATOM     11  C   UNL     1      34.236  22.148  14.791  1.00  0.00     0.041 C 
ATOM     12  O   UNL     1      34.374  22.709  15.911  1.00  0.00    -0.550 OA
ATOM     13  O   UNL     1      34.993  21.024  14.487  1.00  0.00    -0.550 OA
ENDBRANCH  10  11
ENDBRANCH   9  10
ENDBRANCH   8   9
ENDBRANCH   1   8
TORSDOF 8
ENDMDL
MODEL 7
REMARK VINA RESULT:    -3.911     13.863     15.153
REMARK INTER + INTRA:          -6.284
REMARK INTER:                  -5.540
REMARK INTRA:                  -0.744
REMARK UNBOUND:                -0.544
REMARK SMILES O=C([O-])CCCCCCCC(=O)[O-]
REMARK SMILES IDX 7 1 6 2 5 3 4 4 2 5 1 6 3 7 8 8 9 9 10 10 11 11 12 12 13 13
REMARK H PARENT
REMARK Flexibility Score: inf
ROOT
ATOM      1  C   UNL     1      27.386   6.879  12.315  1.00  0.00     0.000 C 
ENDROOT
BRANCH   1   2
ATOM      2  C   UNL     1      28.505   7.755  11.729  1.00  0.00     0.000 C 
BRANCH   2   3
ATOM      3  C   UNL     1      28.846   7.382  10.275  1.00  0.00     0.006 C 
BRANCH   3   4
ATOM      4  C   UNL     1      30.154   6.586  10.173  1.00  0.00     0.053 C 
BRANCH   4   5
ATOM      5  C   UNL     1      29.903   5.112  10.074  1.00  0.00     0.041 C 
ATOM      6  O   UNL     1      28.737   4.679   9.875  1.00  0.00    -0.550 OA
ATOM      7  O   UNL     1      30.952   4.215  10.231  1.00  0.00    -0.550 OA
ENDBRANCH   4   5
ENDBRANCH   3   4
ENDBRANCH   2   3
ENDBRANCH   1   2
BRANCH   1   8
ATOM      8  C   UNL     1      27.798   6.195  13.630  1.00  0.00     0.000 C 
BRANCH   8   9
ATOM      9  C   UNL     1      29.323   6.137  13.814  1.00  0.00     0.006 C 
BRANCH   9  10
ATOM     10  C   UNL     1      29.887   4.724  13.609  1.00  0.00     0.053 C 
BRANCH  10  11
ATOM     11  C   UNL     1      31.320   4.668  14.038  1.00  0.00     0.041 C 
ATOM     12  O   UNL     1      31.996   3.622  13.851  1.00  0.00    -0.550 OA
ATOM     13  O   UNL     1      31.894   5.753  14.686  1.00  0.00    -0.550 OA
ENDBRANCH  10  11
ENDBRANCH   9  10
ENDBRANCH   8   9
ENDBRANCH   1   8
TORSDOF 8
ENDMDL
MODEL 8
REMARK VINA RESULT:    -3.871     13.635     14.522
REMARK INTER + INTRA:          -6.224
REMARK INTER:                  -5.539
REMARK INTRA:                  -0.685
REMARK UNBOUND:                -0.544
REMARK SMILES O=C([O-])CCCCCCCC(=O)[O-]
REMARK SMILES IDX 7 1 6 2 5 3 4 4 2 5 1 6 3 7 8 8 9 9 10 10 11 11 12 12 13 13
REMARK H PARENT
REMARK Flexibility Score: inf
ROOT
ATOM      1  C   UNL     1      28.067   6.046  13.767  1.00  0.00     0.000 C 
ENDROOT
BRANCH   1   2
ATOM      2  C   UNL     1      28.172   4.727  12.985  1.00  0.00     0.000 C 
BRANCH   2   3
ATOM      3  C   UNL     1      29.409   3.902  13.382  1.00  0.00     0.006 C 
BRANCH   3   4
ATOM      4  C   UNL     1      30.719   4.640  13.077  1.00  0.00     0.053 C 
BRANCH   4   5
ATOM      5  C   UNL     1      31.395   5.117  14.325  1.00  0.00     0.041 C 
ATOM      6  O   UNL     1      31.829   6.297  14.400  1.00  0.00    -0.550 OA
ATOM      7  O   UNL     1      31.575   4.249  15.396  1.00  0.00    -0.550 OA
ENDBRANCH   4   5
ENDBRANCH   3   4
ENDBRANCH   2   3
ENDBRANCH   1   2
BRANCH   1   8
ATOM      8  C   UNL     1      28.107   7.282  12.851  1.00  0.00     0.000 C 
BRANCH   8   9
ATOM      9  C   UNL     1      27.556   6.994  11.446  1.00  0.00     0.006 C 
BRANCH   9  10
ATOM     10  C   UNL     1      28.482   7.505  10.334  1.00  0.00     0.053 C 
BRANCH  10  11
ATOM     11  C   UNL     1      29.704   6.647  10.238  1.00  0.00     0.041 C 
ATOM     12  O   UNL     1      29.606   5.444   9.875  1.00  0.00    -0.550 OA
ATOM     13  O   UNL     1      30.944   7.159  10.595  1.00  0.00    -0.550 OA
ENDBRANCH  10  11
ENDBRANCH   9  10
ENDBRANCH   8   9
ENDBRANCH   1   8
TORSDOF 8
ENDMDL
MODEL 9
REMARK VINA RESULT:    -3.856      2.337      3.039
REMARK INTER + INTRA:          -6.203
REMARK INTER:                  -5.532
REMARK INTRA:                  -0.671
REMARK UNBOUND:                -0.544
REMARK SMILES O=C([O-])CCCCCCCC(=O)[O-]
REMARK SMILES IDX 7 1 6 2 5 3 4 4 2 5 1 6 3 7 8 8 9 9 10 10 11 11 12 12 13 13
REMARK H PARENT
REMARK Flexibility Score: inf
ROOT
ATOM      1  C   UNL     1      29.891  21.828  12.136  1.00  0.00     0.000 C 
ENDROOT
BRANCH   1   2
ATOM      2  C   UNL     1      31.053  22.528  11.414  1.00  0.00     0.000 C 
BRANCH   2   3
ATOM      3  C   UNL     1      32.413  21.869  11.704  1.00  0.00     0.006 C 
BRANCH   3   4
ATOM      4  C   UNL     1      32.318  20.337  11.739  1.00  0.00     0.053 C 
BRANCH   4   5
ATOM      5  C   UNL     1      32.858  19.773  13.018  1.00  0.00     0.041 C 
ATOM      6  O   UNL     1      32.185  18.936  13.675  1.00  0.00    -0.550 OA
ATOM      7  O   UNL     1      34.091  20.196  13.499  1.00  0.00    -0.550 OA
ENDBRANCH   4   5
ENDBRANCH   3   4
ENDBRANCH   2   3
ENDBRANCH   1   2
BRANCH   1   8
ATOM      8  C   UNL     1      28.657  21.646  11.236  1.00  0.00     0.000 C 
BRANCH   8   9
ATOM      9  C   UNL     1      28.967  20.842   9.963  1.00  0.00     0.006 C 
BRANCH   9  10
ATOM     10  C   UNL     1      28.344  19.440   9.985  1.00  0.00     0.053 C 
BRANCH  10  11
ATOM     11  C   UNL     1      29.193  18.504  10.786  1.00  0.00     0.041 C 
ATOM     12  O   UNL     1      30.161  17.906  10.245  1.00  0.00    -0.550 OA
ATOM     13  O   UNL     1      28.888  18.255  12.118  1.00  0.00    -0.550 OA
ENDBRANCH  10  11
ENDBRANCH   9  10
ENDBRANCH   8   9
ENDBRANCH   1   8
TORSDOF 8
ENDMDL
