MODEL 1
REMARK VINA RESULT:    -4.306      0.000      0.000
REMARK INTER + INTRA:          -9.769
REMARK INTER:                  -8.083
REMARK INTRA:                  -1.687
REMARK UNBOUND:                -1.687
REMARK SMILES CCCCCCCCC=CCCCCCCCC(=O)[O-]
REMARK SMILES IDX 10 1 9 2 11 3 12 4 13 5 14 6 15 7 16 8 17 9 18 10 19 11
REMARK SMILES IDX 20 12 8 13 7 14 6 15 5 16 4 17 3 18 2 19 1 20
REMARK H PARENT
REMARK Flexibility Score: inf
ROOT
ATOM      1  C   UNL     1      15.628   7.625   5.378  1.00  0.00    -0.031 C 
ATOM      2  C   UNL     1      16.800   7.120   4.962  1.00  0.00    -0.031 C 
ENDROOT
BRANCH   1   3
ATOM      3  C   UNL     1      14.315   7.072   4.894  1.00  0.00     0.027 C 
BRANCH   3   4
ATOM      4  C   UNL     1      13.746   7.916   3.747  1.00  0.00     0.004 C 
BRANCH   4   5
ATOM      5  C   UNL     1      14.854   8.345   2.778  1.00  0.00     0.000 C 
BRANCH   5   6
ATOM      6  C   UNL     1      14.889   7.432   1.544  1.00  0.00     0.000 C 
BRANCH   6   7
ATOM      7  C   UNL     1      16.218   6.673   1.406  1.00  0.00     0.000 C 
BRANCH   7   8
ATOM      8  C   UNL     1      16.214   5.677   0.236  1.00  0.00     0.006 C 
BRANCH   8   9
ATOM      9  C   UNL     1      15.166   6.067  -0.811  1.00  0.00     0.053 C 
BRANCH   9  10
ATOM     10  C   UNL     1      15.820   6.698  -1.999  1.00  0.00     0.041 C 
ATOM     11  O   UNL     1      15.718   7.937  -2.196  1.00  0.00    -0.550 OA
ATOM     12  O   UNL     1      16.502   5.910  -2.915  1.00  0.00    -0.550 OA
ENDBRANCH   9  10
ENDBRANCH   8   9
ENDBRANCH   7   8
ENDBRANCH   6   7
ENDBRANCH   5   6
ENDBRANCH   4   5
ENDBRANCH   3   4
ENDBRANCH   1   3
BRANCH   2  13
ATOM     13  C   UNL     1      18.112   7.674   5.445  1.00  0.00     0.027 C 
BRANCH  13  14
ATOM     14  C   UNL     1      18.291   9.135   5.007  1.00  0.00     0.004 C 
BRANCH  14  15
ATOM     15  C   UNL     1      18.349   9.296   3.477  1.00  0.00     0.000 C 
BRANCH  15  16
ATOM     16  C   UNL     1      17.985  10.700   2.957  1.00  0.00     0.000 C 
BRANCH  16  17
ATOM     17  C   UNL     1      16.765  11.356   3.633  1.00  0.00    -0.000 C 
BRANCH  17  18
ATOM     18  C   UNL     1      15.686  11.873   2.667  1.00  0.00    -0.000 C 
BRANCH  18  19
ATOM     19  C   UNL     1      15.391  13.369   2.848  1.00  0.00    -0.003 C 
ATOM     20  C   UNL     1      14.955  14.007   1.533  1.00  0.00     0.004 C 
ENDBRANCH  18  19
ENDBRANCH  17  18
ENDBRANCH  16  17
ENDBRANCH  15  16
ENDBRANCH  14  15
ENDBRANCH  13  14
ENDBRANCH   2  13
TORSDOF 15
ENDMDL
MODEL 2
REMARK VINA RESULT:    -4.267      2.660      6.018
REMARK INTER + INTRA:          -9.696
REMARK INTER:                  -7.862
REMARK INTRA:                  -1.834
REMARK UNBOUND:                -1.687
REMARK SMILES CCCCCCCCC=CCCCCCCCC(=O)[O-]
REMARK SMILES IDX 10 1 9 2 11 3 12 4 13 5 14 6 15 7 16 8 17 9 18 10 19 11
REMARK SMILES IDX 20 12 8 13 7 14 6 15 5 16 4 17 3 18 2 19 1 20
REMARK H PARENT
REMARK Flexibility Score: inf
ROOT
ATOM      1  C   UNL     1      16.768   7.082   5.045  1.00  0.00    -0.031 C 
ATOM      2  C   UNL     1      15.580   7.658   5.280  1.00  0.00    -0.031 C 
ENDROOT
BRANCH   1   3
ATOM      3  C   UNL     1      17.956   7.331   5.935  1.00  0.00     0.027 C 
BRANCH   3   4
ATOM      4  C   UNL     1      18.818   8.482   5.403  1.00  0.00     0.004 C 
BRANCH   4   5
ATOM      5  C   UNL     1      18.654   8.635   3.886  1.00  0.00     0.000 C 
BRANCH   5   6
ATOM      6  C   UNL     1      18.486  10.111   3.497  1.00  0.00     0.000 C 
BRANCH   6   7
ATOM      7  C   UNL     1      17.045  10.611   3.678  1.00  0.00     0.000 C 
BRANCH   7   8
ATOM      8  C   UNL     1      16.684  11.748   2.710  1.00  0.00     0.006 C 
BRANCH   8   9
ATOM      9  C   UNL     1      15.274  12.278   2.990  1.00  0.00     0.053 C 
BRANCH   9  10
ATOM     10  C   UNL     1      15.139  13.689   2.512  1.00  0.00     0.041 C 
ATOM     11  O   UNL     1      15.197  13.951   1.283  1.00  0.00    -0.550 OA
ATOM     12  O   UNL     1      14.996  14.721   3.429  1.00  0.00    -0.550 OA
ENDBRANCH   9  10
ENDBRANCH   8   9
ENDBRANCH   7   8
ENDBRANCH   6   7
ENDBRANCH   5   6
ENDBRANCH   4   5
ENDBRANCH   3   4
ENDBRANCH   1   3
BRANCH   2  13
ATOM     13  C   UNL     1      14.394   7.409   4.389  1.00  0.00     0.027 C 
BRANCH  13  14
ATOM     14  C   UNL     1      14.359   8.407   3.223  1.00  0.00     0.004 C 
BRANCH  14  15
ATOM     15  C   UNL     1      14.699   7.757   1.870  1.00  0.00     0.000 C 
BRANCH  15  16
ATOM     16  C   UNL     1      16.115   7.158   1.774  1.00  0.00     0.000 C 
BRANCH  16  17
ATOM     17  C   UNL     1      16.244   5.920   0.865  1.00  0.00    -0.000 C 
BRANCH  17  18
ATOM     18  C   UNL     1      15.184   5.815  -0.246  1.00  0.00    -0.000 C 
BRANCH  18  19
ATOM     19  C   UNL     1      15.765   6.046  -1.648  1.00  0.00    -0.003 C 
ATOM     20  C   UNL     1      15.802   7.532  -1.991  1.00  0.00     0.004 C 
ENDBRANCH  18  19
ENDBRANCH  17  18
ENDBRANCH  16  17
ENDBRANCH  15  16
ENDBRANCH  14  15
ENDBRANCH  13  14
ENDBRANCH   2  13
TORSDOF 15
ENDMDL
MODEL 3
REMARK VINA RESULT:    -4.151      2.966      5.340
REMARK INTER + INTRA:          -9.478
REMARK INTER:                  -8.719
REMARK INTRA:                  -0.759
REMARK UNBOUND:                -1.687
REMARK SMILES CCCCCCCCC=CCCCCCCCC(=O)[O-]
REMARK SMILES IDX 10 1 9 2 11 3 12 4 13 5 14 6 15 7 16 8 17 9 18 10 19 11
REMARK SMILES IDX 20 12 8 13 7 14 6 15 5 16 4 17 3 18 2 19 1 20
REMARK H PARENT
REMARK Flexibility Score: inf
ROOT
ATOM      1  C   UNL     1      16.093   7.258   4.774  1.00  0.00    -0.031 C 
ATOM      2  C   UNL     1      16.872   8.174   5.368  1.00  0.00    -0.031 C 
ENDROOT
BRANCH   1   3
ATOM      3  C   UNL     1      14.594   7.300   4.894  1.00  0.00     0.027 C 
BRANCH   3   4
ATOM      4  C   UNL     1      13.962   8.043   3.710  1.00  0.00     0.004 C 
BRANCH   4   5
ATOM      5  C   UNL     1      15.000   8.311   2.613  1.00  0.00     0.000 C 
BRANCH   5   6
ATOM      6  C   UNL     1      14.846   7.314   1.456  1.00  0.00     0.000 C 
BRANCH   6   7
ATOM      7  C   UNL     1      16.154   6.576   1.131  1.00  0.00     0.000 C 
BRANCH   7   8
ATOM      8  C   UNL     1      15.980   5.510   0.039  1.00  0.00     0.006 C 
BRANCH   8   9
ATOM      9  C   UNL     1      15.060   6.015  -1.076  1.00  0.00     0.053 C 
BRANCH   9  10
ATOM     10  C   UNL     1      15.849   6.739  -2.120  1.00  0.00     0.041 C 
ATOM     11  O   UNL     1      15.752   7.989  -2.235  1.00  0.00    -0.550 OA
ATOM     12  O   UNL     1      16.655   6.029  -2.999  1.00  0.00    -0.550 OA
ENDBRANCH   9  10
ENDBRANCH   8   9
ENDBRANCH   7   8
ENDBRANCH   6   7
ENDBRANCH   5   6
ENDBRANCH   4   5
ENDBRANCH   3   4
ENDBRANCH   1   3
BRANCH   2  13
ATOM     13  C   UNL     1      18.371   8.130   5.249  1.00  0.00     0.027 C 
BRANCH  13  14
ATOM     14  C   UNL     1      19.023   7.790   6.597  1.00  0.00     0.004 C 
BRANCH  14  15
ATOM     15  C   UNL     1      20.252   8.663   6.903  1.00  0.00     0.000 C 
BRANCH  15  16
ATOM     16  C   UNL     1      20.734   8.618   8.367  1.00  0.00     0.000 C 
BRANCH  16  17
ATOM     17  C   UNL     1      22.261   8.714   8.559  1.00  0.00    -0.000 C 
BRANCH  17  18
ATOM     18  C   UNL     1      22.813   7.943   9.769  1.00  0.00    -0.000 C 
BRANCH  18  19
ATOM     19  C   UNL     1      21.737   7.125  10.497  1.00  0.00    -0.003 C 
ATOM     20  C   UNL     1      21.794   5.655  10.091  1.00  0.00     0.004 C 
ENDBRANCH  18  19
ENDBRANCH  17  18
ENDBRANCH  16  17
ENDBRANCH  15  16
ENDBRANCH  14  15
ENDBRANCH  13  14
ENDBRANCH   2  13
TORSDOF 15
ENDMDL
MODEL 4
REMARK VINA RESULT:    -3.827      1.144      3.630
REMARK INTER + INTRA:          -8.871
REMARK INTER:                  -6.913
REMARK INTRA:                  -1.957
REMARK UNBOUND:                -1.687
REMARK SMILES CCCCCCCCC=CCCCCCCCC(=O)[O-]
REMARK SMILES IDX 10 1 9 2 11 3 12 4 13 5 14 6 15 7 16 8 17 9 18 10 19 11
REMARK SMILES IDX 20 12 8 13 7 14 6 15 5 16 4 17 3 18 2 19 1 20
REMARK H PARENT
REMARK Flexibility Score: inf
ROOT
ATOM      1  C   UNL     1      18.021   9.136   4.800  1.00  0.00    -0.031 C 
ATOM      2  C   UNL     1      18.501   9.509   3.604  1.00  0.00    -0.031 C 
ENDROOT
BRANCH   1   3
ATOM      3  C   UNL     1      18.366   7.804   5.408  1.00  0.00     0.027 C 
BRANCH   3   4
ATOM      4  C   UNL     1      17.475   6.689   4.846  1.00  0.00     0.004 C 
BRANCH   4   5
ATOM      5  C   UNL     1      17.692   6.521   3.338  1.00  0.00     0.000 C 
BRANCH   5   6
ATOM      6  C   UNL     1      16.368   6.211   2.624  1.00  0.00     0.000 C 
BRANCH   6   7
ATOM      7  C   UNL     1      16.258   6.899   1.254  1.00  0.00     0.000 C 
BRANCH   7   8
ATOM      8  C   UNL     1      15.180   6.270   0.358  1.00  0.00     0.006 C 
BRANCH   8   9
ATOM      9  C   UNL     1      15.778   5.808  -0.975  1.00  0.00     0.053 C 
BRANCH   9  10
ATOM     10  C   UNL     1      15.479   6.797  -2.056  1.00  0.00     0.041 C 
ATOM     11  O   UNL     1      14.544   6.583  -2.871  1.00  0.00    -0.550 OA
ATOM     12  O   UNL     1      16.263   7.934  -2.193  1.00  0.00    -0.550 OA
ENDBRANCH   9  10
ENDBRANCH   8   9
ENDBRANCH   7   8
ENDBRANCH   6   7
ENDBRANCH   5   6
ENDBRANCH   4   5
ENDBRANCH   3   4
ENDBRANCH   1   3
BRANCH   2  13
ATOM     13  C   UNL     1      18.154  10.840   2.996  1.00  0.00     0.027 C 
BRANCH  13  14
ATOM     14  C   UNL     1      16.947  11.474   3.702  1.00  0.00     0.004 C 
BRANCH  14  15
ATOM     15  C   UNL     1      15.784  11.776   2.741  1.00  0.00     0.000 C 
BRANCH  15  16
ATOM     16  C   UNL     1      14.500  10.962   2.996  1.00  0.00     0.000 C 
BRANCH  16  17
ATOM     17  C   UNL     1      14.676   9.431   2.959  1.00  0.00    -0.000 C 
BRANCH  17  18
ATOM     18  C   UNL     1      14.490   8.722   4.311  1.00  0.00    -0.000 C 
BRANCH  18  19
ATOM     19  C   UNL     1      13.544   7.516   4.228  1.00  0.00    -0.003 C 
ATOM     20  C   UNL     1      13.603   6.680   5.503  1.00  0.00     0.004 C 
ENDBRANCH  18  19
ENDBRANCH  17  18
ENDBRANCH  16  17
ENDBRANCH  15  16
ENDBRANCH  14  15
ENDBRANCH  13  14
ENDBRANCH   2  13
TORSDOF 15
ENDMDL
MODEL 5
REMARK VINA RESULT:    -3.714      1.715      4.012
REMARK INTER + INTRA:          -8.657
REMARK INTER:                  -7.199
REMARK INTRA:                  -1.458
REMARK UNBOUND:                -1.687
REMARK SMILES CCCCCCCCC=CCCCCCCCC(=O)[O-]
REMARK SMILES IDX 10 1 9 2 11 3 12 4 13 5 14 6 15 7 16 8 17 9 18 10 19 11
REMARK SMILES IDX 20 12 8 13 7 14 6 15 5 16 4 17 3 18 2 19 1 20
REMARK H PARENT
REMARK Flexibility Score: inf
ROOT
ATOM      1  C   UNL     1      18.073   9.896   3.728  1.00  0.00    -0.031 C 
ATOM      2  C   UNL     1      16.915  10.478   3.381  1.00  0.00    -0.031 C 
ENDROOT
BRANCH   1   3
ATOM      3  C   UNL     1      18.143   8.443   4.110  1.00  0.00     0.027 C 
BRANCH   3   4
ATOM      4  C   UNL     1      17.688   8.227   5.559  1.00  0.00     0.004 C 
BRANCH   4   5
ATOM      5  C   UNL     1      16.271   7.642   5.609  1.00  0.00     0.000 C 
BRANCH   5   6
ATOM      6  C   UNL     1      15.883   7.025   4.257  1.00  0.00     0.000 C 
BRANCH   6   7
ATOM      7  C   UNL     1      14.626   7.668   3.651  1.00  0.00     0.000 C 
BRANCH   7   8
ATOM      8  C   UNL     1      14.631   7.649   2.114  1.00  0.00     0.006 C 
BRANCH   8   9
ATOM      9  C   UNL     1      15.938   7.057   1.579  1.00  0.00     0.053 C 
BRANCH   9  10
ATOM     10  C   UNL     1      15.727   6.454   0.227  1.00  0.00     0.041 C 
ATOM     11  O   UNL     1      15.820   7.165  -0.807  1.00  0.00    -0.550 OA
ATOM     12  O   UNL     1      15.380   5.115   0.111  1.00  0.00    -0.550 OA
ENDBRANCH   9  10
ENDBRANCH   8   9
ENDBRANCH   7   8
ENDBRANCH   6   7
ENDBRANCH   5   6
ENDBRANCH   4   5
ENDBRANCH   3   4
ENDBRANCH   1   3
BRANCH   2  13
ATOM     13  C   UNL     1      16.847  11.931   3.000  1.00  0.00     0.027 C 
BRANCH  13  14
ATOM     14  C   UNL     1      15.407  12.349   2.670  1.00  0.00     0.004 C 
BRANCH  14  15
ATOM     15  C   UNL     1      15.147  13.845   2.921  1.00  0.00     0.000 C 
BRANCH  15  16
ATOM     16  C   UNL     1      15.057  14.712   1.650  1.00  0.00     0.000 C 
BRANCH  16  17
ATOM     17  C   UNL     1      14.402  14.028   0.434  1.00  0.00    -0.000 C 
BRANCH  17  18
ATOM     18  C   UNL     1      14.197  14.937  -0.790  1.00  0.00    -0.000 C 
BRANCH  18  19
ATOM     19  C   UNL     1      12.835  14.728  -1.467  1.00  0.00    -0.003 C 
ATOM     20  C   UNL     1      11.953  13.789  -0.649  1.00  0.00     0.004 C 
ENDBRANCH  18  19
ENDBRANCH  17  18
ENDBRANCH  16  17
ENDBRANCH  15  16
ENDBRANCH  14  15
ENDBRANCH  13  14
ENDBRANCH   2  13
TORSDOF 15
ENDMDL
MODEL 6
REMARK VINA RESULT:    -3.708      2.856      5.910
REMARK INTER + INTRA:          -8.646
REMARK INTER:                  -6.790
REMARK INTRA:                  -1.856
REMARK UNBOUND:                -1.687
REMARK SMILES CCCCCCCCC=CCCCCCCCC(=O)[O-]
REMARK SMILES IDX 10 1 9 2 11 3 12 4 13 5 14 6 15 7 16 8 17 9 18 10 19 11
REMARK SMILES IDX 20 12 8 13 7 14 6 15 5 16 4 17 3 18 2 19 1 20
REMARK H PARENT
REMARK Flexibility Score: inf
ROOT
ATOM      1  C   UNL     1      18.268   9.850   3.643  1.00  0.00    -0.031 C 
ATOM      2  C   UNL     1      17.613   9.308   4.680  1.00  0.00    -0.031 C 
ENDROOT
BRANCH   1   3
ATOM      3  C   UNL     1      17.791  11.115   2.982  1.00  0.00     0.027 C 
BRANCH   3   4
ATOM      4  C   UNL     1      16.349  11.445   3.388  1.00  0.00     0.004 C 
BRANCH   4   5
ATOM      5  C   UNL     1      15.710  12.426   2.398  1.00  0.00     0.000 C 
BRANCH   5   6
ATOM      6  C   UNL     1      15.135  13.648   3.129  1.00  0.00     0.000 C 
BRANCH   6   7
ATOM      7  C   UNL     1      14.873  14.833   2.187  1.00  0.00     0.000 C 
BRANCH   7   8
ATOM      8  C   UNL     1      14.871  14.425   0.705  1.00  0.00     0.006 C 
BRANCH   8   9
ATOM      9  C   UNL     1      13.738  15.124  -0.052  1.00  0.00     0.053 C 
BRANCH   9  10
ATOM     10  C   UNL     1      13.008  14.149  -0.921  1.00  0.00     0.041 C 
ATOM     11  O   UNL     1      12.944  14.332  -2.164  1.00  0.00    -0.550 OA
ATOM     12  O   UNL     1      12.357  13.063  -0.351  1.00  0.00    -0.550 OA
ENDBRANCH   9  10
ENDBRANCH   8   9
ENDBRANCH   7   8
ENDBRANCH   6   7
ENDBRANCH   5   6
ENDBRANCH   4   5
ENDBRANCH   3   4
ENDBRANCH   1   3
BRANCH   2  13
ATOM     13  C   UNL     1      18.090   8.043   5.339  1.00  0.00     0.027 C 
BRANCH  13  14
ATOM     14  C   UNL     1      17.385   6.813   4.748  1.00  0.00     0.004 C 
BRANCH  14  15
ATOM     15  C   UNL     1      17.874   6.468   3.331  1.00  0.00     0.000 C 
BRANCH  15  16
ATOM     16  C   UNL     1      16.917   6.878   2.194  1.00  0.00     0.000 C 
BRANCH  16  17
ATOM     17  C   UNL     1      15.421   6.889   2.568  1.00  0.00    -0.000 C 
BRANCH  17  18
ATOM     18  C   UNL     1      14.756   8.276   2.544  1.00  0.00    -0.000 C 
BRANCH  18  19
ATOM     19  C   UNL     1      14.096   8.644   3.880  1.00  0.00    -0.003 C 
ATOM     20  C   UNL     1      13.956   7.419   4.780  1.00  0.00     0.004 C 
ENDBRANCH  18  19
ENDBRANCH  17  18
ENDBRANCH  16  17
ENDBRANCH  15  16
ENDBRANCH  14  15
ENDBRANCH  13  14
ENDBRANCH   2  13
TORSDOF 15
ENDMDL
MODEL 7
REMARK VINA RESULT:    -3.692      2.647      5.206
REMARK INTER + INTRA:          -8.616
REMARK INTER:                  -7.289
REMARK INTRA:                  -1.327
REMARK UNBOUND:                -1.687
REMARK SMILES CCCCCCCCC=CCCCCCCCC(=O)[O-]
REMARK SMILES IDX 10 1 9 2 11 3 12 4 13 5 14 6 15 7 16 8 17 9 18 10 19 11
REMARK SMILES IDX 20 12 8 13 7 14 6 15 5 16 4 17 3 18 2 19 1 20
REMARK H PARENT
REMARK Flexibility Score: inf
ROOT
ATOM      1  C   UNL     1      16.983  10.202   3.744  1.00  0.00    -0.031 C 
ATOM      2  C   UNL     1      18.268  10.155   3.363  1.00  0.00    -0.031 C 
ENDROOT
BRANCH   1   3
ATOM      3  C   UNL     1      16.011  11.170   3.127  1.00  0.00     0.027 C 
BRANCH   3   4
ATOM      4  C   UNL     1      14.620  10.543   2.977  1.00  0.00     0.004 C 
BRANCH   4   5
ATOM      5  C   UNL     1      14.556   9.177   3.670  1.00  0.00     0.000 C 
BRANCH   5   6
ATOM      6  C   UNL     1      14.630   8.037   2.644  1.00  0.00     0.000 C 
BRANCH   6   7
ATOM      7  C   UNL     1      15.730   7.015   2.971  1.00  0.00     0.000 C 
BRANCH   7   8
ATOM      8  C   UNL     1      16.433   6.476   1.716  1.00  0.00     0.006 C 
BRANCH   8   9
ATOM      9  C   UNL     1      15.799   7.051   0.445  1.00  0.00     0.053 C 
BRANCH   9  10
ATOM     10  C   UNL     1      15.617   5.980  -0.582  1.00  0.00     0.041 C 
ATOM     11  O   UNL     1      15.806   4.773  -0.281  1.00  0.00    -0.550 OA
ATOM     12  O   UNL     1      15.285   6.319  -1.887  1.00  0.00    -0.550 OA
ENDBRANCH   9  10
ENDBRANCH   8   9
ENDBRANCH   7   8
ENDBRANCH   6   7
ENDBRANCH   5   6
ENDBRANCH   4   5
ENDBRANCH   3   4
ENDBRANCH   1   3
BRANCH   2  13
ATOM     13  C   UNL     1      19.239   9.188   3.982  1.00  0.00     0.027 C 
BRANCH  13  14
ATOM     14  C   UNL     1      18.512   7.956   4.540  1.00  0.00     0.004 C 
BRANCH  14  15
ATOM     15  C   UNL     1      18.622   7.841   6.071  1.00  0.00     0.000 C 
BRANCH  15  16
ATOM     16  C   UNL     1      19.765   8.659   6.705  1.00  0.00     0.000 C 
BRANCH  16  17
ATOM     17  C   UNL     1      20.403   8.033   7.961  1.00  0.00    -0.000 C 
BRANCH  17  18
ATOM     18  C   UNL     1      21.513   8.874   8.613  1.00  0.00    -0.000 C 
BRANCH  18  19
ATOM     19  C   UNL     1      22.553   8.018   9.351  1.00  0.00    -0.003 C 
ATOM     20  C   UNL     1      21.889   7.120  10.391  1.00  0.00     0.004 C 
ENDBRANCH  18  19
ENDBRANCH  17  18
ENDBRANCH  16  17
ENDBRANCH  15  16
ENDBRANCH  14  15
ENDBRANCH  13  14
ENDBRANCH   2  13
TORSDOF 15
ENDMDL
MODEL 8
REMARK VINA RESULT:    -3.678      2.520      6.047
REMARK INTER + INTRA:          -8.590
REMARK INTER:                  -7.698
REMARK INTRA:                  -0.892
REMARK UNBOUND:                -1.687
REMARK SMILES CCCCCCCCC=CCCCCCCCC(=O)[O-]
REMARK SMILES IDX 10 1 9 2 11 3 12 4 13 5 14 6 15 7 16 8 17 9 18 10 19 11
REMARK SMILES IDX 20 12 8 13 7 14 6 15 5 16 4 17 3 18 2 19 1 20
REMARK H PARENT
REMARK Flexibility Score: inf
ROOT
ATOM      1  C   UNL     1      18.088   8.957   3.807  1.00  0.00    -0.031 C 
ATOM      2  C   UNL     1      18.109   8.610   5.102  1.00  0.00    -0.031 C 
ENDROOT
BRANCH   1   3
ATOM      3  C   UNL     1      18.707  10.241   3.324  1.00  0.00     0.027 C 
BRANCH   3   4
ATOM      4  C   UNL     1      17.633  11.284   2.988  1.00  0.00     0.004 C 
BRANCH   4   5
ATOM      5  C   UNL     1      16.246  10.809   3.437  1.00  0.00     0.000 C 
BRANCH   5   6
ATOM      6  C   UNL     1      15.163  11.823   3.041  1.00  0.00     0.000 C 
BRANCH   6   7
ATOM      7  C   UNL     1      15.742  13.068   2.352  1.00  0.00     0.000 C 
BRANCH   7   8
ATOM      8  C   UNL     1      14.660  14.088   1.961  1.00  0.00     0.006 C 
BRANCH   8   9
ATOM      9  C   UNL     1      14.926  14.659   0.565  1.00  0.00     0.053 C 
BRANCH   9  10
ATOM     10  C   UNL     1      13.762  14.400  -0.338  1.00  0.00     0.041 C 
ATOM     11  O   UNL     1      13.948  13.955  -1.501  1.00  0.00    -0.550 OA
ATOM     12  O   UNL     1      12.475  14.696   0.087  1.00  0.00    -0.550 OA
ENDBRANCH   9  10
ENDBRANCH   8   9
ENDBRANCH   7   8
ENDBRANCH   6   7
ENDBRANCH   5   6
ENDBRANCH   4   5
ENDBRANCH   3   4
ENDBRANCH   1   3
BRANCH   2  13
ATOM     13  C   UNL     1      17.488   7.328   5.585  1.00  0.00     0.027 C 
BRANCH  13  14
ATOM     14  C   UNL     1      16.418   6.828   4.604  1.00  0.00     0.004 C 
BRANCH  14  15
ATOM     15  C   UNL     1      15.066   7.543   4.780  1.00  0.00     0.000 C 
BRANCH  15  16
ATOM     16  C   UNL     1      14.214   7.649   3.500  1.00  0.00     0.000 C 
BRANCH  16  17
ATOM     17  C   UNL     1      14.993   8.015   2.221  1.00  0.00    -0.000 C 
BRANCH  17  18
ATOM     18  C   UNL     1      15.860   6.884   1.641  1.00  0.00    -0.000 C 
BRANCH  18  19
ATOM     19  C   UNL     1      15.591   6.632   0.151  1.00  0.00    -0.003 C 
ATOM     20  C   UNL     1      15.619   5.140  -0.168  1.00  0.00     0.004 C 
ENDBRANCH  18  19
ENDBRANCH  17  18
ENDBRANCH  16  17
ENDBRANCH  15  16
ENDBRANCH  14  15
ENDBRANCH  13  14
ENDBRANCH   2  13
TORSDOF 15
ENDMDL
MODEL 9
REMARK VINA RESULT:    -3.641      1.049      3.571
REMARK INTER + INTRA:          -8.521
REMARK INTER:                  -6.951
REMARK INTRA:                  -1.570
REMARK UNBOUND:                -1.687
REMARK SMILES CCCCCCCCC=CCCCCCCCC(=O)[O-]
REMARK SMILES IDX 10 1 9 2 11 3 12 4 13 5 14 6 15 7 16 8 17 9 18 10 19 11
REMARK SMILES IDX 20 12 8 13 7 14 6 15 5 16 4 17 3 18 2 19 1 20
REMARK H PARENT
REMARK Flexibility Score: inf
ROOT
ATOM      1  C   UNL     1      14.238   8.820   3.911  1.00  0.00    -0.031 C 
ATOM      2  C   UNL     1      14.775   9.607   2.967  1.00  0.00    -0.031 C 
ENDROOT
BRANCH   1   3
ATOM      3  C   UNL     1      14.399   7.324   3.877  1.00  0.00     0.027 C 
BRANCH   3   4
ATOM      4  C   UNL     1      15.572   6.872   4.755  1.00  0.00     0.004 C 
BRANCH   4   5
ATOM      5  C   UNL     1      16.661   6.198   3.912  1.00  0.00     0.000 C 
BRANCH   5   6
ATOM      6  C   UNL     1      16.858   6.933   2.578  1.00  0.00     0.000 C 
BRANCH   6   7
ATOM      7  C   UNL     1      16.480   6.071   1.364  1.00  0.00     0.000 C 
BRANCH   7   8
ATOM      8  C   UNL     1      15.659   6.842   0.320  1.00  0.00     0.006 C 
BRANCH   8   9
ATOM      9  C   UNL     1      15.376   5.969  -0.907  1.00  0.00     0.053 C 
BRANCH   9  10
ATOM     10  C   UNL     1      15.771   6.682  -2.161  1.00  0.00     0.041 C 
ATOM     11  O   UNL     1      15.385   7.862  -2.368  1.00  0.00    -0.550 OA
ATOM     12  O   UNL     1      16.525   6.026  -3.124  1.00  0.00    -0.550 OA
ENDBRANCH   9  10
ENDBRANCH   8   9
ENDBRANCH   7   8
ENDBRANCH   6   7
ENDBRANCH   5   6
ENDBRANCH   4   5
ENDBRANCH   3   4
ENDBRANCH   1   3
BRANCH   2  13
ATOM     13  C   UNL     1      14.612  11.102   3.001  1.00  0.00     0.027 C 
BRANCH  13  14
ATOM     14  C   UNL     1      15.937  11.810   2.686  1.00  0.00     0.004 C 
BRANCH  14  15
ATOM     15  C   UNL     1      17.067  11.422   3.657  1.00  0.00     0.000 C 
BRANCH  15  16
ATOM     16  C   UNL     1      18.257  10.687   3.009  1.00  0.00     0.000 C 
BRANCH  16  17
ATOM     17  C   UNL     1      18.641   9.348   3.669  1.00  0.00    -0.000 C 
BRANCH  17  18
ATOM     18  C   UNL     1      18.141   9.168   5.113  1.00  0.00    -0.000 C 
BRANCH  18  19
ATOM     19  C   UNL     1      18.895   8.067   5.872  1.00  0.00    -0.003 C 
ATOM     20  C   UNL     1      19.933   8.663   6.817  1.00  0.00     0.004 C 
ENDBRANCH  18  19
ENDBRANCH  17  18
ENDBRANCH  16  17
ENDBRANCH  15  16
ENDBRANCH  14  15
ENDBRANCH  13  14
ENDBRANCH   2  13
TORSDOF 15
ENDMDL
