MODEL 1
REMARK VINA RESULT:    -6.962      0.000      0.000
REMARK INTER + INTRA:          -7.844
REMARK INTER:                  -7.573
REMARK INTRA:                  -0.271
REMARK UNBOUND:                -0.271
REMARK SMILES C[C@@H]1[C@H](C)CC[C@]2(C(=O)[O-])CC[C@@]3(C)C(=CC[C@@H]4[C@@]5(C)CC[C@H](O)C(C)(C)[C@@H]5CC[C@@]43C)[C@H]12
REMARK SMILES IDX 7 1 6 2 11 3 33 4 5 5 12 6 15 7 2 8 3 9 13 10 16 11 1 12
REMARK SMILES IDX 4 13 14 14 31 15 17 16 18 17 30 18 32 19 19 20 29 21 28 22
REMARK SMILES IDX 21 23 20 24 25 25 22 26 23 27 26 28 27 29 8 30 9 31 10 32
REMARK SMILES IDX 24 33
REMARK H PARENT 24 34
REMARK Flexibility Score: inf
ROOT
ATOM      1  C   UNL     1      13.014  32.176  56.034  1.00  0.00     0.017 C 
ATOM      2  C   UNL     1      11.932  32.353  57.146  1.00  0.00     0.014 C 
ATOM      3  C   UNL     1      13.868  33.481  55.999  1.00  0.00     0.014 C 
ATOM      4  C   UNL     1      12.378  31.936  54.588  1.00  0.00     0.030 C 
ATOM      5  C   UNL     1      10.795  31.301  57.117  1.00  0.00     0.004 C 
ATOM      6  C   UNL     1      14.972  33.491  54.913  1.00  0.00     0.013 C 
ATOM      7  C   UNL     1      13.036  32.825  53.500  1.00  0.00    -0.063 C 
ATOM      8  C   UNL     1      10.810  31.871  54.615  1.00  0.00    -0.003 C 
ATOM      9  C   UNL     1      10.406  30.834  55.694  1.00  0.00    -0.011 C 
ATOM     10  C   UNL     1      14.566  32.916  53.497  1.00  0.00    -0.006 C 
ATOM     11  C   UNL     1      12.303  33.601  52.695  1.00  0.00    -0.027 C 
ATOM     12  C   UNL     1      10.093  33.237  54.830  1.00  0.00     0.008 C 
ATOM     13  C   UNL     1       8.926  30.434  55.605  1.00  0.00     0.008 C 
ATOM     14  C   UNL     1      15.123  31.456  53.363  1.00  0.00     0.017 C 
ATOM     15  C   UNL     1      15.177  33.795  52.278  1.00  0.00    -0.020 C 
ATOM     16  C   UNL     1      12.836  34.730  51.878  1.00  0.00     0.032 C 
ATOM     17  C   UNL     1      14.342  35.125  52.059  1.00  0.00     0.006 C 
ATOM     18  C   UNL     1      15.123  33.006  50.906  1.00  0.00     0.008 C 
ATOM     19  C   UNL     1      16.683  34.088  52.651  1.00  0.00     0.012 C 
ATOM     20  C   UNL     1      14.849  36.091  50.846  1.00  0.00    -0.025 C 
ATOM     21  C   UNL     1      15.148  33.864  49.603  1.00  0.00     0.005 C 
ATOM     22  C   UNL     1      15.733  35.272  49.839  1.00  0.00     0.003 C 
ATOM     23  C   UNL     1      15.740  37.262  51.370  1.00  0.00     0.010 C 
ATOM     24  C   UNL     1      13.617  36.769  50.151  1.00  0.00     0.012 C 
ATOM     25  C   UNL     1      16.326  36.049  48.601  1.00  0.00    -0.006 C 
ATOM     26  C   UNL     1      16.358  38.125  50.238  1.00  0.00     0.033 C 
ATOM     27  C   UNL     1      17.108  37.295  49.161  1.00  0.00     0.120 C 
ATOM     28  C   UNL     1      17.375  35.152  47.879  1.00  0.00     0.014 C 
ATOM     29  C   UNL     1      15.263  36.433  47.535  1.00  0.00     0.014 C 
ENDROOT
BRANCH   1  30
ATOM     30  C   UNL     1      13.874  30.996  56.483  1.00  0.00     0.048 C 
ATOM     31  O   UNL     1      14.657  31.108  57.465  1.00  0.00    -0.550 OA
ATOM     32  O   UNL     1      13.743  29.749  55.881  1.00  0.00    -0.550 OA
ENDBRANCH   1  30
BRANCH  27  33
ATOM     33  O   UNL     1      17.580  38.125  48.126  1.00  0.00    -0.393 OA
ATOM     34  H   UNL     1      17.950  37.546  47.410  1.00  0.00     0.210 HD
ENDBRANCH  27  33
TORSDOF 2
ENDMDL
MODEL 2
REMARK VINA RESULT:    -6.448      0.976      1.176
REMARK INTER + INTRA:          -7.284
REMARK INTER:                  -7.047
REMARK INTRA:                  -0.237
REMARK UNBOUND:                -0.271
REMARK SMILES C[C@@H]1[C@H](C)CC[C@]2(C(=O)[O-])CC[C@@]3(C)C(=CC[C@@H]4[C@@]5(C)CC[C@H](O)C(C)(C)[C@@H]5CC[C@@]43C)[C@H]12
REMARK SMILES IDX 7 1 6 2 11 3 33 4 5 5 12 6 15 7 2 8 3 9 13 10 16 11 1 12
REMARK SMILES IDX 4 13 14 14 31 15 17 16 18 17 30 18 32 19 19 20 29 21 28 22
REMARK SMILES IDX 21 23 20 24 25 25 22 26 23 27 26 28 27 29 8 30 9 31 10 32
REMARK SMILES IDX 24 33
REMARK H PARENT 24 34
REMARK Flexibility Score: inf
ROOT
ATOM      1  C   UNL     1      14.280  31.851  56.240  1.00  0.00     0.017 C 
ATOM      2  C   UNL     1      13.601  32.013  57.637  1.00  0.00     0.014 C 
ATOM      3  C   UNL     1      15.228  33.072  56.036  1.00  0.00     0.014 C 
ATOM      4  C   UNL     1      13.223  31.813  55.043  1.00  0.00     0.030 C 
ATOM      5  C   UNL     1      12.394  31.074  57.884  1.00  0.00     0.004 C 
ATOM      6  C   UNL     1      15.957  33.091  54.670  1.00  0.00     0.013 C 
ATOM      7  C   UNL     1      13.628  32.743  53.869  1.00  0.00    -0.063 C 
ATOM      8  C   UNL     1      11.736  31.884  55.540  1.00  0.00    -0.003 C 
ATOM      9  C   UNL     1      11.552  30.786  56.617  1.00  0.00    -0.011 C 
ATOM     10  C   UNL     1      15.089  32.698  53.408  1.00  0.00    -0.006 C 
ATOM     11  C   UNL     1      12.784  33.657  53.379  1.00  0.00    -0.027 C 
ATOM     12  C   UNL     1      11.276  33.281  56.054  1.00  0.00     0.008 C 
ATOM     13  C   UNL     1      10.076  30.529  56.955  1.00  0.00     0.008 C 
ATOM     14  C   UNL     1      15.411  31.214  53.013  1.00  0.00     0.017 C 
ATOM     15  C   UNL     1      15.410  33.636  52.123  1.00  0.00    -0.020 C 
ATOM     16  C   UNL     1      13.178  34.809  52.518  1.00  0.00     0.032 C 
ATOM     17  C   UNL     1      14.705  35.049  52.259  1.00  0.00     0.006 C 
ATOM     18  C   UNL     1      14.863  32.994  50.783  1.00  0.00     0.008 C 
ATOM     19  C   UNL     1      16.981  33.755  52.041  1.00  0.00     0.012 C 
ATOM     20  C   UNL     1      14.939  36.082  51.018  1.00  0.00    -0.025 C 
ATOM     21  C   UNL     1      14.601  33.971  49.595  1.00  0.00     0.005 C 
ATOM     22  C   UNL     1      15.387  35.291  49.737  1.00  0.00     0.003 C 
ATOM     23  C   UNL     1      16.073  37.112  51.324  1.00  0.00     0.010 C 
ATOM     24  C   UNL     1      13.643  36.932  50.777  1.00  0.00     0.012 C 
ATOM     25  C   UNL     1      15.674  36.132  48.433  1.00  0.00    -0.006 C 
ATOM     26  C   UNL     1      16.424  38.024  50.119  1.00  0.00     0.033 C 
ATOM     27  C   UNL     1      16.723  37.242  48.813  1.00  0.00     0.120 C 
ATOM     28  C   UNL     1      16.353  35.221  47.368  1.00  0.00     0.014 C 
ATOM     29  C   UNL     1      14.395  36.712  47.768  1.00  0.00     0.014 C 
ENDROOT
BRANCH   1  30
ATOM     30  C   UNL     1      15.093  30.561  56.326  1.00  0.00     0.048 C 
ATOM     31  O   UNL     1      14.705  29.515  55.739  1.00  0.00    -0.550 OA
ATOM     32  O   UNL     1      16.326  30.538  56.971  1.00  0.00    -0.550 OA
ENDBRANCH   1  30
BRANCH  27  33
ATOM     33  O   UNL     1      16.960  38.125  47.741  1.00  0.00    -0.393 OA
ATOM     34  H   UNL     1      17.500  38.886  48.081  1.00  0.00     0.210 HD
ENDBRANCH  27  33
TORSDOF 2
ENDMDL
MODEL 3
REMARK VINA RESULT:    -6.396      1.808      3.916
REMARK INTER + INTRA:          -7.228
REMARK INTER:                  -6.954
REMARK INTRA:                  -0.274
REMARK UNBOUND:                -0.271
REMARK SMILES C[C@@H]1[C@H](C)CC[C@]2(C(=O)[O-])CC[C@@]3(C)C(=CC[C@@H]4[C@@]5(C)CC[C@H](O)C(C)(C)[C@@H]5CC[C@@]43C)[C@H]12
REMARK SMILES IDX 7 1 6 2 11 3 33 4 5 5 12 6 15 7 2 8 3 9 13 10 16 11 1 12
REMARK SMILES IDX 4 13 14 14 31 15 17 16 18 17 30 18 32 19 19 20 29 21 28 22
REMARK SMILES IDX 21 23 20 24 25 25 22 26 23 27 26 28 27 29 8 30 9 31 10 32
REMARK SMILES IDX 24 33
REMARK H PARENT 24 34
REMARK Flexibility Score: inf
ROOT
ATOM      1  C   UNL     1      14.089  31.298  55.744  1.00  0.00     0.017 C 
ATOM      2  C   UNL     1      14.490  30.027  56.557  1.00  0.00     0.014 C 
ATOM      3  C   UNL     1      14.049  30.896  54.237  1.00  0.00     0.014 C 
ATOM      4  C   UNL     1      15.124  32.501  55.930  1.00  0.00     0.030 C 
ATOM      5  C   UNL     1      14.892  30.299  58.029  1.00  0.00     0.004 C 
ATOM      6  C   UNL     1      13.704  32.061  53.276  1.00  0.00     0.013 C 
ATOM      7  C   UNL     1      15.522  33.149  54.578  1.00  0.00    -0.063 C 
ATOM      8  C   UNL     1      16.280  32.160  56.936  1.00  0.00    -0.003 C 
ATOM      9  C   UNL     1      15.624  31.646  58.242  1.00  0.00    -0.011 C 
ATOM     10  C   UNL     1      14.396  33.449  53.583  1.00  0.00    -0.006 C 
ATOM     11  C   UNL     1      16.804  33.302  54.228  1.00  0.00    -0.027 C 
ATOM     12  C   UNL     1      17.354  31.167  56.399  1.00  0.00     0.008 C 
ATOM     13  C   UNL     1      16.612  31.583  59.416  1.00  0.00     0.008 C 
ATOM     14  C   UNL     1      13.365  34.382  54.308  1.00  0.00     0.017 C 
ATOM     15  C   UNL     1      14.887  34.203  52.232  1.00  0.00    -0.020 C 
ATOM     16  C   UNL     1      17.284  33.577  52.843  1.00  0.00     0.032 C 
ATOM     17  C   UNL     1      16.232  33.571  51.681  1.00  0.00     0.006 C 
ATOM     18  C   UNL     1      15.193  35.734  52.498  1.00  0.00     0.008 C 
ATOM     19  C   UNL     1      13.700  34.082  51.199  1.00  0.00     0.012 C 
ATOM     20  C   UNL     1      16.838  34.255  50.330  1.00  0.00    -0.025 C 
ATOM     21  C   UNL     1      16.159  36.440  51.497  1.00  0.00     0.005 C 
ATOM     22  C   UNL     1      16.247  35.699  50.146  1.00  0.00     0.003 C 
ATOM     23  C   UNL     1      16.454  33.450  49.048  1.00  0.00     0.010 C 
ATOM     24  C   UNL     1      18.405  34.250  50.385  1.00  0.00     0.012 C 
ATOM     25  C   UNL     1      16.713  36.514  48.878  1.00  0.00    -0.006 C 
ATOM     26  C   UNL     1      16.891  34.140  47.729  1.00  0.00     0.033 C 
ATOM     27  C   UNL     1      16.430  35.617  47.616  1.00  0.00     0.120 C 
ATOM     28  C   UNL     1      15.831  37.788  48.729  1.00  0.00     0.014 C 
ATOM     29  C   UNL     1      18.186  37.001  48.954  1.00  0.00     0.014 C 
ENDROOT
BRANCH   1  30
ATOM     30  C   UNL     1      12.688  31.669  56.227  1.00  0.00     0.048 C 
ATOM     31  O   UNL     1      11.690  30.970  55.904  1.00  0.00    -0.550 OA
ATOM     32  O   UNL     1      12.496  32.728  57.110  1.00  0.00    -0.550 OA
ENDBRANCH   1  30
BRANCH  27  33
ATOM     33  O   UNL     1      16.919  36.208  46.435  1.00  0.00    -0.393 OA
ATOM     34  H   UNL     1      16.200  36.772  46.049  1.00  0.00     0.210 HD
ENDBRANCH  27  33
TORSDOF 2
ENDMDL
MODEL 4
REMARK VINA RESULT:    -6.187      2.223      8.387
REMARK INTER + INTRA:          -7.001
REMARK INTER:                  -6.729
REMARK INTRA:                  -0.273
REMARK UNBOUND:                -0.271
REMARK SMILES C[C@@H]1[C@H](C)CC[C@]2(C(=O)[O-])CC[C@@]3(C)C(=CC[C@@H]4[C@@]5(C)CC[C@H](O)C(C)(C)[C@@H]5CC[C@@]43C)[C@H]12
REMARK SMILES IDX 7 1 6 2 11 3 33 4 5 5 12 6 15 7 2 8 3 9 13 10 16 11 1 12
REMARK SMILES IDX 4 13 14 14 31 15 17 16 18 17 30 18 32 19 19 20 29 21 28 22
REMARK SMILES IDX 21 23 20 24 25 25 22 26 23 27 26 28 27 29 8 30 9 31 10 32
REMARK SMILES IDX 24 33
REMARK H PARENT 24 34
REMARK Flexibility Score: inf
ROOT
ATOM      1  C   UNL     1      16.454  33.706  50.566  1.00  0.00     0.017 C 
ATOM      2  C   UNL     1      15.880  34.323  49.251  1.00  0.00     0.014 C 
ATOM      3  C   UNL     1      15.669  32.387  50.845  1.00  0.00     0.014 C 
ATOM      4  C   UNL     1      16.295  34.678  51.823  1.00  0.00     0.030 C 
ATOM      5  C   UNL     1      16.309  35.787  48.981  1.00  0.00     0.004 C 
ATOM      6  C   UNL     1      16.088  31.661  52.147  1.00  0.00     0.013 C 
ATOM      7  C   UNL     1      15.730  33.944  53.067  1.00  0.00    -0.063 C 
ATOM      8  C   UNL     1      15.655  36.060  51.447  1.00  0.00    -0.003 C 
ATOM      9  C   UNL     1      16.464  36.643  50.262  1.00  0.00    -0.011 C 
ATOM     10  C   UNL     1      16.333  32.578  53.412  1.00  0.00    -0.006 C 
ATOM     11  C   UNL     1      14.661  34.405  53.724  1.00  0.00    -0.027 C 
ATOM     12  C   UNL     1      14.128  36.021  51.140  1.00  0.00     0.008 C 
ATOM     13  C   UNL     1      16.155  38.125  50.004  1.00  0.00     0.008 C 
ATOM     14  C   UNL     1      17.877  32.780  53.601  1.00  0.00     0.017 C 
ATOM     15  C   UNL     1      15.747  31.917  54.774  1.00  0.00    -0.020 C 
ATOM     16  C   UNL     1      13.841  33.613  54.687  1.00  0.00     0.032 C 
ATOM     17  C   UNL     1      14.174  32.091  54.861  1.00  0.00     0.006 C 
ATOM     18  C   UNL     1      16.343  32.616  56.063  1.00  0.00     0.008 C 
ATOM     19  C   UNL     1      16.182  30.400  54.756  1.00  0.00     0.012 C 
ATOM     20  C   UNL     1      13.464  31.480  56.197  1.00  0.00    -0.025 C 
ATOM     21  C   UNL     1      15.509  32.491  57.376  1.00  0.00     0.005 C 
ATOM     22  C   UNL     1      14.529  31.300  57.337  1.00  0.00     0.003 C 
ATOM     23  C   UNL     1      12.849  30.068  55.935  1.00  0.00     0.010 C 
ATOM     24  C   UNL     1      12.266  32.394  56.632  1.00  0.00     0.012 C 
ATOM     25  C   UNL     1      14.025  30.705  58.709  1.00  0.00    -0.006 C 
ATOM     26  C   UNL     1      12.286  29.391  57.212  1.00  0.00     0.033 C 
ATOM     27  C   UNL     1      13.296  29.347  58.390  1.00  0.00     0.120 C 
ATOM     28  C   UNL     1      15.250  30.356  59.604  1.00  0.00     0.014 C 
ATOM     29  C   UNL     1      13.141  31.685  59.530  1.00  0.00     0.014 C 
ENDROOT
BRANCH   1  30
ATOM     30  C   UNL     1      17.919  33.393  50.266  1.00  0.00     0.048 C 
ATOM     31  O   UNL     1      18.230  32.429  49.514  1.00  0.00    -0.550 OA
ATOM     32  O   UNL     1      18.935  34.219  50.737  1.00  0.00    -0.550 OA
ENDBRANCH   1  30
BRANCH  27  33
ATOM     33  O   UNL     1      12.704  28.789  59.539  1.00  0.00    -0.393 OA
ATOM     34  H   UNL     1      11.793  28.477  59.298  1.00  0.00     0.210 HD
ENDBRANCH  27  33
TORSDOF 2
ENDMDL
MODEL 5
REMARK VINA RESULT:    -6.185      1.964      2.739
REMARK INTER + INTRA:          -6.999
REMARK INTER:                  -6.725
REMARK INTRA:                  -0.274
REMARK UNBOUND:                -0.271
REMARK SMILES C[C@@H]1[C@H](C)CC[C@]2(C(=O)[O-])CC[C@@]3(C)C(=CC[C@@H]4[C@@]5(C)CC[C@H](O)C(C)(C)[C@@H]5CC[C@@]43C)[C@H]12
REMARK SMILES IDX 7 1 6 2 11 3 33 4 5 5 12 6 15 7 2 8 3 9 13 10 16 11 1 12
REMARK SMILES IDX 4 13 14 14 31 15 17 16 18 17 30 18 32 19 19 20 29 21 28 22
REMARK SMILES IDX 21 23 20 24 25 25 22 26 23 27 26 28 27 29 8 30 9 31 10 32
REMARK SMILES IDX 24 33
REMARK H PARENT 24 34
REMARK Flexibility Score: inf
ROOT
ATOM      1  C   UNL     1      16.113  31.898  55.184  1.00  0.00     0.017 C 
ATOM      2  C   UNL     1      16.187  32.162  56.721  1.00  0.00     0.014 C 
ATOM      3  C   UNL     1      16.953  33.007  54.478  1.00  0.00     0.014 C 
ATOM      4  C   UNL     1      14.619  31.946  54.622  1.00  0.00     0.030 C 
ATOM      5  C   UNL     1      15.164  31.362  57.566  1.00  0.00     0.004 C 
ATOM      6  C   UNL     1      16.953  32.918  52.932  1.00  0.00     0.013 C 
ATOM      7  C   UNL     1      14.501  32.801  53.333  1.00  0.00    -0.063 C 
ATOM      8  C   UNL     1      13.552  32.186  55.748  1.00  0.00    -0.003 C 
ATOM      9  C   UNL     1      13.804  31.138  56.860  1.00  0.00    -0.011 C 
ATOM     10  C   UNL     1      15.564  32.591  52.250  1.00  0.00    -0.006 C 
ATOM     11  C   UNL     1      13.605  33.789  53.230  1.00  0.00    -0.027 C 
ATOM     12  C   UNL     1      13.505  33.634  56.319  1.00  0.00     0.008 C 
ATOM     13  C   UNL     1      12.645  31.046  57.863  1.00  0.00     0.008 C 
ATOM     14  C   UNL     1      15.538  31.073  51.855  1.00  0.00     0.017 C 
ATOM     15  C   UNL     1      15.321  33.461  50.902  1.00  0.00    -0.020 C 
ATOM     16  C   UNL     1      13.642  34.873  52.207  1.00  0.00     0.032 C 
ATOM     17  C   UNL     1      14.883  34.944  51.251  1.00  0.00     0.006 C 
ATOM     18  C   UNL     1      14.157  32.851  50.018  1.00  0.00     0.008 C 
ATOM     19  C   UNL     1      16.673  33.411  50.089  1.00  0.00     0.012 C 
ATOM     20  C   UNL     1      14.592  35.918  49.975  1.00  0.00    -0.025 C 
ATOM     21  C   UNL     1      13.450  33.824  49.023  1.00  0.00     0.005 C 
ATOM     22  C   UNL     1      14.317  35.056  48.691  1.00  0.00     0.003 C 
ATOM     23  C   UNL     1      15.817  36.828  49.647  1.00  0.00     0.010 C 
ATOM     24  C   UNL     1      13.410  36.895  50.307  1.00  0.00     0.012 C 
ATOM     25  C   UNL     1      14.026  35.832  47.349  1.00  0.00    -0.006 C 
ATOM     26  C   UNL     1      15.635  37.671  48.357  1.00  0.00     0.033 C 
ATOM     27  C   UNL     1      15.219  36.833  47.119  1.00  0.00     0.120 C 
ATOM     28  C   UNL     1      14.047  34.831  46.156  1.00  0.00     0.014 C 
ATOM     29  C   UNL     1      12.638  36.530  47.317  1.00  0.00     0.014 C 
ENDROOT
BRANCH   1  30
ATOM     30  C   UNL     1      16.761  30.531  54.971  1.00  0.00     0.048 C 
ATOM     31  O   UNL     1      18.010  30.388  55.073  1.00  0.00    -0.550 OA
ATOM     32  O   UNL     1      15.982  29.399  54.754  1.00  0.00    -0.550 OA
ENDBRANCH   1  30
BRANCH  27  33
ATOM     33  O   UNL     1      14.998  37.661  46.002  1.00  0.00    -0.393 OA
ATOM     34  H   UNL     1      14.092  37.467  45.646  1.00  0.00     0.210 HD
ENDBRANCH  27  33
TORSDOF 2
ENDMDL
MODEL 6
REMARK VINA RESULT:    -6.124      2.183      8.469
REMARK INTER + INTRA:          -6.932
REMARK INTER:                  -6.660
REMARK INTRA:                  -0.272
REMARK UNBOUND:                -0.271
REMARK SMILES C[C@@H]1[C@H](C)CC[C@]2(C(=O)[O-])CC[C@@]3(C)C(=CC[C@@H]4[C@@]5(C)CC[C@H](O)C(C)(C)[C@@H]5CC[C@@]43C)[C@H]12
REMARK SMILES IDX 7 1 6 2 11 3 33 4 5 5 12 6 15 7 2 8 3 9 13 10 16 11 1 12
REMARK SMILES IDX 4 13 14 14 31 15 17 16 18 17 30 18 32 19 19 20 29 21 28 22
REMARK SMILES IDX 21 23 20 24 25 25 22 26 23 27 26 28 27 29 8 30 9 31 10 32
REMARK SMILES IDX 24 33
REMARK H PARENT 24 34
REMARK Flexibility Score: inf
ROOT
ATOM      1  C   UNL     1      13.762  35.983  49.251  1.00  0.00     0.017 C 
ATOM      2  C   UNL     1      14.446  37.366  49.009  1.00  0.00     0.014 C 
ATOM      3  C   UNL     1      12.447  36.245  50.049  1.00  0.00     0.014 C 
ATOM      4  C   UNL     1      14.681  34.979  50.086  1.00  0.00     0.030 C 
ATOM      5  C   UNL     1      15.912  37.286  48.515  1.00  0.00     0.004 C 
ATOM      6  C   UNL     1      11.657  34.963  50.413  1.00  0.00     0.013 C 
ATOM      7  C   UNL     1      13.904  34.288  51.238  1.00  0.00    -0.063 C 
ATOM      8  C   UNL     1      16.090  35.580  50.424  1.00  0.00    -0.003 C 
ATOM      9  C   UNL     1      16.708  36.094  49.099  1.00  0.00    -0.011 C 
ATOM     10  C   UNL     1      12.514  33.732  50.914  1.00  0.00    -0.006 C 
ATOM     11  C   UNL     1      14.357  34.310  52.496  1.00  0.00    -0.027 C 
ATOM     12  C   UNL     1      16.093  36.681  51.527  1.00  0.00     0.008 C 
ATOM     13  C   UNL     1      18.206  36.411  49.227  1.00  0.00     0.008 C 
ATOM     14  C   UNL     1      12.678  32.713  49.733  1.00  0.00     0.017 C 
ATOM     15  C   UNL     1      11.806  32.953  52.149  1.00  0.00    -0.020 C 
ATOM     16  C   UNL     1      13.539  33.997  53.704  1.00  0.00     0.032 C 
ATOM     17  C   UNL     1      12.005  33.740  53.510  1.00  0.00     0.006 C 
ATOM     18  C   UNL     1      12.437  31.517  52.370  1.00  0.00     0.008 C 
ATOM     19  C   UNL     1      10.283  32.798  51.764  1.00  0.00     0.012 C 
ATOM     20  C   UNL     1      11.350  33.048  54.834  1.00  0.00    -0.025 C 
ATOM     21  C   UNL     1      12.271  30.890  53.789  1.00  0.00     0.005 C 
ATOM     22  C   UNL     1      11.101  31.518  54.575  1.00  0.00     0.003 C 
ATOM     23  C   UNL     1       9.963  33.670  55.191  1.00  0.00     0.010 C 
ATOM     24  C   UNL     1      12.267  33.304  56.081  1.00  0.00     0.012 C 
ATOM     25  C   UNL     1      10.457  30.682  55.747  1.00  0.00    -0.006 C 
ATOM     26  C   UNL     1       9.242  32.949  56.359  1.00  0.00     0.033 C 
ATOM     27  C   UNL     1       9.127  31.413  56.167  1.00  0.00     0.120 C 
ATOM     28  C   UNL     1      10.046  29.277  55.217  1.00  0.00     0.014 C 
ATOM     29  C   UNL     1      11.417  30.440  56.945  1.00  0.00     0.014 C 
ENDROOT
BRANCH   1  30
ATOM     30  C   UNL     1      13.434  35.439  47.862  1.00  0.00     0.048 C 
ATOM     31  O   UNL     1      12.507  35.947  47.174  1.00  0.00    -0.550 OA
ATOM     32  O   UNL     1      14.211  34.438  47.287  1.00  0.00    -0.550 OA
ENDBRANCH   1  30
BRANCH  27  33
ATOM     33  O   UNL     1       8.532  30.808  57.291  1.00  0.00    -0.393 OA
ATOM     34  H   UNL     1       7.809  30.207  56.973  1.00  0.00     0.210 HD
ENDBRANCH  27  33
TORSDOF 2
ENDMDL
MODEL 7
REMARK VINA RESULT:    -6.082     12.012     14.688
REMARK INTER + INTRA:          -6.886
REMARK INTER:                  -6.615
REMARK INTRA:                  -0.272
REMARK UNBOUND:                -0.271
REMARK SMILES C[C@@H]1[C@H](C)CC[C@]2(C(=O)[O-])CC[C@@]3(C)C(=CC[C@@H]4[C@@]5(C)CC[C@H](O)C(C)(C)[C@@H]5CC[C@@]43C)[C@H]12
REMARK SMILES IDX 7 1 6 2 11 3 33 4 5 5 12 6 15 7 2 8 3 9 13 10 16 11 1 12
REMARK SMILES IDX 4 13 14 14 31 15 17 16 18 17 30 18 32 19 19 20 29 21 28 22
REMARK SMILES IDX 21 23 20 24 25 25 22 26 23 27 26 28 27 29 8 30 9 31 10 32
REMARK SMILES IDX 24 33
REMARK H PARENT 24 34
REMARK Flexibility Score: inf
ROOT
ATOM      1  C   UNL     1      17.300  20.162  55.056  1.00  0.00     0.017 C 
ATOM      2  C   UNL     1      18.655  20.603  55.693  1.00  0.00     0.014 C 
ATOM      3  C   UNL     1      17.622  19.102  53.957  1.00  0.00     0.014 C 
ATOM      4  C   UNL     1      16.510  21.377  54.385  1.00  0.00     0.030 C 
ATOM      5  C   UNL     1      18.573  21.873  56.577  1.00  0.00     0.004 C 
ATOM      6  C   UNL     1      16.381  18.583  53.189  1.00  0.00     0.013 C 
ATOM      7  C   UNL     1      15.988  21.029  52.966  1.00  0.00    -0.063 C 
ATOM      8  C   UNL     1      17.240  22.754  54.569  1.00  0.00    -0.003 C 
ATOM      9  C   UNL     1      17.548  22.921  56.078  1.00  0.00    -0.011 C 
ATOM     10  C   UNL     1      15.307  19.670  52.781  1.00  0.00    -0.006 C 
ATOM     11  C   UNL     1      16.255  21.810  51.914  1.00  0.00    -0.027 C 
ATOM     12  C   UNL     1      18.514  22.950  53.694  1.00  0.00     0.008 C 
ATOM     13  C   UNL     1      17.966  24.353  56.443  1.00  0.00     0.008 C 
ATOM     14  C   UNL     1      14.109  19.603  53.791  1.00  0.00     0.017 C 
ATOM     15  C   UNL     1      14.716  19.420  51.290  1.00  0.00    -0.020 C 
ATOM     16  C   UNL     1      16.112  21.400  50.487  1.00  0.00     0.032 C 
ATOM     17  C   UNL     1      15.739  19.909  50.182  1.00  0.00     0.006 C 
ATOM     18  C   UNL     1      13.379  20.234  51.050  1.00  0.00     0.008 C 
ATOM     19  C   UNL     1      14.411  17.875  51.185  1.00  0.00     0.012 C 
ATOM     20  C   UNL     1      15.252  19.725  48.635  1.00  0.00    -0.025 C 
ATOM     21  C   UNL     1      13.000  20.537  49.567  1.00  0.00     0.005 C 
ATOM     22  C   UNL     1      13.689  19.575  48.577  1.00  0.00     0.003 C 
ATOM     23  C   UNL     1      15.848  18.436  47.987  1.00  0.00     0.010 C 
ATOM     24  C   UNL     1      15.773  20.922  47.765  1.00  0.00     0.012 C 
ATOM     25  C   UNL     1      13.036  19.374  47.155  1.00  0.00    -0.006 C 
ATOM     26  C   UNL     1      15.302  18.149  46.563  1.00  0.00     0.033 C 
ATOM     27  C   UNL     1      13.752  18.146  46.480  1.00  0.00     0.120 C 
ATOM     28  C   UNL     1      11.539  18.981  47.324  1.00  0.00     0.014 C 
ATOM     29  C   UNL     1      13.061  20.650  46.269  1.00  0.00     0.014 C 
ENDROOT
BRANCH   1  30
ATOM     30  C   UNL     1      16.504  19.518  56.190  1.00  0.00     0.048 C 
ATOM     31  O   UNL     1      16.842  18.397  56.657  1.00  0.00    -0.550 OA
ATOM     32  O   UNL     1      15.450  20.196  56.794  1.00  0.00    -0.550 OA
ENDBRANCH   1  30
BRANCH  27  33
ATOM     33  O   UNL     1      13.321  17.954  45.153  1.00  0.00    -0.393 OA
ATOM     34  H   UNL     1      12.624  17.247  45.153  1.00  0.00     0.210 HD
ENDBRANCH  27  33
TORSDOF 2
ENDMDL
MODEL 8
REMARK VINA RESULT:    -6.075      1.534      8.292
REMARK INTER + INTRA:          -6.879
REMARK INTER:                  -6.608
REMARK INTRA:                  -0.271
REMARK UNBOUND:                -0.271
REMARK SMILES C[C@@H]1[C@H](C)CC[C@]2(C(=O)[O-])CC[C@@]3(C)C(=CC[C@@H]4[C@@]5(C)CC[C@H](O)C(C)(C)[C@@H]5CC[C@@]43C)[C@H]12
REMARK SMILES IDX 7 1 6 2 11 3 33 4 5 5 12 6 15 7 2 8 3 9 13 10 16 11 1 12
REMARK SMILES IDX 4 13 14 14 31 15 17 16 18 17 30 18 32 19 19 20 29 21 28 22
REMARK SMILES IDX 21 23 20 24 25 25 22 26 23 27 26 28 27 29 8 30 9 31 10 32
REMARK SMILES IDX 24 33
REMARK H PARENT 24 34
REMARK Flexibility Score: inf
ROOT
ATOM      1  C   UNL     1      16.737  35.685  48.516  1.00  0.00     0.017 C 
ATOM      2  C   UNL     1      16.855  35.527  46.967  1.00  0.00     0.014 C 
ATOM      3  C   UNL     1      17.289  34.376  49.162  1.00  0.00     0.014 C 
ATOM      4  C   UNL     1      15.231  35.904  49.000  1.00  0.00     0.030 C 
ATOM      5  C   UNL     1      16.071  36.582  46.147  1.00  0.00     0.004 C 
ATOM      6  C   UNL     1      17.208  34.347  50.709  1.00  0.00     0.013 C 
ATOM      7  C   UNL     1      14.861  34.997  50.203  1.00  0.00    -0.063 C 
ATOM      8  C   UNL     1      14.212  35.974  47.808  1.00  0.00    -0.003 C 
ATOM      9  C   UNL     1      14.742  37.028  46.804  1.00  0.00    -0.011 C 
ATOM     10  C   UNL     1      15.873  34.902  51.350  1.00  0.00    -0.006 C 
ATOM     11  C   UNL     1      13.779  34.211  50.178  1.00  0.00    -0.027 C 
ATOM     12  C   UNL     1      13.911  34.613  47.113  1.00  0.00     0.008 C 
ATOM     13  C   UNL     1      13.691  37.432  45.759  1.00  0.00     0.008 C 
ATOM     14  C   UNL     1      16.128  36.358  51.873  1.00  0.00     0.017 C 
ATOM     15  C   UNL     1      15.373  34.002  52.604  1.00  0.00    -0.020 C 
ATOM     16  C   UNL     1      13.531  33.068  51.104  1.00  0.00     0.032 C 
ATOM     17  C   UNL     1      14.668  32.672  52.108  1.00  0.00     0.006 C 
ATOM     18  C   UNL     1      14.302  34.770  53.481  1.00  0.00     0.008 C 
ATOM     19  C   UNL     1      16.652  33.711  53.482  1.00  0.00     0.012 C 
ATOM     20  C   UNL     1      14.105  31.685  53.279  1.00  0.00    -0.025 C 
ATOM     21  C   UNL     1      13.350  33.893  54.354  1.00  0.00     0.005 C 
ATOM     22  C   UNL     1      13.928  32.487  54.618  1.00  0.00     0.003 C 
ATOM     23  C   UNL     1      15.099  30.520  53.585  1.00  0.00     0.010 C 
ATOM     24  C   UNL     1      12.775  31.001  52.808  1.00  0.00     0.012 C 
ATOM     25  C   UNL     1      13.401  31.689  55.873  1.00  0.00    -0.006 C 
ATOM     26  C   UNL     1      14.668  29.639  54.787  1.00  0.00     0.033 C 
ATOM     27  C   UNL     1      14.351  30.449  56.072  1.00  0.00     0.120 C 
ATOM     28  C   UNL     1      13.547  32.572  57.147  1.00  0.00     0.014 C 
ATOM     29  C   UNL     1      11.902  31.292  55.778  1.00  0.00     0.014 C 
ENDROOT
BRANCH   1  30
ATOM     30  C   UNL     1      17.633  36.868  48.877  1.00  0.00     0.048 C 
ATOM     31  O   UNL     1      18.888  36.752  48.866  1.00  0.00    -0.550 OA
ATOM     32  O   UNL     1      17.087  38.123  49.133  1.00  0.00    -0.550 OA
ENDBRANCH   1  30
BRANCH  27  33
ATOM     33  O   UNL     1      13.896  29.603  57.102  1.00  0.00    -0.393 OA
ATOM     34  H   UNL     1      14.463  29.756  57.901  1.00  0.00     0.210 HD
ENDBRANCH  27  33
TORSDOF 2
ENDMDL
