MODEL 1
REMARK VINA RESULT:    -3.353      0.000      0.000
REMARK INTER + INTRA:          -5.449
REMARK INTER:                  -4.529
REMARK INTRA:                  -0.920
REMARK UNBOUND:                -0.920
REMARK SMILES O=C[C@@H](O)[C@H](O)[C@@H](O)CO
REMARK SMILES IDX 7 1 9 2 10 3 5 5 3 6 2 7 1 8 4 9 6 11 8 13
REMARK H PARENT 10 4 4 10 6 12 8 14
REMARK Flexibility Score: inf
ROOT
ATOM      1  C   UNL     1       1.344  60.383  -6.771  1.00  0.00     0.171 C 
ENDROOT
BRANCH   1   2
ATOM      2  C   UNL     1       1.763  59.998  -8.203  1.00  0.00     0.190 C 
BRANCH   2   3
ATOM      3  O   UNL     1       1.218  60.897  -9.131  1.00  0.00    -0.394 OA
ATOM      4  H   UNL     1       1.248  60.446 -10.015  1.00  0.00     0.210 HD
ENDBRANCH   2   3
ENDBRANCH   1   2
BRANCH   1   5
ATOM      5  C   UNL     1       2.014  61.707  -6.313  1.00  0.00     0.181 C 
BRANCH   5   6
ATOM      6  C   UNL     1       1.881  61.950  -4.784  1.00  0.00     0.209 C 
BRANCH   6   7
ATOM      7  C   UNL     1       0.960  63.104  -4.485  1.00  0.00     0.258 C 
ATOM      8  O   UNL     1      -0.232  63.027  -4.738  1.00  0.00    -0.300 OA
ENDBRANCH   6   7
BRANCH   6   9
ATOM      9  O   UNL     1       1.414  60.793  -4.137  1.00  0.00    -0.383 OA
ATOM     10  H   UNL     1       1.395  60.059  -4.808  1.00  0.00     0.211 HD
ENDBRANCH   6   9
ENDBRANCH   5   6
BRANCH   5  11
ATOM     11  O   UNL     1       1.510  62.804  -7.038  1.00  0.00    -0.387 OA
ATOM     12  H   UNL     1       2.122  63.572  -6.895  1.00  0.00     0.211 HD
ENDBRANCH   5  11
ENDBRANCH   1   5
BRANCH   1  13
ATOM     13  O   UNL     1      -0.056  60.445  -6.650  1.00  0.00    -0.388 OA
ATOM     14  H   UNL     1      -0.282  61.237  -6.095  1.00  0.00     0.211 HD
ENDBRANCH   1  13
TORSDOF 8
ENDMDL
MODEL 2
REMARK VINA RESULT:    -3.028     18.950     20.289
REMARK INTER + INTRA:          -5.010
REMARK INTER:                  -4.510
REMARK INTRA:                  -0.500
REMARK UNBOUND:                -0.920
REMARK SMILES O=C[C@@H](O)[C@H](O)[C@@H](O)CO
REMARK SMILES IDX 7 1 9 2 10 3 5 5 3 6 2 7 1 8 4 9 6 11 8 13
REMARK H PARENT 10 4 4 10 6 12 8 14
REMARK Flexibility Score: inf
ROOT
ATOM      1  C   UNL     1      -6.922  52.790  10.125  1.00  0.00     0.171 C 
ENDROOT
BRANCH   1   2
ATOM      2  C   UNL     1      -6.746  54.196   9.518  1.00  0.00     0.190 C 
BRANCH   2   3
ATOM      3  O   UNL     1      -5.385  54.492   9.355  1.00  0.00    -0.394 OA
ATOM      4  H   UNL     1      -5.138  54.195   8.440  1.00  0.00     0.210 HD
ENDBRANCH   2   3
ENDBRANCH   1   2
BRANCH   1   5
ATOM      5  C   UNL     1      -8.162  52.063   9.540  1.00  0.00     0.181 C 
BRANCH   5   6
ATOM      6  C   UNL     1      -7.793  50.752   8.792  1.00  0.00     0.209 C 
BRANCH   6   7
ATOM      7  C   UNL     1      -9.023  49.982   8.385  1.00  0.00     0.258 C 
ATOM      8  O   UNL     1     -10.132  50.478   8.504  1.00  0.00    -0.300 OA
ENDBRANCH   6   7
BRANCH   6   9
ATOM      9  O   UNL     1      -7.013  51.032   7.656  1.00  0.00    -0.383 OA
ATOM     10  H   UNL     1      -6.171  51.458   7.967  1.00  0.00     0.211 HD
ENDBRANCH   6   9
ENDBRANCH   5   6
BRANCH   5  11
ATOM     11  O   UNL     1      -8.903  52.922   8.705  1.00  0.00    -0.387 OA
ATOM     12  H   UNL     1      -8.591  52.787   7.773  1.00  0.00     0.211 HD
ENDBRANCH   5  11
ENDBRANCH   1   5
BRANCH   1  13
ATOM     13  O   UNL     1      -5.753  52.021   9.973  1.00  0.00    -0.388 OA
ATOM     14  H   UNL     1      -5.088  52.568   9.480  1.00  0.00     0.211 HD
ENDBRANCH   1  13
TORSDOF 8
ENDMDL
MODEL 3
REMARK VINA RESULT:    -2.983      7.637      9.532
REMARK INTER + INTRA:          -4.949
REMARK INTER:                  -4.768
REMARK INTRA:                  -0.182
REMARK UNBOUND:                -0.920
REMARK SMILES O=C[C@@H](O)[C@H](O)[C@@H](O)CO
REMARK SMILES IDX 7 1 9 2 10 3 5 5 3 6 2 7 1 8 4 9 6 11 8 13
REMARK H PARENT 10 4 4 10 6 12 8 14
REMARK Flexibility Score: inf
ROOT
ATOM      1  C   UNL     1      -3.454  67.393  -5.437  1.00  0.00     0.171 C 
ENDROOT
BRANCH   1   2
ATOM      2  C   UNL     1      -3.041  68.792  -4.939  1.00  0.00     0.190 C 
BRANCH   2   3
ATOM      3  O   UNL     1      -2.973  68.813  -3.538  1.00  0.00    -0.394 OA
ATOM      4  H   UNL     1      -3.910  68.852  -3.209  1.00  0.00     0.210 HD
ENDBRANCH   2   3
ENDBRANCH   1   2
BRANCH   1   5
ATOM      5  C   UNL     1      -4.896  67.389  -6.010  1.00  0.00     0.181 C 
BRANCH   5   6
ATOM      6  C   UNL     1      -5.526  68.808  -6.062  1.00  0.00     0.209 C 
BRANCH   6   7
ATOM      7  C   UNL     1      -6.066  69.125  -7.432  1.00  0.00     0.258 C 
ATOM      8  O   UNL     1      -7.054  68.547  -7.858  1.00  0.00    -0.300 OA
ENDBRANCH   6   7
BRANCH   6   9
ATOM      9  O   UNL     1      -6.554  68.929  -5.110  1.00  0.00    -0.383 OA
ATOM     10  H   UNL     1      -6.472  68.165  -4.479  1.00  0.00     0.211 HD
ENDBRANCH   6   9
ENDBRANCH   5   6
BRANCH   5  11
ATOM     11  O   UNL     1      -5.721  66.502  -5.292  1.00  0.00    -0.387 OA
ATOM     12  H   UNL     1      -6.090  65.840  -5.933  1.00  0.00     0.211 HD
ENDBRANCH   5  11
ENDBRANCH   1   5
BRANCH   1  13
ATOM     13  O   UNL     1      -2.527  66.892  -6.369  1.00  0.00    -0.388 OA
ATOM     14  H   UNL     1      -2.148  66.050  -6.003  1.00  0.00     0.211 HD
ENDBRANCH   1  13
TORSDOF 8
ENDMDL
MODEL 4
REMARK VINA RESULT:    -2.978      8.333      9.820
REMARK INTER + INTRA:          -4.943
REMARK INTER:                  -4.208
REMARK INTRA:                  -0.736
REMARK UNBOUND:                -0.920
REMARK SMILES O=C[C@@H](O)[C@H](O)[C@@H](O)CO
REMARK SMILES IDX 7 1 9 2 10 3 5 5 3 6 2 7 1 8 4 9 6 11 8 13
REMARK H PARENT 10 4 4 10 6 12 8 14
REMARK Flexibility Score: inf
ROOT
ATOM      1  C   UNL     1      -4.094  68.018  -6.303  1.00  0.00     0.171 C 
ENDROOT
BRANCH   1   2
ATOM      2  C   UNL     1      -3.912  66.507  -6.061  1.00  0.00     0.190 C 
BRANCH   2   3
ATOM      3  O   UNL     1      -5.149  65.902  -5.797  1.00  0.00    -0.394 OA
ATOM      4  H   UNL     1      -5.532  66.370  -5.009  1.00  0.00     0.210 HD
ENDBRANCH   2   3
ENDBRANCH   1   2
BRANCH   1   5
ATOM      5  C   UNL     1      -4.755  68.305  -7.678  1.00  0.00     0.181 C 
BRANCH   5   6
ATOM      6  C   UNL     1      -6.214  68.821  -7.548  1.00  0.00     0.209 C 
BRANCH   6   7
ATOM      7  C   UNL     1      -6.860  69.004  -8.897  1.00  0.00     0.258 C 
ATOM      8  O   UNL     1      -8.061  68.838  -9.037  1.00  0.00    -0.300 OA
ENDBRANCH   6   7
BRANCH   6   9
ATOM      9  O   UNL     1      -6.985  67.939  -6.771  1.00  0.00    -0.383 OA
ATOM     10  H   UNL     1      -7.617  67.473  -7.381  1.00  0.00     0.211 HD
ENDBRANCH   6   9
ENDBRANCH   5   6
BRANCH   5  11
ATOM     11  O   UNL     1      -4.700  67.169  -8.510  1.00  0.00    -0.387 OA
ATOM     12  H   UNL     1      -4.127  67.389  -9.290  1.00  0.00     0.211 HD
ENDBRANCH   5  11
ENDBRANCH   1   5
BRANCH   1  13
ATOM     13  O   UNL     1      -4.810  68.620  -5.251  1.00  0.00    -0.388 OA
ATOM     14  H   UNL     1      -4.155  68.942  -4.579  1.00  0.00     0.211 HD
ENDBRANCH   1  13
TORSDOF 8
ENDMDL
MODEL 5
REMARK VINA RESULT:    -2.880      1.200      2.144
REMARK INTER + INTRA:          -4.811
REMARK INTER:                  -3.914
REMARK INTRA:                  -0.897
REMARK UNBOUND:                -0.920
REMARK SMILES O=C[C@@H](O)[C@H](O)[C@@H](O)CO
REMARK SMILES IDX 7 1 9 2 10 3 5 5 3 6 2 7 1 8 4 9 6 11 8 13
REMARK H PARENT 10 4 4 10 6 12 8 14
REMARK Flexibility Score: inf
ROOT
ATOM      1  C   UNL     1       1.953  60.960  -5.458  1.00  0.00     0.171 C 
ENDROOT
BRANCH   1   2
ATOM      2  C   UNL     1       1.217  60.071  -6.480  1.00  0.00     0.190 C 
BRANCH   2   3
ATOM      3  O   UNL     1      -0.113  60.490  -6.624  1.00  0.00    -0.394 OA
ATOM      4  H   UNL     1      -0.179  60.923  -7.516  1.00  0.00     0.210 HD
ENDBRANCH   2   3
ENDBRANCH   1   2
BRANCH   1   5
ATOM      5  C   UNL     1       2.036  62.435  -5.934  1.00  0.00     0.181 C 
BRANCH   5   6
ATOM      6  C   UNL     1       1.297  63.416  -4.982  1.00  0.00     0.209 C 
BRANCH   6   7
ATOM      7  C   UNL     1       1.428  64.843  -5.447  1.00  0.00     0.258 C 
ATOM      8  O   UNL     1       0.672  65.290  -6.296  1.00  0.00    -0.300 OA
ENDBRANCH   6   7
BRANCH   6   9
ATOM      9  O   UNL     1      -0.063  63.075  -4.877  1.00  0.00    -0.383 OA
ATOM     10  H   UNL     1      -0.115  62.129  -4.579  1.00  0.00     0.211 HD
ENDBRANCH   6   9
ENDBRANCH   5   6
BRANCH   5  11
ATOM     11  O   UNL     1       1.560  62.567  -7.253  1.00  0.00    -0.387 OA
ATOM     12  H   UNL     1       1.703  63.507  -7.537  1.00  0.00     0.211 HD
ENDBRANCH   5  11
ENDBRANCH   1   5
BRANCH   1  13
ATOM     13  O   UNL     1       1.367  60.861  -4.183  1.00  0.00    -0.388 OA
ATOM     14  H   UNL     1       2.073  61.035  -3.507  1.00  0.00     0.211 HD
ENDBRANCH   1  13
TORSDOF 8
ENDMDL
MODEL 6
REMARK VINA RESULT:    -2.849      7.478      8.266
REMARK INTER + INTRA:          -4.769
REMARK INTER:                  -3.862
REMARK INTRA:                  -0.906
REMARK UNBOUND:                -0.920
REMARK SMILES O=C[C@@H](O)[C@H](O)[C@@H](O)CO
REMARK SMILES IDX 7 1 9 2 10 3 5 5 3 6 2 7 1 8 4 9 6 11 8 13
REMARK H PARENT 10 4 4 10 6 12 8 14
REMARK Flexibility Score: inf
ROOT
ATOM      1  C   UNL     1      -2.781  68.014  -8.290  1.00  0.00     0.171 C 
ENDROOT
BRANCH   1   2
ATOM      2  C   UNL     1      -2.697  67.427  -9.713  1.00  0.00     0.190 C 
BRANCH   2   3
ATOM      3  O   UNL     1      -3.213  66.124  -9.736  1.00  0.00    -0.394 OA
ATOM      4  H   UNL     1      -4.153  66.185  -9.424  1.00  0.00     0.210 HD
ENDBRANCH   2   3
ENDBRANCH   1   2
BRANCH   1   5
ATOM      5  C   UNL     1      -4.248  68.096  -7.788  1.00  0.00     0.181 C 
BRANCH   5   6
ATOM      6  C   UNL     1      -4.512  67.193  -6.552  1.00  0.00     0.209 C 
BRANCH   6   7
ATOM      7  C   UNL     1      -5.934  67.318  -6.069  1.00  0.00     0.258 C 
ATOM      8  O   UNL     1      -6.654  68.210  -6.487  1.00  0.00    -0.300 OA
ENDBRANCH   6   7
BRANCH   6   9
ATOM      9  O   UNL     1      -4.232  65.848  -6.852  1.00  0.00    -0.383 OA
ATOM     10  H   UNL     1      -3.581  65.518  -6.177  1.00  0.00     0.211 HD
ENDBRANCH   6   9
ENDBRANCH   5   6
BRANCH   5  11
ATOM     11  O   UNL     1      -5.153  67.800  -8.825  1.00  0.00    -0.387 OA
ATOM     12  H   UNL     1      -5.958  67.385  -8.420  1.00  0.00     0.211 HD
ENDBRANCH   5  11
ENDBRANCH   1   5
BRANCH   1  13
ATOM     13  O   UNL     1      -1.969  67.294  -7.395  1.00  0.00    -0.388 OA
ATOM     14  H   UNL     1      -1.641  66.482  -7.863  1.00  0.00     0.211 HD
ENDBRANCH   1  13
TORSDOF 8
ENDMDL
MODEL 7
REMARK VINA RESULT:    -2.843      6.698      7.531
REMARK INTER + INTRA:          -4.760
REMARK INTER:                  -3.824
REMARK INTRA:                  -0.936
REMARK UNBOUND:                -0.920
REMARK SMILES O=C[C@@H](O)[C@H](O)[C@@H](O)CO
REMARK SMILES IDX 7 1 9 2 10 3 5 5 3 6 2 7 1 8 4 9 6 11 8 13
REMARK H PARENT 10 4 4 10 6 12 8 14
REMARK Flexibility Score: inf
ROOT
ATOM      1  C   UNL     1      -1.945  67.775  -6.834  1.00  0.00     0.171 C 
ENDROOT
BRANCH   1   2
ATOM      2  C   UNL     1      -0.996  68.090  -8.006  1.00  0.00     0.190 C 
BRANCH   2   3
ATOM      3  O   UNL     1      -0.867  66.975  -8.846  1.00  0.00    -0.394 OA
ATOM      4  H   UNL     1      -1.669  66.967  -9.432  1.00  0.00     0.210 HD
ENDBRANCH   2   3
ENDBRANCH   1   2
BRANCH   1   5
ATOM      5  C   UNL     1      -3.435  67.843  -7.266  1.00  0.00     0.181 C 
BRANCH   5   6
ATOM      6  C   UNL     1      -4.411  67.865  -6.058  1.00  0.00     0.209 C 
BRANCH   6   7
ATOM      7  C   UNL     1      -5.153  66.561  -5.921  1.00  0.00     0.258 C 
ATOM      8  O   UNL     1      -4.543  65.506  -5.849  1.00  0.00    -0.300 OA
ENDBRANCH   6   7
BRANCH   6   9
ATOM      9  O   UNL     1      -3.718  68.141  -4.866  1.00  0.00    -0.383 OA
ATOM     10  H   UNL     1      -4.292  68.736  -4.314  1.00  0.00     0.211 HD
ENDBRANCH   6   9
ENDBRANCH   5   6
BRANCH   5  11
ATOM     11  O   UNL     1      -3.753  66.790  -8.145  1.00  0.00    -0.387 OA
ATOM     12  H   UNL     1      -3.111  66.818  -8.901  1.00  0.00     0.211 HD
ENDBRANCH   5  11
ENDBRANCH   1   5
BRANCH   1  13
ATOM     13  O   UNL     1      -1.634  66.534  -6.247  1.00  0.00    -0.388 OA
ATOM     14  H   UNL     1      -0.678  66.341  -6.428  1.00  0.00     0.211 HD
ENDBRANCH   1  13
TORSDOF 8
ENDMDL
MODEL 8
REMARK VINA RESULT:    -2.798      6.858      8.464
REMARK INTER + INTRA:          -4.700
REMARK INTER:                  -3.751
REMARK INTRA:                  -0.949
REMARK UNBOUND:                -0.920
REMARK SMILES O=C[C@@H](O)[C@H](O)[C@@H](O)CO
REMARK SMILES IDX 7 1 9 2 10 3 5 5 3 6 2 7 1 8 4 9 6 11 8 13
REMARK H PARENT 10 4 4 10 6 12 8 14
REMARK Flexibility Score: inf
ROOT
ATOM      1  C   UNL     1      -4.904  68.410  -6.844  1.00  0.00     0.171 C 
ENDROOT
BRANCH   1   2
ATOM      2  C   UNL     1      -6.018  67.897  -5.912  1.00  0.00     0.190 C 
BRANCH   2   3
ATOM      3  O   UNL     1      -5.657  66.665  -5.348  1.00  0.00    -0.394 OA
ATOM      4  H   UNL     1      -6.365  66.017  -5.604  1.00  0.00     0.210 HD
ENDBRANCH   2   3
ENDBRANCH   1   2
BRANCH   1   5
ATOM      5  C   UNL     1      -3.570  68.628  -6.080  1.00  0.00     0.181 C 
BRANCH   5   6
ATOM      6  C   UNL     1      -2.469  67.612  -6.492  1.00  0.00     0.209 C 
BRANCH   6   7
ATOM      7  C   UNL     1      -1.117  68.017  -5.963  1.00  0.00     0.258 C 
ATOM      8  O   UNL     1      -1.025  68.732  -4.978  1.00  0.00    -0.300 OA
ENDBRANCH   6   7
BRANCH   6   9
ATOM      9  O   UNL     1      -2.788  66.322  -6.034  1.00  0.00    -0.383 OA
ATOM     10  H   UNL     1      -2.355  66.201  -5.148  1.00  0.00     0.211 HD
ENDBRANCH   6   9
ENDBRANCH   5   6
BRANCH   5  11
ATOM     11  O   UNL     1      -3.777  68.602  -4.688  1.00  0.00    -0.387 OA
ATOM     12  H   UNL     1      -3.061  69.142  -4.262  1.00  0.00     0.211 HD
ENDBRANCH   5  11
ENDBRANCH   1   5
BRANCH   1  13
ATOM     13  O   UNL     1      -4.732  67.556  -7.949  1.00  0.00    -0.388 OA
ATOM     14  H   UNL     1      -3.759  67.483  -8.132  1.00  0.00     0.211 HD
ENDBRANCH   1  13
TORSDOF 8
ENDMDL
