MODEL 1
REMARK VINA RESULT:    -4.005      0.000      0.000
REMARK INTER + INTRA:         -10.260
REMARK INTER:                  -7.752
REMARK INTRA:                  -2.508
REMARK UNBOUND:                -2.508
REMARK SMILES CCCCCCCCCCCCCCCCCC(=O)[O-]
REMARK SMILES IDX 10 1 11 2 12 3 13 4 14 5 15 6 16 7 17 8 18 9 19 10 20 11
REMARK SMILES IDX 9 12 8 13 7 14 6 15 5 16 4 17 3 18 2 19 1 20
REMARK H PARENT
REMARK Flexibility Score: inf
ROOT
ATOM      1  C   UNL     1      96.838  83.770  78.289  1.00  0.00     0.000 C 
ENDROOT
BRANCH   1   2
ATOM      2  C   UNL     1      96.166  85.122  78.581  1.00  0.00     0.000 C 
BRANCH   2   3
ATOM      3  C   UNL     1      94.634  85.056  78.475  1.00  0.00     0.000 C 
BRANCH   3   4
ATOM      4  C   UNL     1      94.135  85.116  77.024  1.00  0.00     0.000 C 
BRANCH   4   5
ATOM      5  C   UNL     1      92.862  84.280  76.845  1.00  0.00     0.000 C 
BRANCH   5   6
ATOM      6  C   UNL     1      92.632  83.363  78.053  1.00  0.00     0.000 C 
BRANCH   6   7
ATOM      7  C   UNL     1      91.132  83.141  78.298  1.00  0.00     0.006 C 
BRANCH   7   8
ATOM      8  C   UNL     1      90.667  83.736  79.634  1.00  0.00     0.053 C 
BRANCH   8   9
ATOM      9  C   UNL     1      89.269  84.266  79.550  1.00  0.00     0.041 C 
ATOM     10  O   UNL     1      88.345  83.544  79.091  1.00  0.00    -0.550 OA
ATOM     11  O   UNL     1      88.980  85.545  80.009  1.00  0.00    -0.550 OA
ENDBRANCH   8   9
ENDBRANCH   7   8
ENDBRANCH   6   7
ENDBRANCH   5   6
ENDBRANCH   4   5
ENDBRANCH   3   4
ENDBRANCH   2   3
ENDBRANCH   1   2
BRANCH   1  12
ATOM     12  C   UNL     1      96.065  82.587  78.896  1.00  0.00     0.000 C 
BRANCH  12  13
ATOM     13  C   UNL     1      96.972  81.639  79.698  1.00  0.00    -0.000 C 
BRANCH  13  14
ATOM     14  C   UNL     1      98.468  81.978  79.557  1.00  0.00    -0.000 C 
BRANCH  14  15
ATOM     15  C   UNL     1      99.179  82.352  80.869  1.00  0.00    -0.000 C 
BRANCH  15  16
ATOM     16  C   UNL     1      99.778  83.767  80.847  1.00  0.00    -0.000 C 
BRANCH  16  17
ATOM     17  C   UNL     1      98.748  84.804  81.320  1.00  0.00    -0.000 C 
BRANCH  17  18
ATOM     18  C   UNL     1      97.811  84.256  82.409  1.00  0.00    -0.000 C 
BRANCH  18  19
ATOM     19  C   UNL     1      96.373  84.777  82.267  1.00  0.00    -0.003 C 
ATOM     20  C   UNL     1      95.363  83.639  82.387  1.00  0.00     0.004 C 
ENDBRANCH  18  19
ENDBRANCH  17  18
ENDBRANCH  16  17
ENDBRANCH  15  16
ENDBRANCH  14  15
ENDBRANCH  13  14
ENDBRANCH  12  13
ENDBRANCH   1  12
TORSDOF 16
ENDMDL
MODEL 2
REMARK VINA RESULT:    -3.879      1.566      3.528
REMARK INTER + INTRA:         -10.016
REMARK INTER:                  -7.313
REMARK INTRA:                  -2.703
REMARK UNBOUND:                -2.508
REMARK SMILES CCCCCCCCCCCCCCCCCC(=O)[O-]
REMARK SMILES IDX 10 1 11 2 12 3 13 4 14 5 15 6 16 7 17 8 18 9 19 10 20 11
REMARK SMILES IDX 9 12 8 13 7 14 6 15 5 16 4 17 3 18 2 19 1 20
REMARK H PARENT
REMARK Flexibility Score: inf
ROOT
ATOM      1  C   UNL     1      95.590  83.529  82.486  1.00  0.00     0.000 C 
ENDROOT
BRANCH   1   2
ATOM      2  C   UNL     1      95.207  84.239  81.176  1.00  0.00     0.000 C 
BRANCH   2   3
ATOM      3  C   UNL     1      96.032  85.511  80.929  1.00  0.00     0.000 C 
BRANCH   3   4
ATOM      4  C   UNL     1      96.475  85.658  79.466  1.00  0.00     0.000 C 
BRANCH   4   5
ATOM      5  C   UNL     1      95.264  85.811  78.537  1.00  0.00     0.000 C 
BRANCH   5   6
ATOM      6  C   UNL     1      95.218  84.680  77.502  1.00  0.00     0.000 C 
BRANCH   6   7
ATOM      7  C   UNL     1      93.770  84.363  77.099  1.00  0.00     0.006 C 
BRANCH   7   8
ATOM      8  C   UNL     1      92.921  83.906  78.292  1.00  0.00     0.053 C 
BRANCH   8   9
ATOM      9  C   UNL     1      91.558  83.457  77.865  1.00  0.00     0.041 C 
ATOM     10  O   UNL     1      91.239  83.471  76.647  1.00  0.00    -0.550 OA
ATOM     11  O   UNL     1      90.650  82.992  78.809  1.00  0.00    -0.550 OA
ENDBRANCH   8   9
ENDBRANCH   7   8
ENDBRANCH   6   7
ENDBRANCH   5   6
ENDBRANCH   4   5
ENDBRANCH   3   4
ENDBRANCH   2   3
ENDBRANCH   1   2
BRANCH   1  12
ATOM     12  C   UNL     1      96.170  84.498  83.530  1.00  0.00     0.000 C 
BRANCH  12  13
ATOM     13  C   UNL     1      97.019  83.780  84.592  1.00  0.00    -0.000 C 
BRANCH  13  14
ATOM     14  C   UNL     1      98.232  83.044  83.993  1.00  0.00    -0.000 C 
BRANCH  14  15
ATOM     15  C   UNL     1      99.213  83.935  83.210  1.00  0.00    -0.000 C 
BRANCH  15  16
ATOM     16  C   UNL     1      99.891  83.200  82.043  1.00  0.00    -0.000 C 
BRANCH  16  17
ATOM     17  C   UNL     1      99.067  83.342  80.754  1.00  0.00    -0.000 C 
BRANCH  17  18
ATOM     18  C   UNL     1      98.419  82.019  80.316  1.00  0.00    -0.000 C 
BRANCH  18  19
ATOM     19  C   UNL     1      97.570  82.170  79.045  1.00  0.00    -0.003 C 
ATOM     20  C   UNL     1      96.235  81.445  79.188  1.00  0.00     0.004 C 
ENDBRANCH  18  19
ENDBRANCH  17  18
ENDBRANCH  16  17
ENDBRANCH  15  16
ENDBRANCH  14  15
ENDBRANCH  13  14
ENDBRANCH  12  13
ENDBRANCH   1  12
TORSDOF 16
ENDMDL
MODEL 3
REMARK VINA RESULT:    -3.854      3.825      7.754
REMARK INTER + INTRA:          -9.966
REMARK INTER:                  -8.201
REMARK INTRA:                  -1.766
REMARK UNBOUND:                -2.508
REMARK SMILES CCCCCCCCCCCCCCCCCC(=O)[O-]
REMARK SMILES IDX 10 1 11 2 12 3 13 4 14 5 15 6 16 7 17 8 18 9 19 10 20 11
REMARK SMILES IDX 9 12 8 13 7 14 6 15 5 16 4 17 3 18 2 19 1 20
REMARK H PARENT
REMARK Flexibility Score: inf
ROOT
ATOM      1  C   UNL     1      95.902  83.463  80.125  1.00  0.00     0.000 C 
ENDROOT
BRANCH   1   2
ATOM      2  C   UNL     1      96.389  82.062  79.716  1.00  0.00     0.000 C 
BRANCH   2   3
ATOM      3  C   UNL     1      97.895  82.025  79.409  1.00  0.00     0.000 C 
BRANCH   3   4
ATOM      4  C   UNL     1      98.757  81.921  80.675  1.00  0.00     0.000 C 
BRANCH   4   5
ATOM      5  C   UNL     1     100.037  82.755  80.539  1.00  0.00     0.000 C 
BRANCH   5   6
ATOM      6  C   UNL     1      99.774  84.227  80.882  1.00  0.00     0.000 C 
BRANCH   6   7
ATOM      7  C   UNL     1      98.951  84.353  82.172  1.00  0.00     0.006 C 
BRANCH   7   8
ATOM      8  C   UNL     1      99.803  84.131  83.428  1.00  0.00     0.053 C 
BRANCH   8   9
ATOM      9  C   UNL     1      98.993  83.576  84.559  1.00  0.00     0.041 C 
ATOM     10  O   UNL     1      98.766  82.339  84.628  1.00  0.00    -0.550 OA
ATOM     11  O   UNL     1      98.515  84.420  85.554  1.00  0.00    -0.550 OA
ENDBRANCH   8   9
ENDBRANCH   7   8
ENDBRANCH   6   7
ENDBRANCH   5   6
ENDBRANCH   4   5
ENDBRANCH   3   4
ENDBRANCH   2   3
ENDBRANCH   1   2
BRANCH   1  12
ATOM     12  C   UNL     1      96.369  84.555  79.148  1.00  0.00     0.000 C 
BRANCH  12  13
ATOM     13  C   UNL     1      95.784  84.374  77.738  1.00  0.00    -0.000 C 
BRANCH  13  14
ATOM     14  C   UNL     1      94.607  85.324  77.451  1.00  0.00    -0.000 C 
BRANCH  14  15
ATOM     15  C   UNL     1      93.237  84.837  77.956  1.00  0.00    -0.000 C 
BRANCH  15  16
ATOM     16  C   UNL     1      92.993  83.344  77.687  1.00  0.00    -0.000 C 
BRANCH  16  17
ATOM     17  C   UNL     1      91.627  82.905  78.236  1.00  0.00    -0.000 C 
BRANCH  17  18
ATOM     18  C   UNL     1      90.563  84.010  78.129  1.00  0.00    -0.000 C 
BRANCH  18  19
ATOM     19  C   UNL     1      89.707  83.883  76.860  1.00  0.00    -0.003 C 
ATOM     20  C   UNL     1      90.088  84.947  75.834  1.00  0.00     0.004 C 
ENDBRANCH  18  19
ENDBRANCH  17  18
ENDBRANCH  16  17
ENDBRANCH  15  16
ENDBRANCH  14  15
ENDBRANCH  13  14
ENDBRANCH  12  13
ENDBRANCH   1  12
TORSDOF 16
ENDMDL
MODEL 4
REMARK VINA RESULT:    -3.848      2.299      4.485
REMARK INTER + INTRA:          -9.956
REMARK INTER:                  -7.019
REMARK INTRA:                  -2.937
REMARK UNBOUND:                -2.508
REMARK SMILES CCCCCCCCCCCCCCCCCC(=O)[O-]
REMARK SMILES IDX 10 1 11 2 12 3 13 4 14 5 15 6 16 7 17 8 18 9 19 10 20 11
REMARK SMILES IDX 9 12 8 13 7 14 6 15 5 16 4 17 3 18 2 19 1 20
REMARK H PARENT
REMARK Flexibility Score: inf
ROOT
ATOM      1  C   UNL     1     100.197  83.035  81.926  1.00  0.00     0.000 C 
ENDROOT
BRANCH   1   2
ATOM      2  C   UNL     1      99.147  81.996  81.496  1.00  0.00     0.000 C 
BRANCH   2   3
ATOM      3  C   UNL     1      98.523  82.317  80.128  1.00  0.00     0.000 C 
BRANCH   3   4
ATOM      4  C   UNL     1      97.157  81.644  79.925  1.00  0.00     0.000 C 
BRANCH   4   5
ATOM      5  C   UNL     1      96.356  82.348  78.823  1.00  0.00     0.000 C 
BRANCH   5   6
ATOM      6  C   UNL     1      97.044  83.648  78.387  1.00  0.00     0.000 C 
BRANCH   6   7
ATOM      7  C   UNL     1      96.009  84.733  78.052  1.00  0.00     0.006 C 
BRANCH   7   8
ATOM      8  C   UNL     1      94.576  84.286  78.371  1.00  0.00     0.053 C 
BRANCH   8   9
ATOM      9  C   UNL     1      93.680  84.397  77.176  1.00  0.00     0.041 C 
ATOM     10  O   UNL     1      92.480  84.022  77.247  1.00  0.00    -0.550 OA
ATOM     11  O   UNL     1      94.162  84.944  75.993  1.00  0.00    -0.550 OA
ENDBRANCH   8   9
ENDBRANCH   7   8
ENDBRANCH   6   7
ENDBRANCH   5   6
ENDBRANCH   4   5
ENDBRANCH   3   4
ENDBRANCH   2   3
ENDBRANCH   1   2
BRANCH   1  12
ATOM     12  C   UNL     1     101.033  83.549  80.742  1.00  0.00     0.000 C 
BRANCH  12  13
ATOM     13  C   UNL     1     101.534  84.987  80.956  1.00  0.00    -0.000 C 
BRANCH  13  14
ATOM     14  C   UNL     1     101.269  85.901  79.745  1.00  0.00    -0.000 C 
BRANCH  14  15
ATOM     15  C   UNL     1     100.182  86.969  79.960  1.00  0.00    -0.000 C 
BRANCH  15  16
ATOM     16  C   UNL     1      99.363  86.745  81.240  1.00  0.00    -0.000 C 
BRANCH  16  17
ATOM     17  C   UNL     1      97.966  86.200  80.908  1.00  0.00    -0.000 C 
BRANCH  17  18
ATOM     18  C   UNL     1      97.408  85.287  82.011  1.00  0.00    -0.000 C 
BRANCH  18  19
ATOM     19  C   UNL     1      95.914  84.980  81.824  1.00  0.00    -0.003 C 
ATOM     20  C   UNL     1      95.535  83.667  82.504  1.00  0.00     0.004 C 
ENDBRANCH  18  19
ENDBRANCH  17  18
ENDBRANCH  16  17
ENDBRANCH  15  16
ENDBRANCH  14  15
ENDBRANCH  13  14
ENDBRANCH  12  13
ENDBRANCH   1  12
TORSDOF 16
ENDMDL
MODEL 5
REMARK VINA RESULT:    -3.840      1.291      2.787
REMARK INTER + INTRA:          -9.941
REMARK INTER:                  -7.617
REMARK INTRA:                  -2.323
REMARK UNBOUND:                -2.508
REMARK SMILES CCCCCCCCCCCCCCCCCC(=O)[O-]
REMARK SMILES IDX 10 1 11 2 12 3 13 4 14 5 15 6 16 7 17 8 18 9 19 10 20 11
REMARK SMILES IDX 9 12 8 13 7 14 6 15 5 16 4 17 3 18 2 19 1 20
REMARK H PARENT
REMARK Flexibility Score: inf
ROOT
ATOM      1  C   UNL     1      98.384  81.936  79.448  1.00  0.00     0.000 C 
ENDROOT
BRANCH   1   2
ATOM      2  C   UNL     1      96.883  81.636  79.291  1.00  0.00     0.000 C 
BRANCH   2   3
ATOM      3  C   UNL     1      96.011  82.896  79.423  1.00  0.00     0.000 C 
BRANCH   3   4
ATOM      4  C   UNL     1      96.206  83.878  78.258  1.00  0.00     0.000 C 
BRANCH   4   5
ATOM      5  C   UNL     1      95.012  84.834  78.141  1.00  0.00     0.000 C 
BRANCH   5   6
ATOM      6  C   UNL     1      94.446  84.835  76.715  1.00  0.00     0.000 C 
BRANCH   6   7
ATOM      7  C   UNL     1      92.922  84.647  76.728  1.00  0.00     0.006 C 
BRANCH   7   8
ATOM      8  C   UNL     1      92.507  83.313  77.361  1.00  0.00     0.053 C 
BRANCH   8   9
ATOM      9  C   UNL     1      91.368  83.482  78.319  1.00  0.00     0.041 C 
ATOM     10  O   UNL     1      91.591  83.788  79.520  1.00  0.00    -0.550 OA
ATOM     11  O   UNL     1      90.059  83.334  77.879  1.00  0.00    -0.550 OA
ENDBRANCH   8   9
ENDBRANCH   7   8
ENDBRANCH   6   7
ENDBRANCH   5   6
ENDBRANCH   4   5
ENDBRANCH   3   4
ENDBRANCH   2   3
ENDBRANCH   1   2
BRANCH   1  12
ATOM     12  C   UNL     1      98.786  82.166  80.914  1.00  0.00     0.000 C 
BRANCH  12  13
ATOM     13  C   UNL     1     100.133  82.896  81.048  1.00  0.00    -0.000 C 
BRANCH  13  14
ATOM     14  C   UNL     1     100.008  84.265  81.741  1.00  0.00    -0.000 C 
BRANCH  14  15
ATOM     15  C   UNL     1      99.870  85.467  80.790  1.00  0.00    -0.000 C 
BRANCH  15  16
ATOM     16  C   UNL     1      98.414  85.756  80.393  1.00  0.00    -0.000 C 
BRANCH  16  17
ATOM     17  C   UNL     1      97.592  86.199  81.613  1.00  0.00    -0.000 C 
BRANCH  17  18
ATOM     18  C   UNL     1      96.300  85.384  81.784  1.00  0.00    -0.000 C 
BRANCH  18  19
ATOM     19  C   UNL     1      96.447  84.254  82.815  1.00  0.00    -0.003 C 
ATOM     20  C   UNL     1      95.164  83.435  82.917  1.00  0.00     0.004 C 
ENDBRANCH  18  19
ENDBRANCH  17  18
ENDBRANCH  16  17
ENDBRANCH  15  16
ENDBRANCH  14  15
ENDBRANCH  13  14
ENDBRANCH  12  13
ENDBRANCH   1  12
TORSDOF 16
ENDMDL
MODEL 6
REMARK VINA RESULT:    -3.840      1.786      2.686
REMARK INTER + INTRA:          -9.940
REMARK INTER:                  -7.853
REMARK INTRA:                  -2.088
REMARK UNBOUND:                -2.508
REMARK SMILES CCCCCCCCCCCCCCCCCC(=O)[O-]
REMARK SMILES IDX 10 1 11 2 12 3 13 4 14 5 15 6 16 7 17 8 18 9 19 10 20 11
REMARK SMILES IDX 9 12 8 13 7 14 6 15 5 16 4 17 3 18 2 19 1 20
REMARK H PARENT
REMARK Flexibility Score: inf
ROOT
ATOM      1  C   UNL     1      96.030  85.325  78.371  1.00  0.00     0.000 C 
ENDROOT
BRANCH   1   2
ATOM      2  C   UNL     1      94.624  85.778  77.941  1.00  0.00     0.000 C 
BRANCH   2   3
ATOM      3  C   UNL     1      94.143  85.077  76.660  1.00  0.00     0.000 C 
BRANCH   3   4
ATOM      4  C   UNL     1      92.673  84.638  76.739  1.00  0.00     0.000 C 
BRANCH   4   5
ATOM      5  C   UNL     1      92.563  83.125  76.970  1.00  0.00     0.000 C 
BRANCH   5   6
ATOM      6  C   UNL     1      91.804  82.820  78.267  1.00  0.00     0.000 C 
BRANCH   6   7
ATOM      7  C   UNL     1      91.204  84.100  78.868  1.00  0.00     0.006 C 
BRANCH   7   8
ATOM      8  C   UNL     1      90.865  83.939  80.356  1.00  0.00     0.053 C 
BRANCH   8   9
ATOM      9  C   UNL     1      91.853  84.648  81.231  1.00  0.00     0.041 C 
ATOM     10  O   UNL     1      91.463  85.259  82.261  1.00  0.00    -0.550 OA
ATOM     11  O   UNL     1      93.208  84.608  80.927  1.00  0.00    -0.550 OA
ENDBRANCH   8   9
ENDBRANCH   7   8
ENDBRANCH   6   7
ENDBRANCH   5   6
ENDBRANCH   4   5
ENDBRANCH   3   4
ENDBRANCH   2   3
ENDBRANCH   1   2
BRANCH   1  12
ATOM     12  C   UNL     1      96.296  83.846  78.043  1.00  0.00     0.000 C 
BRANCH  12  13
ATOM     13  C   UNL     1      95.677  82.893  79.079  1.00  0.00    -0.000 C 
BRANCH  13  14
ATOM     14  C   UNL     1      96.636  81.765  79.503  1.00  0.00    -0.000 C 
BRANCH  14  15
ATOM     15  C   UNL     1      98.133  82.091  79.358  1.00  0.00    -0.000 C 
BRANCH  15  16
ATOM     16  C   UNL     1      98.886  82.069  80.697  1.00  0.00    -0.000 C 
BRANCH  16  17
ATOM     17  C   UNL     1      98.484  83.268  81.571  1.00  0.00    -0.000 C 
BRANCH  17  18
ATOM     18  C   UNL     1      98.638  84.611  80.840  1.00  0.00    -0.000 C 
BRANCH  18  19
ATOM     19  C   UNL     1     100.105  85.051  80.716  1.00  0.00    -0.003 C 
ATOM     20  C   UNL     1     100.223  86.347  79.919  1.00  0.00     0.004 C 
ENDBRANCH  18  19
ENDBRANCH  17  18
ENDBRANCH  16  17
ENDBRANCH  15  16
ENDBRANCH  14  15
ENDBRANCH  13  14
ENDBRANCH  12  13
ENDBRANCH   1  12
TORSDOF 16
ENDMDL
MODEL 7
REMARK VINA RESULT:    -3.827      3.738      7.396
REMARK INTER + INTRA:          -9.914
REMARK INTER:                  -7.986
REMARK INTRA:                  -1.928
REMARK UNBOUND:                -2.508
REMARK SMILES CCCCCCCCCCCCCCCCCC(=O)[O-]
REMARK SMILES IDX 10 1 11 2 12 3 13 4 14 5 15 6 16 7 17 8 18 9 19 10 20 11
REMARK SMILES IDX 9 12 8 13 7 14 6 15 5 16 4 17 3 18 2 19 1 20
REMARK H PARENT
REMARK Flexibility Score: inf
ROOT
ATOM      1  C   UNL     1      96.903  81.640  79.560  1.00  0.00     0.000 C 
ENDROOT
BRANCH   1   2
ATOM      2  C   UNL     1      97.964  82.354  80.414  1.00  0.00     0.000 C 
BRANCH   2   3
ATOM      3  C   UNL     1      99.399  82.001  79.991  1.00  0.00     0.000 C 
BRANCH   3   4
ATOM      4  C   UNL     1     100.449  82.930  80.619  1.00  0.00     0.000 C 
BRANCH   4   5
ATOM      5  C   UNL     1      99.883  84.340  80.826  1.00  0.00     0.000 C 
BRANCH   5   6
ATOM      6  C   UNL     1     100.523  85.017  82.045  1.00  0.00     0.000 C 
BRANCH   6   7
ATOM      7  C   UNL     1      99.584  84.968  83.259  1.00  0.00     0.006 C 
BRANCH   7   8
ATOM      8  C   UNL     1      99.932  83.820  84.216  1.00  0.00     0.053 C 
BRANCH   8   9
ATOM      9  C   UNL     1      98.935  82.705  84.132  1.00  0.00     0.041 C 
ATOM     10  O   UNL     1      97.738  82.898  84.472  1.00  0.00    -0.550 OA
ATOM     11  O   UNL     1      99.321  81.461  83.647  1.00  0.00    -0.550 OA
ENDBRANCH   8   9
ENDBRANCH   7   8
ENDBRANCH   6   7
ENDBRANCH   5   6
ENDBRANCH   4   5
ENDBRANCH   3   4
ENDBRANCH   2   3
ENDBRANCH   1   2
BRANCH   1  12
ATOM     12  C   UNL     1      95.871  82.615  78.969  1.00  0.00     0.000 C 
BRANCH  12  13
ATOM     13  C   UNL     1      96.528  83.772  78.198  1.00  0.00    -0.000 C 
BRANCH  13  14
ATOM     14  C   UNL     1      95.625  85.015  78.098  1.00  0.00    -0.000 C 
BRANCH  14  15
ATOM     15  C   UNL     1      95.248  85.658  79.444  1.00  0.00    -0.000 C 
BRANCH  15  16
ATOM     16  C   UNL     1      93.744  85.945  79.572  1.00  0.00    -0.000 C 
BRANCH  16  17
ATOM     17  C   UNL     1      92.960  84.650  79.838  1.00  0.00    -0.000 C 
BRANCH  17  18
ATOM     18  C   UNL     1      91.655  84.571  79.029  1.00  0.00    -0.000 C 
BRANCH  18  19
ATOM     19  C   UNL     1      91.410  83.174  78.440  1.00  0.00    -0.003 C 
ATOM     20  C   UNL     1      92.496  82.804  77.433  1.00  0.00     0.004 C 
ENDBRANCH  18  19
ENDBRANCH  17  18
ENDBRANCH  16  17
ENDBRANCH  15  16
ENDBRANCH  14  15
ENDBRANCH  13  14
ENDBRANCH  12  13
ENDBRANCH   1  12
TORSDOF 16
ENDMDL
MODEL 8
REMARK VINA RESULT:    -3.767      1.995      3.884
REMARK INTER + INTRA:          -9.799
REMARK INTER:                  -7.433
REMARK INTRA:                  -2.366
REMARK UNBOUND:                -2.508
REMARK SMILES CCCCCCCCCCCCCCCCCC(=O)[O-]
REMARK SMILES IDX 10 1 11 2 12 3 13 4 14 5 15 6 16 7 17 8 18 9 19 10 20 11
REMARK SMILES IDX 9 12 8 13 7 14 6 15 5 16 4 17 3 18 2 19 1 20
REMARK H PARENT
REMARK Flexibility Score: inf
ROOT
ATOM      1  C   UNL     1      99.615  87.052  79.445  1.00  0.00     0.000 C 
ENDROOT
BRANCH   1   2
ATOM      2  C   UNL     1      98.582  85.923  79.608  1.00  0.00     0.000 C 
BRANCH   2   3
ATOM      3  C   UNL     1      97.133  86.432  79.544  1.00  0.00     0.000 C 
BRANCH   3   4
ATOM      4  C   UNL     1      96.201  85.698  80.519  1.00  0.00     0.000 C 
BRANCH   4   5
ATOM      5  C   UNL     1      95.125  84.910  79.762  1.00  0.00     0.000 C 
BRANCH   5   6
ATOM      6  C   UNL     1      94.793  85.578  78.421  1.00  0.00     0.000 C 
BRANCH   6   7
ATOM      7  C   UNL     1      94.544  84.527  77.329  1.00  0.00     0.006 C 
BRANCH   7   8
ATOM      8  C   UNL     1      93.489  83.495  77.746  1.00  0.00     0.053 C 
BRANCH   8   9
ATOM      9  C   UNL     1      92.113  84.086  77.771  1.00  0.00     0.041 C 
ATOM     10  O   UNL     1      91.493  84.205  78.861  1.00  0.00    -0.550 OA
ATOM     11  O   UNL     1      91.527  84.536  76.594  1.00  0.00    -0.550 OA
ENDBRANCH   8   9
ENDBRANCH   7   8
ENDBRANCH   6   7
ENDBRANCH   5   6
ENDBRANCH   4   5
ENDBRANCH   3   4
ENDBRANCH   2   3
ENDBRANCH   1   2
BRANCH   1  12
ATOM     12  C   UNL     1     101.048  86.585  79.749  1.00  0.00     0.000 C 
BRANCH  12  13
ATOM     13  C   UNL     1     101.151  85.833  81.087  1.00  0.00    -0.000 C 
BRANCH  13  14
ATOM     14  C   UNL     1     101.882  84.483  80.961  1.00  0.00    -0.000 C 
BRANCH  14  15
ATOM     15  C   UNL     1     100.969  83.266  80.726  1.00  0.00    -0.000 C 
BRANCH  15  16
ATOM     16  C   UNL     1      99.839  83.154  81.761  1.00  0.00    -0.000 C 
BRANCH  16  17
ATOM     17  C   UNL     1      98.662  82.341  81.200  1.00  0.00    -0.000 C 
BRANCH  17  18
ATOM     18  C   UNL     1      98.842  81.986  79.715  1.00  0.00    -0.000 C 
BRANCH  18  19
ATOM     19  C   UNL     1      97.618  82.364  78.866  1.00  0.00    -0.003 C 
ATOM     20  C   UNL     1      96.403  81.526  79.252  1.00  0.00     0.004 C 
ENDBRANCH  18  19
ENDBRANCH  17  18
ENDBRANCH  16  17
ENDBRANCH  15  16
ENDBRANCH  14  15
ENDBRANCH  13  14
ENDBRANCH  12  13
ENDBRANCH   1  12
TORSDOF 16
ENDMDL
MODEL 9
REMARK VINA RESULT:    -3.750      2.390      4.480
REMARK INTER + INTRA:          -9.766
REMARK INTER:                  -6.724
REMARK INTRA:                  -3.042
REMARK UNBOUND:                -2.508
REMARK SMILES CCCCCCCCCCCCCCCCCC(=O)[O-]
REMARK SMILES IDX 10 1 11 2 12 3 13 4 14 5 15 6 16 7 17 8 18 9 19 10 20 11
REMARK SMILES IDX 9 12 8 13 7 14 6 15 5 16 4 17 3 18 2 19 1 20
REMARK H PARENT
REMARK Flexibility Score: inf
ROOT
ATOM      1  C   UNL     1     100.550  83.012  80.651  1.00  0.00     0.000 C 
ENDROOT
BRANCH   1   2
ATOM      2  C   UNL     1      99.275  82.174  80.847  1.00  0.00     0.000 C 
BRANCH   2   3
ATOM      3  C   UNL     1      98.458  82.027  79.553  1.00  0.00     0.000 C 
BRANCH   3   4
ATOM      4  C   UNL     1      96.983  81.691  79.817  1.00  0.00     0.000 C 
BRANCH   4   5
ATOM      5  C   UNL     1      96.065  82.453  78.853  1.00  0.00     0.000 C 
BRANCH   5   6
ATOM      6  C   UNL     1      96.699  83.783  78.425  1.00  0.00     0.000 C 
BRANCH   6   7
ATOM      7  C   UNL     1      95.626  84.783  77.971  1.00  0.00     0.006 C 
BRANCH   7   8
ATOM      8  C   UNL     1      94.229  84.410  78.486  1.00  0.00     0.053 C 
BRANCH   8   9
ATOM      9  C   UNL     1      93.829  85.247  79.662  1.00  0.00     0.041 C 
ATOM     10  O   UNL     1      93.443  84.698  80.728  1.00  0.00    -0.550 OA
ATOM     11  O   UNL     1      93.912  86.632  79.592  1.00  0.00    -0.550 OA
ENDBRANCH   8   9
ENDBRANCH   7   8
ENDBRANCH   6   7
ENDBRANCH   5   6
ENDBRANCH   4   5
ENDBRANCH   3   4
ENDBRANCH   2   3
ENDBRANCH   1   2
BRANCH   1  12
ATOM     12  C   UNL     1     100.518  84.326  81.450  1.00  0.00     0.000 C 
BRANCH  12  13
ATOM     13  C   UNL     1      99.376  85.256  81.009  1.00  0.00    -0.000 C 
BRANCH  13  14
ATOM     14  C   UNL     1      98.913  86.209  82.127  1.00  0.00    -0.000 C 
BRANCH  14  15
ATOM     15  C   UNL     1      97.515  85.914  82.698  1.00  0.00    -0.000 C 
BRANCH  15  16
ATOM     16  C   UNL     1      96.801  84.762  81.975  1.00  0.00    -0.000 C 
BRANCH  16  17
ATOM     17  C   UNL     1      96.500  83.609  82.945  1.00  0.00    -0.000 C 
BRANCH  17  18
ATOM     18  C   UNL     1      97.317  83.701  84.245  1.00  0.00    -0.000 C 
BRANCH  18  19
ATOM     19  C   UNL     1      98.465  82.681  84.293  1.00  0.00    -0.003 C 
ATOM     20  C   UNL     1      99.715  83.293  84.918  1.00  0.00     0.004 C 
ENDBRANCH  18  19
ENDBRANCH  17  18
ENDBRANCH  16  17
ENDBRANCH  15  16
ENDBRANCH  14  15
ENDBRANCH  13  14
ENDBRANCH  12  13
ENDBRANCH   1  12
TORSDOF 16
ENDMDL
