MODEL 1
REMARK VINA RESULT:    -3.995      0.000      0.000
REMARK INTER + INTRA:          -5.550
REMARK INTER:                  -5.163
REMARK INTRA:                  -0.387
REMARK UNBOUND:                -0.387
REMARK SMILES CCO[C@@H]1O[C@@H](CO)[C@@H](O)[C@@H](O)[C@H]1O
REMARK SMILES IDX 4 1 13 2 11 3 9 4 6 5 5 6 3 7 2 8 1 9 14 10 12 12 7 14 8 15
REMARK SMILES IDX 10 17
REMARK H PARENT 14 11 12 13 8 16 10 18
REMARK Flexibility Score: inf
ROOT
ATOM      1  C   UNL     1       8.180  -6.366  -1.705  1.00  0.00     0.281 C 
ATOM      2  C   UNL     1       9.577  -5.706  -1.815  1.00  0.00     0.202 C 
ATOM      3  C   UNL     1       9.471  -4.340  -2.521  1.00  0.00     0.179 C 
ATOM      4  C   UNL     1       8.370  -3.479  -1.878  1.00  0.00     0.177 C 
ATOM      5  C   UNL     1       7.063  -4.298  -1.814  1.00  0.00     0.178 C 
ATOM      6  O   UNL     1       7.253  -5.494  -1.072  1.00  0.00    -0.341 OA
ENDROOT
BRANCH   1   7
ATOM      7  O   UNL     1       7.697  -6.748  -2.987  1.00  0.00    -0.350 OA
BRANCH   7   8
ATOM      8  C   UNL     1       7.523  -8.150  -3.089  1.00  0.00     0.160 C 
ATOM      9  C   UNL     1       6.264  -8.584  -2.346  1.00  0.00     0.035 C 
ENDBRANCH   7   8
ENDBRANCH   1   7
BRANCH   2  10
ATOM     10  O   UNL     1      10.130  -5.538  -0.535  1.00  0.00    -0.385 OA
ATOM     11  H   UNL     1      11.071  -5.851  -0.584  1.00  0.00     0.211 HD
ENDBRANCH   2  10
BRANCH   3  12
ATOM     12  O   UNL     1      10.700  -3.663  -2.474  1.00  0.00    -0.387 OA
ATOM     13  H   UNL     1      10.501  -2.699  -2.606  1.00  0.00     0.211 HD
ENDBRANCH   3  12
BRANCH   5  14
ATOM     14  C   UNL     1       5.937  -3.485  -1.165  1.00  0.00     0.191 C 
BRANCH  14  15
ATOM     15  O   UNL     1       5.941  -3.697   0.219  1.00  0.00    -0.394 OA
ATOM     16  H   UNL     1       6.562  -4.454   0.380  1.00  0.00     0.210 HD
ENDBRANCH  14  15
ENDBRANCH   5  14
BRANCH   4  17
ATOM     17  O   UNL     1       8.750  -3.081  -0.583  1.00  0.00    -0.387 OA
ATOM     18  H   UNL     1       9.290  -3.821  -0.200  1.00  0.00     0.211 HD
ENDBRANCH   4  17
TORSDOF 7
ENDMDL
MODEL 2
REMARK VINA RESULT:    -3.104      1.825      3.625
REMARK INTER + INTRA:          -4.398
REMARK INTER:                  -4.280
REMARK INTRA:                  -0.118
REMARK UNBOUND:                -0.387
REMARK SMILES CCO[C@@H]1O[C@@H](CO)[C@@H](O)[C@@H](O)[C@H]1O
REMARK SMILES IDX 4 1 13 2 11 3 9 4 6 5 5 6 3 7 2 8 1 9 14 10 12 12 7 14 8 15
REMARK SMILES IDX 10 17
REMARK H PARENT 14 11 12 13 8 16 10 18
REMARK Flexibility Score: inf
ROOT
ATOM      1  C   UNL     1       6.871  -3.531  -2.451  1.00  0.00     0.281 C 
ATOM      2  C   UNL     1       7.616  -2.906  -1.245  1.00  0.00     0.202 C 
ATOM      3  C   UNL     1       8.052  -4.005  -0.256  1.00  0.00     0.179 C 
ATOM      4  C   UNL     1       8.792  -5.136  -0.991  1.00  0.00     0.177 C 
ATOM      5  C   UNL     1       7.931  -5.614  -2.178  1.00  0.00     0.178 C 
ATOM      6  O   UNL     1       7.658  -4.541  -3.068  1.00  0.00    -0.341 OA
ENDROOT
BRANCH   1   7
ATOM      7  O   UNL     1       5.615  -4.064  -2.050  1.00  0.00    -0.350 OA
BRANCH   7   8
ATOM      8  C   UNL     1       4.941  -4.693  -3.125  1.00  0.00     0.160 C 
ATOM      9  C   UNL     1       3.449  -4.380  -3.071  1.00  0.00     0.035 C 
ENDBRANCH   7   8
ENDBRANCH   1   7
BRANCH   2  10
ATOM     10  O   UNL     1       8.742  -2.196  -1.693  1.00  0.00    -0.385 OA
ATOM     11  H   UNL     1       9.507  -2.483  -1.129  1.00  0.00     0.211 HD
ENDBRANCH   2  10
BRANCH   3  12
ATOM     12  O   UNL     1       8.872  -3.468   0.749  1.00  0.00    -0.387 OA
ATOM     13  H   UNL     1       9.718  -3.988   0.738  1.00  0.00     0.211 HD
ENDBRANCH   3  12
BRANCH   5  14
ATOM     14  C   UNL     1       8.635  -6.734  -2.953  1.00  0.00     0.191 C 
BRANCH  14  15
ATOM     15  O   UNL     1       9.334  -7.556  -2.060  1.00  0.00    -0.394 OA
ATOM     16  H   UNL     1       8.720  -8.303  -1.835  1.00  0.00     0.210 HD
ENDBRANCH  14  15
ENDBRANCH   5  14
BRANCH   4  17
ATOM     17  O   UNL     1      10.042  -4.685  -1.457  1.00  0.00    -0.387 OA
ATOM     18  H   UNL     1       9.902  -4.351  -2.381  1.00  0.00     0.211 HD
ENDBRANCH   4  17
TORSDOF 7
ENDMDL
MODEL 3
REMARK VINA RESULT:    -3.097      1.720      3.662
REMARK INTER + INTRA:          -4.389
REMARK INTER:                  -4.024
REMARK INTRA:                  -0.365
REMARK UNBOUND:                -0.387
REMARK SMILES CCO[C@@H]1O[C@@H](CO)[C@@H](O)[C@@H](O)[C@H]1O
REMARK SMILES IDX 4 1 13 2 11 3 9 4 6 5 5 6 3 7 2 8 1 9 14 10 12 12 7 14 8 15
REMARK SMILES IDX 10 17
REMARK H PARENT 14 11 12 13 8 16 10 18
REMARK Flexibility Score: inf
ROOT
ATOM      1  C   UNL     1       9.627  -4.817  -1.842  1.00  0.00     0.281 C 
ATOM      2  C   UNL     1       9.044  -3.392  -1.674  1.00  0.00     0.202 C 
ATOM      3  C   UNL     1       7.956  -3.130  -2.733  1.00  0.00     0.179 C 
ATOM      4  C   UNL     1       6.930  -4.278  -2.756  1.00  0.00     0.177 C 
ATOM      5  C   UNL     1       7.680  -5.620  -2.891  1.00  0.00     0.178 C 
ATOM      6  O   UNL     1       8.596  -5.796  -1.820  1.00  0.00    -0.341 OA
ENDROOT
BRANCH   1   7
ATOM      7  O   UNL     1      10.376  -4.921  -3.047  1.00  0.00    -0.350 OA
BRANCH   7   8
ATOM      8  C   UNL     1      11.766  -5.023  -2.798  1.00  0.00     0.160 C 
ATOM      9  C   UNL     1      12.462  -3.706  -3.125  1.00  0.00     0.035 C 
ENDBRANCH   7   8
ENDBRANCH   1   7
BRANCH   2  10
ATOM     10  O   UNL     1       8.500  -3.246  -0.387  1.00  0.00    -0.385 OA
ATOM     11  H   UNL     1       7.682  -2.692  -0.482  1.00  0.00     0.211 HD
ENDBRANCH   2  10
BRANCH   3  12
ATOM     12  O   UNL     1       7.306  -1.911  -2.483  1.00  0.00    -0.387 OA
ATOM     13  H   UNL     1       6.881  -1.991  -1.589  1.00  0.00     0.211 HD
ENDBRANCH   3  12
BRANCH   5  14
ATOM     14  C   UNL     1       6.699  -6.798  -2.903  1.00  0.00     0.191 C 
BRANCH  14  15
ATOM     15  O   UNL     1       6.608  -7.348  -1.618  1.00  0.00    -0.394 OA
ATOM     16  H   UNL     1       7.485  -7.179  -1.184  1.00  0.00     0.210 HD
ENDBRANCH  14  15
ENDBRANCH   5  14
BRANCH   4  17
ATOM     17  O   UNL     1       6.162  -4.274  -1.577  1.00  0.00    -0.387 OA
ATOM     18  H   UNL     1       6.094  -3.330  -1.278  1.00  0.00     0.211 HD
ENDBRANCH   4  17
TORSDOF 7
ENDMDL
MODEL 4
REMARK VINA RESULT:    -3.021      1.386      3.273
REMARK INTER + INTRA:          -4.290
REMARK INTER:                  -3.926
REMARK INTRA:                  -0.364
REMARK UNBOUND:                -0.387
REMARK SMILES CCO[C@@H]1O[C@@H](CO)[C@@H](O)[C@@H](O)[C@H]1O
REMARK SMILES IDX 4 1 13 2 11 3 9 4 6 5 5 6 3 7 2 8 1 9 14 10 12 12 7 14 8 15
REMARK SMILES IDX 10 17
REMARK H PARENT 14 11 12 13 8 16 10 18
REMARK Flexibility Score: inf
ROOT
ATOM      1  C   UNL     1       7.285  -5.597  -3.125  1.00  0.00     0.281 C 
ATOM      2  C   UNL     1       6.460  -4.622  -2.249  1.00  0.00     0.202 C 
ATOM      3  C   UNL     1       7.048  -4.551  -0.826  1.00  0.00     0.179 C 
ATOM      4  C   UNL     1       8.564  -4.291  -0.876  1.00  0.00     0.177 C 
ATOM      5  C   UNL     1       9.221  -5.323  -1.816  1.00  0.00     0.178 C 
ATOM      6  O   UNL     1       8.663  -5.246  -3.120  1.00  0.00    -0.341 OA
ENDROOT
BRANCH   1   7
ATOM      7  O   UNL     1       7.119  -6.939  -2.684  1.00  0.00    -0.350 OA
BRANCH   7   8
ATOM      8  C   UNL     1       5.888  -7.489  -3.118  1.00  0.00     0.160 C 
ATOM      9  C   UNL     1       5.858  -8.991  -2.858  1.00  0.00     0.035 C 
ENDBRANCH   7   8
ENDBRANCH   1   7
BRANCH   2  10
ATOM     10  O   UNL     1       6.460  -3.342  -2.827  1.00  0.00    -0.385 OA
ATOM     11  H   UNL     1       7.332  -2.924  -2.604  1.00  0.00     0.211 HD
ENDBRANCH   2  10
BRANCH   3  12
ATOM     12  O   UNL     1       6.413  -3.546  -0.079  1.00  0.00    -0.387 OA
ATOM     13  H   UNL     1       5.662  -3.979   0.405  1.00  0.00     0.211 HD
ENDBRANCH   3  12
BRANCH   5  14
ATOM     14  C   UNL     1      10.734  -5.096  -1.910  1.00  0.00     0.191 C 
BRANCH  14  15
ATOM     15  O   UNL     1      10.995  -4.003  -2.747  1.00  0.00    -0.394 OA
ATOM     16  H   UNL     1      11.373  -4.381  -3.583  1.00  0.00     0.210 HD
ENDBRANCH  14  15
ENDBRANCH   5  14
BRANCH   4  17
ATOM     17  O   UNL     1       8.826  -2.988  -1.338  1.00  0.00    -0.387 OA
ATOM     18  H   UNL     1       9.581  -3.054  -1.979  1.00  0.00     0.211 HD
ENDBRANCH   4  17
TORSDOF 7
ENDMDL
MODEL 5
REMARK VINA RESULT:    -2.865      1.994      4.475
REMARK INTER + INTRA:          -4.089
REMARK INTER:                  -3.667
REMARK INTRA:                  -0.422
REMARK UNBOUND:                -0.387
REMARK SMILES CCO[C@@H]1O[C@@H](CO)[C@@H](O)[C@@H](O)[C@H]1O
REMARK SMILES IDX 4 1 13 2 11 3 9 4 6 5 5 6 3 7 2 8 1 9 14 10 12 12 7 14 8 15
REMARK SMILES IDX 10 17
REMARK H PARENT 14 11 12 13 8 16 10 18
REMARK Flexibility Score: inf
ROOT
ATOM      1  C   UNL     1       8.765  -5.709  -1.316  1.00  0.00     0.281 C 
ATOM      2  C   UNL     1       8.499  -7.210  -1.593  1.00  0.00     0.202 C 
ATOM      3  C   UNL     1       9.263  -7.667  -2.851  1.00  0.00     0.179 C 
ATOM      4  C   UNL     1      10.743  -7.250  -2.770  1.00  0.00     0.177 C 
ATOM      5  C   UNL     1      10.825  -5.742  -2.454  1.00  0.00     0.178 C 
ATOM      6  O   UNL     1      10.160  -5.445  -1.234  1.00  0.00    -0.341 OA
ENDROOT
BRANCH   1   7
ATOM      7  O   UNL     1       8.170  -4.895  -2.319  1.00  0.00    -0.350 OA
BRANCH   7   8
ATOM      8  C   UNL     1       7.734  -3.652  -1.800  1.00  0.00     0.160 C 
ATOM      9  C   UNL     1       6.876  -3.868  -0.557  1.00  0.00     0.035 C 
ENDBRANCH   7   8
ENDBRANCH   1   7
BRANCH   2  10
ATOM     10  O   UNL     1       8.899  -7.979  -0.488  1.00  0.00    -0.385 OA
ATOM     11  H   UNL     1       8.308  -7.725   0.269  1.00  0.00     0.211 HD
ENDBRANCH   2  10
BRANCH   3  12
ATOM     12  O   UNL     1       9.165  -9.058  -3.010  1.00  0.00    -0.387 OA
ATOM     13  H   UNL     1       8.372  -9.351  -2.488  1.00  0.00     0.211 HD
ENDBRANCH   3  12
BRANCH   5  14
ATOM     14  C   UNL     1      12.283  -5.281  -2.349  1.00  0.00     0.191 C 
BRANCH  14  15
ATOM     15  O   UNL     1      12.723  -5.412  -1.025  1.00  0.00    -0.394 OA
ATOM     16  H   UNL     1      11.991  -5.868  -0.535  1.00  0.00     0.210 HD
ENDBRANCH  14  15
ENDBRANCH   5  14
BRANCH   4  17
ATOM     17  O   UNL     1      11.408  -7.986  -1.772  1.00  0.00    -0.387 OA
ATOM     18  H   UNL     1      12.381  -7.848  -1.911  1.00  0.00     0.211 HD
ENDBRANCH   4  17
TORSDOF 7
ENDMDL
MODEL 6
REMARK VINA RESULT:    -2.668      2.339      4.434
REMARK INTER + INTRA:          -3.835
REMARK INTER:                  -3.489
REMARK INTRA:                  -0.346
REMARK UNBOUND:                -0.387
REMARK SMILES CCO[C@@H]1O[C@@H](CO)[C@@H](O)[C@@H](O)[C@H]1O
REMARK SMILES IDX 4 1 13 2 11 3 9 4 6 5 5 6 3 7 2 8 1 9 14 10 12 12 7 14 8 15
REMARK SMILES IDX 10 17
REMARK H PARENT 14 11 12 13 8 16 10 18
REMARK Flexibility Score: inf
ROOT
ATOM      1  C   UNL     1      11.470  -6.311  -2.587  1.00  0.00     0.281 C 
ATOM      2  C   UNL     1      10.772  -7.557  -1.988  1.00  0.00     0.202 C 
ATOM      3  C   UNL     1       9.722  -7.134  -0.943  1.00  0.00     0.179 C 
ATOM      4  C   UNL     1       8.789  -6.052  -1.516  1.00  0.00     0.177 C 
ATOM      5  C   UNL     1       9.644  -4.908  -2.101  1.00  0.00     0.178 C 
ATOM      6  O   UNL     1      10.517  -5.395  -3.110  1.00  0.00    -0.341 OA
ENDROOT
BRANCH   1   7
ATOM      7  O   UNL     1      12.284  -5.668  -1.613  1.00  0.00    -0.350 OA
BRANCH   7   8
ATOM      8  C   UNL     1      13.532  -5.267  -2.149  1.00  0.00     0.160 C 
ATOM      9  C   UNL     1      13.441  -3.846  -2.698  1.00  0.00     0.035 C 
ENDBRANCH   7   8
ENDBRANCH   1   7
BRANCH   2  10
ATOM     10  O   UNL     1      10.155  -8.298  -3.009  1.00  0.00    -0.385 OA
ATOM     11  H   UNL     1       9.709  -7.645  -3.610  1.00  0.00     0.211 HD
ENDBRANCH   2  10
BRANCH   3  12
ATOM     12  O   UNL     1       8.970  -8.242  -0.521  1.00  0.00    -0.387 OA
ATOM     13  H   UNL     1       8.952  -8.216   0.471  1.00  0.00     0.211 HD
ENDBRANCH   3  12
BRANCH   5  14
ATOM     14  C   UNL     1       8.758  -3.810  -2.699  1.00  0.00     0.191 C 
BRANCH  14  15
ATOM     15  O   UNL     1       7.554  -3.737  -1.987  1.00  0.00    -0.394 OA
ATOM     16  H   UNL     1       6.892  -4.261  -2.510  1.00  0.00     0.210 HD
ENDBRANCH  14  15
ENDBRANCH   5  14
BRANCH   4  17
ATOM     17  O   UNL     1       7.964  -6.594  -2.519  1.00  0.00    -0.387 OA
ATOM     18  H   UNL     1       8.129  -7.573  -2.532  1.00  0.00     0.211 HD
ENDBRANCH   4  17
TORSDOF 7
ENDMDL
MODEL 7
REMARK VINA RESULT:    -2.445      1.662      4.041
REMARK INTER + INTRA:          -3.547
REMARK INTER:                  -3.176
REMARK INTRA:                  -0.371
REMARK UNBOUND:                -0.387
REMARK SMILES CCO[C@@H]1O[C@@H](CO)[C@@H](O)[C@@H](O)[C@H]1O
REMARK SMILES IDX 4 1 13 2 11 3 9 4 6 5 5 6 3 7 2 8 1 9 14 10 12 12 7 14 8 15
REMARK SMILES IDX 10 17
REMARK H PARENT 14 11 12 13 8 16 10 18
REMARK Flexibility Score: inf
ROOT
ATOM      1  C   UNL     1       8.775  -4.781  -2.275  1.00  0.00     0.281 C 
ATOM      2  C   UNL     1      10.076  -5.553  -1.940  1.00  0.00     0.202 C 
ATOM      3  C   UNL     1       9.764  -6.766  -1.042  1.00  0.00     0.179 C 
ATOM      4  C   UNL     1       8.620  -7.605  -1.637  1.00  0.00     0.177 C 
ATOM      5  C   UNL     1       7.423  -6.679  -1.943  1.00  0.00     0.178 C 
ATOM      6  O   UNL     1       7.801  -5.647  -2.843  1.00  0.00    -0.341 OA
ENDROOT
BRANCH   1   7
ATOM      7  O   UNL     1       8.249  -4.146  -1.115  1.00  0.00    -0.350 OA
BRANCH   7   8
ATOM      8  C   UNL     1       8.287  -2.735  -1.224  1.00  0.00     0.160 C 
ATOM      9  C   UNL     1       7.435  -2.270  -2.401  1.00  0.00     0.035 C 
ENDBRANCH   7   8
ENDBRANCH   1   7
BRANCH   2  10
ATOM     10  O   UNL     1      10.694  -5.985  -3.125  1.00  0.00    -0.385 OA
ATOM     11  H   UNL     1      11.659  -6.101  -2.920  1.00  0.00     0.211 HD
ENDBRANCH   2  10
BRANCH   3  12
ATOM     12  O   UNL     1      10.907  -7.563  -0.875  1.00  0.00    -0.387 OA
ATOM     13  H   UNL     1      11.253  -7.763  -1.784  1.00  0.00     0.211 HD
ENDBRANCH   3  12
BRANCH   5  14
ATOM     14  C   UNL     1       6.260  -7.468  -2.554  1.00  0.00     0.191 C 
BRANCH  14  15
ATOM     15  O   UNL     1       6.227  -8.757  -2.006  1.00  0.00    -0.394 OA
ATOM     16  H   UNL     1       7.090  -8.876  -1.530  1.00  0.00     0.210 HD
ENDBRANCH  14  15
ENDBRANCH   5  14
BRANCH   4  17
ATOM     17  O   UNL     1       9.042  -8.247  -2.816  1.00  0.00    -0.387 OA
ATOM     18  H   UNL     1       9.597  -9.023  -2.540  1.00  0.00     0.211 HD
ENDBRANCH   4  17
TORSDOF 7
ENDMDL
MODEL 8
REMARK VINA RESULT:    -2.345      2.282      4.245
REMARK INTER + INTRA:          -3.416
REMARK INTER:                  -3.104
REMARK INTRA:                  -0.312
REMARK UNBOUND:                -0.387
REMARK SMILES CCO[C@@H]1O[C@@H](CO)[C@@H](O)[C@@H](O)[C@H]1O
REMARK SMILES IDX 4 1 13 2 11 3 9 4 6 5 5 6 3 7 2 8 1 9 14 10 12 12 7 14 8 15
REMARK SMILES IDX 10 17
REMARK H PARENT 14 11 12 13 8 16 10 18
REMARK Flexibility Score: inf
ROOT
ATOM      1  C   UNL     1       9.395  -7.387  -2.941  1.00  0.00     0.281 C 
ATOM      2  C   UNL     1       8.949  -6.095  -2.212  1.00  0.00     0.202 C 
ATOM      3  C   UNL     1       9.710  -5.940  -0.881  1.00  0.00     0.179 C 
ATOM      4  C   UNL     1      11.225  -6.101  -1.097  1.00  0.00     0.177 C 
ATOM      5  C   UNL     1      11.488  -7.414  -1.865  1.00  0.00     0.178 C 
ATOM      6  O   UNL     1      10.806  -7.416  -3.111  1.00  0.00    -0.341 OA
ENDROOT
BRANCH   1   7
ATOM      7  O   UNL     1       8.963  -8.543  -2.234  1.00  0.00    -0.350 OA
BRANCH   7   8
ATOM      8  C   UNL     1       7.593  -8.819  -2.459  1.00  0.00     0.160 C 
ATOM      9  C   UNL     1       6.800  -8.663  -1.166  1.00  0.00     0.035 C 
ENDBRANCH   7   8
ENDBRANCH   1   7
BRANCH   2  10
ATOM     10  O   UNL     1       9.189  -4.978  -3.029  1.00  0.00    -0.385 OA
ATOM     11  H   UNL     1       9.362  -5.322  -3.944  1.00  0.00     0.211 HD
ENDBRANCH   2  10
BRANCH   3  12
ATOM     12  O   UNL     1       9.438  -4.692  -0.299  1.00  0.00    -0.387 OA
ATOM     13  H   UNL     1       8.555  -4.770   0.149  1.00  0.00     0.211 HD
ENDBRANCH   3  12
BRANCH   5  14
ATOM     14  C   UNL     1      12.986  -7.612  -2.119  1.00  0.00     0.191 C 
BRANCH  14  15
ATOM     15  O   UNL     1      13.722  -6.788  -1.257  1.00  0.00    -0.394 OA
ATOM     16  H   UNL     1      13.770  -7.269  -0.390  1.00  0.00     0.210 HD
ENDBRANCH  14  15
ENDBRANCH   5  14
BRANCH   4  17
ATOM     17  O   UNL     1      11.737  -5.011  -1.825  1.00  0.00    -0.387 OA
ATOM     18  H   UNL     1      11.552  -4.194  -1.291  1.00  0.00     0.211 HD
ENDBRANCH   4  17
TORSDOF 7
ENDMDL
