MODEL 1
REMARK VINA RESULT:    -5.015      0.000      0.000
REMARK INTER + INTRA:         -11.498
REMARK INTER:                  -9.413
REMARK INTRA:                  -2.085
REMARK UNBOUND:                -2.085
REMARK SMILES CCCCCCCCC=CCCCCCCCC(=O)[O-]
REMARK SMILES IDX 10 1 9 2 11 3 12 4 13 5 14 6 15 7 16 8 17 9 18 10 19 11
REMARK SMILES IDX 20 12 8 13 7 14 6 15 5 16 4 17 3 18 2 19 1 20
REMARK H PARENT
REMARK Flexibility Score: inf
ROOT
ATOM      1  C   UNL     1      -6.371 -22.745 -11.691  1.00  0.00    -0.031 C 
ATOM      2  C   UNL     1      -5.097 -22.321 -11.777  1.00  0.00    -0.031 C 
ENDROOT
BRANCH   1   3
ATOM      3  C   UNL     1      -7.549 -21.868 -11.350  1.00  0.00     0.027 C 
BRANCH   3   4
ATOM      4  C   UNL     1      -7.978 -22.020  -9.885  1.00  0.00     0.004 C 
BRANCH   4   5
ATOM      5  C   UNL     1      -7.301 -20.986  -8.969  1.00  0.00     0.000 C 
BRANCH   5   6
ATOM      6  C   UNL     1      -7.370 -19.557  -9.529  1.00  0.00     0.000 C 
BRANCH   6   7
ATOM      7  C   UNL     1      -7.005 -18.490  -8.489  1.00  0.00     0.000 C 
BRANCH   7   8
ATOM      8  C   UNL     1      -5.956 -17.520  -9.046  1.00  0.00     0.006 C 
BRANCH   8   9
ATOM      9  C   UNL     1      -5.932 -17.552 -10.578  1.00  0.00     0.053 C 
BRANCH   9  10
ATOM     10  C   UNL     1      -6.306 -16.215 -11.136  1.00  0.00     0.041 C 
ATOM     11  O   UNL     1      -6.770 -16.124 -12.305  1.00  0.00    -0.550 OA
ATOM     12  O   UNL     1      -6.191 -15.075 -10.350  1.00  0.00    -0.550 OA
ENDBRANCH   9  10
ENDBRANCH   8   9
ENDBRANCH   7   8
ENDBRANCH   6   7
ENDBRANCH   5   6
ENDBRANCH   4   5
ENDBRANCH   3   4
ENDBRANCH   1   3
BRANCH   2  13
ATOM     13  C   UNL     1      -4.657 -20.887 -11.634  1.00  0.00     0.027 C 
BRANCH  13  14
ATOM     14  C   UNL     1      -3.365 -20.794 -10.809  1.00  0.00     0.004 C 
BRANCH  14  15
ATOM     15  C   UNL     1      -2.104 -20.986 -11.667  1.00  0.00     0.000 C 
BRANCH  15  16
ATOM     16  C   UNL     1      -1.423 -19.652 -12.014  1.00  0.00     0.000 C 
BRANCH  16  17
ATOM     17  C   UNL     1      -1.352 -19.399 -13.529  1.00  0.00    -0.000 C 
BRANCH  17  18
ATOM     18  C   UNL     1      -2.657 -19.760 -14.258  1.00  0.00    -0.000 C 
BRANCH  18  19
ATOM     19  C   UNL     1      -2.460 -20.865 -15.309  1.00  0.00    -0.003 C 
ATOM     20  C   UNL     1      -3.299 -22.111 -15.025  1.00  0.00     0.004 C 
ENDBRANCH  18  19
ENDBRANCH  17  18
ENDBRANCH  16  17
ENDBRANCH  15  16
ENDBRANCH  14  15
ENDBRANCH  13  14
ENDBRANCH   2  13
TORSDOF 15
ENDMDL
MODEL 2
REMARK VINA RESULT:    -4.886     10.860     13.061
REMARK INTER + INTRA:         -11.257
REMARK INTER:                  -7.930
REMARK INTRA:                  -3.326
REMARK UNBOUND:                -2.085
REMARK SMILES CCCCCCCCC=CCCCCCCCC(=O)[O-]
REMARK SMILES IDX 10 1 9 2 11 3 12 4 13 5 14 6 15 7 16 8 17 9 18 10 19 11
REMARK SMILES IDX 20 12 8 13 7 14 6 15 5 16 4 17 3 18 2 19 1 20
REMARK H PARENT
REMARK Flexibility Score: inf
ROOT
ATOM      1  C   UNL     1       1.210 -13.867 -20.544  1.00  0.00    -0.031 C 
ATOM      2  C   UNL     1       0.493 -14.203 -19.456  1.00  0.00    -0.031 C 
ENDROOT
BRANCH   1   3
ATOM      3  C   UNL     1       0.964 -12.646 -21.393  1.00  0.00     0.027 C 
BRANCH   3   4
ATOM      4  C   UNL     1       1.725 -11.419 -20.875  1.00  0.00     0.004 C 
BRANCH   4   5
ATOM      5  C   UNL     1       0.855 -10.150 -20.874  1.00  0.00     0.000 C 
BRANCH   5   6
ATOM      6  C   UNL     1      -0.616 -10.436 -21.214  1.00  0.00     0.000 C 
BRANCH   6   7
ATOM      7  C   UNL     1      -1.595  -9.744 -20.257  1.00  0.00     0.000 C 
BRANCH   7   8
ATOM      8  C   UNL     1      -1.196  -8.280 -20.031  1.00  0.00     0.006 C 
BRANCH   8   9
ATOM      9  C   UNL     1      -1.119  -7.953 -18.537  1.00  0.00     0.053 C 
BRANCH   9  10
ATOM     10  C   UNL     1      -2.481  -7.995 -17.920  1.00  0.00     0.041 C 
ATOM     11  O   UNL     1      -2.669  -8.619 -16.840  1.00  0.00    -0.550 OA
ATOM     12  O   UNL     1      -3.534  -7.304 -18.508  1.00  0.00    -0.550 OA
ENDBRANCH   9  10
ENDBRANCH   8   9
ENDBRANCH   7   8
ENDBRANCH   6   7
ENDBRANCH   5   6
ENDBRANCH   4   5
ENDBRANCH   3   4
ENDBRANCH   1   3
BRANCH   2  13
ATOM     13  C   UNL     1      -0.612 -13.368 -18.863  1.00  0.00     0.027 C 
BRANCH  13  14
ATOM     14  C   UNL     1      -0.237 -12.894 -17.451  1.00  0.00     0.004 C 
BRANCH  14  15
ATOM     15  C   UNL     1      -0.095 -11.366 -17.360  1.00  0.00     0.000 C 
BRANCH  15  16
ATOM     16  C   UNL     1       1.373 -10.918 -17.272  1.00  0.00     0.000 C 
BRANCH  16  17
ATOM     17  C   UNL     1       2.274 -11.971 -16.605  1.00  0.00    -0.000 C 
BRANCH  17  18
ATOM     18  C   UNL     1       3.543 -12.275 -17.421  1.00  0.00    -0.000 C 
BRANCH  18  19
ATOM     19  C   UNL     1       3.740 -13.780 -17.663  1.00  0.00    -0.003 C 
ATOM     20  C   UNL     1       3.023 -14.647 -16.627  1.00  0.00     0.004 C 
ENDBRANCH  18  19
ENDBRANCH  17  18
ENDBRANCH  16  17
ENDBRANCH  15  16
ENDBRANCH  14  15
ENDBRANCH  13  14
ENDBRANCH   2  13
TORSDOF 15
ENDMDL
MODEL 3
REMARK VINA RESULT:    -4.856     10.407     13.098
REMARK INTER + INTRA:         -11.199
REMARK INTER:                  -8.802
REMARK INTRA:                  -2.397
REMARK UNBOUND:                -2.085
REMARK SMILES CCCCCCCCC=CCCCCCCCC(=O)[O-]
REMARK SMILES IDX 10 1 9 2 11 3 12 4 13 5 14 6 15 7 16 8 17 9 18 10 19 11
REMARK SMILES IDX 20 12 8 13 7 14 6 15 5 16 4 17 3 18 2 19 1 20
REMARK H PARENT
REMARK Flexibility Score: inf
ROOT
ATOM      1  C   UNL     1       0.188 -10.200 -18.051  1.00  0.00    -0.031 C 
ATOM      2  C   UNL     1      -0.171 -11.223 -17.253  1.00  0.00    -0.031 C 
ENDROOT
BRANCH   1   3
ATOM      3  C   UNL     1       0.546 -10.331 -19.508  1.00  0.00     0.027 C 
BRANCH   3   4
ATOM      4  C   UNL     1      -0.458  -9.610 -20.417  1.00  0.00     0.004 C 
BRANCH   4   5
ATOM      5  C   UNL     1      -1.805 -10.349 -20.500  1.00  0.00     0.000 C 
BRANCH   5   6
ATOM      6  C   UNL     1      -2.958  -9.560 -19.861  1.00  0.00     0.000 C 
BRANCH   6   7
ATOM      7  C   UNL     1      -2.999  -8.094 -20.311  1.00  0.00     0.000 C 
BRANCH   7   8
ATOM      8  C   UNL     1      -3.343  -7.171 -19.135  1.00  0.00     0.006 C 
BRANCH   8   9
ATOM      9  C   UNL     1      -2.640  -7.625 -17.852  1.00  0.00     0.053 C 
BRANCH   9  10
ATOM     10  C   UNL     1      -1.395  -6.826 -17.626  1.00  0.00     0.041 C 
ATOM     11  O   UNL     1      -1.010  -5.993 -18.492  1.00  0.00    -0.550 OA
ATOM     12  O   UNL     1      -0.686  -6.963 -16.439  1.00  0.00    -0.550 OA
ENDBRANCH   9  10
ENDBRANCH   8   9
ENDBRANCH   7   8
ENDBRANCH   6   7
ENDBRANCH   5   6
ENDBRANCH   4   5
ENDBRANCH   3   4
ENDBRANCH   1   3
BRANCH   2  13
ATOM     13  C   UNL     1      -0.358 -12.647 -17.712  1.00  0.00     0.027 C 
BRANCH  13  14
ATOM     14  C   UNL     1       0.261 -13.628 -16.706  1.00  0.00     0.004 C 
BRANCH  14  15
ATOM     15  C   UNL     1       0.779 -14.911 -17.376  1.00  0.00     0.000 C 
BRANCH  15  16
ATOM     16  C   UNL     1       2.314 -14.998 -17.364  1.00  0.00     0.000 C 
BRANCH  16  17
ATOM     17  C   UNL     1       2.969 -13.827 -16.615  1.00  0.00    -0.000 C 
BRANCH  17  18
ATOM     18  C   UNL     1       3.906 -12.995 -17.507  1.00  0.00    -0.000 C 
BRANCH  18  19
ATOM     19  C   UNL     1       3.584 -11.493 -17.461  1.00  0.00    -0.003 C 
ATOM     20  C   UNL     1       3.262 -10.998 -16.051  1.00  0.00     0.004 C 
ENDBRANCH  18  19
ENDBRANCH  17  18
ENDBRANCH  16  17
ENDBRANCH  15  16
ENDBRANCH  14  15
ENDBRANCH  13  14
ENDBRANCH   2  13
TORSDOF 15
ENDMDL
MODEL 4
REMARK VINA RESULT:    -4.844     10.211     13.823
REMARK INTER + INTRA:         -11.178
REMARK INTER:                  -9.517
REMARK INTRA:                  -1.661
REMARK UNBOUND:                -2.085
REMARK SMILES CCCCCCCCC=CCCCCCCCC(=O)[O-]
REMARK SMILES IDX 10 1 9 2 11 3 12 4 13 5 14 6 15 7 16 8 17 9 18 10 19 11
REMARK SMILES IDX 20 12 8 13 7 14 6 15 5 16 4 17 3 18 2 19 1 20
REMARK H PARENT
REMARK Flexibility Score: inf
ROOT
ATOM      1  C   UNL     1      -0.024 -10.540 -17.286  1.00  0.00    -0.031 C 
ATOM      2  C   UNL     1      -1.198  -9.934 -17.542  1.00  0.00    -0.031 C 
ENDROOT
BRANCH   1   3
ATOM      3  C   UNL     1       0.319 -11.953 -17.683  1.00  0.00     0.027 C 
BRANCH   3   4
ATOM      4  C   UNL     1       1.443 -12.002 -18.726  1.00  0.00     0.004 C 
BRANCH   4   5
ATOM      5  C   UNL     1       2.805 -11.597 -18.136  1.00  0.00     0.000 C 
BRANCH   5   6
ATOM      6  C   UNL     1       3.308 -12.581 -17.069  1.00  0.00     0.000 C 
BRANCH   6   7
ATOM      7  C   UNL     1       3.633 -13.967 -17.640  1.00  0.00     0.000 C 
BRANCH   7   8
ATOM      8  C   UNL     1       2.762 -15.046 -16.984  1.00  0.00     0.006 C 
BRANCH   8   9
ATOM      9  C   UNL     1       2.316 -16.093 -18.010  1.00  0.00     0.053 C 
BRANCH   9  10
ATOM     10  C   UNL     1       1.761 -17.299 -17.319  1.00  0.00     0.041 C 
ATOM     11  O   UNL     1       0.694 -17.213 -16.652  1.00  0.00    -0.550 OA
ATOM     12  O   UNL     1       2.391 -18.530 -17.454  1.00  0.00    -0.550 OA
ENDBRANCH   9  10
ENDBRANCH   8   9
ENDBRANCH   7   8
ENDBRANCH   6   7
ENDBRANCH   5   6
ENDBRANCH   4   5
ENDBRANCH   3   4
ENDBRANCH   1   3
BRANCH   2  13
ATOM     13  C   UNL     1      -2.321 -10.540 -18.344  1.00  0.00     0.027 C 
BRANCH  13  14
ATOM     14  C   UNL     1      -2.843  -9.542 -19.389  1.00  0.00     0.004 C 
BRANCH  14  15
ATOM     15  C   UNL     1      -3.308  -8.219 -18.759  1.00  0.00     0.000 C 
BRANCH  15  16
ATOM     16  C   UNL     1      -2.660  -6.994 -19.426  1.00  0.00     0.000 C 
BRANCH  16  17
ATOM     17  C   UNL     1      -1.228  -6.737 -18.929  1.00  0.00    -0.000 C 
BRANCH  17  18
ATOM     18  C   UNL     1      -1.175  -5.783 -17.724  1.00  0.00    -0.000 C 
BRANCH  18  19
ATOM     19  C   UNL     1      -0.785  -6.500 -16.421  1.00  0.00    -0.003 C 
ATOM     20  C   UNL     1      -1.994  -6.859 -15.556  1.00  0.00     0.004 C 
ENDBRANCH  18  19
ENDBRANCH  17  18
ENDBRANCH  16  17
ENDBRANCH  15  16
ENDBRANCH  14  15
ENDBRANCH  13  14
ENDBRANCH   2  13
TORSDOF 15
ENDMDL
MODEL 5
REMARK VINA RESULT:    -4.809     10.635     13.540
REMARK INTER + INTRA:         -11.111
REMARK INTER:                  -9.251
REMARK INTRA:                  -1.861
REMARK UNBOUND:                -2.085
REMARK SMILES CCCCCCCCC=CCCCCCCCC(=O)[O-]
REMARK SMILES IDX 10 1 9 2 11 3 12 4 13 5 14 6 15 7 16 8 17 9 18 10 19 11
REMARK SMILES IDX 20 12 8 13 7 14 6 15 5 16 4 17 3 18 2 19 1 20
REMARK H PARENT
REMARK Flexibility Score: inf
ROOT
ATOM      1  C   UNL     1       0.416 -12.295 -16.567  1.00  0.00    -0.031 C 
ATOM      2  C   UNL     1      -0.254 -12.360 -17.732  1.00  0.00    -0.031 C 
ENDROOT
BRANCH   1   3
ATOM      3  C   UNL     1       1.459 -11.261 -16.231  1.00  0.00     0.027 C 
BRANCH   3   4
ATOM      4  C   UNL     1       2.847 -11.884 -16.027  1.00  0.00     0.004 C 
BRANCH   4   5
ATOM      5  C   UNL     1       3.611 -12.053 -17.352  1.00  0.00     0.000 C 
BRANCH   5   6
ATOM      6  C   UNL     1       3.812 -13.526 -17.739  1.00  0.00     0.000 C 
BRANCH   6   7
ATOM      7  C   UNL     1       3.487 -14.494 -16.595  1.00  0.00     0.000 C 
BRANCH   7   8
ATOM      8  C   UNL     1       2.346 -15.442 -16.988  1.00  0.00     0.006 C 
BRANCH   8   9
ATOM      9  C   UNL     1       2.202 -15.531 -18.510  1.00  0.00     0.053 C 
BRANCH   9  10
ATOM     10  C   UNL     1       1.613 -16.848 -18.904  1.00  0.00     0.041 C 
ATOM     11  O   UNL     1       2.066 -17.918 -18.413  1.00  0.00    -0.550 OA
ATOM     12  O   UNL     1       0.530 -16.895 -19.774  1.00  0.00    -0.550 OA
ENDBRANCH   9  10
ENDBRANCH   8   9
ENDBRANCH   7   8
ENDBRANCH   6   7
ENDBRANCH   5   6
ENDBRANCH   4   5
ENDBRANCH   3   4
ENDBRANCH   1   3
BRANCH   2  13
ATOM     13  C   UNL     1      -0.133 -11.356 -18.850  1.00  0.00     0.027 C 
BRANCH  13  14
ATOM     14  C   UNL     1      -0.816 -10.034 -18.471  1.00  0.00     0.004 C 
BRANCH  14  15
ATOM     15  C   UNL     1      -2.350 -10.126 -18.527  1.00  0.00     0.000 C 
BRANCH  15  16
ATOM     16  C   UNL     1      -2.939  -9.364 -19.725  1.00  0.00     0.000 C 
BRANCH  16  17
ATOM     17  C   UNL     1      -2.105  -8.131 -20.112  1.00  0.00    -0.000 C 
BRANCH  17  18
ATOM     18  C   UNL     1      -2.427  -6.897 -19.252  1.00  0.00    -0.000 C 
BRANCH  18  19
ATOM     19  C   UNL     1      -1.176  -6.296 -18.591  1.00  0.00    -0.003 C 
ATOM     20  C   UNL     1      -1.153  -6.495 -17.075  1.00  0.00     0.004 C 
ENDBRANCH  18  19
ENDBRANCH  17  18
ENDBRANCH  16  17
ENDBRANCH  15  16
ENDBRANCH  14  15
ENDBRANCH  13  14
ENDBRANCH   2  13
TORSDOF 15
ENDMDL
MODEL 6
REMARK VINA RESULT:    -4.795      7.710     10.972
REMARK INTER + INTRA:         -11.084
REMARK INTER:                  -7.876
REMARK INTRA:                  -3.209
REMARK UNBOUND:                -2.085
REMARK SMILES CCCCCCCCC=CCCCCCCCC(=O)[O-]
REMARK SMILES IDX 10 1 9 2 11 3 12 4 13 5 14 6 15 7 16 8 17 9 18 10 19 11
REMARK SMILES IDX 20 12 8 13 7 14 6 15 5 16 4 17 3 18 2 19 1 20
REMARK H PARENT
REMARK Flexibility Score: inf
ROOT
ATOM      1  C   UNL     1       0.704 -15.246 -19.671  1.00  0.00    -0.031 C 
ATOM      2  C   UNL     1       0.426 -13.929 -19.650  1.00  0.00    -0.031 C 
ENDROOT
BRANCH   1   3
ATOM      3  C   UNL     1       1.979 -15.848 -20.203  1.00  0.00     0.027 C 
BRANCH   3   4
ATOM      4  C   UNL     1       2.547 -16.921 -19.265  1.00  0.00     0.004 C 
BRANCH   4   5
ATOM      5  C   UNL     1       1.441 -17.696 -18.528  1.00  0.00     0.000 C 
BRANCH   5   6
ATOM      6  C   UNL     1       1.571 -17.611 -17.000  1.00  0.00     0.000 C 
BRANCH   6   7
ATOM      7  C   UNL     1       0.217 -17.667 -16.282  1.00  0.00     0.000 C 
BRANCH   7   8
ATOM      8  C   UNL     1      -0.170 -16.286 -15.737  1.00  0.00     0.006 C 
BRANCH   8   9
ATOM      9  C   UNL     1      -1.176 -15.590 -16.659  1.00  0.00     0.053 C 
BRANCH   9  10
ATOM     10  C   UNL     1      -2.217 -16.558 -17.124  1.00  0.00     0.041 C 
ATOM     11  O   UNL     1      -3.034 -17.054 -16.301  1.00  0.00    -0.550 OA
ATOM     12  O   UNL     1      -2.322 -16.874 -18.474  1.00  0.00    -0.550 OA
ENDBRANCH   9  10
ENDBRANCH   8   9
ENDBRANCH   7   8
ENDBRANCH   6   7
ENDBRANCH   5   6
ENDBRANCH   4   5
ENDBRANCH   3   4
ENDBRANCH   1   3
BRANCH   2  13
ATOM     13  C   UNL     1       1.381 -12.842 -20.074  1.00  0.00     0.027 C 
BRANCH  13  14
ATOM     14  C   UNL     1       1.382 -11.692 -19.056  1.00  0.00     0.004 C 
BRANCH  14  15
ATOM     15  C   UNL     1       0.179 -11.750 -18.100  1.00  0.00     0.000 C 
BRANCH  15  16
ATOM     16  C   UNL     1       0.568 -11.424 -16.649  1.00  0.00     0.000 C 
BRANCH  16  17
ATOM     17  C   UNL     1       0.930 -12.677 -15.836  1.00  0.00    -0.000 C 
BRANCH  17  18
ATOM     18  C   UNL     1       2.442 -12.959 -15.813  1.00  0.00    -0.000 C 
BRANCH  18  19
ATOM     19  C   UNL     1       2.824 -14.195 -16.642  1.00  0.00    -0.003 C 
ATOM     20  C   UNL     1       4.012 -13.943 -17.571  1.00  0.00     0.004 C 
ENDBRANCH  18  19
ENDBRANCH  17  18
ENDBRANCH  16  17
ENDBRANCH  15  16
ENDBRANCH  14  15
ENDBRANCH  13  14
ENDBRANCH   2  13
TORSDOF 15
ENDMDL
MODEL 7
REMARK VINA RESULT:    -4.784      9.660     12.992
REMARK INTER + INTRA:         -11.064
REMARK INTER:                  -8.140
REMARK INTRA:                  -2.924
REMARK UNBOUND:                -2.085
REMARK SMILES CCCCCCCCC=CCCCCCCCC(=O)[O-]
REMARK SMILES IDX 10 1 9 2 11 3 12 4 13 5 14 6 15 7 16 8 17 9 18 10 19 11
REMARK SMILES IDX 20 12 8 13 7 14 6 15 5 16 4 17 3 18 2 19 1 20
REMARK H PARENT
REMARK Flexibility Score: inf
ROOT
ATOM      1  C   UNL     1      -0.209 -12.174 -18.078  1.00  0.00    -0.031 C 
ATOM      2  C   UNL     1       0.024 -13.044 -19.077  1.00  0.00    -0.031 C 
ENDROOT
BRANCH   1   3
ATOM      3  C   UNL     1       0.778 -11.148 -17.584  1.00  0.00     0.027 C 
BRANCH   3   4
ATOM      4  C   UNL     1       1.103 -11.327 -16.095  1.00  0.00     0.004 C 
BRANCH   4   5
ATOM      5  C   UNL     1       2.386 -12.146 -15.872  1.00  0.00     0.000 C 
BRANCH   5   6
ATOM      6  C   UNL     1       3.367 -12.049 -17.051  1.00  0.00     0.000 C 
BRANCH   6   7
ATOM      7  C   UNL     1       3.904 -13.415 -17.494  1.00  0.00     0.000 C 
BRANCH   7   8
ATOM      8  C   UNL     1       3.315 -14.540 -16.632  1.00  0.00     0.006 C 
BRANCH   8   9
ATOM      9  C   UNL     1       2.456 -15.489 -17.475  1.00  0.00     0.053 C 
BRANCH   9  10
ATOM     10  C   UNL     1       1.265 -15.950 -16.695  1.00  0.00     0.041 C 
ATOM     11  O   UNL     1       0.504 -15.109 -16.144  1.00  0.00    -0.550 OA
ATOM     12  O   UNL     1       0.965 -17.305 -16.619  1.00  0.00    -0.550 OA
ENDBRANCH   9  10
ENDBRANCH   8   9
ENDBRANCH   7   8
ENDBRANCH   6   7
ENDBRANCH   5   6
ENDBRANCH   4   5
ENDBRANCH   3   4
ENDBRANCH   1   3
BRANCH   2  13
ATOM     13  C   UNL     1       1.273 -13.073 -19.919  1.00  0.00     0.027 C 
BRANCH  13  14
ATOM     14  C   UNL     1       1.225 -11.985 -21.002  1.00  0.00     0.004 C 
BRANCH  14  15
ATOM     15  C   UNL     1      -0.041 -12.073 -21.869  1.00  0.00     0.000 C 
BRANCH  15  16
ATOM     16  C   UNL     1      -0.877 -10.784 -21.817  1.00  0.00     0.000 C 
BRANCH  16  17
ATOM     17  C   UNL     1      -0.148  -9.633 -21.105  1.00  0.00    -0.000 C 
BRANCH  17  18
ATOM     18  C   UNL     1      -1.014  -8.950 -20.031  1.00  0.00    -0.000 C 
BRANCH  18  19
ATOM     19  C   UNL     1      -2.517  -9.194 -20.243  1.00  0.00    -0.003 C 
ATOM     20  C   UNL     1      -3.142 -10.045 -19.137  1.00  0.00     0.004 C 
ENDBRANCH  18  19
ENDBRANCH  17  18
ENDBRANCH  16  17
ENDBRANCH  15  16
ENDBRANCH  14  15
ENDBRANCH  13  14
ENDBRANCH   2  13
TORSDOF 15
ENDMDL
MODEL 8
REMARK VINA RESULT:    -4.753      7.018      9.559
REMARK INTER + INTRA:         -11.006
REMARK INTER:                  -7.821
REMARK INTRA:                  -3.185
REMARK UNBOUND:                -2.085
REMARK SMILES CCCCCCCCC=CCCCCCCCC(=O)[O-]
REMARK SMILES IDX 10 1 9 2 11 3 12 4 13 5 14 6 15 7 16 8 17 9 18 10 19 11
REMARK SMILES IDX 20 12 8 13 7 14 6 15 5 16 4 17 3 18 2 19 1 20
REMARK H PARENT
REMARK Flexibility Score: inf
ROOT
ATOM      1  C   UNL     1       1.348 -17.704 -17.017  1.00  0.00    -0.031 C 
ATOM      2  C   UNL     1       1.447 -17.271 -18.287  1.00  0.00    -0.031 C 
ENDROOT
BRANCH   1   3
ATOM      3  C   UNL     1       0.070 -17.749 -16.220  1.00  0.00     0.027 C 
BRANCH   3   4
ATOM      4  C   UNL     1      -0.209 -16.423 -15.500  1.00  0.00     0.004 C 
BRANCH   4   5
ATOM      5  C   UNL     1      -1.709 -16.208 -15.234  1.00  0.00     0.000 C 
BRANCH   5   6
ATOM      6  C   UNL     1      -2.594 -17.249 -15.934  1.00  0.00     0.000 C 
BRANCH   6   7
ATOM      7  C   UNL     1      -3.476 -16.641 -17.033  1.00  0.00     0.000 C 
BRANCH   7   8
ATOM      8  C   UNL     1      -4.168 -17.740 -17.849  1.00  0.00     0.006 C 
BRANCH   8   9
ATOM      9  C   UNL     1      -3.161 -18.496 -18.723  1.00  0.00     0.053 C 
BRANCH   9  10
ATOM     10  C   UNL     1      -3.796 -19.711 -19.323  1.00  0.00     0.041 C 
ATOM     11  O   UNL     1      -4.893 -20.141 -18.872  1.00  0.00    -0.550 OA
ATOM     12  O   UNL     1      -3.205 -20.339 -20.412  1.00  0.00    -0.550 OA
ENDBRANCH   9  10
ENDBRANCH   8   9
ENDBRANCH   7   8
ENDBRANCH   6   7
ENDBRANCH   5   6
ENDBRANCH   4   5
ENDBRANCH   3   4
ENDBRANCH   1   3
BRANCH   2  13
ATOM     13  C   UNL     1       0.282 -16.844 -19.143  1.00  0.00     0.027 C 
BRANCH  13  14
ATOM     14  C   UNL     1       0.283 -15.322 -19.344  1.00  0.00     0.004 C 
BRANCH  14  15
ATOM     15  C   UNL     1      -0.932 -14.641 -18.694  1.00  0.00     0.000 C 
BRANCH  15  16
ATOM     16  C   UNL     1      -0.524 -13.551 -17.689  1.00  0.00     0.000 C 
BRANCH  16  17
ATOM     17  C   UNL     1       0.971 -13.203 -17.766  1.00  0.00    -0.000 C 
BRANCH  17  18
ATOM     18  C   UNL     1       1.689 -13.346 -16.413  1.00  0.00    -0.000 C 
BRANCH  18  19
ATOM     19  C   UNL     1       2.822 -14.384 -16.453  1.00  0.00    -0.003 C 
ATOM     20  C   UNL     1       3.637 -14.322 -17.746  1.00  0.00     0.004 C 
ENDBRANCH  18  19
ENDBRANCH  17  18
ENDBRANCH  16  17
ENDBRANCH  15  16
ENDBRANCH  14  15
ENDBRANCH  13  14
ENDBRANCH   2  13
TORSDOF 15
ENDMDL
MODEL 9
REMARK VINA RESULT:    -4.704      9.897     12.532
REMARK INTER + INTRA:         -10.914
REMARK INTER:                  -8.039
REMARK INTRA:                  -2.876
REMARK UNBOUND:                -2.085
REMARK SMILES CCCCCCCCC=CCCCCCCCC(=O)[O-]
REMARK SMILES IDX 10 1 9 2 11 3 12 4 13 5 14 6 15 7 16 8 17 9 18 10 19 11
REMARK SMILES IDX 20 12 8 13 7 14 6 15 5 16 4 17 3 18 2 19 1 20
REMARK H PARENT
REMARK Flexibility Score: inf
ROOT
ATOM      1  C   UNL     1       0.914 -12.079 -19.871  1.00  0.00    -0.031 C 
ATOM      2  C   UNL     1       1.552 -11.475 -18.851  1.00  0.00    -0.031 C 
ENDROOT
BRANCH   1   3
ATOM      3  C   UNL     1      -0.183 -13.100 -19.716  1.00  0.00     0.027 C 
BRANCH   3   4
ATOM      4  C   UNL     1      -1.562 -12.523 -20.062  1.00  0.00     0.004 C 
BRANCH   4   5
ATOM      5  C   UNL     1      -2.240 -11.864 -18.848  1.00  0.00     0.000 C 
BRANCH   5   6
ATOM      6  C   UNL     1      -2.660 -10.411 -19.117  1.00  0.00     0.000 C 
BRANCH   6   7
ATOM      7  C   UNL     1      -1.971  -9.809 -20.348  1.00  0.00     0.000 C 
BRANCH   7   8
ATOM      8  C   UNL     1      -1.001  -8.692 -19.941  1.00  0.00     0.006 C 
BRANCH   8   9
ATOM      9  C   UNL     1      -0.952  -8.532 -18.418  1.00  0.00     0.053 C 
BRANCH   9  10
ATOM     10  C   UNL     1      -1.450  -7.178 -18.018  1.00  0.00     0.041 C 
ATOM     11  O   UNL     1      -2.284  -7.062 -17.079  1.00  0.00    -0.550 OA
ATOM     12  O   UNL     1      -0.955  -6.041 -18.645  1.00  0.00    -0.550 OA
ENDBRANCH   9  10
ENDBRANCH   8   9
ENDBRANCH   7   8
ENDBRANCH   6   7
ENDBRANCH   5   6
ENDBRANCH   4   5
ENDBRANCH   3   4
ENDBRANCH   1   3
BRANCH   2  13
ATOM     13  C   UNL     1       1.210 -11.659 -17.394  1.00  0.00     0.027 C 
BRANCH  13  14
ATOM     14  C   UNL     1       2.451 -12.081 -16.594  1.00  0.00     0.004 C 
BRANCH  14  15
ATOM     15  C   UNL     1       3.714 -12.168 -17.466  1.00  0.00     0.000 C 
BRANCH  15  16
ATOM     16  C   UNL     1       4.318 -13.582 -17.483  1.00  0.00     0.000 C 
BRANCH  16  17
ATOM     17  C   UNL     1       3.305 -14.664 -17.074  1.00  0.00    -0.000 C 
BRANCH  17  18
ATOM     18  C   UNL     1       2.621 -15.330 -18.280  1.00  0.00    -0.000 C 
BRANCH  18  19
ATOM     19  C   UNL     1       1.260 -15.948 -17.918  1.00  0.00    -0.003 C 
ATOM     20  C   UNL     1       0.674 -15.378 -16.626  1.00  0.00     0.004 C 
ENDBRANCH  18  19
ENDBRANCH  17  18
ENDBRANCH  16  17
ENDBRANCH  15  16
ENDBRANCH  14  15
ENDBRANCH  13  14
ENDBRANCH   2  13
TORSDOF 15
ENDMDL
