MODEL 1
REMARK VINA RESULT:    -6.404      0.000      0.000
REMARK INTER + INTRA:          -7.820
REMARK INTER:                  -7.527
REMARK INTRA:                  -0.293
REMARK UNBOUND:                -0.293
REMARK SMILES O=c1cc(-c2ccc(O)c(O)c2)oc2cc(O)cc(O)c12
REMARK SMILES IDX 4 1 3 2 2 3 1 4 21 5 19 6 18 7 16 8 15 9 14 10 13 11 5 12
REMARK SMILES IDX 6 13 7 14 8 15 12 16 10 17 9 18 11 20 20 22 17 24
REMARK H PARENT 9 19 11 21 20 23 17 25
REMARK Flexibility Score: inf
ROOT
ATOM      1  C   UNL     1      41.036  18.148  -5.925  1.00  0.00     0.138 A 
ATOM      2  C   UNL     1      41.831  18.242  -4.774  1.00  0.00     0.100 A 
ATOM      3  C   UNL     1      41.518  19.184  -3.794  1.00  0.00     0.197 A 
ATOM      4  O   UNL     1      42.286  19.287  -2.802  1.00  0.00    -0.289 OA
ATOM      5  C   UNL     1      40.383  20.014  -3.953  1.00  0.00     0.107 A 
ATOM      6  C   UNL     1      39.944  20.982  -3.000  1.00  0.00     0.134 A 
ATOM      7  C   UNL     1      38.875  21.827  -3.319  1.00  0.00     0.093 A 
ATOM      8  C   UNL     1      38.190  21.700  -4.530  1.00  0.00     0.123 A 
ATOM      9  C   UNL     1      38.578  20.723  -5.445  1.00  0.00     0.094 A 
ATOM     10  C   UNL     1      39.662  19.887  -5.171  1.00  0.00     0.146 A 
ATOM     11  O   UNL     1      40.009  18.978  -6.075  1.00  0.00    -0.456 OA
ENDROOT
BRANCH   1  12
ATOM     12  C   UNL     1      41.323  17.164  -6.998  1.00  0.00     0.021 A 
ATOM     13  C   UNL     1      40.784  17.362  -8.281  1.00  0.00     0.016 A 
ATOM     14  C   UNL     1      41.033  16.447  -9.307  1.00  0.00     0.051 A 
ATOM     15  C   UNL     1      41.816  15.314  -9.068  1.00  0.00     0.157 A 
ATOM     16  C   UNL     1      42.101  16.013  -6.759  1.00  0.00     0.062 A 
ATOM     17  C   UNL     1      42.351  15.093  -7.788  1.00  0.00     0.158 A 
BRANCH  15  18
ATOM     18  O   UNL     1      42.049  14.418 -10.112  1.00  0.00    -0.504 OA
ATOM     19  H   UNL     1      42.094  13.418  -9.963  1.00  0.00     0.293 HD
ENDBRANCH  15  18
BRANCH  17  20
ATOM     20  O   UNL     1      43.122  13.958  -7.541  1.00  0.00    -0.504 OA
ATOM     21  H   UNL     1      43.604  13.470  -8.287  1.00  0.00     0.293 HD
ENDBRANCH  17  20
ENDBRANCH   1  12
BRANCH   6  22
ATOM     22  O   UNL     1      40.503  21.134  -1.727  1.00  0.00    -0.507 OA
ATOM     23  H   UNL     1      41.235  20.556  -1.347  1.00  0.00     0.293 HD
ENDBRANCH   6  22
BRANCH   8  24
ATOM     24  O   UNL     1      37.118  22.536  -4.832  1.00  0.00    -0.508 OA
ATOM     25  H   UNL     1      36.718  23.158  -4.138  1.00  0.00     0.293 HD
ENDBRANCH   8  24
TORSDOF 5
ENDMDL
MODEL 2
REMARK VINA RESULT:    -6.246      8.833     12.503
REMARK INTER + INTRA:          -7.635
REMARK INTER:                  -7.372
REMARK INTRA:                  -0.263
REMARK UNBOUND:                -0.293
REMARK SMILES O=c1cc(-c2ccc(O)c(O)c2)oc2cc(O)cc(O)c12
REMARK SMILES IDX 4 1 3 2 2 3 1 4 21 5 19 6 18 7 16 8 15 9 14 10 13 11 5 12
REMARK SMILES IDX 6 13 7 14 8 15 12 16 10 17 9 18 11 20 20 22 17 24
REMARK H PARENT 9 19 11 21 20 23 17 25
REMARK Flexibility Score: inf
ROOT
ATOM      1  C   UNL     1      42.024  20.389   5.668  1.00  0.00     0.138 A 
ATOM      2  C   UNL     1      42.224  21.767   5.823  1.00  0.00     0.100 A 
ATOM      3  C   UNL     1      42.377  22.574   4.695  1.00  0.00     0.197 A 
ATOM      4  O   UNL     1      42.617  23.797   4.867  1.00  0.00    -0.289 OA
ATOM      5  C   UNL     1      42.299  22.000   3.404  1.00  0.00     0.107 A 
ATOM      6  C   UNL     1      42.400  22.730   2.182  1.00  0.00     0.134 A 
ATOM      7  C   UNL     1      42.425  22.038   0.965  1.00  0.00     0.093 A 
ATOM      8  C   UNL     1      42.292  20.648   0.923  1.00  0.00     0.123 A 
ATOM      9  C   UNL     1      42.139  19.930   2.107  1.00  0.00     0.094 A 
ATOM     10  C   UNL     1      42.145  20.588   3.339  1.00  0.00     0.146 A 
ATOM     11  O   UNL     1      42.011  19.866   4.446  1.00  0.00    -0.456 OA
ENDROOT
BRANCH   1  12
ATOM     12  C   UNL     1      41.854  19.485   6.833  1.00  0.00     0.021 A 
ATOM     13  C   UNL     1      42.913  18.644   7.218  1.00  0.00     0.016 A 
ATOM     14  C   UNL     1      42.775  17.779   8.306  1.00  0.00     0.051 A 
ATOM     15  C   UNL     1      41.576  17.731   9.024  1.00  0.00     0.157 A 
ATOM     16  C   UNL     1      40.643  19.423   7.551  1.00  0.00     0.062 A 
ATOM     17  C   UNL     1      40.504  18.554   8.644  1.00  0.00     0.158 A 
BRANCH  15  18
ATOM     18  O   UNL     1      41.469  16.858  10.107  1.00  0.00    -0.504 OA
ATOM     19  H   UNL     1      41.383  17.191  11.058  1.00  0.00     0.293 HD
ENDBRANCH  15  18
BRANCH  17  20
ATOM     20  O   UNL     1      39.302  18.501   9.348  1.00  0.00    -0.504 OA
ATOM     21  H   UNL     1      38.945  19.305   9.851  1.00  0.00     0.293 HD
ENDBRANCH  17  20
ENDBRANCH   1  12
BRANCH   6  22
ATOM     22  O   UNL     1      42.453  24.125   2.108  1.00  0.00    -0.507 OA
ATOM     23  H   UNL     1      43.166  24.698   2.531  1.00  0.00     0.293 HD
ENDBRANCH   6  22
BRANCH   8  24
ATOM     24  O   UNL     1      42.303  19.970  -0.294  1.00  0.00    -0.508 OA
ATOM     25  H   UNL     1      41.741  20.279  -1.079  1.00  0.00     0.293 HD
ENDBRANCH   8  24
TORSDOF 5
ENDMDL
MODEL 3
REMARK VINA RESULT:    -6.233      2.972      5.661
REMARK INTER + INTRA:          -7.620
REMARK INTER:                  -7.350
REMARK INTRA:                  -0.270
REMARK UNBOUND:                -0.293
REMARK SMILES O=c1cc(-c2ccc(O)c(O)c2)oc2cc(O)cc(O)c12
REMARK SMILES IDX 4 1 3 2 2 3 1 4 21 5 19 6 18 7 16 8 15 9 14 10 13 11 5 12
REMARK SMILES IDX 6 13 7 14 8 15 12 16 10 17 9 18 11 20 20 22 17 24
REMARK H PARENT 9 19 11 21 20 23 17 25
REMARK Flexibility Score: inf
ROOT
ATOM      1  C   UNL     1      39.570  20.711  -6.109  1.00  0.00     0.138 A 
ATOM      2  C   UNL     1      40.356  19.581  -6.368  1.00  0.00     0.100 A 
ATOM      3  C   UNL     1      41.201  19.084  -5.375  1.00  0.00     0.197 A 
ATOM      4  O   UNL     1      41.940  18.106  -5.657  1.00  0.00    -0.289 OA
ATOM      5  C   UNL     1      41.233  19.706  -4.104  1.00  0.00     0.107 A 
ATOM      6  C   UNL     1      42.024  19.264  -3.002  1.00  0.00     0.134 A 
ATOM      7  C   UNL     1      42.063  20.028  -1.830  1.00  0.00     0.093 A 
ATOM      8  C   UNL     1      41.293  21.186  -1.697  1.00  0.00     0.123 A 
ATOM      9  C   UNL     1      40.476  21.598  -2.748  1.00  0.00     0.094 A 
ATOM     10  C   UNL     1      40.441  20.876  -3.943  1.00  0.00     0.146 A 
ATOM     11  O   UNL     1      39.660  21.310  -4.926  1.00  0.00    -0.456 OA
ENDROOT
BRANCH   1  12
ATOM     12  C   UNL     1      38.654  21.280  -7.129  1.00  0.00     0.021 A 
ATOM     13  C   UNL     1      39.189  21.901  -8.272  1.00  0.00     0.016 A 
ATOM     14  C   UNL     1      38.348  22.450  -9.242  1.00  0.00     0.051 A 
ATOM     15  C   UNL     1      36.960  22.400  -9.086  1.00  0.00     0.157 A 
ATOM     16  C   UNL     1      37.254  21.243  -6.970  1.00  0.00     0.062 A 
ATOM     17  C   UNL     1      36.409  21.796  -7.944  1.00  0.00     0.158 A 
BRANCH  15  18
ATOM     18  O   UNL     1      36.146  22.956 -10.073  1.00  0.00    -0.504 OA
ATOM     19  H   UNL     1      36.496  23.634 -10.739  1.00  0.00     0.293 HD
ENDBRANCH  15  18
BRANCH  17  20
ATOM     20  O   UNL     1      35.026  21.754  -7.777  1.00  0.00    -0.504 OA
ATOM     21  H   UNL     1      34.553  20.913  -7.466  1.00  0.00     0.293 HD
ENDBRANCH  17  20
ENDBRANCH   1  12
BRANCH   6  22
ATOM     22  O   UNL     1      42.764  18.077  -2.998  1.00  0.00    -0.507 OA
ATOM     23  H   UNL     1      43.030  17.562  -3.823  1.00  0.00     0.293 HD
ENDBRANCH   6  22
BRANCH   8  24
ATOM     24  O   UNL     1      41.327  21.932  -0.521  1.00  0.00    -0.508 OA
ATOM     25  H   UNL     1      41.964  21.704   0.233  1.00  0.00     0.293 HD
ENDBRANCH   8  24
TORSDOF 5
ENDMDL
MODEL 4
REMARK VINA RESULT:    -5.944      1.385      2.840
REMARK INTER + INTRA:          -7.279
REMARK INTER:                  -6.987
REMARK INTRA:                  -0.293
REMARK UNBOUND:                -0.293
REMARK SMILES O=c1cc(-c2ccc(O)c(O)c2)oc2cc(O)cc(O)c12
REMARK SMILES IDX 4 1 3 2 2 3 1 4 21 5 19 6 18 7 16 8 15 9 14 10 13 11 5 12
REMARK SMILES IDX 6 13 7 14 8 15 12 16 10 17 9 18 11 20 20 22 17 24
REMARK H PARENT 9 19 11 21 20 23 17 25
REMARK Flexibility Score: inf
ROOT
ATOM      1  C   UNL     1      40.522  18.951  -5.977  1.00  0.00     0.138 A 
ATOM      2  C   UNL     1      39.382  19.763  -6.053  1.00  0.00     0.100 A 
ATOM      3  C   UNL     1      39.160  20.734  -5.076  1.00  0.00     0.197 A 
ATOM      4  O   UNL     1      38.098  21.406  -5.137  1.00  0.00    -0.289 OA
ATOM      5  C   UNL     1      40.101  20.912  -4.034  1.00  0.00     0.107 A 
ATOM      6  C   UNL     1      39.999  21.897  -3.006  1.00  0.00     0.134 A 
ATOM      7  C   UNL     1      40.931  21.902  -1.961  1.00  0.00     0.093 A 
ATOM      8  C   UNL     1      41.995  20.997  -1.939  1.00  0.00     0.123 A 
ATOM      9  C   UNL     1      42.134  20.065  -2.966  1.00  0.00     0.094 A 
ATOM     10  C   UNL     1      41.201  20.013  -4.004  1.00  0.00     0.146 A 
ATOM     11  O   UNL     1      41.361  19.101  -4.957  1.00  0.00    -0.456 OA
ENDROOT
BRANCH   1  12
ATOM     12  C   UNL     1      40.808  17.904  -6.989  1.00  0.00     0.021 A 
ATOM     13  C   UNL     1      40.652  18.199  -8.354  1.00  0.00     0.016 A 
ATOM     14  C   UNL     1      40.908  17.229  -9.326  1.00  0.00     0.051 A 
ATOM     15  C   UNL     1      41.315  15.945  -8.953  1.00  0.00     0.157 A 
ATOM     16  C   UNL     1      41.205  16.603  -6.617  1.00  0.00     0.062 A 
ATOM     17  C   UNL     1      41.462  15.628  -7.593  1.00  0.00     0.158 A 
BRANCH  15  18
ATOM     18  O   UNL     1      41.565  14.998  -9.946  1.00  0.00    -0.504 OA
ATOM     19  H   UNL     1      41.000  14.164 -10.048  1.00  0.00     0.293 HD
ENDBRANCH  15  18
BRANCH  17  20
ATOM     20  O   UNL     1      41.855  14.346  -7.214  1.00  0.00    -0.504 OA
ATOM     21  H   UNL     1      41.235  13.729  -6.702  1.00  0.00     0.293 HD
ENDBRANCH  17  20
ENDBRANCH   1  12
BRANCH   6  22
ATOM     22  O   UNL     1      39.026  22.900  -2.979  1.00  0.00    -0.507 OA
ATOM     23  H   UNL     1      38.876  23.537  -2.212  1.00  0.00     0.293 HD
ENDBRANCH   6  22
BRANCH   8  24
ATOM     24  O   UNL     1      42.926  21.019  -0.903  1.00  0.00    -0.508 OA
ATOM     25  H   UNL     1      43.120  20.195  -0.345  1.00  0.00     0.293 HD
ENDBRANCH   8  24
TORSDOF 5
ENDMDL
MODEL 5
REMARK VINA RESULT:    -5.909      3.390      7.857
REMARK INTER + INTRA:          -7.239
REMARK INTER:                  -6.933
REMARK INTRA:                  -0.305
REMARK UNBOUND:                -0.293
REMARK SMILES O=c1cc(-c2ccc(O)c(O)c2)oc2cc(O)cc(O)c12
REMARK SMILES IDX 4 1 3 2 2 3 1 4 21 5 19 6 18 7 16 8 15 9 14 10 13 11 5 12
REMARK SMILES IDX 6 13 7 14 8 15 12 16 10 17 9 18 11 20 20 22 17 24
REMARK H PARENT 9 19 11 21 20 23 17 25
REMARK Flexibility Score: inf
ROOT
ATOM      1  C   UNL     1      41.591  20.610  -1.359  1.00  0.00     0.138 A 
ATOM      2  C   UNL     1      42.336  19.694  -2.114  1.00  0.00     0.100 A 
ATOM      3  C   UNL     1      41.924  19.368  -3.407  1.00  0.00     0.197 A 
ATOM      4  O   UNL     1      42.578  18.497  -4.037  1.00  0.00    -0.289 OA
ATOM      5  C   UNL     1      40.775  19.986  -3.956  1.00  0.00     0.107 A 
ATOM      6  C   UNL     1      40.284  19.761  -5.277  1.00  0.00     0.134 A 
ATOM      7  C   UNL     1      39.072  20.341  -5.670  1.00  0.00     0.093 A 
ATOM      8  C   UNL     1      38.364  21.186  -4.811  1.00  0.00     0.123 A 
ATOM      9  C   UNL     1      38.863  21.454  -3.538  1.00  0.00     0.094 A 
ATOM     10  C   UNL     1      40.052  20.864  -3.104  1.00  0.00     0.146 A 
ATOM     11  O   UNL     1      40.485  21.135  -1.878  1.00  0.00    -0.456 OA
ENDROOT
BRANCH   1  12
ATOM     12  C   UNL     1      41.985  20.994   0.020  1.00  0.00     0.021 A 
ATOM     13  C   UNL     1      42.662  20.067   0.830  1.00  0.00     0.016 A 
ATOM     14  C   UNL     1      43.037  20.402   2.133  1.00  0.00     0.051 A 
ATOM     15  C   UNL     1      42.735  21.663   2.654  1.00  0.00     0.157 A 
ATOM     16  C   UNL     1      41.670  22.260   0.554  1.00  0.00     0.062 A 
ATOM     17  C   UNL     1      42.045  22.597   1.863  1.00  0.00     0.158 A 
BRANCH  15  18
ATOM     18  O   UNL     1      43.123  21.969   3.959  1.00  0.00    -0.504 OA
ATOM     19  H   UNL     1      42.685  21.540   4.764  1.00  0.00     0.293 HD
ENDBRANCH  15  18
BRANCH  17  20
ATOM     20  O   UNL     1      41.730  23.852   2.381  1.00  0.00    -0.504 OA
ATOM     21  H   UNL     1      40.876  24.013   2.902  1.00  0.00     0.293 HD
ENDBRANCH  17  20
ENDBRANCH   1  12
BRANCH   6  22
ATOM     22  O   UNL     1      40.956  19.004  -6.242  1.00  0.00    -0.507 OA
ATOM     23  H   UNL     1      41.632  19.370  -6.893  1.00  0.00     0.293 HD
ENDBRANCH   6  22
BRANCH   8  24
ATOM     24  O   UNL     1      37.167  21.770  -5.217  1.00  0.00    -0.508 OA
ATOM     25  H   UNL     1      36.922  22.718  -4.952  1.00  0.00     0.293 HD
ENDBRANCH   8  24
TORSDOF 5
ENDMDL
MODEL 6
REMARK VINA RESULT:    -5.711      2.062      7.125
REMARK INTER + INTRA:          -7.005
REMARK INTER:                  -6.690
REMARK INTRA:                  -0.315
REMARK UNBOUND:                -0.293
REMARK SMILES O=c1cc(-c2ccc(O)c(O)c2)oc2cc(O)cc(O)c12
REMARK SMILES IDX 4 1 3 2 2 3 1 4 21 5 19 6 18 7 16 8 15 9 14 10 13 11 5 12
REMARK SMILES IDX 6 13 7 14 8 15 12 16 10 17 9 18 11 20 20 22 17 24
REMARK H PARENT 9 19 11 21 20 23 17 25
REMARK Flexibility Score: inf
ROOT
ATOM      1  C   UNL     1      41.038  19.615  -5.327  1.00  0.00     0.138 A 
ATOM      2  C   UNL     1      40.743  20.276  -6.528  1.00  0.00     0.100 A 
ATOM      3  C   UNL     1      40.716  19.556  -7.723  1.00  0.00     0.197 A 
ATOM      4  O   UNL     1      40.510  20.187  -8.792  1.00  0.00    -0.289 OA
ATOM      5  C   UNL     1      40.954  18.161  -7.709  1.00  0.00     0.107 A 
ATOM      6  C   UNL     1      40.912  17.318  -8.860  1.00  0.00     0.134 A 
ATOM      7  C   UNL     1      41.280  15.972  -8.743  1.00  0.00     0.093 A 
ATOM      8  C   UNL     1      41.630  15.425  -7.506  1.00  0.00     0.123 A 
ATOM      9  C   UNL     1      41.623  16.227  -6.367  1.00  0.00     0.094 A 
ATOM     10  C   UNL     1      41.293  17.581  -6.457  1.00  0.00     0.146 A 
ATOM     11  O   UNL     1      41.313  18.315  -5.349  1.00  0.00    -0.456 OA
ENDROOT
BRANCH   1  12
ATOM     12  C   UNL     1      41.079  20.332  -4.027  1.00  0.00     0.021 A 
ATOM     13  C   UNL     1      41.108  21.737  -4.012  1.00  0.00     0.016 A 
ATOM     14  C   UNL     1      41.154  22.434  -2.802  1.00  0.00     0.051 A 
ATOM     15  C   UNL     1      41.183  21.742  -1.588  1.00  0.00     0.157 A 
ATOM     16  C   UNL     1      41.122  19.638  -2.801  1.00  0.00     0.062 A 
ATOM     17  C   UNL     1      41.170  20.337  -1.586  1.00  0.00     0.158 A 
BRANCH  15  18
ATOM     18  O   UNL     1      41.228  22.465  -0.396  1.00  0.00    -0.504 OA
ATOM     19  H   UNL     1      41.314  22.012   0.505  1.00  0.00     0.293 HD
ENDBRANCH  15  18
BRANCH  17  20
ATOM     20  O   UNL     1      41.210  19.642  -0.379  1.00  0.00    -0.504 OA
ATOM     21  H   UNL     1      42.079  19.278  -0.004  1.00  0.00     0.293 HD
ENDBRANCH  17  20
ENDBRANCH   1  12
BRANCH   6  22
ATOM     22  O   UNL     1      40.495  17.743 -10.125  1.00  0.00    -0.507 OA
ATOM     23  H   UNL     1      40.752  17.303 -10.994  1.00  0.00     0.293 HD
ENDBRANCH   6  22
BRANCH   8  24
ATOM     24  O   UNL     1      41.980  14.081  -7.397  1.00  0.00    -0.508 OA
ATOM     25  H   UNL     1      41.400  13.421  -6.890  1.00  0.00     0.293 HD
ENDBRANCH   8  24
TORSDOF 5
ENDMDL
MODEL 7
REMARK VINA RESULT:    -5.683      6.092      8.936
REMARK INTER + INTRA:          -6.973
REMARK INTER:                  -6.689
REMARK INTRA:                  -0.284
REMARK UNBOUND:                -0.293
REMARK SMILES O=c1cc(-c2ccc(O)c(O)c2)oc2cc(O)cc(O)c12
REMARK SMILES IDX 4 1 3 2 2 3 1 4 21 5 19 6 18 7 16 8 15 9 14 10 13 11 5 12
REMARK SMILES IDX 6 13 7 14 8 15 12 16 10 17 9 18 11 20 20 22 17 24
REMARK H PARENT 9 19 11 21 20 23 17 25
REMARK Flexibility Score: inf
ROOT
ATOM      1  C   UNL     1      42.315  21.200   1.298  1.00  0.00     0.138 A 
ATOM      2  C   UNL     1      42.252  22.548   1.678  1.00  0.00     0.100 A 
ATOM      3  C   UNL     1      42.241  22.884   3.032  1.00  0.00     0.197 A 
ATOM      4  O   UNL     1      42.122  24.097   3.342  1.00  0.00    -0.289 OA
ATOM      5  C   UNL     1      42.325  21.864   4.010  1.00  0.00     0.107 A 
ATOM      6  C   UNL     1      42.363  22.091   5.419  1.00  0.00     0.134 A 
ATOM      7  C   UNL     1      42.328  20.999   6.294  1.00  0.00     0.093 A 
ATOM      8  C   UNL     1      42.318  19.688   5.812  1.00  0.00     0.123 A 
ATOM      9  C   UNL     1      42.335  19.455   4.438  1.00  0.00     0.094 A 
ATOM     10  C   UNL     1      42.335  20.524   3.539  1.00  0.00     0.146 A 
ATOM     11  O   UNL     1      42.336  20.259   2.237  1.00  0.00    -0.456 OA
ENDROOT
BRANCH   1  12
ATOM     12  C   UNL     1      42.331  20.786  -0.128  1.00  0.00     0.021 A 
ATOM     13  C   UNL     1      43.088  19.668  -0.516  1.00  0.00     0.016 A 
ATOM     14  C   UNL     1      43.125  19.263  -1.852  1.00  0.00     0.051 A 
ATOM     15  C   UNL     1      42.415  19.971  -2.826  1.00  0.00     0.157 A 
ATOM     16  C   UNL     1      41.627  21.506  -1.115  1.00  0.00     0.062 A 
ATOM     17  C   UNL     1      41.665  21.100  -2.457  1.00  0.00     0.158 A 
BRANCH  15  18
ATOM     18  O   UNL     1      42.470  19.542  -4.152  1.00  0.00    -0.504 OA
ATOM     19  H   UNL     1      42.440  20.190  -4.928  1.00  0.00     0.293 HD
ENDBRANCH  15  18
BRANCH  17  20
ATOM     20  O   UNL     1      40.965  21.818  -3.425  1.00  0.00    -0.504 OA
ATOM     21  H   UNL     1      41.093  21.640  -4.415  1.00  0.00     0.293 HD
ENDBRANCH  17  20
ENDBRANCH   1  12
BRANCH   6  22
ATOM     22  O   UNL     1      42.460  23.357   6.004  1.00  0.00    -0.507 OA
ATOM     23  H   UNL     1      42.713  23.530   6.964  1.00  0.00     0.293 HD
ENDBRANCH   6  22
BRANCH   8  24
ATOM     24  O   UNL     1      42.299  18.607   6.691  1.00  0.00    -0.508 OA
ATOM     25  H   UNL     1      42.944  18.546   7.470  1.00  0.00     0.293 HD
ENDBRANCH   8  24
TORSDOF 5
ENDMDL
MODEL 8
REMARK VINA RESULT:    -5.667      3.627      6.627
REMARK INTER + INTRA:          -6.954
REMARK INTER:                  -6.658
REMARK INTRA:                  -0.295
REMARK UNBOUND:                -0.293
REMARK SMILES O=c1cc(-c2ccc(O)c(O)c2)oc2cc(O)cc(O)c12
REMARK SMILES IDX 4 1 3 2 2 3 1 4 21 5 19 6 18 7 16 8 15 9 14 10 13 11 5 12
REMARK SMILES IDX 6 13 7 14 8 15 12 16 10 17 9 18 11 20 20 22 17 24
REMARK H PARENT 9 19 11 21 20 23 17 25
REMARK Flexibility Score: inf
ROOT
ATOM      1  C   UNL     1      41.179  20.691  -3.888  1.00  0.00     0.138 A 
ATOM      2  C   UNL     1      42.027  20.465  -4.981  1.00  0.00     0.100 A 
ATOM      3  C   UNL     1      41.511  20.509  -6.276  1.00  0.00     0.197 A 
ATOM      4  O   UNL     1      42.283  20.241  -7.234  1.00  0.00    -0.289 OA
ATOM      5  C   UNL     1      40.144  20.814  -6.479  1.00  0.00     0.107 A 
ATOM      6  C   UNL     1      39.516  20.927  -7.756  1.00  0.00     0.134 A 
ATOM      7  C   UNL     1      38.131  21.116  -7.829  1.00  0.00     0.093 A 
ATOM      8  C   UNL     1      37.360  21.258  -6.673  1.00  0.00     0.123 A 
ATOM      9  C   UNL     1      37.971  21.203  -5.422  1.00  0.00     0.094 A 
ATOM     10  C   UNL     1      39.346  20.980  -5.315  1.00  0.00     0.146 A 
ATOM     11  O   UNL     1      39.888  20.920  -4.103  1.00  0.00    -0.456 OA
ENDROOT
BRANCH   1  12
ATOM     12  C   UNL     1      41.676  20.657  -2.490  1.00  0.00     0.021 A 
ATOM     13  C   UNL     1      42.582  19.655  -2.101  1.00  0.00     0.016 A 
ATOM     14  C   UNL     1      43.057  19.597  -0.789  1.00  0.00     0.051 A 
ATOM     15  C   UNL     1      42.631  20.530   0.160  1.00  0.00     0.157 A 
ATOM     16  C   UNL     1      41.238  21.588  -1.526  1.00  0.00     0.062 A 
ATOM     17  C   UNL     1      41.715  21.529  -0.208  1.00  0.00     0.158 A 
BRANCH  15  18
ATOM     18  O   UNL     1      43.125  20.447   1.462  1.00  0.00    -0.504 OA
ATOM     19  H   UNL     1      42.627  20.839   2.251  1.00  0.00     0.293 HD
ENDBRANCH  15  18
BRANCH  17  20
ATOM     20  O   UNL     1      41.276  22.455   0.737  1.00  0.00    -0.504 OA
ATOM     21  H   UNL     1      41.928  23.017   1.273  1.00  0.00     0.293 HD
ENDBRANCH  17  20
ENDBRANCH   1  12
BRANCH   6  22
ATOM     22  O   UNL     1      40.206  20.885  -8.971  1.00  0.00    -0.507 OA
ATOM     23  H   UNL     1      40.697  20.080  -9.328  1.00  0.00     0.293 HD
ENDBRANCH   6  22
BRANCH   8  24
ATOM     24  O   UNL     1      35.985  21.462  -6.756  1.00  0.00    -0.508 OA
ATOM     25  H   UNL     1      35.585  22.394  -6.741  1.00  0.00     0.293 HD
ENDBRANCH   8  24
TORSDOF 5
ENDMDL
MODEL 9
REMARK VINA RESULT:    -5.539      4.347      9.050
REMARK INTER + INTRA:          -6.804
REMARK INTER:                  -6.514
REMARK INTRA:                  -0.290
REMARK UNBOUND:                -0.293
REMARK SMILES O=c1cc(-c2ccc(O)c(O)c2)oc2cc(O)cc(O)c12
REMARK SMILES IDX 4 1 3 2 2 3 1 4 21 5 19 6 18 7 16 8 15 9 14 10 13 11 5 12
REMARK SMILES IDX 6 13 7 14 8 15 12 16 10 17 9 18 11 20 20 22 17 24
REMARK H PARENT 9 19 11 21 20 23 17 25
REMARK Flexibility Score: inf
ROOT
ATOM      1  C   UNL     1      41.798  21.513  -0.254  1.00  0.00     0.138 A 
ATOM      2  C   UNL     1      41.250  22.582  -0.976  1.00  0.00     0.100 A 
ATOM      3  C   UNL     1      41.037  22.451  -2.349  1.00  0.00     0.197 A 
ATOM      4  O   UNL     1      40.602  23.449  -2.981  1.00  0.00    -0.289 OA
ATOM      5  C   UNL     1      41.347  21.231  -2.996  1.00  0.00     0.107 A 
ATOM      6  C   UNL     1      41.136  20.969  -4.383  1.00  0.00     0.134 A 
ATOM      7  C   UNL     1      41.590  19.765  -4.934  1.00  0.00     0.093 A 
ATOM      8  C   UNL     1      42.193  18.789  -4.138  1.00  0.00     0.123 A 
ATOM      9  C   UNL     1      42.357  19.013  -2.773  1.00  0.00     0.094 A 
ATOM     10  C   UNL     1      41.945  20.218  -2.199  1.00  0.00     0.146 A 
ATOM     11  O   UNL     1      42.132  20.398  -0.896  1.00  0.00    -0.456 OA
ENDROOT
BRANCH   1  12
ATOM     12  C   UNL     1      42.043  21.597   1.207  1.00  0.00     0.021 A 
ATOM     13  C   UNL     1      42.077  20.419   1.973  1.00  0.00     0.016 A 
ATOM     14  C   UNL     1      42.300  20.472   3.351  1.00  0.00     0.051 A 
ATOM     15  C   UNL     1      42.482  21.701   3.991  1.00  0.00     0.157 A 
ATOM     16  C   UNL     1      42.214  22.835   1.859  1.00  0.00     0.062 A 
ATOM     17  C   UNL     1      42.436  22.889   3.243  1.00  0.00     0.158 A 
BRANCH  15  18
ATOM     18  O   UNL     1      42.703  21.722   5.368  1.00  0.00    -0.504 OA
ATOM     19  H   UNL     1      42.035  22.125   6.013  1.00  0.00     0.293 HD
ENDBRANCH  15  18
BRANCH  17  20
ATOM     20  O   UNL     1      42.605  24.119   3.878  1.00  0.00    -0.504 OA
ATOM     21  H   UNL     1      42.839  24.182   4.862  1.00  0.00     0.293 HD
ENDBRANCH  17  20
ENDBRANCH   1  12
BRANCH   6  22
ATOM     22  O   UNL     1      40.468  21.840  -5.249  1.00  0.00    -0.507 OA
ATOM     23  H   UNL     1      40.228  22.795  -5.033  1.00  0.00     0.293 HD
ENDBRANCH   6  22
BRANCH   8  24
ATOM     24  O   UNL     1      42.628  17.588  -4.694  1.00  0.00    -0.508 OA
ATOM     25  H   UNL     1      42.854  16.786  -4.115  1.00  0.00     0.293 HD
ENDBRANCH   8  24
TORSDOF 5
ENDMDL
