MODEL 1
REMARK VINA RESULT:   -10.351      0.000      0.000
REMARK INTER + INTRA:         -11.222
REMARK INTER:                 -10.956
REMARK INTRA:                  -0.265
REMARK UNBOUND:                -0.265
REMARK SMILES O=c1cc(-c2ccccc2)oc2ccccc12
REMARK SMILES IDX 4 1 3 2 2 3 1 4 17 5 16 6 15 7 14 8 13 9 12 10 11 11 5 12
REMARK SMILES IDX 8 13 7 14 9 15 6 16 10 17
REMARK H PARENT
REMARK Flexibility Score: inf
ROOT
ATOM      1  C   UNL     1      33.908  26.335  19.677  1.00  0.00     0.138 A 
ATOM      2  C   UNL     1      34.013  25.039  19.131  1.00  0.00     0.100 A 
ATOM      3  C   UNL     1      33.738  24.837  17.777  1.00  0.00     0.193 A 
ATOM      4  O   UNL     1      33.833  23.677  17.289  1.00  0.00    -0.289 OA
ATOM      5  C   UNL     1      33.361  25.926  16.979  1.00  0.00     0.065 A 
ATOM      6  C   UNL     1      33.070  25.791  15.609  1.00  0.00     0.016 A 
ATOM      7  C   UNL     1      32.698  26.912  14.860  1.00  0.00     0.001 A 
ATOM      8  C   UNL     1      32.613  28.168  15.468  1.00  0.00     0.004 A 
ATOM      9  C   UNL     1      32.900  28.310  16.828  1.00  0.00     0.048 A 
ATOM     10  C   UNL     1      33.273  27.196  17.588  1.00  0.00     0.138 A 
ATOM     11  O   UNL     1      33.545  27.342  18.881  1.00  0.00    -0.456 OA
ENDROOT
BRANCH   1  12
ATOM     12  C   UNL     1      34.185  26.638  21.115  1.00  0.00     0.017 A 
ATOM     13  C   UNL     1      34.741  27.117  23.841  1.00  0.00     0.000 A 
ATOM     14  C   UNL     1      34.219  28.136  23.045  1.00  0.00     0.001 A 
ATOM     15  C   UNL     1      34.988  25.861  23.288  1.00  0.00     0.001 A 
ATOM     16  C   UNL     1      33.942  27.905  21.693  1.00  0.00     0.012 A 
ATOM     17  C   UNL     1      34.714  25.621  21.939  1.00  0.00     0.012 A 
ENDBRANCH   1  12
TORSDOF 1
ENDMDL
MODEL 2
REMARK VINA RESULT:    -9.908      1.123      5.785
REMARK INTER + INTRA:         -10.753
REMARK INTER:                 -10.487
REMARK INTRA:                  -0.266
REMARK UNBOUND:                -0.265
REMARK SMILES O=c1cc(-c2ccccc2)oc2ccccc12
REMARK SMILES IDX 4 1 3 2 2 3 1 4 17 5 16 6 15 7 14 8 13 9 12 10 11 11 5 12
REMARK SMILES IDX 8 13 7 14 9 15 6 16 10 17
REMARK H PARENT
REMARK Flexibility Score: inf
ROOT
ATOM      1  C   UNL     1      33.890  26.263  18.858  1.00  0.00     0.138 A 
ATOM      2  C   UNL     1      34.376  24.973  19.156  1.00  0.00     0.100 A 
ATOM      3  C   UNL     1      34.753  24.664  20.464  1.00  0.00     0.193 A 
ATOM      4  O   UNL     1      35.187  23.509  20.730  1.00  0.00    -0.289 OA
ATOM      5  C   UNL     1      34.642  25.640  21.464  1.00  0.00     0.065 A 
ATOM      6  C   UNL     1      35.004  25.393  22.801  1.00  0.00     0.016 A 
ATOM      7  C   UNL     1      34.873  26.405  23.758  1.00  0.00     0.001 A 
ATOM      8  C   UNL     1      34.384  27.662  23.391  1.00  0.00     0.004 A 
ATOM      9  C   UNL     1      34.023  27.915  22.065  1.00  0.00     0.048 A 
ATOM     10  C   UNL     1      34.149  26.910  21.099  1.00  0.00     0.138 A 
ATOM     11  O   UNL     1      33.803  27.161  19.840  1.00  0.00    -0.456 OA
ENDROOT
BRANCH   1  12
ATOM     12  C   UNL     1      33.466  26.676  17.485  1.00  0.00     0.017 A 
ATOM     13  C   UNL     1      32.684  27.363  14.861  1.00  0.00     0.000 A 
ATOM     14  C   UNL     1      32.613  28.311  15.881  1.00  0.00     0.001 A 
ATOM     15  C   UNL     1      33.142  26.076  15.138  1.00  0.00     0.001 A 
ATOM     16  C   UNL     1      32.999  27.976  17.184  1.00  0.00     0.012 A 
ATOM     17  C   UNL     1      33.529  25.733  16.436  1.00  0.00     0.012 A 
ENDBRANCH   1  12
TORSDOF 1
ENDMDL
MODEL 3
REMARK VINA RESULT:    -9.806      1.158      2.445
REMARK INTER + INTRA:         -10.645
REMARK INTER:                 -10.379
REMARK INTRA:                  -0.266
REMARK UNBOUND:                -0.265
REMARK SMILES O=c1cc(-c2ccccc2)oc2ccccc12
REMARK SMILES IDX 4 1 3 2 2 3 1 4 17 5 16 6 15 7 14 8 13 9 12 10 11 11 5 12
REMARK SMILES IDX 8 13 7 14 9 15 6 16 10 17
REMARK H PARENT
REMARK Flexibility Score: inf
ROOT
ATOM      1  C   UNL     1      33.654  27.344  19.782  1.00  0.00     0.138 A 
ATOM      2  C   UNL     1      33.118  28.599  19.425  1.00  0.00     0.100 A 
ATOM      3  C   UNL     1      32.775  28.848  18.095  1.00  0.00     0.193 A 
ATOM      4  O   UNL     1      32.295  29.971  17.776  1.00  0.00    -0.289 OA
ATOM      5  C   UNL     1      32.966  27.847  17.133  1.00  0.00     0.065 A 
ATOM      6  C   UNL     1      32.642  28.033  15.777  1.00  0.00     0.016 A 
ATOM      7  C   UNL     1      32.854  27.000  14.859  1.00  0.00     0.001 A 
ATOM      8  C   UNL     1      33.390  25.780  15.284  1.00  0.00     0.004 A 
ATOM      9  C   UNL     1      33.716  25.587  16.629  1.00  0.00     0.048 A 
ATOM     10  C   UNL     1      33.507  26.615  17.557  1.00  0.00     0.138 A 
ATOM     11  O   UNL     1      33.820  26.421  18.834  1.00  0.00    -0.456 OA
ENDROOT
BRANCH   1  12
ATOM     12  C   UNL     1      34.047  26.996  21.182  1.00  0.00     0.017 A 
ATOM     13  C   UNL     1      34.823  26.251  23.792  1.00  0.00     0.000 A 
ATOM     14  C   UNL     1      34.248  27.501  23.565  1.00  0.00     0.001 A 
ATOM     15  C   UNL     1      35.014  25.370  22.729  1.00  0.00     0.001 A 
ATOM     16  C   UNL     1      33.862  27.876  22.273  1.00  0.00     0.012 A 
ATOM     17  C   UNL     1      34.631  25.736  21.436  1.00  0.00     0.012 A 
ENDBRANCH   1  12
TORSDOF 1
ENDMDL
MODEL 4
REMARK VINA RESULT:    -9.557      2.606      4.106
REMARK INTER + INTRA:         -10.381
REMARK INTER:                 -10.123
REMARK INTRA:                  -0.258
REMARK UNBOUND:                -0.265
REMARK SMILES O=c1cc(-c2ccccc2)oc2ccccc12
REMARK SMILES IDX 4 1 3 2 2 3 1 4 17 5 16 6 15 7 14 8 13 9 12 10 11 11 5 12
REMARK SMILES IDX 8 13 7 14 9 15 6 16 10 17
REMARK H PARENT
REMARK Flexibility Score: inf
ROOT
ATOM      1  C   UNL     1      33.509  25.256  17.683  1.00  0.00     0.138 A 
ATOM      2  C   UNL     1      33.339  25.391  16.289  1.00  0.00     0.100 A 
ATOM      3  C   UNL     1      33.041  26.643  15.750  1.00  0.00     0.193 A 
ATOM      4  O   UNL     1      32.889  26.763  14.503  1.00  0.00    -0.289 OA
ATOM      5  C   UNL     1      32.916  27.750  16.601  1.00  0.00     0.065 A 
ATOM      6  C   UNL     1      32.617  29.039  16.122  1.00  0.00     0.016 A 
ATOM      7  C   UNL     1      32.503  30.107  17.016  1.00  0.00     0.001 A 
ATOM      8  C   UNL     1      32.684  29.901  18.387  1.00  0.00     0.004 A 
ATOM      9  C   UNL     1      32.981  28.623  18.871  1.00  0.00     0.048 A 
ATOM     10  C   UNL     1      33.097  27.546  17.985  1.00  0.00     0.138 A 
ATOM     11  O   UNL     1      33.380  26.336  18.455  1.00  0.00    -0.456 OA
ENDROOT
BRANCH   1  12
ATOM     12  C   UNL     1      33.829  23.952  18.341  1.00  0.00     0.017 A 
ATOM     13  C   UNL     1      34.393  21.443  19.507  1.00  0.00     0.000 A 
ATOM     14  C   UNL     1      34.782  22.617  20.152  1.00  0.00     0.001 A 
ATOM     15  C   UNL     1      33.724  21.511  18.286  1.00  0.00     0.001 A 
ATOM     16  C   UNL     1      34.506  23.863  19.579  1.00  0.00     0.012 A 
ATOM     17  C   UNL     1      33.444  22.751  17.706  1.00  0.00     0.012 A 
ENDBRANCH   1  12
TORSDOF 1
ENDMDL
MODEL 5
REMARK VINA RESULT:    -9.469      2.406      6.026
REMARK INTER + INTRA:         -10.287
REMARK INTER:                 -10.027
REMARK INTRA:                  -0.260
REMARK UNBOUND:                -0.265
REMARK SMILES O=c1cc(-c2ccccc2)oc2ccccc12
REMARK SMILES IDX 4 1 3 2 2 3 1 4 17 5 16 6 15 7 14 8 13 9 12 10 11 11 5 12
REMARK SMILES IDX 8 13 7 14 9 15 6 16 10 17
REMARK H PARENT
REMARK Flexibility Score: inf
ROOT
ATOM      1  C   UNL     1      33.757  24.987  18.042  1.00  0.00     0.138 A 
ATOM      2  C   UNL     1      34.373  25.289  19.275  1.00  0.00     0.100 A 
ATOM      3  C   UNL     1      34.693  24.255  20.156  1.00  0.00     0.193 A 
ATOM      4  O   UNL     1      35.244  24.526  21.259  1.00  0.00    -0.289 OA
ATOM      5  C   UNL     1      34.400  22.931  19.804  1.00  0.00     0.065 A 
ATOM      6  C   UNL     1      34.696  21.843  20.646  1.00  0.00     0.016 A 
ATOM      7  C   UNL     1      34.381  20.542  20.243  1.00  0.00     0.001 A 
ATOM      8  C   UNL     1      33.770  20.315  19.007  1.00  0.00     0.004 A 
ATOM      9  C   UNL     1      33.472  21.390  18.165  1.00  0.00     0.048 A 
ATOM     10  C   UNL     1      33.783  22.697  18.556  1.00  0.00     0.138 A 
ATOM     11  O   UNL     1      33.495  23.712  17.748  1.00  0.00    -0.456 OA
ENDROOT
BRANCH   1  12
ATOM     12  C   UNL     1      33.381  26.033  17.042  1.00  0.00     0.017 A 
ATOM     13  C   UNL     1      32.673  28.075  15.226  1.00  0.00     0.000 A 
ATOM     14  C   UNL     1      32.854  26.769  14.772  1.00  0.00     0.001 A 
ATOM     15  C   UNL     1      32.843  28.371  16.578  1.00  0.00     0.001 A 
ATOM     16  C   UNL     1      33.205  25.753  15.667  1.00  0.00     0.012 A 
ATOM     17  C   UNL     1      33.194  27.362  17.479  1.00  0.00     0.012 A 
ENDBRANCH   1  12
TORSDOF 1
ENDMDL
MODEL 6
REMARK VINA RESULT:    -9.182      2.202      4.210
REMARK INTER + INTRA:          -9.984
REMARK INTER:                  -9.721
REMARK INTRA:                  -0.262
REMARK UNBOUND:                -0.265
REMARK SMILES O=c1cc(-c2ccccc2)oc2ccccc12
REMARK SMILES IDX 4 1 3 2 2 3 1 4 17 5 16 6 15 7 14 8 13 9 12 10 11 11 5 12
REMARK SMILES IDX 8 13 7 14 9 15 6 16 10 17
REMARK H PARENT
REMARK Flexibility Score: inf
ROOT
ATOM      1  C   UNL     1      33.756  24.520  18.561  1.00  0.00     0.138 A 
ATOM      2  C   UNL     1      33.811  25.638  19.421  1.00  0.00     0.100 A 
ATOM      3  C   UNL     1      33.564  26.913  18.909  1.00  0.00     0.193 A 
ATOM      4  O   UNL     1      33.613  27.912  19.679  1.00  0.00    -0.289 OA
ATOM      5  C   UNL     1      33.266  27.066  17.549  1.00  0.00     0.065 A 
ATOM      6  C   UNL     1      33.008  28.322  16.970  1.00  0.00     0.016 A 
ATOM      7  C   UNL     1      32.715  28.417  15.606  1.00  0.00     0.001 A 
ATOM      8  C   UNL     1      32.678  27.266  14.813  1.00  0.00     0.004 A 
ATOM      9  C   UNL     1      32.934  26.015  15.379  1.00  0.00     0.048 A 
ATOM     10  C   UNL     1      33.228  25.908  16.744  1.00  0.00     0.138 A 
ATOM     11  O   UNL     1      33.469  24.713  17.273  1.00  0.00    -0.456 OA
ENDROOT
BRANCH   1  12
ATOM     12  C   UNL     1      34.006  23.122  19.027  1.00  0.00     0.017 A 
ATOM     13  C   UNL     1      34.437  20.448  19.823  1.00  0.00     0.000 A 
ATOM     14  C   UNL     1      34.861  21.496  20.639  1.00  0.00     0.001 A 
ATOM     15  C   UNL     1      33.799  20.722  18.614  1.00  0.00     0.001 A 
ATOM     16  C   UNL     1      34.651  22.824  20.249  1.00  0.00     0.012 A 
ATOM     17  C   UNL     1      33.585  22.045  18.217  1.00  0.00     0.012 A 
ENDBRANCH   1  12
TORSDOF 1
ENDMDL
MODEL 7
REMARK VINA RESULT:    -8.872      1.254      6.405
REMARK INTER + INTRA:          -9.657
REMARK INTER:                  -9.392
REMARK INTRA:                  -0.265
REMARK UNBOUND:                -0.265
REMARK SMILES O=c1cc(-c2ccccc2)oc2ccccc12
REMARK SMILES IDX 4 1 3 2 2 3 1 4 17 5 16 6 15 7 14 8 13 9 12 10 11 11 5 12
REMARK SMILES IDX 8 13 7 14 9 15 6 16 10 17
REMARK H PARENT
REMARK Flexibility Score: inf
ROOT
ATOM      1  C   UNL     1      33.708  27.344  19.244  1.00  0.00     0.138 A 
ATOM      2  C   UNL     1      33.681  28.670  19.725  1.00  0.00     0.100 A 
ATOM      3  C   UNL     1      33.938  28.919  21.074  1.00  0.00     0.193 A 
ATOM      4  O   UNL     1      33.913  30.105  21.504  1.00  0.00    -0.289 OA
ATOM      5  C   UNL     1      34.220  27.848  21.932  1.00  0.00     0.065 A 
ATOM      6  C   UNL     1      34.488  28.029  23.302  1.00  0.00     0.016 A 
ATOM      7  C   UNL     1      34.764  26.924  24.112  1.00  0.00     0.001 A 
ATOM      8  C   UNL     1      34.774  25.636  23.568  1.00  0.00     0.004 A 
ATOM      9  C   UNL     1      34.509  25.447  22.209  1.00  0.00     0.048 A 
ATOM     10  C   UNL     1      34.232  26.546  21.388  1.00  0.00     0.138 A 
ATOM     11  O   UNL     1      33.981  26.355  20.096  1.00  0.00    -0.456 OA
ENDROOT
BRANCH   1  12
ATOM     12  C   UNL     1      33.445  26.991  17.815  1.00  0.00     0.017 A 
ATOM     13  C   UNL     1      32.921  26.418  15.101  1.00  0.00     0.000 A 
ATOM     14  C   UNL     1      33.403  25.419  15.945  1.00  0.00     0.001 A 
ATOM     15  C   UNL     1      32.697  27.701  15.599  1.00  0.00     0.001 A 
ATOM     16  C   UNL     1      33.666  25.697  17.291  1.00  0.00     0.012 A 
ATOM     17  C   UNL     1      32.956  27.988  16.942  1.00  0.00     0.012 A 
ENDBRANCH   1  12
TORSDOF 1
ENDMDL
MODEL 8
REMARK VINA RESULT:    -8.758      1.467      2.523
REMARK INTER + INTRA:          -9.535
REMARK INTER:                  -9.301
REMARK INTRA:                  -0.235
REMARK UNBOUND:                -0.265
REMARK SMILES O=c1cc(-c2ccccc2)oc2ccccc12
REMARK SMILES IDX 4 1 3 2 2 3 1 4 17 5 16 6 15 7 14 8 13 9 12 10 11 11 5 12
REMARK SMILES IDX 8 13 7 14 9 15 6 16 10 17
REMARK H PARENT
REMARK Flexibility Score: inf
ROOT
ATOM      1  C   UNL     1      34.578  26.989  21.087  1.00  0.00     0.138 A 
ATOM      2  C   UNL     1      34.954  25.637  21.234  1.00  0.00     0.100 A 
ATOM      3  C   UNL     1      34.755  24.747  20.177  1.00  0.00     0.193 A 
ATOM      4  O   UNL     1      35.092  23.539  20.310  1.00  0.00    -0.289 OA
ATOM      5  C   UNL     1      34.185  25.209  18.983  1.00  0.00     0.065 A 
ATOM      6  C   UNL     1      33.957  24.366  17.881  1.00  0.00     0.016 A 
ATOM      7  C   UNL     1      33.384  24.880  16.714  1.00  0.00     0.001 A 
ATOM      8  C   UNL     1      33.035  26.232  16.637  1.00  0.00     0.004 A 
ATOM      9  C   UNL     1      33.258  27.076  17.728  1.00  0.00     0.048 A 
ATOM     10  C   UNL     1      33.830  26.573  18.901  1.00  0.00     0.138 A 
ATOM     11  O   UNL     1      34.038  27.385  19.933  1.00  0.00    -0.456 OA
ENDROOT
BRANCH   1  12
ATOM     12  C   UNL     1      34.757  28.006  22.168  1.00  0.00     0.017 A 
ATOM     13  C   UNL     1      35.149  29.981  24.147  1.00  0.00     0.000 A 
ATOM     14  C   UNL     1      34.367  28.860  24.424  1.00  0.00     0.001 A 
ATOM     15  C   UNL     1      35.737  30.125  22.891  1.00  0.00     0.001 A 
ATOM     16  C   UNL     1      34.168  27.879  23.447  1.00  0.00     0.012 A 
ATOM     17  C   UNL     1      35.545  29.149  21.909  1.00  0.00     0.012 A 
ENDBRANCH   1  12
TORSDOF 1
ENDMDL
MODEL 9
REMARK VINA RESULT:    -8.417      1.636      3.054
REMARK INTER + INTRA:          -9.174
REMARK INTER:                  -8.925
REMARK INTRA:                  -0.249
REMARK UNBOUND:                -0.265
REMARK SMILES O=c1cc(-c2ccccc2)oc2ccccc12
REMARK SMILES IDX 4 1 3 2 2 3 1 4 17 5 16 6 15 7 14 8 13 9 12 10 11 11 5 12
REMARK SMILES IDX 8 13 7 14 9 15 6 16 10 17
REMARK H PARENT
REMARK Flexibility Score: inf
ROOT
ATOM      1  C   UNL     1      33.828  27.883  20.380  1.00  0.00     0.138 A 
ATOM      2  C   UNL     1      33.253  28.726  19.406  1.00  0.00     0.100 A 
ATOM      3  C   UNL     1      32.951  28.213  18.143  1.00  0.00     0.193 A 
ATOM      4  O   UNL     1      32.436  28.968  17.272  1.00  0.00    -0.289 OA
ATOM      5  C   UNL     1      33.222  26.868  17.861  1.00  0.00     0.065 A 
ATOM      6  C   UNL     1      32.941  26.289  16.610  1.00  0.00     0.016 A 
ATOM      7  C   UNL     1      33.233  24.940  16.383  1.00  0.00     0.001 A 
ATOM      8  C   UNL     1      33.804  24.163  17.395  1.00  0.00     0.004 A 
ATOM      9  C   UNL     1      34.085  24.730  18.640  1.00  0.00     0.048 A 
ATOM     10  C   UNL     1      33.798  26.079  18.879  1.00  0.00     0.138 A 
ATOM     11  O   UNL     1      34.070  26.609  20.068  1.00  0.00    -0.456 OA
ENDROOT
BRANCH   1  12
ATOM     12  C   UNL     1      34.182  28.352  21.755  1.00  0.00     0.017 A 
ATOM     13  C   UNL     1      34.878  29.323  24.313  1.00  0.00     0.000 A 
ATOM     14  C   UNL     1      34.348  28.041  24.173  1.00  0.00     0.001 A 
ATOM     15  C   UNL     1      35.064  30.124  23.187  1.00  0.00     0.001 A 
ATOM     16  C   UNL     1      34.000  27.554  22.908  1.00  0.00     0.012 A 
ATOM     17  C   UNL     1      34.720  29.647  21.920  1.00  0.00     0.012 A 
ENDBRANCH   1  12
TORSDOF 1
ENDMDL
