MODEL 1
REMARK VINA RESULT:    -4.584      0.000      0.000
REMARK INTER + INTRA:          -9.773
REMARK INTER:                  -8.337
REMARK INTRA:                  -1.437
REMARK UNBOUND:                -1.437
REMARK SMILES CCCCCCCCCCCCCC[C@H](C)C(=O)[O-]
REMARK SMILES IDX 9 1 10 2 11 3 12 4 13 5 14 6 15 7 16 8 17 9 18 10 19 11 8 12
REMARK SMILES IDX 7 13 6 14 5 15 4 16 3 17 2 18 1 19
REMARK H PARENT
REMARK Flexibility Score: inf
ROOT
ATOM      1  C   UNL     1       2.135   3.638  -0.671  1.00  0.00     0.000 C 
ENDROOT
BRANCH   1   2
ATOM      2  C   UNL     1       1.632   4.978  -1.232  1.00  0.00     0.000 C 
BRANCH   2   3
ATOM      3  C   UNL     1       2.280   5.334  -2.578  1.00  0.00     0.000 C 
BRANCH   3   4
ATOM      4  C   UNL     1       3.013   6.681  -2.495  1.00  0.00     0.000 C 
BRANCH   4   5
ATOM      5  C   UNL     1       4.296   6.615  -1.645  1.00  0.00     0.001 C 
BRANCH   5   6
ATOM      6  C   UNL     1       5.615   6.647  -2.445  1.00  0.00     0.009 C 
BRANCH   6   7
ATOM      7  C   UNL     1       6.061   5.275  -3.001  1.00  0.00     0.032 C 
ATOM      8  C   UNL     1       5.843   4.177  -1.955  1.00  0.00     0.014 C 
BRANCH   7   9
ATOM      9  C   UNL     1       7.503   5.293  -3.433  1.00  0.00     0.044 C 
ATOM     10  O   UNL     1       8.407   4.870  -2.665  1.00  0.00    -0.550 OA
ATOM     11  O   UNL     1       7.844   5.781  -4.688  1.00  0.00    -0.550 OA
ENDBRANCH   7   9
ENDBRANCH   6   7
ENDBRANCH   5   6
ENDBRANCH   4   5
ENDBRANCH   3   4
ENDBRANCH   2   3
ENDBRANCH   1   2
BRANCH   1  12
ATOM     12  C   UNL     1       2.525   3.727   0.816  1.00  0.00     0.000 C 
BRANCH  12  13
ATOM     13  C   UNL     1       3.032   5.124   1.209  1.00  0.00    -0.000 C 
BRANCH  13  14
ATOM     14  C   UNL     1       2.329   5.673   2.463  1.00  0.00    -0.000 C 
BRANCH  14  15
ATOM     15  C   UNL     1       0.869   6.074   2.197  1.00  0.00    -0.000 C 
BRANCH  15  16
ATOM     16  C   UNL     1       0.229   6.804   3.390  1.00  0.00    -0.000 C 
BRANCH  16  17
ATOM     17  C   UNL     1       1.226   7.697   4.151  1.00  0.00    -0.000 C 
BRANCH  17  18
ATOM     18  C   UNL     1       0.936   7.861   5.654  1.00  0.00    -0.003 C 
ATOM     19  C   UNL     1      -0.107   8.939   5.949  1.00  0.00     0.004 C 
ENDBRANCH  17  18
ENDBRANCH  16  17
ENDBRANCH  15  16
ENDBRANCH  14  15
ENDBRANCH  13  14
ENDBRANCH  12  13
ENDBRANCH   1  12
TORSDOF 14
ENDMDL
MODEL 2
REMARK VINA RESULT:    -4.493     12.870     14.019
REMARK INTER + INTRA:          -9.606
REMARK INTER:                  -7.988
REMARK INTRA:                  -1.618
REMARK UNBOUND:                -1.437
REMARK SMILES CCCCCCCCCCCCCC[C@H](C)C(=O)[O-]
REMARK SMILES IDX 9 1 10 2 11 3 12 4 13 5 14 6 15 7 16 8 17 9 18 10 19 11 8 12
REMARK SMILES IDX 7 13 6 14 5 15 4 16 3 17 2 18 1 19
REMARK H PARENT
REMARK Flexibility Score: inf
ROOT
ATOM      1  C   UNL     1      -1.264  -6.605   3.237  1.00  0.00     0.000 C 
ENDROOT
BRANCH   1   2
ATOM      2  C   UNL     1      -2.739  -6.194   3.107  1.00  0.00     0.000 C 
BRANCH   2   3
ATOM      3  C   UNL     1      -2.964  -5.142   2.010  1.00  0.00     0.000 C 
BRANCH   3   4
ATOM      4  C   UNL     1      -1.794  -5.128   1.016  1.00  0.00     0.000 C 
BRANCH   4   5
ATOM      5  C   UNL     1      -2.251  -5.013  -0.449  1.00  0.00     0.001 C 
BRANCH   5   6
ATOM      6  C   UNL     1      -3.778  -5.072  -0.667  1.00  0.00     0.009 C 
BRANCH   6   7
ATOM      7  C   UNL     1      -4.243  -6.164  -1.658  1.00  0.00     0.032 C 
ATOM      8  C   UNL     1      -3.077  -6.611  -2.547  1.00  0.00     0.014 C 
BRANCH   7   9
ATOM      9  C   UNL     1      -5.386  -5.689  -2.512  1.00  0.00     0.044 C 
ATOM     10  O   UNL     1      -6.318  -5.003  -2.013  1.00  0.00    -0.550 OA
ATOM     11  O   UNL     1      -5.420  -6.007  -3.864  1.00  0.00    -0.550 OA
ENDBRANCH   7   9
ENDBRANCH   6   7
ENDBRANCH   5   6
ENDBRANCH   4   5
ENDBRANCH   3   4
ENDBRANCH   2   3
ENDBRANCH   1   2
BRANCH   1  12
ATOM     12  C   UNL     1      -1.068  -7.828   4.150  1.00  0.00     0.000 C 
BRANCH  12  13
ATOM     13  C   UNL     1      -1.066  -7.455   5.641  1.00  0.00    -0.000 C 
BRANCH  13  14
ATOM     14  C   UNL     1      -0.243  -6.187   5.929  1.00  0.00    -0.000 C 
BRANCH  14  15
ATOM     15  C   UNL     1      -1.054  -5.109   6.668  1.00  0.00    -0.000 C 
BRANCH  15  16
ATOM     16  C   UNL     1      -2.539  -5.482   6.813  1.00  0.00    -0.000 C 
BRANCH  16  17
ATOM     17  C   UNL     1      -3.465  -4.253   6.842  1.00  0.00    -0.000 C 
BRANCH  17  18
ATOM     18  C   UNL     1      -3.698  -3.582   5.476  1.00  0.00    -0.003 C 
ATOM     19  C   UNL     1      -5.082  -3.870   4.895  1.00  0.00     0.004 C 
ENDBRANCH  17  18
ENDBRANCH  16  17
ENDBRANCH  15  16
ENDBRANCH  14  15
ENDBRANCH  13  14
ENDBRANCH  12  13
ENDBRANCH   1  12
TORSDOF 14
ENDMDL
MODEL 3
REMARK VINA RESULT:    -4.451     13.109     15.188
REMARK INTER + INTRA:          -9.530
REMARK INTER:                  -7.671
REMARK INTRA:                  -1.860
REMARK UNBOUND:                -1.437
REMARK SMILES CCCCCCCCCCCCCC[C@H](C)C(=O)[O-]
REMARK SMILES IDX 9 1 10 2 11 3 12 4 13 5 14 6 15 7 16 8 17 9 18 10 19 11 8 12
REMARK SMILES IDX 7 13 6 14 5 15 4 16 3 17 2 18 1 19
REMARK H PARENT
REMARK Flexibility Score: inf
ROOT
ATOM      1  C   UNL     1      -1.177  -7.696   3.920  1.00  0.00     0.000 C 
ENDROOT
BRANCH   1   2
ATOM      2  C   UNL     1      -1.408  -6.429   3.082  1.00  0.00     0.000 C 
BRANCH   2   3
ATOM      3  C   UNL     1      -2.897  -6.159   2.818  1.00  0.00     0.000 C 
BRANCH   3   4
ATOM      4  C   UNL     1      -3.222  -4.667   2.982  1.00  0.00     0.000 C 
BRANCH   4   5
ATOM      5  C   UNL     1      -4.011  -4.362   4.269  1.00  0.00     0.001 C 
BRANCH   5   6
ATOM      6  C   UNL     1      -4.178  -2.864   4.597  1.00  0.00     0.009 C 
BRANCH   6   7
ATOM      7  C   UNL     1      -5.646  -2.386   4.678  1.00  0.00     0.032 C 
ATOM      8  C   UNL     1      -5.841  -1.110   3.852  1.00  0.00     0.014 C 
BRANCH   7   9
ATOM      9  C   UNL     1      -6.074  -2.145   6.101  1.00  0.00     0.044 C 
ATOM     10  O   UNL     1      -6.518  -3.090   6.806  1.00  0.00    -0.550 OA
ATOM     11  O   UNL     1      -5.980  -0.871   6.646  1.00  0.00    -0.550 OA
ENDBRANCH   7   9
ENDBRANCH   6   7
ENDBRANCH   5   6
ENDBRANCH   4   5
ENDBRANCH   3   4
ENDBRANCH   2   3
ENDBRANCH   1   2
BRANCH   1  12
ATOM     12  C   UNL     1       0.242  -7.765   4.511  1.00  0.00     0.000 C 
BRANCH  12  13
ATOM     13  C   UNL     1       0.352  -8.776   5.663  1.00  0.00    -0.000 C 
BRANCH  13  14
ATOM     14  C   UNL     1       1.325  -8.311   6.762  1.00  0.00    -0.000 C 
BRANCH  14  15
ATOM     15  C   UNL     1       0.629  -8.085   8.114  1.00  0.00    -0.000 C 
BRANCH  15  16
ATOM     16  C   UNL     1      -0.905  -8.106   8.000  1.00  0.00    -0.000 C 
BRANCH  16  17
ATOM     17  C   UNL     1      -1.546  -6.733   8.275  1.00  0.00    -0.000 C 
BRANCH  17  18
ATOM     18  C   UNL     1      -2.033  -5.982   7.023  1.00  0.00    -0.003 C 
ATOM     19  C   UNL     1      -1.041  -4.927   6.533  1.00  0.00     0.004 C 
ENDBRANCH  17  18
ENDBRANCH  16  17
ENDBRANCH  15  16
ENDBRANCH  14  15
ENDBRANCH  13  14
ENDBRANCH  12  13
ENDBRANCH   1  12
TORSDOF 14
ENDMDL
MODEL 4
REMARK VINA RESULT:    -4.443     12.109     14.329
REMARK INTER + INTRA:          -9.516
REMARK INTER:                  -7.527
REMARK INTRA:                  -1.990
REMARK UNBOUND:                -1.437
REMARK SMILES CCCCCCCCCCCCCC[C@H](C)C(=O)[O-]
REMARK SMILES IDX 9 1 10 2 11 3 12 4 13 5 14 6 15 7 16 8 17 9 18 10 19 11 8 12
REMARK SMILES IDX 7 13 6 14 5 15 4 16 3 17 2 18 1 19
REMARK H PARENT
REMARK Flexibility Score: inf
ROOT
ATOM      1  C   UNL     1      -3.317  -3.881   0.099  1.00  0.00     0.000 C 
ENDROOT
BRANCH   1   2
ATOM      2  C   UNL     1      -2.874  -5.264  -0.404  1.00  0.00     0.000 C 
BRANCH   2   3
ATOM      3  C   UNL     1      -2.534  -5.265  -1.902  1.00  0.00     0.000 C 
BRANCH   3   4
ATOM      4  C   UNL     1      -3.439  -6.241  -2.669  1.00  0.00     0.000 C 
BRANCH   4   5
ATOM      5  C   UNL     1      -4.671  -6.681  -1.858  1.00  0.00     0.001 C 
BRANCH   5   6
ATOM      6  C   UNL     1      -6.015  -6.608  -2.614  1.00  0.00     0.009 C 
BRANCH   6   7
ATOM      7  C   UNL     1      -6.375  -5.201  -3.145  1.00  0.00     0.032 C 
ATOM      8  C   UNL     1      -6.451  -4.196  -1.990  1.00  0.00     0.014 C 
BRANCH   7   9
ATOM      9  C   UNL     1      -7.674  -5.210  -3.904  1.00  0.00     0.044 C 
ATOM     10  O   UNL     1      -8.739  -4.817  -3.357  1.00  0.00    -0.550 OA
ATOM     11  O   UNL     1      -7.705  -5.657  -5.219  1.00  0.00    -0.550 OA
ENDBRANCH   7   9
ENDBRANCH   6   7
ENDBRANCH   5   6
ENDBRANCH   4   5
ENDBRANCH   3   4
ENDBRANCH   2   3
ENDBRANCH   1   2
BRANCH   1  12
ATOM     12  C   UNL     1      -2.132  -2.923   0.317  1.00  0.00     0.000 C 
BRANCH  12  13
ATOM     13  C   UNL     1      -1.786  -2.743   1.804  1.00  0.00    -0.000 C 
BRANCH  13  14
ATOM     14  C   UNL     1      -3.028  -2.813   2.709  1.00  0.00    -0.000 C 
BRANCH  14  15
ATOM     15  C   UNL     1      -2.806  -3.686   3.955  1.00  0.00    -0.000 C 
BRANCH  15  16
ATOM     16  C   UNL     1      -3.647  -4.974   3.932  1.00  0.00    -0.000 C 
BRANCH  16  17
ATOM     17  C   UNL     1      -3.006  -6.094   3.093  1.00  0.00    -0.000 C 
BRANCH  17  18
ATOM     18  C   UNL     1      -1.582  -6.492   3.522  1.00  0.00    -0.003 C 
ATOM     19  C   UNL     1      -0.539  -6.261   2.428  1.00  0.00     0.004 C 
ENDBRANCH  17  18
ENDBRANCH  16  17
ENDBRANCH  15  16
ENDBRANCH  14  15
ENDBRANCH  13  14
ENDBRANCH  12  13
ENDBRANCH   1  12
TORSDOF 14
ENDMDL
MODEL 5
REMARK VINA RESULT:    -4.438     12.360     14.170
REMARK INTER + INTRA:          -9.507
REMARK INTER:                  -7.880
REMARK INTRA:                  -1.627
REMARK UNBOUND:                -1.437
REMARK SMILES CCCCCCCCCCCCCC[C@H](C)C(=O)[O-]
REMARK SMILES IDX 9 1 10 2 11 3 12 4 13 5 14 6 15 7 16 8 17 9 18 10 19 11 8 12
REMARK SMILES IDX 7 13 6 14 5 15 4 16 3 17 2 18 1 19
REMARK H PARENT
REMARK Flexibility Score: inf
ROOT
ATOM      1  C   UNL     1      -0.788  -4.576  -0.384  1.00  0.00     0.000 C 
ENDROOT
BRANCH   1   2
ATOM      2  C   UNL     1      -1.709  -3.519  -1.012  1.00  0.00     0.000 C 
BRANCH   2   3
ATOM      3  C   UNL     1      -2.381  -4.013  -2.302  1.00  0.00     0.000 C 
BRANCH   3   4
ATOM      4  C   UNL     1      -1.979  -5.464  -2.608  1.00  0.00     0.000 C 
BRANCH   4   5
ATOM      5  C   UNL     1      -3.157  -6.449  -2.496  1.00  0.00     0.001 C 
BRANCH   5   6
ATOM      6  C   UNL     1      -4.395  -5.910  -1.750  1.00  0.00     0.009 C 
BRANCH   6   7
ATOM      7  C   UNL     1      -5.437  -5.216  -2.657  1.00  0.00     0.032 C 
ATOM      8  C   UNL     1      -6.126  -4.072  -1.904  1.00  0.00     0.014 C 
BRANCH   7   9
ATOM      9  C   UNL     1      -6.467  -6.189  -3.165  1.00  0.00     0.044 C 
ATOM     10  O   UNL     1      -6.512  -7.366  -2.719  1.00  0.00    -0.550 OA
ATOM     11  O   UNL     1      -7.377  -5.790  -4.137  1.00  0.00    -0.550 OA
ENDBRANCH   7   9
ENDBRANCH   6   7
ENDBRANCH   5   6
ENDBRANCH   4   5
ENDBRANCH   3   4
ENDBRANCH   2   3
ENDBRANCH   1   2
BRANCH   1  12
ATOM     12  C   UNL     1      -1.285  -5.053   0.993  1.00  0.00     0.000 C 
BRANCH  12  13
ATOM     13  C   UNL     1      -2.698  -4.544   1.317  1.00  0.00    -0.000 C 
BRANCH  13  14
ATOM     14  C   UNL     1      -3.091  -4.795   2.784  1.00  0.00    -0.000 C 
BRANCH  14  15
ATOM     15  C   UNL     1      -2.952  -6.271   3.191  1.00  0.00    -0.000 C 
BRANCH  15  16
ATOM     16  C   UNL     1      -1.905  -6.484   4.297  1.00  0.00    -0.000 C 
BRANCH  16  17
ATOM     17  C   UNL     1      -0.793  -7.468   3.889  1.00  0.00    -0.000 C 
BRANCH  17  18
ATOM     18  C   UNL     1       0.621  -6.863   3.829  1.00  0.00    -0.003 C 
ATOM     19  C   UNL     1       0.638  -5.354   4.077  1.00  0.00     0.004 C 
ENDBRANCH  17  18
ENDBRANCH  16  17
ENDBRANCH  15  16
ENDBRANCH  14  15
ENDBRANCH  13  14
ENDBRANCH  12  13
ENDBRANCH   1  12
TORSDOF 14
ENDMDL
MODEL 6
REMARK VINA RESULT:    -4.417     13.610     15.244
REMARK INTER + INTRA:          -9.469
REMARK INTER:                  -7.349
REMARK INTRA:                  -2.120
REMARK UNBOUND:                -1.437
REMARK SMILES CCCCCCCCCCCCCC[C@H](C)C(=O)[O-]
REMARK SMILES IDX 9 1 10 2 11 3 12 4 13 5 14 6 15 7 16 8 17 9 18 10 19 11 8 12
REMARK SMILES IDX 7 13 6 14 5 15 4 16 3 17 2 18 1 19
REMARK H PARENT
REMARK Flexibility Score: inf
ROOT
ATOM      1  C   UNL     1      -0.370  -6.720   3.340  1.00  0.00     0.000 C 
ENDROOT
BRANCH   1   2
ATOM      2  C   UNL     1      -1.380  -5.957   2.469  1.00  0.00     0.000 C 
BRANCH   2   3
ATOM      3  C   UNL     1      -2.806  -6.003   3.040  1.00  0.00     0.000 C 
BRANCH   3   4
ATOM      4  C   UNL     1      -3.315  -4.590   3.358  1.00  0.00     0.000 C 
BRANCH   4   5
ATOM      5  C   UNL     1      -4.059  -4.508   4.703  1.00  0.00     0.001 C 
BRANCH   5   6
ATOM      6  C   UNL     1      -3.160  -4.577   5.956  1.00  0.00     0.009 C 
BRANCH   6   7
ATOM      7  C   UNL     1      -3.829  -4.067   7.253  1.00  0.00     0.032 C 
ATOM      8  C   UNL     1      -4.004  -5.215   8.253  1.00  0.00     0.014 C 
BRANCH   7   9
ATOM      9  C   UNL     1      -5.159  -3.421   6.975  1.00  0.00     0.044 C 
ATOM     10  O   UNL     1      -6.230  -4.062   7.140  1.00  0.00    -0.550 OA
ATOM     11  O   UNL     1      -5.211  -2.105   6.530  1.00  0.00    -0.550 OA
ENDBRANCH   7   9
ENDBRANCH   6   7
ENDBRANCH   5   6
ENDBRANCH   4   5
ENDBRANCH   3   4
ENDBRANCH   2   3
ENDBRANCH   1   2
BRANCH   1  12
ATOM     12  C   UNL     1      -1.048  -7.719   4.296  1.00  0.00     0.000 C 
BRANCH  12  13
ATOM     13  C   UNL     1      -0.036  -8.622   5.018  1.00  0.00    -0.000 C 
BRANCH  13  14
ATOM     14  C   UNL     1      -0.142  -8.516   6.550  1.00  0.00    -0.000 C 
BRANCH  14  15
ATOM     15  C   UNL     1      -1.101  -7.404   7.003  1.00  0.00    -0.000 C 
BRANCH  15  16
ATOM     16  C   UNL     1      -0.378  -6.260   7.735  1.00  0.00    -0.000 C 
BRANCH  16  17
ATOM     17  C   UNL     1       0.378  -5.320   6.778  1.00  0.00    -0.000 C 
BRANCH  17  18
ATOM     18  C   UNL     1       1.911  -5.451   6.817  1.00  0.00    -0.003 C 
ATOM     19  C   UNL     1       2.507  -5.910   5.486  1.00  0.00     0.004 C 
ENDBRANCH  17  18
ENDBRANCH  16  17
ENDBRANCH  15  16
ENDBRANCH  14  15
ENDBRANCH  13  14
ENDBRANCH  12  13
ENDBRANCH   1  12
TORSDOF 14
ENDMDL
MODEL 7
REMARK VINA RESULT:    -4.341      1.648      3.888
REMARK INTER + INTRA:          -9.332
REMARK INTER:                  -7.978
REMARK INTRA:                  -1.354
REMARK UNBOUND:                -1.437
REMARK SMILES CCCCCCCCCCCCCC[C@H](C)C(=O)[O-]
REMARK SMILES IDX 9 1 10 2 11 3 12 4 13 5 14 6 15 7 16 8 17 9 18 10 19 11 8 12
REMARK SMILES IDX 7 13 6 14 5 15 4 16 3 17 2 18 1 19
REMARK H PARENT
REMARK Flexibility Score: inf
ROOT
ATOM      1  C   UNL     1       0.686   5.417   3.786  1.00  0.00     0.000 C 
ENDROOT
BRANCH   1   2
ATOM      2  C   UNL     1       1.778   4.383   3.471  1.00  0.00     0.000 C 
BRANCH   2   3
ATOM      3  C   UNL     1       2.960   4.990   2.698  1.00  0.00     0.000 C 
BRANCH   3   4
ATOM      4  C   UNL     1       3.147   4.289   1.344  1.00  0.00     0.000 C 
BRANCH   4   5
ATOM      5  C   UNL     1       3.031   5.253   0.149  1.00  0.00     0.001 C 
BRANCH   5   6
ATOM      6  C   UNL     1       4.145   5.120  -0.911  1.00  0.00     0.009 C 
BRANCH   6   7
ATOM      7  C   UNL     1       4.300   6.351  -1.835  1.00  0.00     0.032 C 
ATOM      8  C   UNL     1       2.964   6.688  -2.506  1.00  0.00     0.014 C 
BRANCH   7   9
ATOM      9  C   UNL     1       5.358   6.130  -2.881  1.00  0.00     0.044 C 
ATOM     10  O   UNL     1       5.280   5.157  -3.678  1.00  0.00    -0.550 OA
ATOM     11  O   UNL     1       6.435   7.003  -2.972  1.00  0.00    -0.550 OA
ENDBRANCH   7   9
ENDBRANCH   6   7
ENDBRANCH   5   6
ENDBRANCH   4   5
ENDBRANCH   3   4
ENDBRANCH   2   3
ENDBRANCH   1   2
BRANCH   1  12
ATOM     12  C   UNL     1       1.048   6.830   3.295  1.00  0.00     0.000 C 
BRANCH  12  13
ATOM     13  C   UNL     1       1.170   7.840   4.446  1.00  0.00    -0.000 C 
BRANCH  13  14
ATOM     14  C   UNL     1       1.369   7.157   5.811  1.00  0.00    -0.000 C 
BRANCH  14  15
ATOM     15  C   UNL     1       0.659   7.898   6.955  1.00  0.00    -0.000 C 
BRANCH  15  16
ATOM     16  C   UNL     1      -0.230   9.048   6.452  1.00  0.00    -0.000 C 
BRANCH  16  17
ATOM     17  C   UNL     1      -1.734   8.733   6.556  1.00  0.00    -0.000 C 
BRANCH  17  18
ATOM     18  C   UNL     1      -2.344   8.061   5.312  1.00  0.00    -0.003 C 
ATOM     19  C   UNL     1      -2.850   6.645   5.583  1.00  0.00     0.004 C 
ENDBRANCH  17  18
ENDBRANCH  16  17
ENDBRANCH  15  16
ENDBRANCH  14  15
ENDBRANCH  13  14
ENDBRANCH  12  13
ENDBRANCH   1  12
TORSDOF 14
ENDMDL
MODEL 8
REMARK VINA RESULT:    -4.312      2.026      3.144
REMARK INTER + INTRA:          -9.278
REMARK INTER:                  -7.499
REMARK INTRA:                  -1.779
REMARK UNBOUND:                -1.437
REMARK SMILES CCCCCCCCCCCCCC[C@H](C)C(=O)[O-]
REMARK SMILES IDX 9 1 10 2 11 3 12 4 13 5 14 6 15 7 16 8 17 9 18 10 19 11 8 12
REMARK SMILES IDX 7 13 6 14 5 15 4 16 3 17 2 18 1 19
REMARK H PARENT
REMARK Flexibility Score: inf
ROOT
ATOM      1  C   UNL     1       2.512   5.070  -2.479  1.00  0.00     0.000 C 
ENDROOT
BRANCH   1   2
ATOM      2  C   UNL     1       3.014   6.522  -2.471  1.00  0.00     0.000 C 
BRANCH   2   3
ATOM      3  C   UNL     1       4.286   6.701  -1.628  1.00  0.00     0.000 C 
BRANCH   3   4
ATOM      4  C   UNL     1       5.544   6.501  -2.486  1.00  0.00     0.000 C 
BRANCH   4   5
ATOM      5  C   UNL     1       6.281   5.186  -2.175  1.00  0.00     0.001 C 
BRANCH   5   6
ATOM      6  C   UNL     1       6.058   4.050  -3.196  1.00  0.00     0.009 C 
BRANCH   6   7
ATOM      7  C   UNL     1       5.611   4.528  -4.597  1.00  0.00     0.032 C 
ATOM      8  C   UNL     1       4.550   3.583  -5.171  1.00  0.00     0.014 C 
BRANCH   7   9
ATOM      9  C   UNL     1       6.774   4.631  -5.546  1.00  0.00     0.044 C 
ATOM     10  O   UNL     1       7.688   5.475  -5.350  1.00  0.00    -0.550 OA
ATOM     11  O   UNL     1       6.842   3.791  -6.651  1.00  0.00    -0.550 OA
ENDBRANCH   7   9
ENDBRANCH   6   7
ENDBRANCH   5   6
ENDBRANCH   4   5
ENDBRANCH   3   4
ENDBRANCH   2   3
ENDBRANCH   1   2
BRANCH   1  12
ATOM     12  C   UNL     1       2.445   4.458  -1.069  1.00  0.00     0.000 C 
BRANCH  12  13
ATOM     13  C   UNL     1       1.143   4.812  -0.333  1.00  0.00    -0.000 C 
BRANCH  13  14
ATOM     14  C   UNL     1       1.369   5.082   1.165  1.00  0.00    -0.000 C 
BRANCH  14  15
ATOM     15  C   UNL     1       2.854   5.271   1.517  1.00  0.00    -0.000 C 
BRANCH  15  16
ATOM     16  C   UNL     1       3.057   6.084   2.807  1.00  0.00    -0.000 C 
BRANCH  16  17
ATOM     17  C   UNL     1       2.884   5.238   4.082  1.00  0.00    -0.000 C 
BRANCH  17  18
ATOM     18  C   UNL     1       3.722   3.947   4.123  1.00  0.00    -0.003 C 
ATOM     19  C   UNL     1       4.950   4.059   5.027  1.00  0.00     0.004 C 
ENDBRANCH  17  18
ENDBRANCH  16  17
ENDBRANCH  15  16
ENDBRANCH  14  15
ENDBRANCH  13  14
ENDBRANCH  12  13
ENDBRANCH   1  12
TORSDOF 14
ENDMDL
MODEL 9
REMARK VINA RESULT:    -4.252      1.657      3.057
REMARK INTER + INTRA:          -9.169
REMARK INTER:                  -7.469
REMARK INTRA:                  -1.700
REMARK UNBOUND:                -1.437
REMARK SMILES CCCCCCCCCCCCCC[C@H](C)C(=O)[O-]
REMARK SMILES IDX 9 1 10 2 11 3 12 4 13 5 14 6 15 7 16 8 17 9 18 10 19 11 8 12
REMARK SMILES IDX 7 13 6 14 5 15 4 16 3 17 2 18 1 19
REMARK H PARENT
REMARK Flexibility Score: inf
ROOT
ATOM      1  C   UNL     1       1.126   5.222   1.673  1.00  0.00     0.000 C 
ENDROOT
BRANCH   1   2
ATOM      2  C   UNL     1       2.643   5.387   1.492  1.00  0.00     0.000 C 
BRANCH   2   3
ATOM      3  C   UNL     1       3.124   4.934   0.105  1.00  0.00     0.000 C 
BRANCH   3   4
ATOM      4  C   UNL     1       2.285   5.584  -1.005  1.00  0.00     0.000 C 
BRANCH   4   5
ATOM      5  C   UNL     1       3.143   6.164  -2.145  1.00  0.00     0.001 C 
BRANCH   5   6
ATOM      6  C   UNL     1       4.668   6.097  -1.918  1.00  0.00     0.009 C 
BRANCH   6   7
ATOM      7  C   UNL     1       5.377   4.944  -2.665  1.00  0.00     0.032 C 
ATOM      8  C   UNL     1       6.318   4.192  -1.718  1.00  0.00     0.014 C 
BRANCH   7   9
ATOM      9  C   UNL     1       6.142   5.444  -3.860  1.00  0.00     0.044 C 
ATOM     10  O   UNL     1       7.225   6.071  -3.711  1.00  0.00    -0.550 OA
ATOM     11  O   UNL     1       5.653   5.217  -5.140  1.00  0.00    -0.550 OA
ENDBRANCH   7   9
ENDBRANCH   6   7
ENDBRANCH   5   6
ENDBRANCH   4   5
ENDBRANCH   3   4
ENDBRANCH   2   3
ENDBRANCH   1   2
BRANCH   1  12
ATOM     12  C   UNL     1       0.547   6.185   2.725  1.00  0.00     0.000 C 
BRANCH  12  13
ATOM     13  C   UNL     1       1.627   7.059   3.382  1.00  0.00    -0.000 C 
BRANCH  13  14
ATOM     14  C   UNL     1       1.107   7.803   4.625  1.00  0.00    -0.000 C 
BRANCH  14  15
ATOM     15  C   UNL     1       0.823   6.860   5.805  1.00  0.00    -0.000 C 
BRANCH  15  16
ATOM     16  C   UNL     1       2.042   5.999   6.181  1.00  0.00    -0.000 C 
BRANCH  16  17
ATOM     17  C   UNL     1       1.794   4.492   5.985  1.00  0.00    -0.000 C 
BRANCH  17  18
ATOM     18  C   UNL     1       2.690   3.820   4.929  1.00  0.00    -0.003 C 
ATOM     19  C   UNL     1       4.048   4.504   4.771  1.00  0.00     0.004 C 
ENDBRANCH  17  18
ENDBRANCH  16  17
ENDBRANCH  15  16
ENDBRANCH  14  15
ENDBRANCH  13  14
ENDBRANCH  12  13
ENDBRANCH   1  12
TORSDOF 14
ENDMDL
