MODEL 1
REMARK VINA RESULT:    -3.455      0.000      0.000
REMARK INTER + INTRA:          -5.414
REMARK INTER:                  -4.869
REMARK INTRA:                  -0.546
REMARK UNBOUND:                -0.546
REMARK SMILES CCCCCCCCC(=O)[O-]
REMARK SMILES IDX 6 1 7 2 8 3 9 4 10 5 11 6 5 7 4 8 3 9 2 10 1 11
REMARK H PARENT
REMARK Flexibility Score: inf
ROOT
ATOM      1  C   UNL     1      21.571   3.732  24.179  1.00  0.00     0.000 C 
ENDROOT
BRANCH   1   2
ATOM      2  C   UNL     1      20.187   4.407  24.148  1.00  0.00     0.006 C 
BRANCH   2   3
ATOM      3  C   UNL     1      20.221   5.856  24.650  1.00  0.00     0.053 C 
BRANCH   3   4
ATOM      4  C   UNL     1      19.315   6.715  23.825  1.00  0.00     0.041 C 
ATOM      5  O   UNL     1      18.107   6.391  23.668  1.00  0.00    -0.550 OA
ATOM      6  O   UNL     1      19.813   7.844  23.190  1.00  0.00    -0.550 OA
ENDBRANCH   3   4
ENDBRANCH   2   3
ENDBRANCH   1   2
BRANCH   1   7
ATOM      7  C   UNL     1      21.611   2.295  23.619  1.00  0.00     0.000 C 
BRANCH   7   8
ATOM      8  C   UNL     1      21.202   1.192  24.612  1.00  0.00    -0.000 C 
BRANCH   8   9
ATOM      9  C   UNL     1      21.501   1.563  26.074  1.00  0.00    -0.000 C 
BRANCH   9  10
ATOM     10  C   UNL     1      20.239   1.558  26.952  1.00  0.00    -0.003 C 
ATOM     11  C   UNL     1      18.948   1.556  26.134  1.00  0.00     0.004 C 
ENDBRANCH   9  10
ENDBRANCH   8   9
ENDBRANCH   7   8
ENDBRANCH   1   7
TORSDOF 7
ENDMDL
MODEL 2
REMARK VINA RESULT:    -3.438      0.982      2.523
REMARK INTER + INTRA:          -5.391
REMARK INTER:                  -4.706
REMARK INTRA:                  -0.685
REMARK UNBOUND:                -0.546
REMARK SMILES CCCCCCCCC(=O)[O-]
REMARK SMILES IDX 6 1 7 2 8 3 9 4 10 5 11 6 5 7 4 8 3 9 2 10 1 11
REMARK H PARENT
REMARK Flexibility Score: inf
ROOT
ATOM      1  C   UNL     1      19.339   3.789  25.943  1.00  0.00     0.000 C 
ENDROOT
BRANCH   1   2
ATOM      2  C   UNL     1      18.996   4.559  24.655  1.00  0.00     0.006 C 
BRANCH   2   3
ATOM      3  C   UNL     1      20.057   5.603  24.284  1.00  0.00     0.053 C 
BRANCH   3   4
ATOM      4  C   UNL     1      19.406   6.861  23.804  1.00  0.00     0.041 C 
ATOM      5  O   UNL     1      20.109   7.865  23.513  1.00  0.00    -0.550 OA
ATOM      6  O   UNL     1      18.023   6.942  23.723  1.00  0.00    -0.550 OA
ENDBRANCH   3   4
ENDBRANCH   2   3
ENDBRANCH   1   2
BRANCH   1   7
ATOM      7  C   UNL     1      19.279   2.253  25.824  1.00  0.00     0.000 C 
BRANCH   7   8
ATOM      8  C   UNL     1      20.645   1.543  25.780  1.00  0.00    -0.000 C 
BRANCH   8   9
ATOM      9  C   UNL     1      21.066   1.146  24.356  1.00  0.00    -0.000 C 
BRANCH   9  10
ATOM     10  C   UNL     1      21.761   2.294  23.606  1.00  0.00    -0.003 C 
ATOM     11  C   UNL     1      22.831   2.990  24.449  1.00  0.00     0.004 C 
ENDBRANCH   9  10
ENDBRANCH   8   9
ENDBRANCH   7   8
ENDBRANCH   1   7
TORSDOF 7
ENDMDL
MODEL 3
REMARK VINA RESULT:    -3.412      1.945      3.245
REMARK INTER + INTRA:          -5.353
REMARK INTER:                  -5.100
REMARK INTRA:                  -0.253
REMARK UNBOUND:                -0.546
REMARK SMILES CCCCCCCCC(=O)[O-]
REMARK SMILES IDX 6 1 7 2 8 3 9 4 10 5 11 6 5 7 4 8 3 9 2 10 1 11
REMARK H PARENT
REMARK Flexibility Score: inf
ROOT
ATOM      1  C   UNL     1      20.092   6.226  23.961  1.00  0.00     0.000 C 
ENDROOT
BRANCH   1   2
ATOM      2  C   UNL     1      19.527   7.613  24.318  1.00  0.00     0.006 C 
BRANCH   2   3
ATOM      3  C   UNL     1      20.353   8.762  23.725  1.00  0.00     0.053 C 
BRANCH   3   4
ATOM      4  C   UNL     1      19.601   9.428  22.617  1.00  0.00     0.041 C 
ATOM      5  O   UNL     1      20.131   9.558  21.481  1.00  0.00    -0.550 OA
ATOM      6  O   UNL     1      18.335   9.949  22.849  1.00  0.00    -0.550 OA
ENDBRANCH   3   4
ENDBRANCH   2   3
ENDBRANCH   1   2
BRANCH   1   7
ATOM      7  C   UNL     1      19.275   5.031  24.492  1.00  0.00     0.000 C 
BRANCH   7   8
ATOM      8  C   UNL     1      20.061   3.716  24.648  1.00  0.00    -0.000 C 
BRANCH   8   9
ATOM      9  C   UNL     1      21.394   3.722  23.880  1.00  0.00    -0.000 C 
BRANCH   9  10
ATOM     10  C   UNL     1      22.037   2.328  23.806  1.00  0.00    -0.003 C 
ATOM     11  C   UNL     1      21.101   1.218  24.285  1.00  0.00     0.004 C 
ENDBRANCH   9  10
ENDBRANCH   8   9
ENDBRANCH   7   8
ENDBRANCH   1   7
TORSDOF 7
ENDMDL
MODEL 4
REMARK VINA RESULT:    -3.385      3.250      4.638
REMARK INTER + INTRA:          -5.316
REMARK INTER:                  -4.522
REMARK INTRA:                  -0.794
REMARK UNBOUND:                -0.546
REMARK SMILES CCCCCCCCC(=O)[O-]
REMARK SMILES IDX 6 1 7 2 8 3 9 4 10 5 11 6 5 7 4 8 3 9 2 10 1 11
REMARK H PARENT
REMARK Flexibility Score: inf
ROOT
ATOM      1  C   UNL     1      19.166   4.378  24.909  1.00  0.00     0.000 C 
ENDROOT
BRANCH   1   2
ATOM      2  C   UNL     1      19.102   3.760  26.317  1.00  0.00     0.006 C 
BRANCH   2   3
ATOM      3  C   UNL     1      18.554   2.327  26.314  1.00  0.00     0.053 C 
BRANCH   3   4
ATOM      4  C   UNL     1      19.231   1.507  27.366  1.00  0.00     0.041 C 
ATOM      5  O   UNL     1      20.412   1.775  27.715  1.00  0.00    -0.550 OA
ATOM      6  O   UNL     1      18.579   0.416  27.925  1.00  0.00    -0.550 OA
ENDBRANCH   3   4
ENDBRANCH   2   3
ENDBRANCH   1   2
BRANCH   1   7
ATOM      7  C   UNL     1      20.588   4.625  24.366  1.00  0.00     0.000 C 
BRANCH   7   8
ATOM      8  C   UNL     1      21.731   4.120  25.266  1.00  0.00    -0.000 C 
BRANCH   8   9
ATOM      9  C   UNL     1      22.549   2.991  24.617  1.00  0.00    -0.000 C 
BRANCH   9  10
ATOM     10  C   UNL     1      21.701   2.117  23.678  1.00  0.00    -0.003 C 
ATOM     11  C   UNL     1      21.242   0.815  24.336  1.00  0.00     0.004 C 
ENDBRANCH   9  10
ENDBRANCH   8   9
ENDBRANCH   7   8
ENDBRANCH   1   7
TORSDOF 7
ENDMDL
MODEL 5
REMARK VINA RESULT:    -3.324      1.749      2.211
REMARK INTER + INTRA:          -5.230
REMARK INTER:                  -4.364
REMARK INTRA:                  -0.867
REMARK UNBOUND:                -0.546
REMARK SMILES CCCCCCCCC(=O)[O-]
REMARK SMILES IDX 6 1 7 2 8 3 9 4 10 5 11 6 5 7 4 8 3 9 2 10 1 11
REMARK H PARENT
REMARK Flexibility Score: inf
ROOT
ATOM      1  C   UNL     1      21.398   2.238  23.563  1.00  0.00     0.000 C 
ENDROOT
BRANCH   1   2
ATOM      2  C   UNL     1      21.824   3.618  24.095  1.00  0.00     0.006 C 
BRANCH   2   3
ATOM      3  C   UNL     1      20.649   4.595  24.224  1.00  0.00     0.053 C 
BRANCH   3   4
ATOM      4  C   UNL     1      20.797   5.429  25.456  1.00  0.00     0.041 C 
ATOM      5  O   UNL     1      20.130   6.491  25.586  1.00  0.00    -0.550 OA
ATOM      6  O   UNL     1      21.705   5.063  26.441  1.00  0.00    -0.550 OA
ENDBRANCH   3   4
ENDBRANCH   2   3
ENDBRANCH   1   2
BRANCH   1   7
ATOM      7  C   UNL     1      21.256   1.138  24.635  1.00  0.00     0.000 C 
BRANCH   7   8
ATOM      8  C   UNL     1      21.808   1.502  26.025  1.00  0.00    -0.000 C 
BRANCH   8   9
ATOM      9  C   UNL     1      20.701   1.717  27.070  1.00  0.00    -0.000 C 
BRANCH   9  10
ATOM     10  C   UNL     1      19.293   1.515  26.486  1.00  0.00    -0.003 C 
ATOM     11  C   UNL     1      18.423   2.768  26.592  1.00  0.00     0.004 C 
ENDBRANCH   9  10
ENDBRANCH   8   9
ENDBRANCH   7   8
ENDBRANCH   1   7
TORSDOF 7
ENDMDL
MODEL 6
REMARK VINA RESULT:    -3.306      3.378      4.283
REMARK INTER + INTRA:          -5.204
REMARK INTER:                  -4.558
REMARK INTRA:                  -0.647
REMARK UNBOUND:                -0.546
REMARK SMILES CCCCCCCCC(=O)[O-]
REMARK SMILES IDX 6 1 7 2 8 3 9 4 10 5 11 6 5 7 4 8 3 9 2 10 1 11
REMARK H PARENT
REMARK Flexibility Score: inf
ROOT
ATOM      1  C   UNL     1      21.539   3.261  23.780  1.00  0.00     0.000 C 
ENDROOT
BRANCH   1   2
ATOM      2  C   UNL     1      22.870   2.954  24.490  1.00  0.00     0.006 C 
BRANCH   2   3
ATOM      3  C   UNL     1      22.799   3.170  26.007  1.00  0.00     0.053 C 
BRANCH   3   4
ATOM      4  C   UNL     1      24.009   3.907  26.486  1.00  0.00     0.041 C 
ATOM      5  O   UNL     1      25.139   3.351  26.464  1.00  0.00    -0.550 OA
ATOM      6  O   UNL     1      23.884   5.189  27.005  1.00  0.00    -0.550 OA
ENDBRANCH   3   4
ENDBRANCH   2   3
ENDBRANCH   1   2
BRANCH   1   7
ATOM      7  C   UNL     1      20.747   4.451  24.359  1.00  0.00     0.000 C 
BRANCH   7   8
ATOM      8  C   UNL     1      19.308   4.129  24.801  1.00  0.00    -0.000 C 
BRANCH   8   9
ATOM      9  C   UNL     1      19.143   4.109  26.330  1.00  0.00    -0.000 C 
BRANCH   9  10
ATOM     10  C   UNL     1      18.576   2.776  26.843  1.00  0.00    -0.003 C 
ATOM     11  C   UNL     1      19.032   1.578  26.010  1.00  0.00     0.004 C 
ENDBRANCH   9  10
ENDBRANCH   8   9
ENDBRANCH   7   8
ENDBRANCH   1   7
TORSDOF 7
ENDMDL
MODEL 7
REMARK VINA RESULT:    -3.302      1.191      1.953
REMARK INTER + INTRA:          -5.199
REMARK INTER:                  -4.505
REMARK INTRA:                  -0.695
REMARK UNBOUND:                -0.546
REMARK SMILES CCCCCCCCC(=O)[O-]
REMARK SMILES IDX 6 1 7 2 8 3 9 4 10 5 11 6 5 7 4 8 3 9 2 10 1 11
REMARK H PARENT
REMARK Flexibility Score: inf
ROOT
ATOM      1  C   UNL     1      21.483   3.346  23.666  1.00  0.00     0.000 C 
ENDROOT
BRANCH   1   2
ATOM      2  C   UNL     1      20.216   4.019  24.225  1.00  0.00     0.006 C 
BRANCH   2   3
ATOM      3  C   UNL     1      20.445   5.481  24.625  1.00  0.00     0.053 C 
BRANCH   3   4
ATOM      4  C   UNL     1      19.497   6.377  23.894  1.00  0.00     0.041 C 
ATOM      5  O   UNL     1      19.900   7.471  23.416  1.00  0.00    -0.550 OA
ATOM      6  O   UNL     1      18.157   6.031  23.783  1.00  0.00    -0.550 OA
ENDBRANCH   3   4
ENDBRANCH   2   3
ENDBRANCH   1   2
BRANCH   1   7
ATOM      7  C   UNL     1      21.699   1.885  24.110  1.00  0.00     0.000 C 
BRANCH   7   8
ATOM      8  C   UNL     1      21.039   1.500  25.447  1.00  0.00    -0.000 C 
BRANCH   8   9
ATOM      9  C   UNL     1      21.994   1.636  26.644  1.00  0.00    -0.000 C 
BRANCH   9  10
ATOM     10  C   UNL     1      21.888   3.008  27.329  1.00  0.00    -0.003 C 
ATOM     11  C   UNL     1      23.082   3.915  27.026  1.00  0.00     0.004 C 
ENDBRANCH   9  10
ENDBRANCH   8   9
ENDBRANCH   7   8
ENDBRANCH   1   7
TORSDOF 7
ENDMDL
MODEL 8
REMARK VINA RESULT:    -3.277      3.090      4.536
REMARK INTER + INTRA:          -5.163
REMARK INTER:                  -4.613
REMARK INTRA:                  -0.551
REMARK UNBOUND:                -0.546
REMARK SMILES CCCCCCCCC(=O)[O-]
REMARK SMILES IDX 6 1 7 2 8 3 9 4 10 5 11 6 5 7 4 8 3 9 2 10 1 11
REMARK H PARENT
REMARK Flexibility Score: inf
ROOT
ATOM      1  C   UNL     1      20.740   1.689  26.589  1.00  0.00     0.000 C 
ENDROOT
BRANCH   1   2
ATOM      2  C   UNL     1      22.244   1.788  26.907  1.00  0.00     0.006 C 
BRANCH   2   3
ATOM      3  C   UNL     1      22.621   3.106  27.595  1.00  0.00     0.053 C 
BRANCH   3   4
ATOM      4  C   UNL     1      23.597   3.870  26.757  1.00  0.00     0.041 C 
ATOM      5  O   UNL     1      24.272   3.279  25.873  1.00  0.00    -0.550 OA
ATOM      6  O   UNL     1      23.798   5.225  26.985  1.00  0.00    -0.550 OA
ENDBRANCH   3   4
ENDBRANCH   2   3
ENDBRANCH   1   2
BRANCH   1   7
ATOM      7  C   UNL     1      20.398   1.519  25.095  1.00  0.00     0.000 C 
BRANCH   7   8
ATOM      8  C   UNL     1      21.513   1.928  24.115  1.00  0.00    -0.000 C 
BRANCH   8   9
ATOM      9  C   UNL     1      21.442   3.411  23.715  1.00  0.00    -0.000 C 
BRANCH   9  10
ATOM     10  C   UNL     1      20.185   4.108  24.260  1.00  0.00    -0.003 C 
ATOM     11  C   UNL     1      20.241   5.629  24.115  1.00  0.00     0.004 C 
ENDBRANCH   9  10
ENDBRANCH   8   9
ENDBRANCH   7   8
ENDBRANCH   1   7
TORSDOF 7
ENDMDL
MODEL 9
REMARK VINA RESULT:    -3.220      3.616      4.673
REMARK INTER + INTRA:          -5.084
REMARK INTER:                  -4.278
REMARK INTRA:                  -0.805
REMARK UNBOUND:                -0.546
REMARK SMILES CCCCCCCCC(=O)[O-]
REMARK SMILES IDX 6 1 7 2 8 3 9 4 10 5 11 6 5 7 4 8 3 9 2 10 1 11
REMARK H PARENT
REMARK Flexibility Score: inf
ROOT
ATOM      1  C   UNL     1      21.111   5.371  26.262  1.00  0.00     0.000 C 
ENDROOT
BRANCH   1   2
ATOM      2  C   UNL     1      21.849   5.096  27.585  1.00  0.00     0.006 C 
BRANCH   2   3
ATOM      3  C   UNL     1      23.346   4.828  27.387  1.00  0.00     0.053 C 
BRANCH   3   4
ATOM      4  C   UNL     1      23.561   3.463  26.816  1.00  0.00     0.041 C 
ATOM      5  O   UNL     1      24.393   3.289  25.887  1.00  0.00    -0.550 OA
ATOM      6  O   UNL     1      22.808   2.390  27.275  1.00  0.00    -0.550 OA
ENDBRANCH   3   4
ENDBRANCH   2   3
ENDBRANCH   1   2
BRANCH   1   7
ATOM      7  C   UNL     1      19.829   4.543  26.043  1.00  0.00     0.000 C 
BRANCH   7   8
ATOM      8  C   UNL     1      19.834   3.644  24.793  1.00  0.00    -0.000 C 
BRANCH   8   9
ATOM      9  C   UNL     1      21.137   3.753  23.985  1.00  0.00    -0.000 C 
BRANCH   9  10
ATOM     10  C   UNL     1      21.751   2.379  23.671  1.00  0.00    -0.003 C 
ATOM     11  C   UNL     1      21.070   1.238  24.428  1.00  0.00     0.004 C 
ENDBRANCH   9  10
ENDBRANCH   8   9
ENDBRANCH   7   8
ENDBRANCH   1   7
TORSDOF 7
ENDMDL
