MODEL 1
REMARK VINA RESULT:    -5.309      0.000      0.000
REMARK INTER + INTRA:          -9.328
REMARK INTER:                  -8.103
REMARK INTRA:                  -1.225
REMARK UNBOUND:                -1.225
REMARK SMILES OC[C@@H]1O[C@H](O[C@]2(CO)O[C@H](CO)[C@H](O)[C@@H]2O)[C@@H](O)[C@H](O)[C@H]1O
REMARK SMILES IDX 6 1 5 2 3 3 22 4 4 5 20 6 18 7 2 8 1 9 23 11 21 13 19 15
REMARK SMILES IDX 7 17 16 18 10 19 14 20 11 21 8 22 9 23 17 25 15 27 12 29
REMARK SMILES IDX 13 30
REMARK H PARENT 1 10 23 12 21 14 19 16 9 24 17 26 15 28 13 31
REMARK Flexibility Score: inf
ROOT
ATOM      1  O   UNL     1     177.747 163.218 179.513  1.00  0.00    -0.313 OA
ENDROOT
BRANCH   1   2
ATOM      2  C   UNL     1     177.281 163.563 180.811  1.00  0.00     0.285 C 
ATOM      3  C   UNL     1     177.395 162.876 183.046  1.00  0.00     0.178 C 
ATOM      4  C   UNL     1     177.858 164.260 183.556  1.00  0.00     0.177 C 
ATOM      5  O   UNL     1     177.870 162.654 181.728  1.00  0.00    -0.341 OA
ATOM      6  C   UNL     1     177.377 165.357 182.588  1.00  0.00     0.179 C 
ATOM      7  C   UNL     1     177.757 164.993 181.140  1.00  0.00     0.202 C 
BRANCH   3   8
ATOM      8  C   UNL     1     177.937 161.760 183.952  1.00  0.00     0.191 C 
BRANCH   8   9
ATOM      9  O   UNL     1     178.872 162.279 184.861  1.00  0.00    -0.394 OA
ATOM     10  H   UNL     1     179.768 162.164 184.452  1.00  0.00     0.210 HD
ENDBRANCH   8   9
ENDBRANCH   3   8
BRANCH   4  11
ATOM     11  O   UNL     1     177.323 164.496 184.833  1.00  0.00    -0.387 OA
ATOM     12  H   UNL     1     178.087 164.656 185.444  1.00  0.00     0.211 HD
ENDBRANCH   4  11
BRANCH   6  13
ATOM     13  O   UNL     1     177.958 166.592 182.925  1.00  0.00    -0.387 OA
ATOM     14  H   UNL     1     177.496 167.283 182.386  1.00  0.00     0.211 HD
ENDBRANCH   6  13
BRANCH   7  15
ATOM     15  O   UNL     1     177.216 165.926 180.238  1.00  0.00    -0.385 OA
ATOM     16  H   UNL     1     177.021 166.758 180.741  1.00  0.00     0.211 HD
ENDBRANCH   7  15
ENDBRANCH   1   2
BRANCH   1  17
ATOM     17  C   UNL     1     176.923 162.449 178.621  1.00  0.00     0.224 C 
ATOM     18  C   UNL     1     176.317 163.422 177.566  1.00  0.00     0.208 C 
ATOM     19  O   UNL     1     177.788 161.562 177.929  1.00  0.00    -0.337 OA
ATOM     20  C   UNL     1     177.191 163.223 176.344  1.00  0.00     0.180 C 
ATOM     21  C   UNL     1     177.627 161.774 176.545  1.00  0.00     0.179 C 
BRANCH  17  22
ATOM     22  C   UNL     1     175.781 161.581 179.231  1.00  0.00     0.225 C 
BRANCH  22  23
ATOM     23  O   UNL     1     176.309 160.470 179.906  1.00  0.00    -0.391 OA
ATOM     24  H   UNL     1     176.087 160.598 180.864  1.00  0.00     0.210 HD
ENDBRANCH  22  23
ENDBRANCH  17  22
BRANCH  18  25
ATOM     25  O   UNL     1     176.221 164.764 177.987  1.00  0.00    -0.385 OA
ATOM     26  H   UNL     1     176.519 165.360 177.255  1.00  0.00     0.211 HD
ENDBRANCH  18  25
BRANCH  20  27
ATOM     27  O   UNL     1     178.285 164.114 176.301  1.00  0.00    -0.387 OA
ATOM     28  H   UNL     1     178.201 164.745 177.060  1.00  0.00     0.211 HD
ENDBRANCH  20  27
BRANCH  21  29
ATOM     29  C   UNL     1     178.907 161.390 175.793  1.00  0.00     0.191 C 
BRANCH  29  30
ATOM     30  O   UNL     1     180.002 161.425 176.662  1.00  0.00    -0.394 OA
ATOM     31  H   UNL     1     180.105 160.506 177.015  1.00  0.00     0.210 HD
ENDBRANCH  29  30
ENDBRANCH  21  29
ENDBRANCH   1  17
TORSDOF 13
ENDMDL
MODEL 2
REMARK VINA RESULT:    -5.012      2.848      4.943
REMARK INTER + INTRA:          -8.875
REMARK INTER:                  -6.751
REMARK INTRA:                  -2.124
REMARK UNBOUND:                -1.225
REMARK SMILES OC[C@@H]1O[C@H](O[C@]2(CO)O[C@H](CO)[C@H](O)[C@@H]2O)[C@@H](O)[C@H](O)[C@H]1O
REMARK SMILES IDX 6 1 5 2 3 3 22 4 4 5 20 6 18 7 2 8 1 9 23 11 21 13 19 15
REMARK SMILES IDX 7 17 16 18 10 19 14 20 11 21 8 22 9 23 17 25 15 27 12 29
REMARK SMILES IDX 13 30
REMARK H PARENT 1 10 23 12 21 14 19 16 9 24 17 26 15 28 13 31
REMARK Flexibility Score: inf
ROOT
ATOM      1  O   UNL     1     176.452 161.805 181.521  1.00  0.00    -0.313 OA
ENDROOT
BRANCH   1   2
ATOM      2  C   UNL     1     176.358 163.221 181.433  1.00  0.00     0.285 C 
ATOM      3  C   UNL     1     175.783 165.105 182.697  1.00  0.00     0.178 C 
ATOM      4  C   UNL     1     177.120 165.829 182.415  1.00  0.00     0.177 C 
ATOM      5  O   UNL     1     175.980 163.700 182.714  1.00  0.00    -0.341 OA
ATOM      6  C   UNL     1     177.714 165.324 181.088  1.00  0.00     0.179 C 
ATOM      7  C   UNL     1     177.748 163.784 181.071  1.00  0.00     0.202 C 
BRANCH   3   8
ATOM      8  C   UNL     1     175.217 165.532 184.059  1.00  0.00     0.191 C 
BRANCH   8   9
ATOM      9  O   UNL     1     174.154 164.696 184.432  1.00  0.00    -0.394 OA
ATOM     10  H   UNL     1     174.410 164.268 185.290  1.00  0.00     0.210 HD
ENDBRANCH   8   9
ENDBRANCH   3   8
BRANCH   4  11
ATOM     11  O   UNL     1     176.899 167.214 182.332  1.00  0.00    -0.387 OA
ATOM     12  H   UNL     1     175.920 167.356 182.396  1.00  0.00     0.211 HD
ENDBRANCH   4  11
BRANCH   6  13
ATOM     13  O   UNL     1     179.019 165.820 180.919  1.00  0.00    -0.387 OA
ATOM     14  H   UNL     1     179.580 165.057 180.626  1.00  0.00     0.211 HD
ENDBRANCH   6  13
BRANCH   7  15
ATOM     15  O   UNL     1     178.174 163.312 179.817  1.00  0.00    -0.385 OA
ATOM     16  H   UNL     1     179.043 162.852 179.944  1.00  0.00     0.211 HD
ENDBRANCH   7  15
ENDBRANCH   1   2
BRANCH   1  17
ATOM     17  C   UNL     1     175.415 160.967 180.984  1.00  0.00     0.224 C 
ATOM     18  C   UNL     1     174.842 160.104 182.147  1.00  0.00     0.208 C 
ATOM     19  O   UNL     1     174.378 161.831 180.547  1.00  0.00    -0.337 OA
ATOM     20  C   UNL     1     173.561 160.818 182.531  1.00  0.00     0.180 C 
ATOM     21  C   UNL     1     173.184 161.454 181.195  1.00  0.00     0.179 C 
BRANCH  17  22
ATOM     22  C   UNL     1     175.764 160.037 179.782  1.00  0.00     0.225 C 
BRANCH  22  23
ATOM     23  O   UNL     1     176.793 160.594 179.008  1.00  0.00    -0.391 OA
ATOM     24  H   UNL     1     177.642 160.344 179.456  1.00  0.00     0.210 HD
ENDBRANCH  22  23
ENDBRANCH  17  22
BRANCH  18  25
ATOM     25  O   UNL     1     175.727 159.902 183.225  1.00  0.00    -0.385 OA
ATOM     26  H   UNL     1     175.396 160.391 184.019  1.00  0.00     0.211 HD
ENDBRANCH  18  25
BRANCH  20  27
ATOM     27  O   UNL     1     173.751 161.776 183.550  1.00  0.00    -0.387 OA
ATOM     28  H   UNL     1     174.721 161.964 183.622  1.00  0.00     0.211 HD
ENDBRANCH  20  27
BRANCH  21  29
ATOM     29  C   UNL     1     172.238 162.654 181.314  1.00  0.00     0.191 C 
BRANCH  29  30
ATOM     30  O   UNL     1     172.925 163.756 181.834  1.00  0.00    -0.394 OA
ATOM     31  H   UNL     1     172.240 164.446 182.021  1.00  0.00     0.210 HD
ENDBRANCH  29  30
ENDBRANCH  21  29
ENDBRANCH   1  17
TORSDOF 13
ENDMDL
MODEL 3
REMARK VINA RESULT:    -5.002      1.096      3.076
REMARK INTER + INTRA:          -8.859
REMARK INTER:                  -6.952
REMARK INTRA:                  -1.907
REMARK UNBOUND:                -1.225
REMARK SMILES OC[C@@H]1O[C@H](O[C@]2(CO)O[C@H](CO)[C@H](O)[C@@H]2O)[C@@H](O)[C@H](O)[C@H]1O
REMARK SMILES IDX 6 1 5 2 3 3 22 4 4 5 20 6 18 7 2 8 1 9 23 11 21 13 19 15
REMARK SMILES IDX 7 17 16 18 10 19 14 20 11 21 8 22 9 23 17 25 15 27 12 29
REMARK SMILES IDX 13 30
REMARK H PARENT 1 10 23 12 21 14 19 16 9 24 17 26 15 28 13 31
REMARK Flexibility Score: inf
ROOT
ATOM      1  O   UNL     1     177.645 163.519 179.125  1.00  0.00    -0.313 OA
ENDROOT
BRANCH   1   2
ATOM      2  C   UNL     1     177.184 163.866 180.425  1.00  0.00     0.285 C 
ATOM      3  C   UNL     1     176.974 163.003 182.590  1.00  0.00     0.178 C 
ATOM      4  C   UNL     1     177.716 164.191 183.246  1.00  0.00     0.177 C 
ATOM      5  O   UNL     1     177.474 162.774 181.283  1.00  0.00    -0.341 OA
ATOM      6  C   UNL     1     177.579 165.442 182.360  1.00  0.00     0.179 C 
ATOM      7  C   UNL     1     177.962 165.109 180.906  1.00  0.00     0.202 C 
BRANCH   3   8
ATOM      8  C   UNL     1     177.171 161.724 183.417  1.00  0.00     0.191 C 
BRANCH   8   9
ATOM      9  O   UNL     1     178.408 161.754 184.079  1.00  0.00    -0.394 OA
ATOM     10  H   UNL     1     179.036 162.251 183.494  1.00  0.00     0.210 HD
ENDBRANCH   8   9
ENDBRANCH   3   8
BRANCH   4  11
ATOM     11  O   UNL     1     177.164 164.451 184.511  1.00  0.00    -0.387 OA
ATOM     12  H   UNL     1     177.851 164.211 185.184  1.00  0.00     0.211 HD
ENDBRANCH   4  11
BRANCH   6  13
ATOM     13  O   UNL     1     178.412 166.470 182.837  1.00  0.00    -0.387 OA
ATOM     14  H   UNL     1     177.842 167.272 182.948  1.00  0.00     0.211 HD
ENDBRANCH   6  13
BRANCH   7  15
ATOM     15  O   UNL     1     177.724 166.211 180.066  1.00  0.00    -0.385 OA
ATOM     16  H   UNL     1     176.750 166.397 180.077  1.00  0.00     0.211 HD
ENDBRANCH   7  15
ENDBRANCH   1   2
BRANCH   1  17
ATOM     17  C   UNL     1     176.712 163.226 178.072  1.00  0.00     0.224 C 
ATOM     18  C   UNL     1     177.002 161.785 177.558  1.00  0.00     0.208 C 
ATOM     19  O   UNL     1     175.422 163.213 178.661  1.00  0.00    -0.337 OA
ATOM     20  C   UNL     1     175.942 160.939 178.234  1.00  0.00     0.180 C 
ATOM     21  C   UNL     1     174.824 161.965 178.393  1.00  0.00     0.179 C 
BRANCH  17  22
ATOM     22  C   UNL     1     176.642 164.198 176.855  1.00  0.00     0.225 C 
BRANCH  22  23
ATOM     23  O   UNL     1     177.296 165.405 177.146  1.00  0.00    -0.391 OA
ATOM     24  H   UNL     1     176.724 166.125 176.776  1.00  0.00     0.210 HD
ENDBRANCH  22  23
ENDBRANCH  17  22
BRANCH  18  25
ATOM     25  O   UNL     1     178.319 161.333 177.777  1.00  0.00    -0.385 OA
ATOM     26  H   UNL     1     178.618 160.800 176.999  1.00  0.00     0.211 HD
ENDBRANCH  18  25
BRANCH  20  27
ATOM     27  O   UNL     1     176.368 160.410 179.471  1.00  0.00    -0.387 OA
ATOM     28  H   UNL     1     176.697 161.158 180.032  1.00  0.00     0.211 HD
ENDBRANCH  20  27
BRANCH  21  29
ATOM     29  C   UNL     1     173.799 161.618 179.480  1.00  0.00     0.191 C 
BRANCH  29  30
ATOM     30  O   UNL     1     174.321 161.917 180.742  1.00  0.00    -0.394 OA
ATOM     31  H   UNL     1     175.257 162.202 180.595  1.00  0.00     0.210 HD
ENDBRANCH  29  30
ENDBRANCH  21  29
ENDBRANCH   1  17
TORSDOF 13
ENDMDL
MODEL 4
REMARK VINA RESULT:    -4.913      7.852     10.498
REMARK INTER + INTRA:          -8.723
REMARK INTER:                  -7.089
REMARK INTRA:                  -1.634
REMARK UNBOUND:                -1.225
REMARK SMILES OC[C@@H]1O[C@H](O[C@]2(CO)O[C@H](CO)[C@H](O)[C@@H]2O)[C@@H](O)[C@H](O)[C@H]1O
REMARK SMILES IDX 6 1 5 2 3 3 22 4 4 5 20 6 18 7 2 8 1 9 23 11 21 13 19 15
REMARK SMILES IDX 7 17 16 18 10 19 14 20 11 21 8 22 9 23 17 25 15 27 12 29
REMARK SMILES IDX 13 30
REMARK H PARENT 1 10 23 12 21 14 19 16 9 24 17 26 15 28 13 31
REMARK Flexibility Score: inf
ROOT
ATOM      1  O   UNL     1     177.035 162.082 171.557  1.00  0.00    -0.313 OA
ENDROOT
BRANCH   1   2
ATOM      2  C   UNL     1     177.578 163.336 171.165  1.00  0.00     0.285 C 
ATOM      3  C   UNL     1     177.714 164.785 169.332  1.00  0.00     0.178 C 
ATOM      4  C   UNL     1     177.178 166.002 170.123  1.00  0.00     0.177 C 
ATOM      5  O   UNL     1     177.150 163.585 169.835  1.00  0.00    -0.341 OA
ATOM      6  C   UNL     1     177.479 165.818 171.622  1.00  0.00     0.179 C 
ATOM      7  C   UNL     1     177.010 164.429 172.094  1.00  0.00     0.202 C 
BRANCH   3   8
ATOM      8  C   UNL     1     177.349 164.908 167.846  1.00  0.00     0.191 C 
BRANCH   8   9
ATOM      9  O   UNL     1     177.691 163.733 167.159  1.00  0.00    -0.394 OA
ATOM     10  H   UNL     1     176.942 163.533 166.540  1.00  0.00     0.210 HD
ENDBRANCH   8   9
ENDBRANCH   3   8
BRANCH   4  11
ATOM     11  O   UNL     1     177.798 167.175 169.662  1.00  0.00    -0.387 OA
ATOM     12  H   UNL     1     178.654 166.906 169.242  1.00  0.00     0.211 HD
ENDBRANCH   4  11
BRANCH   6  13
ATOM     13  O   UNL     1     176.824 166.810 172.374  1.00  0.00    -0.387 OA
ATOM     14  H   UNL     1     176.552 167.519 171.738  1.00  0.00     0.211 HD
ENDBRANCH   6  13
BRANCH   7  15
ATOM     15  O   UNL     1     177.390 164.206 173.429  1.00  0.00    -0.385 OA
ATOM     16  H   UNL     1     178.078 164.879 173.666  1.00  0.00     0.211 HD
ENDBRANCH   7  15
ENDBRANCH   1   2
BRANCH   1  17
ATOM     17  C   UNL     1     177.814 160.879 171.444  1.00  0.00     0.224 C 
ATOM     18  C   UNL     1     177.030 159.880 170.541  1.00  0.00     0.208 C 
ATOM     19  O   UNL     1     179.004 161.227 170.755  1.00  0.00    -0.337 OA
ATOM     20  C   UNL     1     177.705 160.008 169.190  1.00  0.00     0.180 C 
ATOM     21  C   UNL     1     179.115 160.403 169.617  1.00  0.00     0.179 C 
BRANCH  17  22
ATOM     22  C   UNL     1     178.246 160.152 172.754  1.00  0.00     0.225 C 
BRANCH  22  23
ATOM     23  O   UNL     1     178.237 161.041 173.839  1.00  0.00    -0.391 OA
ATOM     24  H   UNL     1     178.837 160.647 174.524  1.00  0.00     0.210 HD
ENDBRANCH  22  23
ENDBRANCH  17  22
BRANCH  18  25
ATOM     25  O   UNL     1     175.636 160.085 170.505  1.00  0.00    -0.385 OA
ATOM     26  H   UNL     1     175.394 160.554 169.668  1.00  0.00     0.211 HD
ENDBRANCH  18  25
BRANCH  20  27
ATOM     27  O   UNL     1     177.099 160.979 168.364  1.00  0.00    -0.387 OA
ATOM     28  H   UNL     1     177.792 161.634 168.094  1.00  0.00     0.211 HD
ENDBRANCH  20  27
BRANCH  21  29
ATOM     29  C   UNL     1     179.931 161.107 168.525  1.00  0.00     0.191 C 
BRANCH  29  30
ATOM     30  O   UNL     1     180.036 160.282 167.400  1.00  0.00    -0.394 OA
ATOM     31  H   UNL     1     180.566 160.787 166.735  1.00  0.00     0.210 HD
ENDBRANCH  29  30
ENDBRANCH  21  29
ENDBRANCH   1  17
TORSDOF 13
ENDMDL
MODEL 5
REMARK VINA RESULT:    -4.862      9.301     11.565
REMARK INTER + INTRA:          -8.646
REMARK INTER:                  -6.535
REMARK INTRA:                  -2.111
REMARK UNBOUND:                -1.225
REMARK SMILES OC[C@@H]1O[C@H](O[C@]2(CO)O[C@H](CO)[C@H](O)[C@@H]2O)[C@@H](O)[C@H](O)[C@H]1O
REMARK SMILES IDX 6 1 5 2 3 3 22 4 4 5 20 6 18 7 2 8 1 9 23 11 21 13 19 15
REMARK SMILES IDX 7 17 16 18 10 19 14 20 11 21 8 22 9 23 17 25 15 27 12 29
REMARK SMILES IDX 13 30
REMARK H PARENT 1 10 23 12 21 14 19 16 9 24 17 26 15 28 13 31
REMARK Flexibility Score: inf
ROOT
ATOM      1  O   UNL     1     177.652 175.484 179.044  1.00  0.00    -0.313 OA
ENDROOT
BRANCH   1   2
ATOM      2  C   UNL     1     177.128 175.126 180.317  1.00  0.00     0.285 C 
ATOM      3  C   UNL     1     177.796 174.402 182.440  1.00  0.00     0.178 C 
ATOM      4  C   UNL     1     177.046 175.537 183.176  1.00  0.00     0.177 C 
ATOM      5  O   UNL     1     178.231 174.847 181.165  1.00  0.00    -0.341 OA
ATOM      6  C   UNL     1     175.867 176.024 182.314  1.00  0.00     0.179 C 
ATOM      7  C   UNL     1     176.346 176.330 180.882  1.00  0.00     0.202 C 
BRANCH   3   8
ATOM      8  C   UNL     1     179.027 173.960 183.245  1.00  0.00     0.191 C 
BRANCH   8   9
ATOM      9  O   UNL     1     179.784 173.033 182.514  1.00  0.00    -0.394 OA
ATOM     10  H   UNL     1     180.199 172.417 183.171  1.00  0.00     0.210 HD
ENDBRANCH   8   9
ENDBRANCH   3   8
BRANCH   4  11
ATOM     11  O   UNL     1     176.561 175.061 184.406  1.00  0.00    -0.387 OA
ATOM     12  H   UNL     1     175.679 175.489 184.556  1.00  0.00     0.211 HD
ENDBRANCH   4  11
BRANCH   6  13
ATOM     13  O   UNL     1     175.302 177.184 182.873  1.00  0.00    -0.387 OA
ATOM     14  H   UNL     1     174.667 177.544 182.205  1.00  0.00     0.211 HD
ENDBRANCH   6  13
BRANCH   7  15
ATOM     15  O   UNL     1     175.256 176.658 180.056  1.00  0.00    -0.385 OA
ATOM     16  H   UNL     1     175.516 177.442 179.507  1.00  0.00     0.211 HD
ENDBRANCH   7  15
ENDBRANCH   1   2
BRANCH   1  17
ATOM     17  C   UNL     1     177.641 174.544 177.958  1.00  0.00     0.224 C 
ATOM     18  C   UNL     1     179.110 174.340 177.482  1.00  0.00     0.208 C 
ATOM     19  O   UNL     1     177.194 173.308 178.492  1.00  0.00    -0.337 OA
ATOM     20  C   UNL     1     179.521 173.031 178.127  1.00  0.00     0.180 C 
ATOM     21  C   UNL     1     178.170 172.328 178.220  1.00  0.00     0.179 C 
BRANCH  17  22
ATOM     22  C   UNL     1     176.742 174.853 176.722  1.00  0.00     0.225 C 
BRANCH  22  23
ATOM     23  O   UNL     1     175.624 175.611 177.099  1.00  0.00    -0.391 OA
ATOM     24  H   UNL     1     175.160 175.089 177.803  1.00  0.00     0.210 HD
ENDBRANCH  22  23
ENDBRANCH  17  22
BRANCH  18  25
ATOM     25  O   UNL     1     179.977 175.413 177.765  1.00  0.00    -0.385 OA
ATOM     26  H   UNL     1     180.195 175.415 178.730  1.00  0.00     0.211 HD
ENDBRANCH  18  25
BRANCH  20  27
ATOM     27  O   UNL     1     180.125 173.209 179.390  1.00  0.00    -0.387 OA
ATOM     28  H   UNL     1     179.600 173.882 179.894  1.00  0.00     0.211 HD
ENDBRANCH  20  27
BRANCH  21  29
ATOM     29  C   UNL     1     178.112 171.210 179.268  1.00  0.00     0.191 C 
BRANCH  29  30
ATOM     30  O   UNL     1     178.029 171.761 180.551  1.00  0.00    -0.394 OA
ATOM     31  H   UNL     1     177.643 171.058 181.131  1.00  0.00     0.210 HD
ENDBRANCH  29  30
ENDBRANCH  21  29
ENDBRANCH   1  17
TORSDOF 13
ENDMDL
MODEL 6
REMARK VINA RESULT:    -4.797      9.433     12.575
REMARK INTER + INTRA:          -8.546
REMARK INTER:                  -6.961
REMARK INTRA:                  -1.585
REMARK UNBOUND:                -1.225
REMARK SMILES OC[C@@H]1O[C@H](O[C@]2(CO)O[C@H](CO)[C@H](O)[C@@H]2O)[C@@H](O)[C@H](O)[C@H]1O
REMARK SMILES IDX 6 1 5 2 3 3 22 4 4 5 20 6 18 7 2 8 1 9 23 11 21 13 19 15
REMARK SMILES IDX 7 17 16 18 10 19 14 20 11 21 8 22 9 23 17 25 15 27 12 29
REMARK SMILES IDX 13 30
REMARK H PARENT 1 10 23 12 21 14 19 16 9 24 17 26 15 28 13 31
REMARK Flexibility Score: inf
ROOT
ATOM      1  O   UNL     1     178.447 173.083 179.752  1.00  0.00    -0.313 OA
ENDROOT
BRANCH   1   2
ATOM      2  C   UNL     1     178.285 173.628 178.449  1.00  0.00     0.285 C 
ATOM      3  C   UNL     1     179.136 175.287 177.035  1.00  0.00     0.178 C 
ATOM      4  C   UNL     1     179.419 174.301 175.877  1.00  0.00     0.177 C 
ATOM      5  O   UNL     1     179.275 174.631 178.285  1.00  0.00    -0.341 OA
ATOM      6  C   UNL     1     178.477 173.088 175.989  1.00  0.00     0.179 C 
ATOM      7  C   UNL     1     178.521 172.508 177.415  1.00  0.00     0.202 C 
BRANCH   3   8
ATOM      8  C   UNL     1     180.123 176.463 176.991  1.00  0.00     0.191 C 
BRANCH   8   9
ATOM      9  O   UNL     1     180.023 177.230 178.162  1.00  0.00    -0.394 OA
ATOM     10  H   UNL     1     179.489 178.035 177.935  1.00  0.00     0.210 HD
ENDBRANCH   8   9
ENDBRANCH   3   8
BRANCH   4  11
ATOM     11  O   UNL     1     179.209 174.945 174.647  1.00  0.00    -0.387 OA
ATOM     12  H   UNL     1     179.756 175.771 174.654  1.00  0.00     0.211 HD
ENDBRANCH   4  11
BRANCH   6  13
ATOM     13  O   UNL     1     178.855 172.093 175.070  1.00  0.00    -0.387 OA
ATOM     14  H   UNL     1     179.717 171.723 175.387  1.00  0.00     0.211 HD
ENDBRANCH   6  13
BRANCH   7  15
ATOM     15  O   UNL     1     177.575 171.478 177.559  1.00  0.00    -0.385 OA
ATOM     16  H   UNL     1     177.228 171.513 178.487  1.00  0.00     0.211 HD
ENDBRANCH   7  15
ENDBRANCH   1   2
BRANCH   1  17
ATOM     17  C   UNL     1     177.430 173.263 180.752  1.00  0.00     0.224 C 
ATOM     18  C   UNL     1     177.930 174.339 181.760  1.00  0.00     0.208 C 
ATOM     19  O   UNL     1     176.296 173.798 180.089  1.00  0.00    -0.337 OA
ATOM     20  C   UNL     1     177.212 175.602 181.327  1.00  0.00     0.180 C 
ATOM     21  C   UNL     1     175.944 175.009 180.720  1.00  0.00     0.179 C 
BRANCH  17  22
ATOM     22  C   UNL     1     176.941 172.011 181.543  1.00  0.00     0.225 C 
BRANCH  22  23
ATOM     23  O   UNL     1     177.759 171.778 182.658  1.00  0.00    -0.391 OA
ATOM     24  H   UNL     1     178.387 172.545 182.705  1.00  0.00     0.210 HD
ENDBRANCH  22  23
ENDBRANCH  17  22
BRANCH  18  25
ATOM     25  O   UNL     1     179.331 174.475 181.832  1.00  0.00    -0.385 OA
ATOM     26  H   UNL     1     179.556 175.320 182.296  1.00  0.00     0.211 HD
ENDBRANCH  18  25
BRANCH  20  27
ATOM     27  O   UNL     1     177.952 176.362 180.396  1.00  0.00    -0.387 OA
ATOM     28  H   UNL     1     178.293 175.749 179.696  1.00  0.00     0.211 HD
ENDBRANCH  20  27
BRANCH  21  29
ATOM     29  C   UNL     1     175.224 175.936 179.734  1.00  0.00     0.191 C 
BRANCH  29  30
ATOM     30  O   UNL     1     175.228 177.248 180.220  1.00  0.00    -0.394 OA
ATOM     31  H   UNL     1     174.550 177.279 180.940  1.00  0.00     0.210 HD
ENDBRANCH  29  30
ENDBRANCH  21  29
ENDBRANCH   1  17
TORSDOF 13
ENDMDL
MODEL 7
REMARK VINA RESULT:    -4.789     12.473     15.207
REMARK INTER + INTRA:          -8.533
REMARK INTER:                  -6.863
REMARK INTRA:                  -1.670
REMARK UNBOUND:                -1.225
REMARK SMILES OC[C@@H]1O[C@H](O[C@]2(CO)O[C@H](CO)[C@H](O)[C@@H]2O)[C@@H](O)[C@H](O)[C@H]1O
REMARK SMILES IDX 6 1 5 2 3 3 22 4 4 5 20 6 18 7 2 8 1 9 23 11 21 13 19 15
REMARK SMILES IDX 7 17 16 18 10 19 14 20 11 21 8 22 9 23 17 25 15 27 12 29
REMARK SMILES IDX 13 30
REMARK H PARENT 1 10 23 12 21 14 19 16 9 24 17 26 15 28 13 31
REMARK Flexibility Score: inf
ROOT
ATOM      1  O   UNL     1     173.246 176.962 181.542  1.00  0.00    -0.313 OA
ENDROOT
BRANCH   1   2
ATOM      2  C   UNL     1     174.663 176.882 181.623  1.00  0.00     0.285 C 
ATOM      3  C   UNL     1     176.380 176.016 182.956  1.00  0.00     0.178 C 
ATOM      4  C   UNL     1     177.056 175.270 181.782  1.00  0.00     0.177 C 
ATOM      5  O   UNL     1     174.978 176.084 182.752  1.00  0.00    -0.341 OA
ATOM      6  C   UNL     1     176.709 175.970 180.455  1.00  0.00     0.179 C 
ATOM      7  C   UNL     1     175.188 176.187 180.349  1.00  0.00     0.202 C 
BRANCH   3   8
ATOM      8  C   UNL     1     176.644 175.284 184.280  1.00  0.00     0.191 C 
BRANCH   8   9
ATOM      9  O   UNL     1     177.571 175.996 185.057  1.00  0.00    -0.394 OA
ATOM     10  H   UNL     1     177.482 175.664 185.988  1.00  0.00     0.210 HD
ENDBRANCH   8   9
ENDBRANCH   3   8
BRANCH   4  11
ATOM     11  O   UNL     1     178.450 175.272 181.961  1.00  0.00    -0.387 OA
ATOM     12  H   UNL     1     178.849 174.888 181.139  1.00  0.00     0.211 HD
ENDBRANCH   4  11
BRANCH   6  13
ATOM     13  O   UNL     1     177.145 175.193 179.367  1.00  0.00    -0.387 OA
ATOM     14  H   UNL     1     177.518 175.821 178.698  1.00  0.00     0.211 HD
ENDBRANCH   6  13
BRANCH   7  15
ATOM     15  O   UNL     1     174.874 176.933 179.199  1.00  0.00    -0.385 OA
ATOM     16  H   UNL     1     175.602 176.798 178.541  1.00  0.00     0.211 HD
ENDBRANCH   7  15
ENDBRANCH   1   2
BRANCH   1  17
ATOM     17  C   UNL     1     172.593 178.231 181.371  1.00  0.00     0.224 C 
ATOM     18  C   UNL     1     171.618 178.111 180.162  1.00  0.00     0.208 C 
ATOM     19  O   UNL     1     171.805 178.445 182.531  1.00  0.00    -0.337 OA
ATOM     20  C   UNL     1     170.261 177.915 180.809  1.00  0.00     0.180 C 
ATOM     21  C   UNL     1     170.470 178.654 182.128  1.00  0.00     0.179 C 
BRANCH  17  22
ATOM     22  C   UNL     1     173.480 179.500 181.187  1.00  0.00     0.225 C 
BRANCH  22  23
ATOM     23  O   UNL     1     173.763 179.715 179.830  1.00  0.00    -0.391 OA
ATOM     24  H   UNL     1     174.247 178.908 179.518  1.00  0.00     0.210 HD
ENDBRANCH  22  23
ENDBRANCH  17  22
BRANCH  18  25
ATOM     25  O   UNL     1     171.954 177.112 179.227  1.00  0.00    -0.385 OA
ATOM     26  H   UNL     1     171.593 176.242 179.531  1.00  0.00     0.211 HD
ENDBRANCH  18  25
BRANCH  20  27
ATOM     27  O   UNL     1     169.936 176.555 181.000  1.00  0.00    -0.387 OA
ATOM     28  H   UNL     1     170.569 176.007 180.469  1.00  0.00     0.211 HD
ENDBRANCH  20  27
BRANCH  21  29
ATOM     29  C   UNL     1     169.503 178.239 183.243  1.00  0.00     0.191 C 
BRANCH  29  30
ATOM     30  O   UNL     1     170.023 177.146 183.945  1.00  0.00    -0.394 OA
ATOM     31  H   UNL     1     170.872 177.455 184.349  1.00  0.00     0.210 HD
ENDBRANCH  29  30
ENDBRANCH  21  29
ENDBRANCH   1  17
TORSDOF 13
ENDMDL
MODEL 8
REMARK VINA RESULT:    -4.786     13.157     15.341
REMARK INTER + INTRA:          -8.529
REMARK INTER:                  -6.462
REMARK INTRA:                  -2.067
REMARK UNBOUND:                -1.225
REMARK SMILES OC[C@@H]1O[C@H](O[C@]2(CO)O[C@H](CO)[C@H](O)[C@@H]2O)[C@@H](O)[C@H](O)[C@H]1O
REMARK SMILES IDX 6 1 5 2 3 3 22 4 4 5 20 6 18 7 2 8 1 9 23 11 21 13 19 15
REMARK SMILES IDX 7 17 16 18 10 19 14 20 11 21 8 22 9 23 17 25 15 27 12 29
REMARK SMILES IDX 13 30
REMARK H PARENT 1 10 23 12 21 14 19 16 9 24 17 26 15 28 13 31
REMARK Flexibility Score: inf
ROOT
ATOM      1  O   UNL     1     161.848 161.571 180.085  1.00  0.00    -0.313 OA
ENDROOT
BRANCH   1   2
ATOM      2  C   UNL     1     163.184 161.640 179.602  1.00  0.00     0.285 C 
ATOM      3  C   UNL     1     165.323 160.773 179.990  1.00  0.00     0.178 C 
ATOM      4  C   UNL     1     165.511 160.304 178.529  1.00  0.00     0.177 C 
ATOM      5  O   UNL     1     163.953 160.714 180.353  1.00  0.00    -0.341 OA
ATOM      6  C   UNL     1     164.639 161.160 177.593  1.00  0.00     0.179 C 
ATOM      7  C   UNL     1     163.192 161.218 178.118  1.00  0.00     0.202 C 
BRANCH   3   8
ATOM      8  C   UNL     1     166.119 159.875 180.949  1.00  0.00     0.191 C 
BRANCH   8   9
ATOM      9  O   UNL     1     165.599 159.967 182.250  1.00  0.00    -0.394 OA
ATOM     10  H   UNL     1     164.636 159.737 182.193  1.00  0.00     0.210 HD
ENDBRANCH   8   9
ENDBRANCH   3   8
BRANCH   4  11
ATOM     11  O   UNL     1     166.860 160.434 178.161  1.00  0.00    -0.387 OA
ATOM     12  H   UNL     1     167.137 161.356 178.393  1.00  0.00     0.211 HD
ENDBRANCH   4  11
BRANCH   6  13
ATOM     13  O   UNL     1     164.641 160.619 176.295  1.00  0.00    -0.387 OA
ATOM     14  H   UNL     1     165.224 161.200 175.744  1.00  0.00     0.211 HD
ENDBRANCH   6  13
BRANCH   7  15
ATOM     15  O   UNL     1     162.418 162.096 177.339  1.00  0.00    -0.385 OA
ATOM     16  H   UNL     1     162.050 161.581 176.576  1.00  0.00     0.211 HD
ENDBRANCH   7  15
ENDBRANCH   1   2
BRANCH   1  17
ATOM     17  C   UNL     1     161.354 162.553 181.011  1.00  0.00     0.224 C 
ATOM     18  C   UNL     1     160.849 161.805 182.281  1.00  0.00     0.208 C 
ATOM     19  O   UNL     1     162.466 163.344 181.400  1.00  0.00    -0.337 OA
ATOM     20  C   UNL     1     161.982 161.973 183.274  1.00  0.00     0.180 C 
ATOM     21  C   UNL     1     162.572 163.300 182.805  1.00  0.00     0.179 C 
BRANCH  17  22
ATOM     22  C   UNL     1     160.247 163.538 180.525  1.00  0.00     0.225 C 
BRANCH  22  23
ATOM     23  O   UNL     1     160.238 163.620 179.124  1.00  0.00    -0.391 OA
ATOM     24  H   UNL     1     161.000 164.205 178.877  1.00  0.00     0.210 HD
ENDBRANCH  22  23
ENDBRANCH  17  22
BRANCH  18  25
ATOM     25  O   UNL     1     160.472 160.465 182.067  1.00  0.00    -0.385 OA
ATOM     26  H   UNL     1     159.770 160.428 181.370  1.00  0.00     0.211 HD
ENDBRANCH  18  25
BRANCH  20  27
ATOM     27  O   UNL     1     162.918 160.918 183.222  1.00  0.00    -0.387 OA
ATOM     28  H   UNL     1     162.772 160.334 184.009  1.00  0.00     0.211 HD
ENDBRANCH  20  27
BRANCH  21  29
ATOM     29  C   UNL     1     164.024 163.533 183.239  1.00  0.00     0.191 C 
BRANCH  29  30
ATOM     30  O   UNL     1     164.877 162.677 182.534  1.00  0.00    -0.394 OA
ATOM     31  H   UNL     1     165.793 163.028 182.667  1.00  0.00     0.210 HD
ENDBRANCH  29  30
ENDBRANCH  21  29
ENDBRANCH   1  17
TORSDOF 13
ENDMDL
MODEL 9
REMARK VINA RESULT:    -4.754     14.690     16.620
REMARK INTER + INTRA:          -8.481
REMARK INTER:                  -6.802
REMARK INTRA:                  -1.679
REMARK UNBOUND:                -1.225
REMARK SMILES OC[C@@H]1O[C@H](O[C@]2(CO)O[C@H](CO)[C@H](O)[C@@H]2O)[C@@H](O)[C@H](O)[C@H]1O
REMARK SMILES IDX 6 1 5 2 3 3 22 4 4 5 20 6 18 7 2 8 1 9 23 11 21 13 19 15
REMARK SMILES IDX 7 17 16 18 10 19 14 20 11 21 8 22 9 23 17 25 15 27 12 29
REMARK SMILES IDX 13 30
REMARK H PARENT 1 10 23 12 21 14 19 16 9 24 17 26 15 28 13 31
REMARK Flexibility Score: inf
ROOT
ATOM      1  O   UNL     1     161.884 165.142 181.401  1.00  0.00    -0.313 OA
ENDROOT
BRANCH   1   2
ATOM      2  C   UNL     1     162.180 163.919 180.740  1.00  0.00     0.285 C 
ATOM      3  C   UNL     1     163.078 161.793 181.127  1.00  0.00     0.178 C 
ATOM      4  C   UNL     1     161.850 161.054 180.546  1.00  0.00     0.177 C 
ATOM      5  O   UNL     1     162.680 163.020 181.717  1.00  0.00    -0.341 OA
ATOM      6  C   UNL     1     161.130 161.963 179.533  1.00  0.00     0.179 C 
ATOM      7  C   UNL     1     160.872 163.350 180.151  1.00  0.00     0.202 C 
BRANCH   3   8
ATOM      8  C   UNL     1     163.761 160.935 182.203  1.00  0.00     0.191 C 
BRANCH   8   9
ATOM      9  O   UNL     1     164.580 159.963 181.608  1.00  0.00    -0.394 OA
ATOM     10  H   UNL     1     165.012 159.459 182.345  1.00  0.00     0.210 HD
ENDBRANCH   8   9
ENDBRANCH   3   8
BRANCH   4  11
ATOM     11  O   UNL     1     162.267 159.877 179.904  1.00  0.00    -0.387 OA
ATOM     12  H   UNL     1     161.538 159.607 179.289  1.00  0.00     0.211 HD
ENDBRANCH   4  11
BRANCH   6  13
ATOM     13  O   UNL     1     159.905 161.389 179.150  1.00  0.00    -0.387 OA
ATOM     14  H   UNL     1     159.297 161.464 179.929  1.00  0.00     0.211 HD
ENDBRANCH   6  13
BRANCH   7  15
ATOM     15  O   UNL     1     160.326 164.224 179.194  1.00  0.00    -0.385 OA
ATOM     16  H   UNL     1     160.937 164.242 178.415  1.00  0.00     0.211 HD
ENDBRANCH   7  15
ENDBRANCH   1   2
BRANCH   1  17
ATOM     17  C   UNL     1     162.345 166.394 180.866  1.00  0.00     0.224 C 
ATOM     18  C   UNL     1     161.118 167.344 180.735  1.00  0.00     0.208 C 
ATOM     19  O   UNL     1     163.215 166.957 181.836  1.00  0.00    -0.337 OA
ATOM     20  C   UNL     1     161.225 168.243 181.951  1.00  0.00     0.180 C 
ATOM     21  C   UNL     1     162.735 168.239 182.170  1.00  0.00     0.179 C 
BRANCH  17  22
ATOM     22  C   UNL     1     163.125 166.378 179.516  1.00  0.00     0.225 C 
BRANCH  22  23
ATOM     23  O   UNL     1     162.243 166.506 178.433  1.00  0.00    -0.391 OA
ATOM     24  H   UNL     1     161.681 165.689 178.436  1.00  0.00     0.210 HD
ENDBRANCH  22  23
ENDBRANCH  17  22
BRANCH  18  25
ATOM     25  O   UNL     1     159.875 166.690 180.616  1.00  0.00    -0.385 OA
ATOM     26  H   UNL     1     159.153 167.300 180.911  1.00  0.00     0.211 HD
ENDBRANCH  18  25
BRANCH  20  27
ATOM     27  O   UNL     1     160.517 167.745 183.066  1.00  0.00    -0.387 OA
ATOM     28  H   UNL     1     159.753 168.350 183.244  1.00  0.00     0.211 HD
ENDBRANCH  20  27
BRANCH  21  29
ATOM     29  C   UNL     1     163.167 168.618 183.592  1.00  0.00     0.191 C 
BRANCH  29  30
ATOM     30  O   UNL     1     162.258 169.528 184.141  1.00  0.00    -0.394 OA
ATOM     31  H   UNL     1     161.517 169.607 183.490  1.00  0.00     0.210 HD
ENDBRANCH  29  30
ENDBRANCH  21  29
ENDBRANCH   1  17
TORSDOF 13
ENDMDL
