MODEL 1
REMARK VINA RESULT:    -4.581      0.000      0.000
REMARK INTER + INTRA:         -11.542
REMARK INTER:                  -8.330
REMARK INTRA:                  -3.212
REMARK UNBOUND:                -3.212
REMARK SMILES CCCCCC=CCC=CCCCCCCCC(=O)[O-]
REMARK SMILES IDX 11 1 12 2 13 3 14 4 15 5 16 6 17 7 18 8 19 9 20 10 10 11
REMARK SMILES IDX 9 12 8 13 7 14 6 15 5 16 4 17 3 18 2 19 1 20
REMARK H PARENT
REMARK Flexibility Score: inf
ROOT
ATOM      1  C   UNL     1      22.005  -4.475  22.034  1.00  0.00     0.027 C 
ENDROOT
BRANCH   1   2
ATOM      2  C   UNL     1      21.168  -4.989  20.855  1.00  0.00     0.004 C 
BRANCH   2   3
ATOM      3  C   UNL     1      19.780  -5.497  21.287  1.00  0.00     0.000 C 
BRANCH   3   4
ATOM      4  C   UNL     1      19.515  -5.457  22.806  1.00  0.00     0.000 C 
BRANCH   4   5
ATOM      5  C   UNL     1      18.386  -4.509  23.246  1.00  0.00     0.000 C 
BRANCH   5   6
ATOM      6  C   UNL     1      18.658  -3.845  24.606  1.00  0.00     0.006 C 
BRANCH   6   7
ATOM      7  C   UNL     1      17.912  -2.513  24.759  1.00  0.00     0.053 C 
BRANCH   7   8
ATOM      8  C   UNL     1      16.459  -2.652  24.427  1.00  0.00     0.041 C 
ATOM      9  O   UNL     1      15.991  -2.113  23.389  1.00  0.00    -0.550 OA
ATOM     10  O   UNL     1      15.627  -3.406  25.245  1.00  0.00    -0.550 OA
ENDBRANCH   7   8
ENDBRANCH   6   7
ENDBRANCH   5   6
ENDBRANCH   4   5
ENDBRANCH   3   4
ENDBRANCH   2   3
ENDBRANCH   1   2
BRANCH   1  11
ATOM     11  C   UNL     1      22.692  -3.182  21.676  1.00  0.00    -0.031 C 
ATOM     12  C   UNL     1      22.275  -1.964  22.072  1.00  0.00    -0.027 C 
BRANCH  12  13
ATOM     13  C   UNL     1      21.026  -1.716  22.878  1.00  0.00     0.054 C 
BRANCH  13  14
ATOM     14  C   UNL     1      20.242  -0.554  22.321  1.00  0.00    -0.027 C 
ATOM     15  C   UNL     1      19.300  -0.678  21.369  1.00  0.00    -0.031 C 
BRANCH  15  16
ATOM     16  C   UNL     1      18.867  -1.986  20.751  1.00  0.00     0.027 C 
BRANCH  16  17
ATOM     17  C   UNL     1      19.055  -1.972  19.228  1.00  0.00     0.004 C 
BRANCH  17  18
ATOM     18  C   UNL     1      20.540  -1.931  18.831  1.00  0.00     0.000 C 
BRANCH  18  19
ATOM     19  C   UNL     1      20.861  -2.868  17.657  1.00  0.00    -0.003 C 
ATOM     20  C   UNL     1      22.307  -3.365  17.676  1.00  0.00     0.004 C 
ENDBRANCH  18  19
ENDBRANCH  17  18
ENDBRANCH  16  17
ENDBRANCH  15  16
ENDBRANCH  13  14
ENDBRANCH  12  13
ENDBRANCH   1  11
TORSDOF 14
ENDMDL
MODEL 2
REMARK VINA RESULT:    -4.439     11.803     13.953
REMARK INTER + INTRA:         -11.284
REMARK INTER:                  -9.226
REMARK INTRA:                  -2.057
REMARK UNBOUND:                -3.212
REMARK SMILES CCCCCC=CCC=CCCCCCCCC(=O)[O-]
REMARK SMILES IDX 11 1 12 2 13 3 14 4 15 5 16 6 17 7 18 8 19 9 20 10 10 11
REMARK SMILES IDX 9 12 8 13 7 14 6 15 5 16 4 17 3 18 2 19 1 20
REMARK H PARENT
REMARK Flexibility Score: inf
ROOT
ATOM      1  C   UNL     1       8.744   1.544  17.751  1.00  0.00     0.027 C 
ENDROOT
BRANCH   1   2
ATOM      2  C   UNL     1       8.691   2.827  18.593  1.00  0.00     0.004 C 
BRANCH   2   3
ATOM      3  C   UNL     1       7.277   3.138  19.116  1.00  0.00     0.000 C 
BRANCH   3   4
ATOM      4  C   UNL     1       6.612   4.384  18.497  1.00  0.00     0.000 C 
BRANCH   4   5
ATOM      5  C   UNL     1       7.104   5.730  19.056  1.00  0.00     0.000 C 
BRANCH   5   6
ATOM      6  C   UNL     1       7.935   5.576  20.341  1.00  0.00     0.006 C 
BRANCH   6   7
ATOM      7  C   UNL     1       7.117   5.893  21.600  1.00  0.00     0.053 C 
BRANCH   7   8
ATOM      8  C   UNL     1       7.345   4.878  22.677  1.00  0.00     0.041 C 
ATOM      9  O   UNL     1       6.810   5.022  23.808  1.00  0.00    -0.550 OA
ATOM     10  O   UNL     1       8.120   3.754  22.421  1.00  0.00    -0.550 OA
ENDBRANCH   7   8
ENDBRANCH   6   7
ENDBRANCH   5   6
ENDBRANCH   4   5
ENDBRANCH   3   4
ENDBRANCH   2   3
ENDBRANCH   1   2
BRANCH   1  11
ATOM     11  C   UNL     1       7.483   0.738  17.928  1.00  0.00    -0.031 C 
ATOM     12  C   UNL     1       7.455  -0.583  18.186  1.00  0.00    -0.027 C 
BRANCH  12  13
ATOM     13  C   UNL     1       8.680  -1.457  18.272  1.00  0.00     0.054 C 
BRANCH  13  14
ATOM     14  C   UNL     1       8.654  -2.534  17.217  1.00  0.00    -0.027 C 
ATOM     15  C   UNL     1       9.287  -2.436  16.034  1.00  0.00    -0.031 C 
BRANCH  15  16
ATOM     16  C   UNL     1      10.136  -1.262  15.608  1.00  0.00     0.027 C 
BRANCH  16  17
ATOM     17  C   UNL     1       9.417  -0.406  14.558  1.00  0.00     0.004 C 
BRANCH  17  18
ATOM     18  C   UNL     1       8.213  -1.137  13.943  1.00  0.00     0.000 C 
BRANCH  18  19
ATOM     19  C   UNL     1       6.893  -0.382  14.159  1.00  0.00    -0.003 C 
ATOM     20  C   UNL     1       5.837  -1.228  14.872  1.00  0.00     0.004 C 
ENDBRANCH  18  19
ENDBRANCH  17  18
ENDBRANCH  16  17
ENDBRANCH  15  16
ENDBRANCH  13  14
ENDBRANCH  12  13
ENDBRANCH   1  11
TORSDOF 14
ENDMDL
MODEL 3
REMARK VINA RESULT:    -4.430      2.579      5.759
REMARK INTER + INTRA:         -11.267
REMARK INTER:                  -8.119
REMARK INTRA:                  -3.148
REMARK UNBOUND:                -3.212
REMARK SMILES CCCCCC=CCC=CCCCCCCCC(=O)[O-]
REMARK SMILES IDX 11 1 12 2 13 3 14 4 15 5 16 6 17 7 18 8 19 9 20 10 10 11
REMARK SMILES IDX 9 12 8 13 7 14 6 15 5 16 4 17 3 18 2 19 1 20
REMARK H PARENT
REMARK Flexibility Score: inf
ROOT
ATOM      1  C   UNL     1      21.911  -1.540  23.397  1.00  0.00     0.027 C 
ENDROOT
BRANCH   1   2
ATOM      2  C   UNL     1      20.410  -1.228  23.333  1.00  0.00     0.004 C 
BRANCH   2   3
ATOM      3  C   UNL     1      20.094   0.005  22.466  1.00  0.00     0.000 C 
BRANCH   3   4
ATOM      4  C   UNL     1      19.125  -0.253  21.295  1.00  0.00     0.000 C 
BRANCH   4   5
ATOM      5  C   UNL     1      18.588  -1.691  21.198  1.00  0.00     0.000 C 
BRANCH   5   6
ATOM      6  C   UNL     1      18.620  -2.247  19.764  1.00  0.00     0.006 C 
BRANCH   6   7
ATOM      7  C   UNL     1      19.805  -1.699  18.958  1.00  0.00     0.053 C 
BRANCH   7   8
ATOM      8  C   UNL     1      20.668  -2.800  18.425  1.00  0.00     0.041 C 
ATOM      9  O   UNL     1      21.886  -2.591  18.184  1.00  0.00    -0.550 OA
ATOM     10  O   UNL     1      20.135  -4.068  18.228  1.00  0.00    -0.550 OA
ENDBRANCH   7   8
ENDBRANCH   6   7
ENDBRANCH   5   6
ENDBRANCH   4   5
ENDBRANCH   3   4
ENDBRANCH   2   3
ENDBRANCH   1   2
BRANCH   1  11
ATOM     11  C   UNL     1      22.413  -2.020  22.059  1.00  0.00    -0.031 C 
ATOM     12  C   UNL     1      22.301  -3.285  21.613  1.00  0.00    -0.027 C 
BRANCH  12  13
ATOM     13  C   UNL     1      21.715  -4.418  22.416  1.00  0.00     0.054 C 
BRANCH  13  14
ATOM     14  C   UNL     1      20.461  -4.951  21.769  1.00  0.00    -0.027 C 
ATOM     15  C   UNL     1      19.272  -5.025  22.395  1.00  0.00    -0.031 C 
BRANCH  15  16
ATOM     16  C   UNL     1      19.013  -4.558  23.807  1.00  0.00     0.027 C 
BRANCH  16  17
ATOM     17  C   UNL     1      17.585  -4.019  23.963  1.00  0.00     0.004 C 
BRANCH  17  18
ATOM     18  C   UNL     1      17.286  -3.586  25.408  1.00  0.00     0.000 C 
BRANCH  18  19
ATOM     19  C   UNL     1      17.324  -2.061  25.585  1.00  0.00    -0.003 C 
ATOM     20  C   UNL     1      16.735  -1.312  24.389  1.00  0.00     0.004 C 
ENDBRANCH  18  19
ENDBRANCH  17  18
ENDBRANCH  16  17
ENDBRANCH  15  16
ENDBRANCH  13  14
ENDBRANCH  12  13
ENDBRANCH   1  11
TORSDOF 14
ENDMDL
MODEL 4
REMARK VINA RESULT:    -4.424     12.541     14.476
REMARK INTER + INTRA:         -11.256
REMARK INTER:                  -9.927
REMARK INTRA:                  -1.330
REMARK UNBOUND:                -3.212
REMARK SMILES CCCCCC=CCC=CCCCCCCCC(=O)[O-]
REMARK SMILES IDX 11 1 12 2 13 3 14 4 15 5 16 6 17 7 18 8 19 9 20 10 10 11
REMARK SMILES IDX 9 12 8 13 7 14 6 15 5 16 4 17 3 18 2 19 1 20
REMARK H PARENT
REMARK Flexibility Score: inf
ROOT
ATOM      1  C   UNL     1       8.366   3.831  19.546  1.00  0.00     0.027 C 
ENDROOT
BRANCH   1   2
ATOM      2  C   UNL     1       7.315   2.724  19.704  1.00  0.00     0.004 C 
BRANCH   2   3
ATOM      3  C   UNL     1       7.509   1.571  18.704  1.00  0.00     0.000 C 
BRANCH   3   4
ATOM      4  C   UNL     1       8.857   1.579  17.953  1.00  0.00     0.000 C 
BRANCH   4   5
ATOM      5  C   UNL     1       9.509   0.198  17.768  1.00  0.00     0.000 C 
BRANCH   5   6
ATOM      6  C   UNL     1       8.627  -0.953  18.281  1.00  0.00     0.006 C 
BRANCH   6   7
ATOM      7  C   UNL     1       8.485  -2.079  17.248  1.00  0.00     0.053 C 
BRANCH   7   8
ATOM      8  C   UNL     1       7.944  -1.571  15.948  1.00  0.00     0.041 C 
ATOM      9  O   UNL     1       8.552  -1.811  14.871  1.00  0.00    -0.550 OA
ATOM     10  O   UNL     1       6.749  -0.863  15.920  1.00  0.00    -0.550 OA
ENDBRANCH   7   8
ENDBRANCH   6   7
ENDBRANCH   5   6
ENDBRANCH   4   5
ENDBRANCH   3   4
ENDBRANCH   2   3
ENDBRANCH   1   2
BRANCH   1  11
ATOM     11  C   UNL     1       7.918   5.095  20.234  1.00  0.00    -0.031 C 
ATOM     12  C   UNL     1       7.173   6.054  19.654  1.00  0.00    -0.027 C 
BRANCH  12  13
ATOM     13  C   UNL     1       6.734   6.031  18.212  1.00  0.00     0.054 C 
BRANCH  13  14
ATOM     14  C   UNL     1       7.370   7.155  17.432  1.00  0.00    -0.027 C 
ATOM     15  C   UNL     1       8.067   6.974  16.296  1.00  0.00    -0.031 C 
BRANCH  15  16
ATOM     16  C   UNL     1       8.282   5.640  15.622  1.00  0.00     0.027 C 
BRANCH  16  17
ATOM     17  C   UNL     1       8.826   5.816  14.198  1.00  0.00     0.004 C 
BRANCH  17  18
ATOM     18  C   UNL     1      10.357   5.958  14.180  1.00  0.00     0.000 C 
BRANCH  18  19
ATOM     19  C   UNL     1      10.822   7.225  13.446  1.00  0.00    -0.003 C 
ATOM     20  C   UNL     1      10.472   7.208  11.958  1.00  0.00     0.004 C 
ENDBRANCH  18  19
ENDBRANCH  17  18
ENDBRANCH  16  17
ENDBRANCH  15  16
ENDBRANCH  13  14
ENDBRANCH  12  13
ENDBRANCH   1  11
TORSDOF 14
ENDMDL
MODEL 5
REMARK VINA RESULT:    -4.423      2.734      5.409
REMARK INTER + INTRA:         -11.254
REMARK INTER:                  -8.353
REMARK INTRA:                  -2.902
REMARK UNBOUND:                -3.212
REMARK SMILES CCCCCC=CCC=CCCCCCCCC(=O)[O-]
REMARK SMILES IDX 11 1 12 2 13 3 14 4 15 5 16 6 17 7 18 8 19 9 20 10 10 11
REMARK SMILES IDX 9 12 8 13 7 14 6 15 5 16 4 17 3 18 2 19 1 20
REMARK H PARENT
REMARK Flexibility Score: inf
ROOT
ATOM      1  C   UNL     1      21.086  -4.420  23.952  1.00  0.00     0.027 C 
ENDROOT
BRANCH   1   2
ATOM      2  C   UNL     1      19.702  -4.967  23.574  1.00  0.00     0.004 C 
BRANCH   2   3
ATOM      3  C   UNL     1      19.650  -5.508  22.133  1.00  0.00     0.000 C 
BRANCH   3   4
ATOM      4  C   UNL     1      18.563  -4.876  21.239  1.00  0.00     0.000 C 
BRANCH   4   5
ATOM      5  C   UNL     1      18.897  -4.835  19.738  1.00  0.00     0.000 C 
BRANCH   5   6
ATOM      6  C   UNL     1      20.405  -4.950  19.458  1.00  0.00     0.006 C 
BRANCH   6   7
ATOM      7  C   UNL     1      20.803  -4.267  18.143  1.00  0.00     0.053 C 
BRANCH   7   8
ATOM      8  C   UNL     1      21.232  -2.849  18.363  1.00  0.00     0.041 C 
ATOM      9  O   UNL     1      22.437  -2.583  18.612  1.00  0.00    -0.550 OA
ATOM     10  O   UNL     1      20.307  -1.819  18.258  1.00  0.00    -0.550 OA
ENDBRANCH   7   8
ENDBRANCH   6   7
ENDBRANCH   5   6
ENDBRANCH   4   5
ENDBRANCH   3   4
ENDBRANCH   2   3
ENDBRANCH   1   2
BRANCH   1  11
ATOM     11  C   UNL     1      21.944  -4.246  22.725  1.00  0.00    -0.031 C 
ATOM     12  C   UNL     1      22.149  -3.071  22.101  1.00  0.00    -0.027 C 
BRANCH  12  13
ATOM     13  C   UNL     1      21.500  -1.772  22.504  1.00  0.00     0.054 C 
BRANCH  13  14
ATOM     14  C   UNL     1      20.219  -1.545  21.741  1.00  0.00    -0.027 C 
ATOM     15  C   UNL     1      19.017  -1.400  22.326  1.00  0.00    -0.031 C 
BRANCH  15  16
ATOM     16  C   UNL     1      18.781  -1.405  23.818  1.00  0.00     0.027 C 
BRANCH  16  17
ATOM     17  C   UNL     1      17.376  -0.893  24.162  1.00  0.00     0.004 C 
BRANCH  17  18
ATOM     18  C   UNL     1      16.825  -1.537  25.445  1.00  0.00     0.000 C 
BRANCH  18  19
ATOM     19  C   UNL     1      17.353  -2.963  25.661  1.00  0.00    -0.003 C 
ATOM     20  C   UNL     1      16.393  -4.033  25.140  1.00  0.00     0.004 C 
ENDBRANCH  18  19
ENDBRANCH  17  18
ENDBRANCH  16  17
ENDBRANCH  15  16
ENDBRANCH  13  14
ENDBRANCH  12  13
ENDBRANCH   1  11
TORSDOF 14
ENDMDL
MODEL 6
REMARK VINA RESULT:    -4.420     13.081     15.207
REMARK INTER + INTRA:         -11.250
REMARK INTER:                  -9.253
REMARK INTRA:                  -1.997
REMARK UNBOUND:                -3.212
REMARK SMILES CCCCCC=CCC=CCCCCCCCC(=O)[O-]
REMARK SMILES IDX 11 1 12 2 13 3 14 4 15 5 16 6 17 7 18 8 19 9 20 10 10 11
REMARK SMILES IDX 9 12 8 13 7 14 6 15 5 16 4 17 3 18 2 19 1 20
REMARK H PARENT
REMARK Flexibility Score: inf
ROOT
ATOM      1  C   UNL     1       8.972  -0.840  17.979  1.00  0.00     0.027 C 
ENDROOT
BRANCH   1   2
ATOM      2  C   UNL     1       9.128  -1.539  16.621  1.00  0.00     0.004 C 
BRANCH   2   3
ATOM      3  C   UNL     1       7.781  -1.976  16.017  1.00  0.00     0.000 C 
BRANCH   3   4
ATOM      4  C   UNL     1       7.213  -1.030  14.939  1.00  0.00     0.000 C 
BRANCH   4   5
ATOM      5  C   UNL     1       5.690  -1.114  14.736  1.00  0.00     0.000 C 
BRANCH   5   6
ATOM      6  C   UNL     1       4.921  -0.042  15.526  1.00  0.00     0.006 C 
BRANCH   6   7
ATOM      7  C   UNL     1       5.269   1.379  15.063  1.00  0.00     0.053 C 
BRANCH   7   8
ATOM      8  C   UNL     1       4.273   1.898  14.073  1.00  0.00     0.041 C 
ATOM      9  O   UNL     1       4.648   2.257  12.925  1.00  0.00    -0.550 OA
ATOM     10  O   UNL     1       2.925   1.951  14.404  1.00  0.00    -0.550 OA
ENDBRANCH   7   8
ENDBRANCH   6   7
ENDBRANCH   5   6
ENDBRANCH   4   5
ENDBRANCH   3   4
ENDBRANCH   2   3
ENDBRANCH   1   2
BRANCH   1  11
ATOM     11  C   UNL     1       7.519  -0.564  18.271  1.00  0.00    -0.031 C 
ATOM     12  C   UNL     1       7.020   0.651  18.563  1.00  0.00    -0.027 C 
BRANCH  12  13
ATOM     13  C   UNL     1       7.853   1.900  18.701  1.00  0.00     0.054 C 
BRANCH  13  14
ATOM     14  C   UNL     1       7.965   2.627  17.384  1.00  0.00    -0.027 C 
ATOM     15  C   UNL     1       7.399   3.822  17.141  1.00  0.00    -0.031 C 
BRANCH  15  16
ATOM     16  C   UNL     1       6.607   4.620  18.150  1.00  0.00     0.027 C 
BRANCH  16  17
ATOM     17  C   UNL     1       7.443   5.767  18.733  1.00  0.00     0.004 C 
BRANCH  17  18
ATOM     18  C   UNL     1       7.485   5.727  20.270  1.00  0.00     0.000 C 
BRANCH  18  19
ATOM     19  C   UNL     1       8.544   4.750  20.804  1.00  0.00    -0.003 C 
ATOM     20  C   UNL     1       8.210   4.220  22.199  1.00  0.00     0.004 C 
ENDBRANCH  18  19
ENDBRANCH  17  18
ENDBRANCH  16  17
ENDBRANCH  15  16
ENDBRANCH  13  14
ENDBRANCH  12  13
ENDBRANCH   1  11
TORSDOF 14
ENDMDL
MODEL 7
REMARK VINA RESULT:    -4.412      1.633      4.133
REMARK INTER + INTRA:         -11.234
REMARK INTER:                  -8.055
REMARK INTRA:                  -3.179
REMARK UNBOUND:                -3.212
REMARK SMILES CCCCCC=CCC=CCCCCCCCC(=O)[O-]
REMARK SMILES IDX 11 1 12 2 13 3 14 4 15 5 16 6 17 7 18 8 19 9 20 10 10 11
REMARK SMILES IDX 9 12 8 13 7 14 6 15 5 16 4 17 3 18 2 19 1 20
REMARK H PARENT
REMARK Flexibility Score: inf
ROOT
ATOM      1  C   UNL     1      21.185  -1.890  21.596  1.00  0.00     0.027 C 
ENDROOT
BRANCH   1   2
ATOM      2  C   UNL     1      20.677  -1.206  22.873  1.00  0.00     0.004 C 
BRANCH   2   3
ATOM      3  C   UNL     1      19.153  -0.986  22.865  1.00  0.00     0.000 C 
BRANCH   3   4
ATOM      4  C   UNL     1      18.451  -1.341  21.539  1.00  0.00     0.000 C 
BRANCH   4   5
ATOM      5  C   UNL     1      16.926  -1.523  21.638  1.00  0.00     0.000 C 
BRANCH   5   6
ATOM      6  C   UNL     1      16.426  -1.599  23.091  1.00  0.00     0.006 C 
BRANCH   6   7
ATOM      7  C   UNL     1      16.080  -3.034  23.509  1.00  0.00     0.053 C 
BRANCH   7   8
ATOM      8  C   UNL     1      16.422  -3.289  24.944  1.00  0.00     0.041 C 
ATOM      9  O   UNL     1      17.290  -2.585  25.524  1.00  0.00    -0.550 OA
ATOM     10  O   UNL     1      15.756  -4.282  25.653  1.00  0.00    -0.550 OA
ENDBRANCH   7   8
ENDBRANCH   6   7
ENDBRANCH   5   6
ENDBRANCH   4   5
ENDBRANCH   3   4
ENDBRANCH   2   3
ENDBRANCH   1   2
BRANCH   1  11
ATOM     11  C   UNL     1      22.474  -2.624  21.862  1.00  0.00    -0.031 C 
ATOM     12  C   UNL     1      22.961  -3.612  21.088  1.00  0.00    -0.027 C 
BRANCH  12  13
ATOM     13  C   UNL     1      22.254  -4.168  19.878  1.00  0.00     0.054 C 
BRANCH  13  14
ATOM     14  C   UNL     1      21.767  -5.572  20.131  1.00  0.00    -0.027 C 
ATOM     15  C   UNL     1      20.485  -5.881  20.399  1.00  0.00    -0.031 C 
BRANCH  15  16
ATOM     16  C   UNL     1      19.352  -4.883  20.448  1.00  0.00     0.027 C 
BRANCH  16  17
ATOM     17  C   UNL     1      18.644  -4.910  21.808  1.00  0.00     0.004 C 
BRANCH  17  18
ATOM     18  C   UNL     1      19.526  -5.527  22.906  1.00  0.00     0.000 C 
BRANCH  18  19
ATOM     19  C   UNL     1      19.825  -4.540  24.045  1.00  0.00    -0.003 C 
ATOM     20  C   UNL     1      21.235  -4.702  24.613  1.00  0.00     0.004 C 
ENDBRANCH  18  19
ENDBRANCH  17  18
ENDBRANCH  16  17
ENDBRANCH  15  16
ENDBRANCH  13  14
ENDBRANCH  12  13
ENDBRANCH   1  11
TORSDOF 14
ENDMDL
MODEL 8
REMARK VINA RESULT:    -4.371     13.472     16.059
REMARK INTER + INTRA:         -11.160
REMARK INTER:                  -9.194
REMARK INTRA:                  -1.966
REMARK UNBOUND:                -3.212
REMARK SMILES CCCCCC=CCC=CCCCCCCCC(=O)[O-]
REMARK SMILES IDX 11 1 12 2 13 3 14 4 15 5 16 6 17 7 18 8 19 9 20 10 10 11
REMARK SMILES IDX 9 12 8 13 7 14 6 15 5 16 4 17 3 18 2 19 1 20
REMARK H PARENT
REMARK Flexibility Score: inf
ROOT
ATOM      1  C   UNL     1      14.571   2.809   7.116  1.00  0.00     0.027 C 
ENDROOT
BRANCH   1   2
ATOM      2  C   UNL     1      13.470   1.795   6.778  1.00  0.00     0.004 C 
BRANCH   2   3
ATOM      3  C   UNL     1      13.415   0.622   7.773  1.00  0.00     0.000 C 
BRANCH   3   4
ATOM      4  C   UNL     1      14.324  -0.574   7.421  1.00  0.00     0.000 C 
BRANCH   4   5
ATOM      5  C   UNL     1      14.383  -1.682   8.487  1.00  0.00     0.000 C 
BRANCH   5   6
ATOM      6  C   UNL     1      15.785  -2.297   8.633  1.00  0.00     0.006 C 
BRANCH   6   7
ATOM      7  C   UNL     1      16.208  -3.078   7.382  1.00  0.00     0.053 C 
BRANCH   7   8
ATOM      8  C   UNL     1      17.097  -4.233   7.724  1.00  0.00     0.041 C 
ATOM      9  O   UNL     1      18.175  -4.412   7.098  1.00  0.00    -0.550 OA
ATOM     10  O   UNL     1      16.752  -5.093   8.760  1.00  0.00    -0.550 OA
ENDBRANCH   7   8
ENDBRANCH   6   7
ENDBRANCH   5   6
ENDBRANCH   4   5
ENDBRANCH   3   4
ENDBRANCH   2   3
ENDBRANCH   1   2
BRANCH   1  11
ATOM     11  C   UNL     1      14.649   3.882   6.060  1.00  0.00    -0.031 C 
ATOM     12  C   UNL     1      13.825   4.945   5.994  1.00  0.00    -0.027 C 
BRANCH  12  13
ATOM     13  C   UNL     1      12.667   5.179   6.929  1.00  0.00     0.054 C 
BRANCH  13  14
ATOM     14  C   UNL     1      13.063   6.083   8.070  1.00  0.00    -0.027 C 
ATOM     15  C   UNL     1      12.902   5.763   9.366  1.00  0.00    -0.031 C 
BRANCH  15  16
ATOM     16  C   UNL     1      12.342   4.452   9.866  1.00  0.00     0.027 C 
BRANCH  16  17
ATOM     17  C   UNL     1      13.134   3.931  11.072  1.00  0.00     0.004 C 
BRANCH  17  18
ATOM     18  C   UNL     1      14.568   3.530  10.691  1.00  0.00     0.000 C 
BRANCH  18  19
ATOM     19  C   UNL     1      14.815   2.020  10.832  1.00  0.00    -0.003 C 
ATOM     20  C   UNL     1      16.127   1.572  10.187  1.00  0.00     0.004 C 
ENDBRANCH  18  19
ENDBRANCH  17  18
ENDBRANCH  16  17
ENDBRANCH  15  16
ENDBRANCH  13  14
ENDBRANCH  12  13
ENDBRANCH   1  11
TORSDOF 14
ENDMDL
MODEL 9
REMARK VINA RESULT:    -4.314      1.142      2.876
REMARK INTER + INTRA:         -11.057
REMARK INTER:                  -8.014
REMARK INTRA:                  -3.043
REMARK UNBOUND:                -3.212
REMARK SMILES CCCCCC=CCC=CCCCCCCCC(=O)[O-]
REMARK SMILES IDX 11 1 12 2 13 3 14 4 15 5 16 6 17 7 18 8 19 9 20 10 10 11
REMARK SMILES IDX 9 12 8 13 7 14 6 15 5 16 4 17 3 18 2 19 1 20
REMARK H PARENT
REMARK Flexibility Score: inf
ROOT
ATOM      1  C   UNL     1      22.092  -4.025  22.297  1.00  0.00     0.027 C 
ENDROOT
BRANCH   1   2
ATOM      2  C   UNL     1      22.009  -2.573  21.805  1.00  0.00     0.004 C 
BRANCH   2   3
ATOM      3  C   UNL     1      22.092  -1.550  22.951  1.00  0.00     0.000 C 
BRANCH   3   4
ATOM      4  C   UNL     1      20.954  -0.509  22.980  1.00  0.00     0.000 C 
BRANCH   4   5
ATOM      5  C   UNL     1      19.627  -0.978  22.358  1.00  0.00     0.000 C 
BRANCH   5   6
ATOM      6  C   UNL     1      18.413  -0.699  23.260  1.00  0.00     0.006 C 
BRANCH   6   7
ATOM      7  C   UNL     1      18.234  -1.776  24.338  1.00  0.00     0.053 C 
BRANCH   7   8
ATOM      8  C   UNL     1      16.849  -2.345  24.327  1.00  0.00     0.041 C 
ATOM      9  O   UNL     1      16.056  -2.066  23.388  1.00  0.00    -0.550 OA
ATOM     10  O   UNL     1      16.444  -3.212  25.334  1.00  0.00    -0.550 OA
ENDBRANCH   7   8
ENDBRANCH   6   7
ENDBRANCH   5   6
ENDBRANCH   4   5
ENDBRANCH   3   4
ENDBRANCH   2   3
ENDBRANCH   1   2
BRANCH   1  11
ATOM     11  C   UNL     1      21.209  -4.230  23.500  1.00  0.00    -0.031 C 
ATOM     12  C   UNL     1      20.022  -4.866  23.473  1.00  0.00    -0.027 C 
BRANCH  12  13
ATOM     13  C   UNL     1      19.378  -5.407  22.223  1.00  0.00     0.054 C 
BRANCH  13  14
ATOM     14  C   UNL     1      18.240  -4.527  21.772  1.00  0.00    -0.027 C 
ATOM     15  C   UNL     1      18.232  -3.855  20.607  1.00  0.00    -0.031 C 
BRANCH  15  16
ATOM     16  C   UNL     1      19.332  -3.912  19.573  1.00  0.00     0.027 C 
BRANCH  16  17
ATOM     17  C   UNL     1      19.461  -2.580  18.822  1.00  0.00     0.004 C 
BRANCH  17  18
ATOM     18  C   UNL     1      20.903  -2.317  18.359  1.00  0.00     0.000 C 
BRANCH  18  19
ATOM     19  C   UNL     1      21.590  -3.583  17.825  1.00  0.00    -0.003 C 
ATOM     20  C   UNL     1      23.101  -3.413  17.665  1.00  0.00     0.004 C 
ENDBRANCH  18  19
ENDBRANCH  17  18
ENDBRANCH  16  17
ENDBRANCH  15  16
ENDBRANCH  13  14
ENDBRANCH  12  13
ENDBRANCH   1  11
TORSDOF 14
ENDMDL
