MODEL 1
REMARK VINA RESULT:    -4.999      0.000      0.000
REMARK INTER + INTRA:          -5.690
REMARK INTER:                  -5.437
REMARK INTRA:                  -0.253
REMARK UNBOUND:                -0.253
REMARK SMILES O=C([O-])c1ccccc1O
REMARK SMILES IDX 4 1 9 2 5 3 8 4 6 5 7 6 2 7 1 8 3 9 10 10
REMARK H PARENT 10 11
REMARK Flexibility Score: inf
ROOT
ATOM      1  C   UNL     1      93.356 -60.697 102.366  1.00  0.00     0.039 A 
ATOM      2  C   UNL     1      93.157 -59.411 102.931  1.00  0.00     0.124 A 
ATOM      3  C   UNL     1      94.439 -61.477 102.813  1.00  0.00     0.014 A 
ATOM      4  C   UNL     1      93.998 -58.970 103.962  1.00  0.00     0.047 A 
ATOM      5  C   UNL     1      95.281 -61.013 103.826  1.00  0.00     0.001 A 
ATOM      6  C   UNL     1      95.054 -59.767 104.407  1.00  0.00     0.004 A 
ENDROOT
BRANCH   1   7
ATOM      7  C   UNL     1      92.445 -61.265 101.348  1.00  0.00     0.075 C 
ATOM      8  O   UNL     1      92.003 -62.437 101.481  1.00  0.00    -0.545 OA
ATOM      9  O   UNL     1      92.010 -60.498 100.275  1.00  0.00    -0.545 OA
ENDBRANCH   1   7
BRANCH   2  10
ATOM     10  O   UNL     1      92.169 -58.534 102.478  1.00  0.00    -0.507 OA
ATOM     11  H   UNL     1      91.567 -58.008 103.096  1.00  0.00     0.293 HD
ENDBRANCH   2  10
TORSDOF 2
ENDMDL
MODEL 2
REMARK VINA RESULT:    -4.952      1.814      3.119
REMARK INTER + INTRA:          -5.639
REMARK INTER:                  -5.386
REMARK INTRA:                  -0.253
REMARK UNBOUND:                -0.253
REMARK SMILES O=C([O-])c1ccccc1O
REMARK SMILES IDX 4 1 9 2 5 3 8 4 6 5 7 6 2 7 1 8 3 9 10 10
REMARK H PARENT 10 11
REMARK Flexibility Score: inf
ROOT
ATOM      1  C   UNL     1      94.643 -59.971 103.859  1.00  0.00     0.039 A 
ATOM      2  C   UNL     1      95.398 -61.132 104.166  1.00  0.00     0.124 A 
ATOM      3  C   UNL     1      95.075 -58.727 104.354  1.00  0.00     0.014 A 
ATOM      4  C   UNL     1      96.587 -61.011 104.898  1.00  0.00     0.047 A 
ATOM      5  C   UNL     1      96.251 -58.626 105.100  1.00  0.00     0.001 A 
ATOM      6  C   UNL     1      97.011 -59.765 105.362  1.00  0.00     0.004 A 
ENDROOT
BRANCH   1   7
ATOM      7  C   UNL     1      93.436 -60.014 103.004  1.00  0.00     0.075 C 
ATOM      8  O   UNL     1      92.480 -59.223 103.221  1.00  0.00    -0.545 OA
ATOM      9  O   UNL     1      93.365 -60.874 101.915  1.00  0.00    -0.545 OA
ENDBRANCH   1   7
BRANCH   2  10
ATOM     10  O   UNL     1      94.989 -62.415 103.799  1.00  0.00    -0.507 OA
ATOM     11  H   UNL     1      95.090 -62.785 102.864  1.00  0.00     0.293 HD
ENDBRANCH   2  10
TORSDOF 2
ENDMDL
MODEL 3
REMARK VINA RESULT:    -4.932      1.554      2.370
REMARK INTER + INTRA:          -5.617
REMARK INTER:                  -5.372
REMARK INTRA:                  -0.245
REMARK UNBOUND:                -0.253
REMARK SMILES O=C([O-])c1ccccc1O
REMARK SMILES IDX 4 1 9 2 5 3 8 4 6 5 7 6 2 7 1 8 3 9 10 10
REMARK H PARENT 10 11
REMARK Flexibility Score: inf
ROOT
ATOM      1  C   UNL     1      94.374 -60.245 103.337  1.00  0.00     0.039 A 
ATOM      2  C   UNL     1      95.019 -59.596 104.420  1.00  0.00     0.124 A 
ATOM      3  C   UNL     1      94.818 -61.523 102.947  1.00  0.00     0.014 A 
ATOM      4  C   UNL     1      96.037 -60.260 105.118  1.00  0.00     0.047 A 
ATOM      5  C   UNL     1      95.849 -62.162 103.640  1.00  0.00     0.001 A 
ATOM      6  C   UNL     1      96.449 -61.535 104.731  1.00  0.00     0.004 A 
ENDROOT
BRANCH   1   7
ATOM      7  C   UNL     1      93.225 -59.645 102.624  1.00  0.00     0.075 C 
ATOM      8  O   UNL     1      92.257 -59.168 103.275  1.00  0.00    -0.545 OA
ATOM      9  O   UNL     1      93.224 -59.537 101.239  1.00  0.00    -0.545 OA
ENDBRANCH   1   7
BRANCH   2  10
ATOM     10  O   UNL     1      94.708 -58.292 104.809  1.00  0.00    -0.507 OA
ATOM     11  H   UNL     1      94.445 -57.565 104.158  1.00  0.00     0.293 HD
ENDBRANCH   2  10
TORSDOF 2
ENDMDL
MODEL 4
REMARK VINA RESULT:    -4.835      0.976      2.466
REMARK INTER + INTRA:          -5.513
REMARK INTER:                  -5.275
REMARK INTRA:                  -0.238
REMARK UNBOUND:                -0.253
REMARK SMILES O=C([O-])c1ccccc1O
REMARK SMILES IDX 4 1 9 2 5 3 8 4 6 5 7 6 2 7 1 8 3 9 10 10
REMARK H PARENT 10 11
REMARK Flexibility Score: inf
ROOT
ATOM      1  C   UNL     1      93.575 -59.920 102.585  1.00  0.00     0.039 A 
ATOM      2  C   UNL     1      94.094 -61.240 102.587  1.00  0.00     0.124 A 
ATOM      3  C   UNL     1      94.004 -59.018 103.576  1.00  0.00     0.014 A 
ATOM      4  C   UNL     1      95.066 -61.601 103.530  1.00  0.00     0.047 A 
ATOM      5  C   UNL     1      94.958 -59.401 104.523  1.00  0.00     0.001 A 
ATOM      6  C   UNL     1      95.495 -60.686 104.493  1.00  0.00     0.004 A 
ENDROOT
BRANCH   1   7
ATOM      7  C   UNL     1      92.626 -59.444 101.555  1.00  0.00     0.075 C 
ATOM      8  O   UNL     1      91.918 -58.424 101.772  1.00  0.00    -0.545 OA
ATOM      9  O   UNL     1      92.548 -60.066 100.316  1.00  0.00    -0.545 OA
ENDBRANCH   1   7
BRANCH   2  10
ATOM     10  O   UNL     1      93.651 -62.225 101.702  1.00  0.00    -0.507 OA
ATOM     11  H   UNL     1      93.172 -62.019 100.836  1.00  0.00     0.293 HD
ENDBRANCH   2  10
TORSDOF 2
ENDMDL
MODEL 5
REMARK VINA RESULT:    -4.802      1.636      2.319
REMARK INTER + INTRA:          -5.477
REMARK INTER:                  -5.224
REMARK INTRA:                  -0.253
REMARK UNBOUND:                -0.253
REMARK SMILES O=C([O-])c1ccccc1O
REMARK SMILES IDX 4 1 9 2 5 3 8 4 6 5 7 6 2 7 1 8 3 9 10 10
REMARK H PARENT 10 11
REMARK Flexibility Score: inf
ROOT
ATOM      1  C   UNL     1      94.758 -61.427 102.842  1.00  0.00     0.039 A 
ATOM      2  C   UNL     1      93.962 -60.348 102.378  1.00  0.00     0.124 A 
ATOM      3  C   UNL     1      95.489 -61.270 104.035  1.00  0.00     0.014 A 
ATOM      4  C   UNL     1      93.868 -59.178 103.143  1.00  0.00     0.047 A 
ATOM      5  C   UNL     1      95.401 -60.088 104.774  1.00  0.00     0.001 A 
ATOM      6  C   UNL     1      94.583 -59.048 104.335  1.00  0.00     0.004 A 
ENDROOT
BRANCH   1   7
ATOM      7  C   UNL     1      94.820 -62.726 102.138  1.00  0.00     0.075 C 
ATOM      8  O   UNL     1      95.892 -63.388 102.126  1.00  0.00    -0.545 OA
ATOM      9  O   UNL     1      93.688 -63.267 101.541  1.00  0.00    -0.545 OA
ENDBRANCH   1   7
BRANCH   2  10
ATOM     10  O   UNL     1      93.284 -60.383 101.158  1.00  0.00    -0.507 OA
ATOM     11  H   UNL     1      92.296 -60.581 101.076  1.00  0.00     0.293 HD
ENDBRANCH   2  10
TORSDOF 2
ENDMDL
MODEL 6
REMARK VINA RESULT:    -4.768      3.187      4.234
REMARK INTER + INTRA:          -5.439
REMARK INTER:                  -5.218
REMARK INTRA:                  -0.220
REMARK UNBOUND:                -0.253
REMARK SMILES O=C([O-])c1ccccc1O
REMARK SMILES IDX 4 1 9 2 5 3 8 4 6 5 7 6 2 7 1 8 3 9 10 10
REMARK H PARENT 10 11
REMARK Flexibility Score: inf
ROOT
ATOM      1  C   UNL     1      95.462 -60.566 104.308  1.00  0.00     0.039 A 
ATOM      2  C   UNL     1      94.777 -59.324 104.263  1.00  0.00     0.124 A 
ATOM      3  C   UNL     1      94.936 -61.659 103.594  1.00  0.00     0.014 A 
ATOM      4  C   UNL     1      93.633 -59.192 103.465  1.00  0.00     0.047 A 
ATOM      5  C   UNL     1      93.782 -61.516 102.820  1.00  0.00     0.001 A 
ATOM      6  C   UNL     1      93.138 -60.282 102.747  1.00  0.00     0.004 A 
ENDROOT
BRANCH   1   7
ATOM      7  C   UNL     1      96.731 -60.746 105.047  1.00  0.00     0.075 C 
ATOM      8  O   UNL     1      97.415 -59.741 105.379  1.00  0.00    -0.545 OA
ATOM      9  O   UNL     1      97.151 -62.009 105.443  1.00  0.00    -0.545 OA
ENDBRANCH   1   7
BRANCH   2  10
ATOM     10  O   UNL     1      95.175 -58.219 105.018  1.00  0.00    -0.507 OA
ATOM     11  H   UNL     1      95.584 -58.292 105.939  1.00  0.00     0.293 HD
ENDBRANCH   2  10
TORSDOF 2
ENDMDL
MODEL 7
REMARK VINA RESULT:    -4.681      2.067      3.618
REMARK INTER + INTRA:          -5.345
REMARK INTER:                  -5.131
REMARK INTRA:                  -0.213
REMARK UNBOUND:                -0.253
REMARK SMILES O=C([O-])c1ccccc1O
REMARK SMILES IDX 4 1 9 2 5 3 8 4 6 5 7 6 2 7 1 8 3 9 10 10
REMARK H PARENT 10 11
REMARK Flexibility Score: inf
ROOT
ATOM      1  C   UNL     1      94.352 -60.494 103.415  1.00  0.00     0.039 A 
ATOM      2  C   UNL     1      93.098 -60.103 102.879  1.00  0.00     0.124 A 
ATOM      3  C   UNL     1      94.906 -61.726 103.020  1.00  0.00     0.014 A 
ATOM      4  C   UNL     1      92.468 -60.914 101.926  1.00  0.00     0.047 A 
ATOM      5  C   UNL     1      94.254 -62.533 102.084  1.00  0.00     0.001 A 
ATOM      6  C   UNL     1      93.043 -62.123 101.531  1.00  0.00     0.004 A 
ENDROOT
BRANCH   1   7
ATOM      7  C   UNL     1      95.119 -59.637 104.345  1.00  0.00     0.075 C 
ATOM      8  O   UNL     1      94.818 -58.420 104.477  1.00  0.00    -0.545 OA
ATOM      9  O   UNL     1      96.131 -60.170 105.134  1.00  0.00    -0.545 OA
ENDBRANCH   1   7
BRANCH   2  10
ATOM     10  O   UNL     1      92.432 -58.946 103.290  1.00  0.00    -0.507 OA
ATOM     11  H   UNL     1      92.469 -58.589 104.235  1.00  0.00     0.293 HD
ENDBRANCH   2  10
TORSDOF 2
ENDMDL
MODEL 8
REMARK VINA RESULT:    -4.643      2.502      4.123
REMARK INTER + INTRA:          -5.303
REMARK INTER:                  -5.053
REMARK INTRA:                  -0.250
REMARK UNBOUND:                -0.253
REMARK SMILES O=C([O-])c1ccccc1O
REMARK SMILES IDX 4 1 9 2 5 3 8 4 6 5 7 6 2 7 1 8 3 9 10 10
REMARK H PARENT 10 11
REMARK Flexibility Score: inf
ROOT
ATOM      1  C   UNL     1      94.367 -59.996 103.482  1.00  0.00     0.039 A 
ATOM      2  C   UNL     1      94.355 -61.149 102.655  1.00  0.00     0.124 A 
ATOM      3  C   UNL     1      93.387 -59.005 103.282  1.00  0.00     0.014 A 
ATOM      4  C   UNL     1      93.340 -61.308 101.703  1.00  0.00     0.047 A 
ATOM      5  C   UNL     1      92.395 -59.170 102.313  1.00  0.00     0.001 A 
ATOM      6  C   UNL     1      92.365 -60.324 101.533  1.00  0.00     0.004 A 
ENDROOT
BRANCH   1   7
ATOM      7  C   UNL     1      95.347 -59.814 104.575  1.00  0.00     0.075 C 
ATOM      8  O   UNL     1      95.698 -60.798 105.279  1.00  0.00    -0.545 OA
ATOM      9  O   UNL     1      95.944 -58.579 104.797  1.00  0.00    -0.545 OA
ENDBRANCH   1   7
BRANCH   2  10
ATOM     10  O   UNL     1      95.345 -62.132 102.721  1.00  0.00    -0.507 OA
ATOM     11  H   UNL     1      96.192 -62.106 102.170  1.00  0.00     0.293 HD
ENDBRANCH   2  10
TORSDOF 2
ENDMDL
MODEL 9
REMARK VINA RESULT:    -4.575      2.288      3.100
REMARK INTER + INTRA:          -5.229
REMARK INTER:                  -4.983
REMARK INTRA:                  -0.246
REMARK UNBOUND:                -0.253
REMARK SMILES O=C([O-])c1ccccc1O
REMARK SMILES IDX 4 1 9 2 5 3 8 4 6 5 7 6 2 7 1 8 3 9 10 10
REMARK H PARENT 10 11
REMARK Flexibility Score: inf
ROOT
ATOM      1  C   UNL     1      94.678 -61.395 102.947  1.00  0.00     0.039 A 
ATOM      2  C   UNL     1      95.427 -61.121 104.120  1.00  0.00     0.124 A 
ATOM      3  C   UNL     1      93.776 -60.423 102.473  1.00  0.00     0.014 A 
ATOM      4  C   UNL     1      95.303 -59.873 104.745  1.00  0.00     0.047 A 
ATOM      5  C   UNL     1      93.649 -59.192 103.121  1.00  0.00     0.001 A 
ATOM      6  C   UNL     1      94.420 -58.914 104.248  1.00  0.00     0.004 A 
ENDROOT
BRANCH   1   7
ATOM      7  C   UNL     1      94.837 -62.649 102.180  1.00  0.00     0.075 C 
ATOM      8  O   UNL     1      95.964 -63.209 102.111  1.00  0.00    -0.545 OA
ATOM      9  O   UNL     1      93.742 -63.263 101.584  1.00  0.00    -0.545 OA
ENDBRANCH   1   7
BRANCH   2  10
ATOM     10  O   UNL     1      96.269 -62.065 104.712  1.00  0.00    -0.507 OA
ATOM     11  H   UNL     1      96.868 -62.684 104.185  1.00  0.00     0.293 HD
ENDBRANCH   2  10
TORSDOF 2
ENDMDL
