MODEL 1
REMARK VINA RESULT:    -5.321      0.000      0.000
REMARK INTER + INTRA:          -5.321
REMARK INTER:                  -5.321
REMARK INTRA:                   0.000
REMARK UNBOUND:                 0.000
REMARK SMILES C[C@H]1CCC=C2CC[C@H]3[C@H](C3(C)C)[C@@]21C
REMARK SMILES IDX 1 1 2 2 3 3 4 4 5 5 6 6 14 7 10 8 9 9 11 10 12 11 13 12 8 13
REMARK SMILES IDX 7 14 15 15
REMARK H PARENT
REMARK Flexibility Score: inf
ROOT
ATOM      1  C   UNL     1      28.164  23.741  13.577  1.00  0.00     0.008 C 
ATOM      2  C   UNL     1      29.631  24.006  13.180  1.00  0.00    -0.004 C 
ATOM      3  C   UNL     1      30.548  22.880  13.733  1.00  0.00     0.008 C 
ATOM      4  C   UNL     1      30.905  21.856  12.665  1.00  0.00     0.027 C 
ATOM      5  C   UNL     1      31.590  22.549  11.529  1.00  0.00    -0.027 C 
ATOM      6  C   UNL     1      31.145  23.737  11.075  1.00  0.00    -0.068 C 
ATOM      7  C   UNL     1      29.857  24.351  11.636  1.00  0.00    -0.005 C 
ATOM      8  C   UNL     1      29.809  25.907  11.453  1.00  0.00     0.009 C 
ATOM      9  C   UNL     1      30.880  26.613  10.591  1.00  0.00    -0.000 C 
ATOM     10  C   UNL     1      30.830  26.860  12.111  1.00  0.00    -0.028 C 
ATOM     11  C   UNL     1      31.973  26.331  12.999  1.00  0.00     0.012 C 
ATOM     12  C   UNL     1      30.277  28.234  12.507  1.00  0.00     0.012 C 
ATOM     13  C   UNL     1      32.078  25.810  10.044  1.00  0.00     0.009 C 
ATOM     14  C   UNL     1      31.771  24.334   9.840  1.00  0.00     0.031 C 
ATOM     15  C   UNL     1      28.718  23.776  10.747  1.00  0.00     0.017 C 
ENDROOT
TORSDOF 0
ENDMDL
MODEL 2
REMARK VINA RESULT:    -4.816      1.159      4.360
REMARK INTER + INTRA:          -4.816
REMARK INTER:                  -4.816
REMARK INTRA:                   0.000
REMARK UNBOUND:                 0.000
REMARK SMILES C[C@H]1CCC=C2CC[C@H]3[C@H](C3(C)C)[C@@]21C
REMARK SMILES IDX 1 1 2 2 3 3 4 4 5 5 6 6 14 7 10 8 9 9 11 10 12 11 13 12 8 13
REMARK SMILES IDX 7 14 15 15
REMARK H PARENT
REMARK Flexibility Score: inf
ROOT
ATOM      1  C   UNL     1      32.125  24.930   9.836  1.00  0.00     0.008 C 
ATOM      2  C   UNL     1      31.394  25.177  11.171  1.00  0.00    -0.004 C 
ATOM      3  C   UNL     1      31.170  26.700  11.386  1.00  0.00     0.008 C 
ATOM      4  C   UNL     1      29.750  27.124  11.037  1.00  0.00     0.027 C 
ATOM      5  C   UNL     1      28.784  26.350  11.879  1.00  0.00    -0.027 C 
ATOM      6  C   UNL     1      28.963  25.034  12.103  1.00  0.00    -0.068 C 
ATOM      7  C   UNL     1      30.097  24.273  11.404  1.00  0.00    -0.005 C 
ATOM      8  C   UNL     1      30.515  22.978  12.183  1.00  0.00     0.009 C 
ATOM      9  C   UNL     1      29.667  22.495  13.381  1.00  0.00    -0.000 C 
ATOM     10  C   UNL     1      31.100  23.013  13.611  1.00  0.00    -0.028 C 
ATOM     11  C   UNL     1      31.310  24.339  14.368  1.00  0.00     0.012 C 
ATOM     12  C   UNL     1      32.124  21.915  13.923  1.00  0.00     0.012 C 
ATOM     13  C   UNL     1      28.507  23.367  13.904  1.00  0.00     0.009 C 
ATOM     14  C   UNL     1      27.896  24.260  12.835  1.00  0.00     0.031 C 
ATOM     15  C   UNL     1      29.487  23.790  10.059  1.00  0.00     0.017 C 
ENDROOT
TORSDOF 0
ENDMDL
MODEL 3
REMARK VINA RESULT:    -4.751      0.986      4.053
REMARK INTER + INTRA:          -4.751
REMARK INTER:                  -4.751
REMARK INTRA:                   0.000
REMARK UNBOUND:                 0.000
REMARK SMILES C[C@H]1CCC=C2CC[C@H]3[C@H](C3(C)C)[C@@]21C
REMARK SMILES IDX 1 1 2 2 3 3 4 4 5 5 6 6 14 7 10 8 9 9 11 10 12 11 13 12 8 13
REMARK SMILES IDX 7 14 15 15
REMARK H PARENT
REMARK Flexibility Score: inf
ROOT
ATOM      1  C   UNL     1      30.047  28.248  12.832  1.00  0.00     0.008 C 
ATOM      2  C   UNL     1      30.024  27.089  11.816  1.00  0.00    -0.004 C 
ATOM      3  C   UNL     1      30.229  27.634  10.375  1.00  0.00     0.008 C 
ATOM      4  C   UNL     1      31.660  27.447   9.891  1.00  0.00     0.027 C 
ATOM      5  C   UNL     1      32.006  25.991   9.930  1.00  0.00    -0.027 C 
ATOM      6  C   UNL     1      31.636  25.221  10.972  1.00  0.00    -0.068 C 
ATOM      7  C   UNL     1      30.952  25.844  12.195  1.00  0.00    -0.005 C 
ATOM      8  C   UNL     1      30.097  24.802  12.996  1.00  0.00     0.009 C 
ATOM      9  C   UNL     1      30.186  23.300  12.641  1.00  0.00    -0.000 C 
ATOM     10  C   UNL     1      28.878  24.075  12.389  1.00  0.00    -0.028 C 
ATOM     11  C   UNL     1      28.421  24.333  10.939  1.00  0.00     0.012 C 
ATOM     12  C   UNL     1      27.753  23.750  13.379  1.00  0.00     0.012 C 
ATOM     13  C   UNL     1      30.990  22.849  11.405  1.00  0.00     0.009 C 
ATOM     14  C   UNL     1      32.124  23.797  11.045  1.00  0.00     0.031 C 
ATOM     15  C   UNL     1      32.115  26.263  13.137  1.00  0.00     0.017 C 
ENDROOT
TORSDOF 0
ENDMDL
MODEL 4
REMARK VINA RESULT:    -3.940      1.245      2.323
REMARK INTER + INTRA:          -3.940
REMARK INTER:                  -3.940
REMARK INTRA:                   0.000
REMARK UNBOUND:                 0.000
REMARK SMILES C[C@H]1CCC=C2CC[C@H]3[C@H](C3(C)C)[C@@]21C
REMARK SMILES IDX 1 1 2 2 3 3 4 4 5 5 6 6 14 7 10 8 9 9 11 10 12 11 13 12 8 13
REMARK SMILES IDX 7 14 15 15
REMARK H PARENT
REMARK Flexibility Score: inf
ROOT
ATOM      1  C   UNL     1      27.671  23.717  10.684  1.00  0.00     0.008 C 
ATOM      2  C   UNL     1      28.390  24.544  11.769  1.00  0.00    -0.004 C 
ATOM      3  C   UNL     1      27.941  24.081  13.182  1.00  0.00     0.008 C 
ATOM      4  C   UNL     1      28.961  23.157  13.833  1.00  0.00     0.027 C 
ATOM      5  C   UNL     1      30.275  23.867  13.932  1.00  0.00    -0.027 C 
ATOM      6  C   UNL     1      30.733  24.617  12.911  1.00  0.00    -0.068 C 
ATOM      7  C   UNL     1      29.973  24.667  11.580  1.00  0.00    -0.005 C 
ATOM      8  C   UNL     1      30.286  25.969  10.763  1.00  0.00     0.009 C 
ATOM      9  C   UNL     1      31.416  26.915  11.228  1.00  0.00    -0.000 C 
ATOM     10  C   UNL     1      29.949  27.383  11.280  1.00  0.00    -0.028 C 
ATOM     11  C   UNL     1      29.275  27.605  12.650  1.00  0.00     0.012 C 
ATOM     12  C   UNL     1      29.574  28.401  10.197  1.00  0.00     0.012 C 
ATOM     13  C   UNL     1      32.125  26.661  12.574  1.00  0.00     0.009 C 
ATOM     14  C   UNL     1      32.122  25.198  12.991  1.00  0.00     0.031 C 
ATOM     15  C   UNL     1      30.544  23.486  10.746  1.00  0.00     0.017 C 
ENDROOT
TORSDOF 0
ENDMDL
MODEL 5
REMARK VINA RESULT:    -3.732      1.282      3.403
REMARK INTER + INTRA:          -3.732
REMARK INTER:                  -3.732
REMARK INTRA:                   0.000
REMARK UNBOUND:                 0.000
REMARK SMILES C[C@H]1CCC=C2CC[C@H]3[C@H](C3(C)C)[C@@]21C
REMARK SMILES IDX 1 1 2 2 3 3 4 4 5 5 6 6 14 7 10 8 9 9 11 10 12 11 13 12 8 13
REMARK SMILES IDX 7 14 15 15
REMARK H PARENT
REMARK Flexibility Score: inf
ROOT
ATOM      1  C   UNL     1      30.995  21.152  12.331  1.00  0.00     0.008 C 
ATOM      2  C   UNL     1      30.409  22.444  12.935  1.00  0.00    -0.004 C 
ATOM      3  C   UNL     1      31.016  22.702  14.342  1.00  0.00     0.008 C 
ATOM      4  C   UNL     1      32.124  23.745  14.305  1.00  0.00     0.027 C 
ATOM      5  C   UNL     1      31.578  25.024  13.752  1.00  0.00    -0.027 C 
ATOM      6  C   UNL     1      30.744  25.018  12.694  1.00  0.00    -0.068 C 
ATOM      7  C   UNL     1      30.428  23.709  11.959  1.00  0.00    -0.005 C 
ATOM      8  C   UNL     1      29.064  23.773  11.187  1.00  0.00     0.009 C 
ATOM      9  C   UNL     1      28.317  25.120  11.058  1.00  0.00    -0.000 C 
ATOM     10  C   UNL     1      27.709  23.979  11.896  1.00  0.00    -0.028 C 
ATOM     11  C   UNL     1      27.612  24.137  13.427  1.00  0.00     0.012 C 
ATOM     12  C   UNL     1      26.515  23.280  11.236  1.00  0.00     0.012 C 
ATOM     13  C   UNL     1      28.830  26.360  11.818  1.00  0.00     0.009 C 
ATOM     14  C   UNL     1      30.329  26.330  12.077  1.00  0.00     0.031 C 
ATOM     15  C   UNL     1      31.533  23.580  10.874  1.00  0.00     0.017 C 
ENDROOT
TORSDOF 0
ENDMDL
MODEL 6
REMARK VINA RESULT:    -3.258      1.451      3.765
REMARK INTER + INTRA:          -3.258
REMARK INTER:                  -3.258
REMARK INTRA:                   0.000
REMARK UNBOUND:                 0.000
REMARK SMILES C[C@H]1CCC=C2CC[C@H]3[C@H](C3(C)C)[C@@]21C
REMARK SMILES IDX 1 1 2 2 3 3 4 4 5 5 6 6 14 7 10 8 9 9 11 10 12 11 13 12 8 13
REMARK SMILES IDX 7 14 15 15
REMARK H PARENT
REMARK Flexibility Score: inf
ROOT
ATOM      1  C   UNL     1      32.125  25.614  10.421  1.00  0.00     0.008 C 
ATOM      2  C   UNL     1      31.085  24.506  10.685  1.00  0.00    -0.004 C 
ATOM      3  C   UNL     1      31.430  23.238   9.856  1.00  0.00     0.008 C 
ATOM      4  C   UNL     1      32.125  22.176  10.697  1.00  0.00     0.027 C 
ATOM      5  C   UNL     1      31.241  21.800  11.844  1.00  0.00    -0.027 C 
ATOM      6  C   UNL     1      30.565  22.741  12.532  1.00  0.00    -0.068 C 
ATOM      7  C   UNL     1      30.777  24.229  12.229  1.00  0.00    -0.005 C 
ATOM      8  C   UNL     1      29.553  25.107  12.666  1.00  0.00     0.009 C 
ATOM      9  C   UNL     1      28.417  24.478  13.503  1.00  0.00    -0.000 C 
ATOM     10  C   UNL     1      28.144  24.941  12.059  1.00  0.00    -0.028 C 
ATOM     11  C   UNL     1      27.850  23.888  10.972  1.00  0.00     0.012 C 
ATOM     12  C   UNL     1      27.323  26.232  11.956  1.00  0.00     0.012 C 
ATOM     13  C   UNL     1      28.410  22.960  13.772  1.00  0.00     0.009 C 
ATOM     14  C   UNL     1      29.799  22.341  13.768  1.00  0.00     0.031 C 
ATOM     15  C   UNL     1      31.964  24.659  13.137  1.00  0.00     0.017 C 
ENDROOT
TORSDOF 0
ENDMDL
MODEL 7
REMARK VINA RESULT:    -3.144      1.454      4.468
REMARK INTER + INTRA:          -3.144
REMARK INTER:                  -3.144
REMARK INTRA:                   0.000
REMARK UNBOUND:                 0.000
REMARK SMILES C[C@H]1CCC=C2CC[C@H]3[C@H](C3(C)C)[C@@]21C
REMARK SMILES IDX 1 1 2 2 3 3 4 4 5 5 6 6 14 7 10 8 9 9 11 10 12 11 13 12 8 13
REMARK SMILES IDX 7 14 15 15
REMARK H PARENT
REMARK Flexibility Score: inf
ROOT
ATOM      1  C   UNL     1      27.536  23.375  11.130  1.00  0.00     0.008 C 
ATOM      2  C   UNL     1      29.059  23.463  11.350  1.00  0.00    -0.004 C 
ATOM      3  C   UNL     1      29.680  24.514  10.389  1.00  0.00     0.008 C 
ATOM      4  C   UNL     1      29.946  25.841  11.086  1.00  0.00     0.027 C 
ATOM      5  C   UNL     1      30.868  25.612  12.243  1.00  0.00    -0.027 C 
ATOM      6  C   UNL     1      30.709  24.548  13.053  1.00  0.00    -0.068 C 
ATOM      7  C   UNL     1      29.509  23.608  12.877  1.00  0.00    -0.005 C 
ATOM      8  C   UNL     1      29.780  22.179  13.463  1.00  0.00     0.009 C 
ATOM      9  C   UNL     1      31.052  21.921  14.302  1.00  0.00    -0.000 C 
ATOM     10  C   UNL     1      30.888  21.249  12.925  1.00  0.00    -0.028 C 
ATOM     11  C   UNL     1      31.809  21.675  11.764  1.00  0.00     0.012 C 
ATOM     12  C   UNL     1      30.570  19.751  12.989  1.00  0.00     0.012 C 
ATOM     13  C   UNL     1      32.125  23.021  14.430  1.00  0.00     0.009 C 
ATOM     14  C   UNL     1      31.565  24.428  14.289  1.00  0.00     0.031 C 
ATOM     15  C   UNL     1      28.383  24.227  13.751  1.00  0.00     0.017 C 
ENDROOT
TORSDOF 0
ENDMDL
MODEL 8
REMARK VINA RESULT:    -2.854      1.340      4.595
REMARK INTER + INTRA:          -2.854
REMARK INTER:                  -2.854
REMARK INTRA:                   0.000
REMARK UNBOUND:                 0.000
REMARK SMILES C[C@H]1CCC=C2CC[C@H]3[C@H](C3(C)C)[C@@]21C
REMARK SMILES IDX 1 1 2 2 3 3 4 4 5 5 6 6 14 7 10 8 9 9 11 10 12 11 13 12 8 13
REMARK SMILES IDX 7 14 15 15
REMARK H PARENT
REMARK Flexibility Score: inf
ROOT
ATOM      1  C   UNL     1      32.125  27.803  10.312  1.00  0.00     0.008 C 
ATOM      2  C   UNL     1      31.273  27.216  11.456  1.00  0.00    -0.004 C 
ATOM      3  C   UNL     1      31.106  28.263  12.592  1.00  0.00     0.008 C 
ATOM      4  C   UNL     1      29.753  28.959  12.534  1.00  0.00     0.027 C 
ATOM      5  C   UNL     1      28.667  27.934  12.632  1.00  0.00    -0.027 C 
ATOM      6  C   UNL     1      28.755  26.769  11.961  1.00  0.00    -0.068 C 
ATOM      7  C   UNL     1      29.914  26.515  10.990  1.00  0.00    -0.005 C 
ATOM      8  C   UNL     1      30.183  24.986  10.768  1.00  0.00     0.009 C 
ATOM      9  C   UNL     1      29.192  23.943  11.329  1.00  0.00    -0.000 C 
ATOM     10  C   UNL     1      30.617  24.039  11.906  1.00  0.00    -0.028 C 
ATOM     11  C   UNL     1      30.815  24.544  13.349  1.00  0.00     0.012 C 
ATOM     12  C   UNL     1      31.546  22.894  11.482  1.00  0.00     0.012 C 
ATOM     13  C   UNL     1      28.030  24.396  12.237  1.00  0.00     0.009 C 
ATOM     14  C   UNL     1      27.579  25.825  11.970  1.00  0.00     0.031 C 
ATOM     15  C   UNL     1      29.423  27.070   9.623  1.00  0.00     0.017 C 
ENDROOT
TORSDOF 0
ENDMDL
MODEL 9
REMARK VINA RESULT:    -2.849      1.488      4.388
REMARK INTER + INTRA:          -2.849
REMARK INTER:                  -2.849
REMARK INTRA:                   0.000
REMARK UNBOUND:                 0.000
REMARK SMILES C[C@H]1CCC=C2CC[C@H]3[C@H](C3(C)C)[C@@]21C
REMARK SMILES IDX 1 1 2 2 3 3 4 4 5 5 6 6 14 7 10 8 9 9 11 10 12 11 13 12 8 13
REMARK SMILES IDX 7 14 15 15
REMARK H PARENT
REMARK Flexibility Score: inf
ROOT
ATOM      1  C   UNL     1      28.266  28.657  11.126  1.00  0.00     0.008 C 
ATOM      2  C   UNL     1      29.198  27.475  10.790  1.00  0.00    -0.004 C 
ATOM      3  C   UNL     1      30.109  27.837   9.583  1.00  0.00     0.008 C 
ATOM      4  C   UNL     1      31.508  28.243  10.025  1.00  0.00     0.027 C 
ATOM      5  C   UNL     1      32.125  27.122  10.800  1.00  0.00    -0.027 C 
ATOM      6  C   UNL     1      31.405  26.429  11.704  1.00  0.00    -0.068 C 
ATOM      7  C   UNL     1      29.969  26.850  12.043  1.00  0.00    -0.005 C 
ATOM      8  C   UNL     1      29.120  25.665  12.619  1.00  0.00     0.009 C 
ATOM      9  C   UNL     1      29.810  24.329  12.979  1.00  0.00    -0.000 C 
ATOM     10  C   UNL     1      28.807  24.388  11.811  1.00  0.00    -0.028 C 
ATOM     11  C   UNL     1      29.316  24.198  10.368  1.00  0.00     0.012 C 
ATOM     12  C   UNL     1      27.450  23.742  12.113  1.00  0.00     0.012 C 
ATOM     13  C   UNL     1      31.295  24.112  12.625  1.00  0.00     0.009 C 
ATOM     14  C   UNL     1      32.096  25.404  12.566  1.00  0.00     0.031 C 
ATOM     15  C   UNL     1      30.114  27.880  13.198  1.00  0.00     0.017 C 
ENDROOT
TORSDOF 0
ENDMDL
