MODEL 1
REMARK VINA RESULT:    -4.013      0.000      0.000
REMARK INTER + INTRA:          -4.493
REMARK INTER:                  -4.365
REMARK INTRA:                  -0.128
REMARK UNBOUND:                -0.128
REMARK SMILES Cc1ccc(C(C)C)cc1O
REMARK SMILES IDX 1 1 2 2 10 3 9 4 5 5 4 6 3 7 11 8 6 10 7 11 8 12
REMARK H PARENT 11 9
REMARK Flexibility Score: inf
ROOT
ATOM      1  C   UNL     1     -90.991 -19.227 -62.600  1.00  0.00     0.048 C 
ATOM      2  C   UNL     1     -92.300 -18.774 -63.182  1.00  0.00    -0.009 A 
ATOM      3  C   UNL     1     -92.738 -19.278 -64.419  1.00  0.00     0.118 A 
ATOM      4  C   UNL     1     -93.960 -18.850 -64.955  1.00  0.00     0.050 A 
ATOM      5  C   UNL     1     -94.760 -17.918 -64.269  1.00  0.00    -0.042 A 
ATOM      6  C   UNL     1     -94.313 -17.421 -63.033  1.00  0.00     0.004 A 
ATOM      7  C   UNL     1     -93.096 -17.845 -62.495  1.00  0.00     0.007 A 
ENDROOT
BRANCH   3   8
ATOM      8  O   UNL     1     -91.956 -20.202 -65.113  1.00  0.00    -0.508 OA
ATOM      9  H   UNL     1     -91.715 -20.068 -66.087  1.00  0.00     0.293 HD
ENDBRANCH   3   8
BRANCH   5  10
ATOM     10  C   UNL     1     -96.085 -17.449 -64.841  1.00  0.00     0.013 C 
ATOM     11  C   UNL     1     -97.265 -18.058 -64.074  1.00  0.00     0.012 C 
ATOM     12  C   UNL     1     -96.168 -15.918 -64.856  1.00  0.00     0.012 C 
ENDBRANCH   5  10
TORSDOF 2
ENDMDL
MODEL 2
REMARK VINA RESULT:    -3.937      1.847      4.324
REMARK INTER + INTRA:          -4.410
REMARK INTER:                  -4.283
REMARK INTRA:                  -0.128
REMARK UNBOUND:                -0.128
REMARK SMILES Cc1ccc(C(C)C)cc1O
REMARK SMILES IDX 1 1 2 2 10 3 9 4 5 5 4 6 3 7 11 8 6 10 7 11 8 12
REMARK H PARENT 11 9
REMARK Flexibility Score: inf
ROOT
ATOM      1  C   UNL     1     -96.829 -15.891 -64.090  1.00  0.00     0.048 C 
ATOM      2  C   UNL     1     -95.676 -16.854 -64.089  1.00  0.00    -0.009 A 
ATOM      3  C   UNL     1     -95.650 -17.929 -64.994  1.00  0.00     0.118 A 
ATOM      4  C   UNL     1     -94.571 -18.824 -64.986  1.00  0.00     0.050 A 
ATOM      5  C   UNL     1     -93.506 -18.660 -64.081  1.00  0.00    -0.042 A 
ATOM      6  C   UNL     1     -93.542 -17.581 -63.181  1.00  0.00     0.004 A 
ATOM      7  C   UNL     1     -94.615 -16.688 -63.185  1.00  0.00     0.007 A 
ENDROOT
BRANCH   3   8
ATOM      8  O   UNL     1     -96.698 -18.106 -65.898  1.00  0.00    -0.508 OA
ATOM      9  H   UNL     1     -96.563 -17.998 -66.896  1.00  0.00     0.293 HD
ENDBRANCH   3   8
BRANCH   5  10
ATOM     10  C   UNL     1     -92.334 -19.623 -64.065  1.00  0.00     0.013 C 
ATOM     11  C   UNL     1     -91.230 -19.134 -63.120  1.00  0.00     0.012 C 
ATOM     12  C   UNL     1     -92.789 -21.040 -63.697  1.00  0.00     0.012 C 
ENDBRANCH   5  10
TORSDOF 2
ENDMDL
MODEL 3
REMARK VINA RESULT:    -3.726      1.735      2.388
REMARK INTER + INTRA:          -4.181
REMARK INTER:                  -4.056
REMARK INTRA:                  -0.125
REMARK UNBOUND:                -0.128
REMARK SMILES Cc1ccc(C(C)C)cc1O
REMARK SMILES IDX 1 1 2 2 10 3 9 4 5 5 4 6 3 7 11 8 6 10 7 11 8 12
REMARK H PARENT 11 9
REMARK Flexibility Score: inf
ROOT
ATOM      1  C   UNL     1     -92.038 -19.220 -63.689  1.00  0.00     0.048 C 
ATOM      2  C   UNL     1     -93.378 -18.576 -63.906  1.00  0.00    -0.009 A 
ATOM      3  C   UNL     1     -93.753 -17.450 -63.153  1.00  0.00     0.118 A 
ATOM      4  C   UNL     1     -95.004 -16.854 -63.361  1.00  0.00     0.050 A 
ATOM      5  C   UNL     1     -95.896 -17.368 -64.320  1.00  0.00    -0.042 A 
ATOM      6  C   UNL     1     -95.510 -18.493 -65.069  1.00  0.00     0.004 A 
ATOM      7  C   UNL     1     -94.265 -19.091 -64.864  1.00  0.00     0.007 A 
ENDROOT
BRANCH   3   8
ATOM      8  O   UNL     1     -92.881 -16.928 -62.197  1.00  0.00    -0.508 OA
ATOM      9  H   UNL     1     -92.293 -16.127 -62.395  1.00  0.00     0.293 HD
ENDBRANCH   3   8
BRANCH   5  10
ATOM     10  C   UNL     1     -97.253 -16.730 -64.553  1.00  0.00     0.013 C 
ATOM     11  C   UNL     1     -98.320 -17.792 -64.842  1.00  0.00     0.012 C 
ATOM     12  C   UNL     1     -97.658 -15.847 -63.367  1.00  0.00     0.012 C 
ENDBRANCH   5  10
TORSDOF 2
ENDMDL
MODEL 4
REMARK VINA RESULT:    -3.649      1.532      2.293
REMARK INTER + INTRA:          -4.097
REMARK INTER:                  -3.970
REMARK INTRA:                  -0.127
REMARK UNBOUND:                -0.128
REMARK SMILES Cc1ccc(C(C)C)cc1O
REMARK SMILES IDX 1 1 2 2 10 3 9 4 5 5 4 6 3 7 11 8 6 10 7 11 8 12
REMARK H PARENT 11 9
REMARK Flexibility Score: inf
ROOT
ATOM      1  C   UNL     1     -91.788 -20.280 -63.987  1.00  0.00     0.048 C 
ATOM      2  C   UNL     1     -92.854 -19.227 -63.891  1.00  0.00    -0.009 A 
ATOM      3  C   UNL     1     -92.898 -18.361 -62.784  1.00  0.00     0.118 A 
ATOM      4  C   UNL     1     -93.896 -17.381 -62.702  1.00  0.00     0.050 A 
ATOM      5  C   UNL     1     -94.861 -17.249 -63.717  1.00  0.00    -0.042 A 
ATOM      6  C   UNL     1     -94.808 -18.119 -64.819  1.00  0.00     0.004 A 
ATOM      7  C   UNL     1     -93.816 -19.098 -64.905  1.00  0.00     0.007 A 
ENDROOT
BRANCH   3   8
ATOM      8  O   UNL     1     -91.948 -18.479 -61.768  1.00  0.00    -0.508 OA
ATOM      9  H   UNL     1     -91.954 -17.865 -60.963  1.00  0.00     0.293 HD
ENDBRANCH   3   8
BRANCH   5  10
ATOM     10  C   UNL     1     -95.946 -16.191 -63.637  1.00  0.00     0.013 C 
ATOM     11  C   UNL     1     -96.433 -15.792 -65.035  1.00  0.00     0.012 C 
ATOM     12  C   UNL     1     -97.112 -16.662 -62.759  1.00  0.00     0.012 C 
ENDBRANCH   5  10
TORSDOF 2
ENDMDL
MODEL 5
REMARK VINA RESULT:    -3.584     12.483     14.956
REMARK INTER + INTRA:          -4.027
REMARK INTER:                  -3.900
REMARK INTRA:                  -0.127
REMARK UNBOUND:                -0.128
REMARK SMILES Cc1ccc(C(C)C)cc1O
REMARK SMILES IDX 1 1 2 2 10 3 9 4 5 5 4 6 3 7 11 8 6 10 7 11 8 12
REMARK H PARENT 11 9
REMARK Flexibility Score: inf
ROOT
ATOM      1  C   UNL     1    -100.986  -5.009 -71.822  1.00  0.00     0.048 C 
ATOM      2  C   UNL     1    -100.719  -5.392 -70.394  1.00  0.00    -0.009 A 
ATOM      3  C   UNL     1    -100.012  -6.570 -70.097  1.00  0.00     0.118 A 
ATOM      4  C   UNL     1     -99.768  -6.922 -68.762  1.00  0.00     0.050 A 
ATOM      5  C   UNL     1    -100.222  -6.106 -67.709  1.00  0.00    -0.042 A 
ATOM      6  C   UNL     1    -100.927  -4.931 -68.017  1.00  0.00     0.004 A 
ATOM      7  C   UNL     1    -101.173  -4.578 -69.345  1.00  0.00     0.007 A 
ENDROOT
BRANCH   3   8
ATOM      8  O   UNL     1     -99.556  -7.390 -71.129  1.00  0.00    -0.508 OA
ATOM      9  H   UNL     1     -98.895  -7.055 -71.821  1.00  0.00     0.293 HD
ENDBRANCH   3   8
BRANCH   5  10
ATOM     10  C   UNL     1     -99.962  -6.477 -66.261  1.00  0.00     0.013 C 
ATOM     11  C   UNL     1    -100.951  -5.773 -65.324  1.00  0.00     0.012 C 
ATOM     12  C   UNL     1    -100.002  -7.998 -66.065  1.00  0.00     0.012 C 
ENDBRANCH   5  10
TORSDOF 2
ENDMDL
MODEL 6
REMARK VINA RESULT:    -3.578      2.635      4.821
REMARK INTER + INTRA:          -4.020
REMARK INTER:                  -3.892
REMARK INTRA:                  -0.128
REMARK UNBOUND:                -0.128
REMARK SMILES Cc1ccc(C(C)C)cc1O
REMARK SMILES IDX 1 1 2 2 10 3 9 4 5 5 4 6 3 7 11 8 6 10 7 11 8 12
REMARK H PARENT 11 9
REMARK Flexibility Score: inf
ROOT
ATOM      1  C   UNL     1     -98.828 -15.804 -62.882  1.00  0.00     0.048 C 
ATOM      2  C   UNL     1     -97.455 -16.401 -63.000  1.00  0.00    -0.009 A 
ATOM      3  C   UNL     1     -96.707 -16.230 -64.178  1.00  0.00     0.118 A 
ATOM      4  C   UNL     1     -95.426 -16.791 -64.281  1.00  0.00     0.050 A 
ATOM      5  C   UNL     1     -94.875 -17.526 -63.215  1.00  0.00    -0.042 A 
ATOM      6  C   UNL     1     -95.631 -17.690 -62.042  1.00  0.00     0.004 A 
ATOM      7  C   UNL     1     -96.907 -17.134 -61.936  1.00  0.00     0.007 A 
ENDROOT
BRANCH   3   8
ATOM      8  O   UNL     1     -97.239 -15.505 -65.244  1.00  0.00    -0.508 OA
ATOM      9  H   UNL     1     -96.699 -15.314 -66.080  1.00  0.00     0.293 HD
ENDBRANCH   3   8
BRANCH   5  10
ATOM     10  C   UNL     1     -93.489 -18.137 -63.316  1.00  0.00     0.013 C 
ATOM     11  C   UNL     1     -93.144 -18.936 -62.054  1.00  0.00     0.012 C 
ATOM     12  C   UNL     1     -93.360 -19.006 -64.573  1.00  0.00     0.012 C 
ENDBRANCH   5  10
TORSDOF 2
ENDMDL
MODEL 7
REMARK VINA RESULT:    -3.515     13.177     14.459
REMARK INTER + INTRA:          -3.952
REMARK INTER:                  -3.824
REMARK INTRA:                  -0.128
REMARK UNBOUND:                -0.128
REMARK SMILES Cc1ccc(C(C)C)cc1O
REMARK SMILES IDX 1 1 2 2 10 3 9 4 5 5 4 6 3 7 11 8 6 10 7 11 8 12
REMARK H PARENT 11 9
REMARK Flexibility Score: inf
ROOT
ATOM      1  C   UNL     1    -101.337  -5.726 -64.733  1.00  0.00     0.048 C 
ATOM      2  C   UNL     1    -100.942  -5.919 -66.169  1.00  0.00    -0.009 A 
ATOM      3  C   UNL     1    -100.182  -7.039 -66.550  1.00  0.00     0.118 A 
ATOM      4  C   UNL     1     -99.817  -7.213 -67.892  1.00  0.00     0.050 A 
ATOM      5  C   UNL     1    -100.203  -6.278 -68.870  1.00  0.00    -0.042 A 
ATOM      6  C   UNL     1    -100.963  -5.163 -68.479  1.00  0.00     0.004 A 
ATOM      7  C   UNL     1    -101.329  -4.985 -67.143  1.00  0.00     0.007 A 
ENDROOT
BRANCH   3   8
ATOM      8  O   UNL     1     -99.790  -7.975 -65.593  1.00  0.00    -0.508 OA
ATOM      9  H   UNL     1     -99.956  -8.966 -65.720  1.00  0.00     0.293 HD
ENDBRANCH   3   8
BRANCH   5  10
ATOM     10  C   UNL     1     -99.813  -6.457 -70.325  1.00  0.00     0.013 C 
ATOM     11  C   UNL     1    -100.167  -7.863 -70.824  1.00  0.00     0.012 C 
ATOM     12  C   UNL     1    -100.457  -5.379 -71.206  1.00  0.00     0.012 C 
ENDBRANCH   5  10
TORSDOF 2
ENDMDL
MODEL 8
REMARK VINA RESULT:    -3.473     12.310     13.926
REMARK INTER + INTRA:          -3.906
REMARK INTER:                  -3.800
REMARK INTRA:                  -0.106
REMARK UNBOUND:                -0.128
REMARK SMILES Cc1ccc(C(C)C)cc1O
REMARK SMILES IDX 1 1 2 2 10 3 9 4 5 5 4 6 3 7 11 8 6 10 7 11 8 12
REMARK H PARENT 11 9
REMARK Flexibility Score: inf
ROOT
ATOM      1  C   UNL     1    -100.997  -8.567 -72.088  1.00  0.00     0.048 C 
ATOM      2  C   UNL     1    -100.937  -8.205 -70.632  1.00  0.00    -0.009 A 
ATOM      3  C   UNL     1    -100.032  -7.229 -70.181  1.00  0.00     0.118 A 
ATOM      4  C   UNL     1     -99.981  -6.896 -68.820  1.00  0.00     0.050 A 
ATOM      5  C   UNL     1    -100.829  -7.529 -67.893  1.00  0.00    -0.042 A 
ATOM      6  C   UNL     1    -101.731  -8.504 -68.354  1.00  0.00     0.004 A 
ATOM      7  C   UNL     1    -101.784  -8.838 -69.709  1.00  0.00     0.007 A 
ENDROOT
BRANCH   3   8
ATOM      8  O   UNL     1     -99.184  -6.592 -71.088  1.00  0.00    -0.508 OA
ATOM      9  H   UNL     1     -98.352  -7.045 -71.447  1.00  0.00     0.293 HD
ENDBRANCH   3   8
BRANCH   5  10
ATOM     10  C   UNL     1    -100.782  -7.177 -66.418  1.00  0.00     0.013 C 
ATOM     11  C   UNL     1     -99.926  -8.180 -65.637  1.00  0.00     0.012 C 
ATOM     12  C   UNL     1    -100.282  -5.742 -66.209  1.00  0.00     0.012 C 
ENDBRANCH   5  10
TORSDOF 2
ENDMDL
MODEL 9
REMARK VINA RESULT:    -3.420     12.128     13.789
REMARK INTER + INTRA:          -3.848
REMARK INTER:                  -3.721
REMARK INTRA:                  -0.128
REMARK UNBOUND:                -0.128
REMARK SMILES Cc1ccc(C(C)C)cc1O
REMARK SMILES IDX 1 1 2 2 10 3 9 4 5 5 4 6 3 7 11 8 6 10 7 11 8 12
REMARK H PARENT 11 9
REMARK Flexibility Score: inf
ROOT
ATOM      1  C   UNL     1    -101.092  -8.693 -72.147  1.00  0.00     0.048 C 
ATOM      2  C   UNL     1    -100.991  -8.326 -70.694  1.00  0.00    -0.009 A 
ATOM      3  C   UNL     1    -101.835  -8.934 -69.749  1.00  0.00     0.118 A 
ATOM      4  C   UNL     1    -101.735  -8.587 -68.395  1.00  0.00     0.050 A 
ATOM      5  C   UNL     1    -100.795  -7.633 -67.964  1.00  0.00    -0.042 A 
ATOM      6  C   UNL     1     -99.955  -7.031 -68.917  1.00  0.00     0.004 A 
ATOM      7  C   UNL     1    -100.052  -7.374 -70.267  1.00  0.00     0.007 A 
ENDROOT
BRANCH   3   8
ATOM      8  O   UNL     1    -102.773  -9.882 -70.160  1.00  0.00    -0.508 OA
ATOM      9  H   UNL     1    -102.809 -10.215 -71.116  1.00  0.00     0.293 HD
ENDBRANCH   3   8
BRANCH   5  10
ATOM     10  C   UNL     1    -100.679  -7.250 -66.501  1.00  0.00     0.013 C 
ATOM     11  C   UNL     1     -99.828  -8.266 -65.730  1.00  0.00     0.012 C 
ATOM     12  C   UNL     1    -100.121  -5.830 -66.344  1.00  0.00     0.012 C 
ENDBRANCH   5  10
TORSDOF 2
ENDMDL
