MODEL 1
REMARK VINA RESULT:    -7.481      0.000      0.000
REMARK INTER + INTRA:          -9.325
REMARK INTER:                  -9.012
REMARK INTRA:                  -0.312
REMARK UNBOUND:                -0.312
REMARK SMILES O=c1c(O)c(-c2ccc(O)c(O)c2)oc2cc(O)cc(O)c12
REMARK SMILES IDX 5 1 3 2 2 3 1 4 22 5 20 6 19 7 17 8 16 9 15 10 14 11 6 12
REMARK SMILES IDX 7 13 8 14 9 15 13 16 11 17 10 18 12 20 4 22 21 24 18 26
REMARK H PARENT 10 19 12 21 4 23 21 25 18 27
REMARK Flexibility Score: inf
ROOT
ATOM      1  C   UNL     1      14.524 -47.779  70.654  1.00  0.00     0.180 A 
ATOM      2  C   UNL     1      14.436 -48.537  69.473  1.00  0.00     0.208 A 
ATOM      3  C   UNL     1      15.587 -48.712  68.688  1.00  0.00     0.238 A 
ATOM      4  O   UNL     1      15.514 -49.435  67.661  1.00  0.00    -0.285 OA
ATOM      5  C   UNL     1      16.807 -48.114  69.085  1.00  0.00     0.111 A 
ATOM      6  C   UNL     1      18.025 -48.192  68.346  1.00  0.00     0.134 A 
ATOM      7  C   UNL     1      19.203 -47.673  68.898  1.00  0.00     0.093 A 
ATOM      8  C   UNL     1      19.192 -47.022  70.134  1.00  0.00     0.123 A 
ATOM      9  C   UNL     1      17.997 -46.889  70.835  1.00  0.00     0.094 A 
ATOM     10  C   UNL     1      16.813 -47.427  70.327  1.00  0.00     0.146 A 
ATOM     11  O   UNL     1      15.698 -47.288  71.034  1.00  0.00    -0.452 OA
ENDROOT
BRANCH   1  12
ATOM     12  C   UNL     1      13.349 -47.531  71.520  1.00  0.00     0.025 A 
ATOM     13  C   UNL     1      12.999 -48.476  72.498  1.00  0.00     0.016 A 
ATOM     14  C   UNL     1      11.908 -48.251  73.340  1.00  0.00     0.051 A 
ATOM     15  C   UNL     1      11.157 -47.073  73.227  1.00  0.00     0.157 A 
ATOM     16  C   UNL     1      12.606 -46.341  71.424  1.00  0.00     0.062 A 
ATOM     17  C   UNL     1      11.513 -46.111  72.267  1.00  0.00     0.158 A 
BRANCH  15  18
ATOM     18  O   UNL     1      10.067 -46.853  74.067  1.00  0.00    -0.504 OA
ATOM     19  H   UNL     1       9.873 -47.460  74.856  1.00  0.00     0.293 HD
ENDBRANCH  15  18
BRANCH  17  20
ATOM     20  O   UNL     1      10.796 -44.922  72.139  1.00  0.00    -0.504 OA
ATOM     21  H   UNL     1       9.878 -44.801  72.547  1.00  0.00     0.293 HD
ENDBRANCH  17  20
ENDBRANCH   1  12
BRANCH   2  22
ATOM     22  O   UNL     1      13.226 -49.136  69.111  1.00  0.00    -0.502 OA
ATOM     23  H   UNL     1      13.182 -49.994  68.575  1.00  0.00     0.293 HD
ENDBRANCH   2  22
BRANCH   6  24
ATOM     24  O   UNL     1      18.126 -48.739  67.062  1.00  0.00    -0.507 OA
ATOM     25  H   UNL     1      17.344 -48.922  66.453  1.00  0.00     0.293 HD
ENDBRANCH   6  24
BRANCH   8  26
ATOM     26  O   UNL     1      20.366 -46.495  70.669  1.00  0.00    -0.508 OA
ATOM     27  H   UNL     1      20.491 -45.497  70.793  1.00  0.00     0.293 HD
ENDBRANCH   8  26
TORSDOF 6
ENDMDL
MODEL 2
REMARK VINA RESULT:    -7.415      2.682      4.606
REMARK INTER + INTRA:          -9.245
REMARK INTER:                  -9.145
REMARK INTRA:                  -0.099
REMARK UNBOUND:                -0.312
REMARK SMILES O=c1c(O)c(-c2ccc(O)c(O)c2)oc2cc(O)cc(O)c12
REMARK SMILES IDX 5 1 3 2 2 3 1 4 22 5 20 6 19 7 17 8 16 9 15 10 14 11 6 12
REMARK SMILES IDX 7 13 8 14 9 15 13 16 11 17 10 18 12 20 4 22 21 24 18 26
REMARK H PARENT 10 19 12 21 4 23 21 25 18 27
REMARK Flexibility Score: inf
ROOT
ATOM      1  C   UNL     1      17.907 -47.931  68.833  1.00  0.00     0.180 A 
ATOM      2  C   UNL     1      18.019 -46.826  67.971  1.00  0.00     0.208 A 
ATOM      3  C   UNL     1      19.131 -46.739  67.118  1.00  0.00     0.238 A 
ATOM      4  O   UNL     1      19.199 -45.776  66.311  1.00  0.00    -0.285 OA
ATOM      5  C   UNL     1      20.124 -47.747  67.149  1.00  0.00     0.111 A 
ATOM      6  C   UNL     1      21.312 -47.739  66.358  1.00  0.00     0.134 A 
ATOM      7  C   UNL     1      22.161 -48.853  66.375  1.00  0.00     0.093 A 
ATOM      8  C   UNL     1      21.897 -49.947  67.204  1.00  0.00     0.123 A 
ATOM      9  C   UNL     1      20.772 -49.937  68.024  1.00  0.00     0.094 A 
ATOM     10  C   UNL     1      19.888 -48.857  68.002  1.00  0.00     0.146 A 
ATOM     11  O   UNL     1      18.821 -48.894  68.791  1.00  0.00    -0.452 OA
ENDROOT
BRANCH   1  12
ATOM     12  C   UNL     1      16.776 -48.080  69.778  1.00  0.00     0.025 A 
ATOM     13  C   UNL     1      15.468 -48.181  69.279  1.00  0.00     0.016 A 
ATOM     14  C   UNL     1      14.389 -48.344  70.151  1.00  0.00     0.051 A 
ATOM     15  C   UNL     1      14.603 -48.423  71.534  1.00  0.00     0.157 A 
ATOM     16  C   UNL     1      16.989 -48.182  71.164  1.00  0.00     0.062 A 
ATOM     17  C   UNL     1      15.911 -48.347  72.042  1.00  0.00     0.158 A 
BRANCH  15  18
ATOM     18  O   UNL     1      13.524 -48.584  72.402  1.00  0.00    -0.504 OA
ATOM     19  H   UNL     1      12.666 -49.035  72.105  1.00  0.00     0.293 HD
ENDBRANCH  15  18
BRANCH  17  20
ATOM     20  O   UNL     1      16.158 -48.438  73.411  1.00  0.00    -0.504 OA
ATOM     21  H   UNL     1      15.424 -48.640  74.078  1.00  0.00     0.293 HD
ENDBRANCH  17  20
ENDBRANCH   1  12
BRANCH   2  22
ATOM     22  O   UNL     1      17.017 -45.853  67.940  1.00  0.00    -0.502 OA
ATOM     23  H   UNL     1      16.512 -45.565  68.770  1.00  0.00     0.293 HD
ENDBRANCH   2  22
BRANCH   6  24
ATOM     24  O   UNL     1      21.716 -46.659  65.567  1.00  0.00    -0.507 OA
ATOM     25  H   UNL     1      22.063 -46.736  64.623  1.00  0.00     0.293 HD
ENDBRANCH   6  24
BRANCH   8  26
ATOM     26  O   UNL     1      22.755 -51.044  67.226  1.00  0.00    -0.508 OA
ATOM     27  H   UNL     1      23.072 -51.452  68.098  1.00  0.00     0.293 HD
ENDBRANCH   8  26
TORSDOF 6
ENDMDL
MODEL 3
REMARK VINA RESULT:    -7.300      2.574      4.497
REMARK INTER + INTRA:          -9.106
REMARK INTER:                  -8.783
REMARK INTRA:                  -0.323
REMARK UNBOUND:                -0.312
REMARK SMILES O=c1c(O)c(-c2ccc(O)c(O)c2)oc2cc(O)cc(O)c12
REMARK SMILES IDX 5 1 3 2 2 3 1 4 22 5 20 6 19 7 17 8 16 9 15 10 14 11 6 12
REMARK SMILES IDX 7 13 8 14 9 15 13 16 11 17 10 18 12 20 4 22 21 24 18 26
REMARK H PARENT 10 19 12 21 4 23 21 25 18 27
REMARK Flexibility Score: inf
ROOT
ATOM      1  C   UNL     1      17.749 -47.692  68.581  1.00  0.00     0.180 A 
ATOM      2  C   UNL     1      17.988 -46.582  67.753  1.00  0.00     0.208 A 
ATOM      3  C   UNL     1      19.172 -46.537  66.999  1.00  0.00     0.238 A 
ATOM      4  O   UNL     1      19.355 -45.566  66.219  1.00  0.00    -0.285 OA
ATOM      5  C   UNL     1      20.108 -47.594  67.095  1.00  0.00     0.111 A 
ATOM      6  C   UNL     1      21.358 -47.634  66.408  1.00  0.00     0.134 A 
ATOM      7  C   UNL     1      22.147 -48.790  66.475  1.00  0.00     0.093 A 
ATOM      8  C   UNL     1      21.760 -49.881  67.257  1.00  0.00     0.123 A 
ATOM      9  C   UNL     1      20.571 -49.827  67.978  1.00  0.00     0.094 A 
ATOM     10  C   UNL     1      19.746 -48.703  67.903  1.00  0.00     0.146 A 
ATOM     11  O   UNL     1      18.614 -48.699  68.598  1.00  0.00    -0.452 OA
ENDROOT
BRANCH   1  12
ATOM     12  C   UNL     1      16.535 -47.799  69.424  1.00  0.00     0.025 A 
ATOM     13  C   UNL     1      16.536 -47.233  70.709  1.00  0.00     0.016 A 
ATOM     14  C   UNL     1      15.395 -47.303  71.512  1.00  0.00     0.051 A 
ATOM     15  C   UNL     1      14.233 -47.927  71.039  1.00  0.00     0.157 A 
ATOM     16  C   UNL     1      15.361 -48.405  68.944  1.00  0.00     0.062 A 
ATOM     17  C   UNL     1      14.216 -48.476  69.746  1.00  0.00     0.158 A 
BRANCH  15  18
ATOM     18  O   UNL     1      13.098 -47.998  71.845  1.00  0.00    -0.504 OA
ATOM     19  H   UNL     1      12.733 -47.180  72.321  1.00  0.00     0.293 HD
ENDBRANCH  15  18
BRANCH  17  20
ATOM     20  O   UNL     1      13.071 -49.090  69.239  1.00  0.00    -0.504 OA
ATOM     21  H   UNL     1      13.074 -50.048  68.912  1.00  0.00     0.293 HD
ENDBRANCH  17  20
ENDBRANCH   1  12
BRANCH   2  22
ATOM     22  O   UNL     1      17.040 -45.559  67.656  1.00  0.00    -0.502 OA
ATOM     23  H   UNL     1      17.289 -44.607  67.416  1.00  0.00     0.293 HD
ENDBRANCH   2  22
BRANCH   6  24
ATOM     24  O   UNL     1      21.881 -46.564  65.674  1.00  0.00    -0.507 OA
ATOM     25  H   UNL     1      21.379 -45.716  65.459  1.00  0.00     0.293 HD
ENDBRANCH   6  24
BRANCH   8  26
ATOM     26  O   UNL     1      22.559 -51.020  67.331  1.00  0.00    -0.508 OA
ATOM     27  H   UNL     1      22.777 -51.459  68.218  1.00  0.00     0.293 HD
ENDBRANCH   8  26
TORSDOF 6
ENDMDL
MODEL 4
REMARK VINA RESULT:    -7.299      1.372      2.846
REMARK INTER + INTRA:          -9.105
REMARK INTER:                  -8.794
REMARK INTRA:                  -0.311
REMARK UNBOUND:                -0.312
REMARK SMILES O=c1c(O)c(-c2ccc(O)c(O)c2)oc2cc(O)cc(O)c12
REMARK SMILES IDX 5 1 3 2 2 3 1 4 22 5 20 6 19 7 17 8 16 9 15 10 14 11 6 12
REMARK SMILES IDX 7 13 8 14 9 15 13 16 11 17 10 18 12 20 4 22 21 24 18 26
REMARK H PARENT 10 19 12 21 4 23 21 25 18 27
REMARK Flexibility Score: inf
ROOT
ATOM      1  C   UNL     1      14.987 -47.802  70.572  1.00  0.00     0.180 A 
ATOM      2  C   UNL     1      16.214 -47.787  71.258  1.00  0.00     0.208 A 
ATOM      3  C   UNL     1      17.394 -48.067  70.550  1.00  0.00     0.238 A 
ATOM      4  O   UNL     1      18.494 -48.000  71.157  1.00  0.00    -0.285 OA
ATOM      5  C   UNL     1      17.330 -48.374  69.169  1.00  0.00     0.111 A 
ATOM      6  C   UNL     1      18.457 -48.713  68.361  1.00  0.00     0.134 A 
ATOM      7  C   UNL     1      18.295 -48.870  66.979  1.00  0.00     0.093 A 
ATOM      8  C   UNL     1      17.034 -48.764  66.386  1.00  0.00     0.123 A 
ATOM      9  C   UNL     1      15.920 -48.493  67.175  1.00  0.00     0.094 A 
ATOM     10  C   UNL     1      16.055 -48.296  68.551  1.00  0.00     0.146 A 
ATOM     11  O   UNL     1      14.968 -48.027  69.264  1.00  0.00    -0.452 OA
ENDROOT
BRANCH   1  12
ATOM     12  C   UNL     1      13.699 -47.541  71.256  1.00  0.00     0.025 A 
ATOM     13  C   UNL     1      13.065 -48.582  71.952  1.00  0.00     0.016 A 
ATOM     14  C   UNL     1      11.861 -48.352  72.622  1.00  0.00     0.051 A 
ATOM     15  C   UNL     1      11.280 -47.077  72.618  1.00  0.00     0.157 A 
ATOM     16  C   UNL     1      13.125 -46.258  71.271  1.00  0.00     0.062 A 
ATOM     17  C   UNL     1      11.919 -46.024  71.943  1.00  0.00     0.158 A 
BRANCH  15  18
ATOM     18  O   UNL     1      10.077 -46.853  73.286  1.00  0.00    -0.504 OA
ATOM     19  H   UNL     1       9.360 -47.567  73.343  1.00  0.00     0.293 HD
ENDBRANCH  15  18
BRANCH  17  20
ATOM     20  O   UNL     1      11.376 -44.740  71.933  1.00  0.00    -0.504 OA
ATOM     21  H   UNL     1      10.807 -44.390  72.694  1.00  0.00     0.293 HD
ENDBRANCH  17  20
ENDBRANCH   1  12
BRANCH   2  22
ATOM     22  O   UNL     1      16.257 -47.461  72.616  1.00  0.00    -0.502 OA
ATOM     23  H   UNL     1      17.126 -47.385  73.131  1.00  0.00     0.293 HD
ENDBRANCH   2  22
BRANCH   6  24
ATOM     24  O   UNL     1      19.743 -48.933  68.868  1.00  0.00    -0.507 OA
ATOM     25  H   UNL     1      19.954 -49.120  69.836  1.00  0.00     0.293 HD
ENDBRANCH   6  24
BRANCH   8  26
ATOM     26  O   UNL     1      16.879 -48.938  65.013  1.00  0.00    -0.508 OA
ATOM     27  H   UNL     1      16.769 -48.149  64.387  1.00  0.00     0.293 HD
ENDBRANCH   8  26
TORSDOF 6
ENDMDL
MODEL 5
REMARK VINA RESULT:    -7.294      2.384      7.902
REMARK INTER + INTRA:          -9.099
REMARK INTER:                  -8.807
REMARK INTRA:                  -0.292
REMARK UNBOUND:                -0.312
REMARK SMILES O=c1c(O)c(-c2ccc(O)c(O)c2)oc2cc(O)cc(O)c12
REMARK SMILES IDX 5 1 3 2 2 3 1 4 22 5 20 6 19 7 17 8 16 9 15 10 14 11 6 12
REMARK SMILES IDX 7 13 8 14 9 15 13 16 11 17 10 18 12 20 4 22 21 24 18 26
REMARK H PARENT 10 19 12 21 4 23 21 25 18 27
REMARK Flexibility Score: inf
ROOT
ATOM      1  C   UNL     1      18.223 -48.590  68.928  1.00  0.00     0.180 A 
ATOM      2  C   UNL     1      18.190 -48.254  70.292  1.00  0.00     0.208 A 
ATOM      3  C   UNL     1      16.946 -48.088  70.923  1.00  0.00     0.238 A 
ATOM      4  O   UNL     1      16.922 -47.840  72.156  1.00  0.00    -0.285 OA
ATOM      5  C   UNL     1      15.753 -48.245  70.178  1.00  0.00     0.111 A 
ATOM      6  C   UNL     1      14.439 -48.061  70.704  1.00  0.00     0.134 A 
ATOM      7  C   UNL     1      13.327 -48.369  69.911  1.00  0.00     0.093 A 
ATOM      8  C   UNL     1      13.482 -48.794  68.589  1.00  0.00     0.123 A 
ATOM      9  C   UNL     1      14.758 -48.919  68.048  1.00  0.00     0.094 A 
ATOM     10  C   UNL     1      15.887 -48.653  68.825  1.00  0.00     0.146 A 
ATOM     11  O   UNL     1      17.087 -48.796  68.273  1.00  0.00    -0.452 OA
ENDROOT
BRANCH   1  12
ATOM     12  C   UNL     1      19.496 -48.757  68.189  1.00  0.00     0.025 A 
ATOM     13  C   UNL     1      20.201 -49.967  68.293  1.00  0.00     0.016 A 
ATOM     14  C   UNL     1      21.392 -50.154  67.587  1.00  0.00     0.051 A 
ATOM     15  C   UNL     1      21.889 -49.141  66.757  1.00  0.00     0.157 A 
ATOM     16  C   UNL     1      19.987 -47.751  67.339  1.00  0.00     0.062 A 
ATOM     17  C   UNL     1      21.179 -47.935  66.629  1.00  0.00     0.158 A 
BRANCH  15  18
ATOM     18  O   UNL     1      23.079 -49.330  66.056  1.00  0.00    -0.504 OA
ATOM     19  H   UNL     1      23.192 -50.092  65.397  1.00  0.00     0.293 HD
ENDBRANCH  15  18
BRANCH  17  20
ATOM     20  O   UNL     1      21.639 -46.913  65.799  1.00  0.00    -0.504 OA
ATOM     21  H   UNL     1      22.027 -47.099  64.882  1.00  0.00     0.293 HD
ENDBRANCH  17  20
ENDBRANCH   1  12
BRANCH   2  22
ATOM     22  O   UNL     1      19.380 -48.125  71.014  1.00  0.00    -0.502 OA
ATOM     23  H   UNL     1      20.176 -47.605  70.664  1.00  0.00     0.293 HD
ENDBRANCH   2  22
BRANCH   6  24
ATOM     24  O   UNL     1      14.173 -47.554  71.981  1.00  0.00    -0.507 OA
ATOM     25  H   UNL     1      14.796 -46.958  72.503  1.00  0.00     0.293 HD
ENDBRANCH   6  24
BRANCH   8  26
ATOM     26  O   UNL     1      12.370 -49.084  67.801  1.00  0.00    -0.508 OA
ATOM     27  H   UNL     1      11.716 -49.815  68.054  1.00  0.00     0.293 HD
ENDBRANCH   8  26
TORSDOF 6
ENDMDL
MODEL 6
REMARK VINA RESULT:    -7.288      2.244      7.335
REMARK INTER + INTRA:          -9.092
REMARK INTER:                  -8.956
REMARK INTRA:                  -0.136
REMARK UNBOUND:                -0.312
REMARK SMILES O=c1c(O)c(-c2ccc(O)c(O)c2)oc2cc(O)cc(O)c12
REMARK SMILES IDX 5 1 3 2 2 3 1 4 22 5 20 6 19 7 17 8 16 9 15 10 14 11 6 12
REMARK SMILES IDX 7 13 8 14 9 15 13 16 11 17 10 18 12 20 4 22 21 24 18 26
REMARK H PARENT 10 19 12 21 4 23 21 25 18 27
REMARK Flexibility Score: inf
ROOT
ATOM      1  C   UNL     1      17.678 -47.802  69.894  1.00  0.00     0.180 A 
ATOM      2  C   UNL     1      18.088 -48.052  71.216  1.00  0.00     0.208 A 
ATOM      3  C   UNL     1      17.119 -48.367  72.181  1.00  0.00     0.238 A 
ATOM      4  O   UNL     1      17.496 -48.643  73.350  1.00  0.00    -0.285 OA
ATOM      5  C   UNL     1      15.751 -48.411  71.818  1.00  0.00     0.111 A 
ATOM      6  C   UNL     1      14.680 -48.679  72.723  1.00  0.00     0.134 A 
ATOM      7  C   UNL     1      13.378 -48.827  72.229  1.00  0.00     0.093 A 
ATOM      8  C   UNL     1      13.100 -48.652  70.871  1.00  0.00     0.123 A 
ATOM      9  C   UNL     1      14.129 -48.331  69.990  1.00  0.00     0.094 A 
ATOM     10  C   UNL     1      15.443 -48.212  70.447  1.00  0.00     0.146 A 
ATOM     11  O   UNL     1      16.396 -47.916  69.571  1.00  0.00    -0.452 OA
ENDROOT
BRANCH   1  12
ATOM     12  C   UNL     1      18.639 -47.439  68.827  1.00  0.00     0.025 A 
ATOM     13  C   UNL     1      19.609 -48.372  68.426  1.00  0.00     0.016 A 
ATOM     14  C   UNL     1      20.512 -48.059  67.406  1.00  0.00     0.051 A 
ATOM     15  C   UNL     1      20.449 -46.816  66.763  1.00  0.00     0.157 A 
ATOM     16  C   UNL     1      18.566 -46.201  68.165  1.00  0.00     0.062 A 
ATOM     17  C   UNL     1      19.468 -45.885  67.141  1.00  0.00     0.158 A 
BRANCH  15  18
ATOM     18  O   UNL     1      21.353 -46.507  65.748  1.00  0.00    -0.504 OA
ATOM     19  H   UNL     1      21.044 -46.130  64.858  1.00  0.00     0.293 HD
ENDBRANCH  15  18
BRANCH  17  20
ATOM     20  O   UNL     1      19.369 -44.646  66.510  1.00  0.00    -0.504 OA
ATOM     21  H   UNL     1      19.496 -43.775  67.011  1.00  0.00     0.293 HD
ENDBRANCH  17  20
ENDBRANCH   1  12
BRANCH   2  22
ATOM     22  O   UNL     1      19.445 -48.024  71.548  1.00  0.00    -0.502 OA
ATOM     23  H   UNL     1      20.172 -47.865  70.860  1.00  0.00     0.293 HD
ENDBRANCH   2  22
BRANCH   6  24
ATOM     24  O   UNL     1      14.837 -48.781  74.109  1.00  0.00    -0.507 OA
ATOM     25  H   UNL     1      14.601 -49.595  74.656  1.00  0.00     0.293 HD
ENDBRANCH   6  24
BRANCH   8  26
ATOM     26  O   UNL     1      11.799 -48.785  70.390  1.00  0.00    -0.508 OA
ATOM     27  H   UNL     1      11.293 -49.660  70.464  1.00  0.00     0.293 HD
ENDBRANCH   8  26
TORSDOF 6
ENDMDL
MODEL 7
REMARK VINA RESULT:    -7.031      2.037      7.104
REMARK INTER + INTRA:          -8.782
REMARK INTER:                  -8.470
REMARK INTRA:                  -0.312
REMARK UNBOUND:                -0.312
REMARK SMILES O=c1c(O)c(-c2ccc(O)c(O)c2)oc2cc(O)cc(O)c12
REMARK SMILES IDX 5 1 3 2 2 3 1 4 22 5 20 6 19 7 17 8 16 9 15 10 14 11 6 12
REMARK SMILES IDX 7 13 8 14 9 15 13 16 11 17 10 18 12 20 4 22 21 24 18 26
REMARK H PARENT 10 19 12 21 4 23 21 25 18 27
REMARK Flexibility Score: inf
ROOT
ATOM      1  C   UNL     1      16.894 -47.596  70.531  1.00  0.00     0.180 A 
ATOM      2  C   UNL     1      16.866 -48.592  71.523  1.00  0.00     0.208 A 
ATOM      3  C   UNL     1      15.649 -48.888  72.157  1.00  0.00     0.238 A 
ATOM      4  O   UNL     1      15.620 -49.817  73.005  1.00  0.00    -0.285 OA
ATOM      5  C   UNL     1      14.479 -48.173  71.804  1.00  0.00     0.111 A 
ATOM      6  C   UNL     1      13.201 -48.362  72.411  1.00  0.00     0.134 A 
ATOM      7  C   UNL     1      12.085 -47.692  71.893  1.00  0.00     0.093 A 
ATOM      8  C   UNL     1      12.214 -46.792  70.832  1.00  0.00     0.123 A 
ATOM      9  C   UNL     1      13.467 -46.556  70.274  1.00  0.00     0.094 A 
ATOM     10  C   UNL     1      14.592 -47.236  70.745  1.00  0.00     0.146 A 
ATOM     11  O   UNL     1      15.767 -46.990  70.176  1.00  0.00    -0.452 OA
ENDROOT
BRANCH   1  12
ATOM     12  C   UNL     1      18.144 -47.211  69.835  1.00  0.00     0.025 A 
ATOM     13  C   UNL     1      18.383 -47.683  68.535  1.00  0.00     0.016 A 
ATOM     14  C   UNL     1      19.545 -47.315  67.852  1.00  0.00     0.051 A 
ATOM     15  C   UNL     1      20.478 -46.460  68.453  1.00  0.00     0.157 A 
ATOM     16  C   UNL     1      19.072 -46.337  70.427  1.00  0.00     0.062 A 
ATOM     17  C   UNL     1      20.237 -45.965  69.746  1.00  0.00     0.158 A 
BRANCH  15  18
ATOM     18  O   UNL     1      21.637 -46.097  67.770  1.00  0.00    -0.504 OA
ATOM     19  H   UNL     1      22.556 -46.220  68.180  1.00  0.00     0.293 HD
ENDBRANCH  15  18
BRANCH  17  20
ATOM     20  O   UNL     1      21.138 -45.100  70.366  1.00  0.00    -0.504 OA
ATOM     21  H   UNL     1      20.886 -44.554  71.180  1.00  0.00     0.293 HD
ENDBRANCH  17  20
ENDBRANCH   1  12
BRANCH   2  22
ATOM     22  O   UNL     1      18.028 -49.300  71.841  1.00  0.00    -0.502 OA
ATOM     23  H   UNL     1      18.872 -49.242  71.283  1.00  0.00     0.293 HD
ENDBRANCH   2  22
BRANCH   6  24
ATOM     24  O   UNL     1      12.980 -49.167  73.532  1.00  0.00    -0.507 OA
ATOM     25  H   UNL     1      13.697 -49.467  74.174  1.00  0.00     0.293 HD
ENDBRANCH   6  24
BRANCH   8  26
ATOM     26  O   UNL     1      11.101 -46.118  70.334  1.00  0.00    -0.508 OA
ATOM     27  H   UNL     1      10.515 -45.547  70.931  1.00  0.00     0.293 HD
ENDBRANCH   8  26
TORSDOF 6
ENDMDL
MODEL 8
REMARK VINA RESULT:    -6.992      2.491      7.478
REMARK INTER + INTRA:          -8.735
REMARK INTER:                  -8.752
REMARK INTRA:                   0.017
REMARK UNBOUND:                -0.312
REMARK SMILES O=c1c(O)c(-c2ccc(O)c(O)c2)oc2cc(O)cc(O)c12
REMARK SMILES IDX 5 1 3 2 2 3 1 4 22 5 20 6 19 7 17 8 16 9 15 10 14 11 6 12
REMARK SMILES IDX 7 13 8 14 9 15 13 16 11 17 10 18 12 20 4 22 21 24 18 26
REMARK H PARENT 10 19 12 21 4 23 21 25 18 27
REMARK Flexibility Score: inf
ROOT
ATOM      1  C   UNL     1      17.988 -48.418  68.542  1.00  0.00     0.180 A 
ATOM      2  C   UNL     1      16.883 -47.991  67.787  1.00  0.00     0.208 A 
ATOM      3  C   UNL     1      15.636 -47.859  68.419  1.00  0.00     0.238 A 
ATOM      4  O   UNL     1      14.662 -47.425  67.750  1.00  0.00    -0.285 OA
ATOM      5  C   UNL     1      15.507 -48.172  69.794  1.00  0.00     0.111 A 
ATOM      6  C   UNL     1      14.283 -48.114  70.526  1.00  0.00     0.134 A 
ATOM      7  C   UNL     1      14.297 -48.319  71.912  1.00  0.00     0.093 A 
ATOM      8  C   UNL     1      15.481 -48.644  72.579  1.00  0.00     0.123 A 
ATOM      9  C   UNL     1      16.669 -48.762  71.863  1.00  0.00     0.094 A 
ATOM     10  C   UNL     1      16.693 -48.528  70.486  1.00  0.00     0.146 A 
ATOM     11  O   UNL     1      17.850 -48.640  69.844  1.00  0.00    -0.452 OA
ENDROOT
BRANCH   1  12
ATOM     12  C   UNL     1      19.329 -48.605  67.940  1.00  0.00     0.025 A 
ATOM     13  C   UNL     1      19.999 -49.826  68.112  1.00  0.00     0.016 A 
ATOM     14  C   UNL     1      21.254 -50.031  67.535  1.00  0.00     0.051 A 
ATOM     15  C   UNL     1      21.853 -49.024  66.766  1.00  0.00     0.157 A 
ATOM     16  C   UNL     1      19.923 -47.604  67.151  1.00  0.00     0.062 A 
ATOM     17  C   UNL     1      21.180 -47.806  66.570  1.00  0.00     0.158 A 
BRANCH  15  18
ATOM     18  O   UNL     1      23.107 -49.231  66.194  1.00  0.00    -0.504 OA
ATOM     19  H   UNL     1      23.465 -50.164  66.021  1.00  0.00     0.293 HD
ENDBRANCH  15  18
BRANCH  17  20
ATOM     20  O   UNL     1      21.741 -46.789  65.798  1.00  0.00    -0.504 OA
ATOM     21  H   UNL     1      22.347 -46.083  66.197  1.00  0.00     0.293 HD
ENDBRANCH  17  20
ENDBRANCH   1  12
BRANCH   2  22
ATOM     22  O   UNL     1      17.036 -47.667  66.436  1.00  0.00    -0.502 OA
ATOM     23  H   UNL     1      16.331 -47.162  65.913  1.00  0.00     0.293 HD
ENDBRANCH   2  22
BRANCH   6  24
ATOM     24  O   UNL     1      13.033 -47.888  69.942  1.00  0.00    -0.507 OA
ATOM     25  H   UNL     1      12.578 -46.990  69.888  1.00  0.00     0.293 HD
ENDBRANCH   6  24
BRANCH   8  26
ATOM     26  O   UNL     1      15.483 -48.861  73.955  1.00  0.00    -0.508 OA
ATOM     27  H   UNL     1      15.858 -48.176  74.601  1.00  0.00     0.293 HD
ENDBRANCH   8  26
TORSDOF 6
ENDMDL
MODEL 9
REMARK VINA RESULT:    -6.863      5.758      8.103
REMARK INTER + INTRA:          -8.579
REMARK INTER:                  -8.282
REMARK INTRA:                  -0.297
REMARK UNBOUND:                -0.312
REMARK SMILES O=c1c(O)c(-c2ccc(O)c(O)c2)oc2cc(O)cc(O)c12
REMARK SMILES IDX 5 1 3 2 2 3 1 4 22 5 20 6 19 7 17 8 16 9 15 10 14 11 6 12
REMARK SMILES IDX 7 13 8 14 9 15 13 16 11 17 10 18 12 20 4 22 21 24 18 26
REMARK H PARENT 10 19 12 21 4 23 21 25 18 27
REMARK Flexibility Score: inf
ROOT
ATOM      1  C   UNL     1      19.976 -46.450  68.118  1.00  0.00     0.180 A 
ATOM      2  C   UNL     1      18.991 -45.793  67.361  1.00  0.00     0.208 A 
ATOM      3  C   UNL     1      17.981 -46.553  66.750  1.00  0.00     0.238 A 
ATOM      4  O   UNL     1      17.071 -45.954  66.119  1.00  0.00    -0.285 OA
ATOM      5  C   UNL     1      17.978 -47.962  66.890  1.00  0.00     0.111 A 
ATOM      6  C   UNL     1      17.027 -48.835  66.281  1.00  0.00     0.134 A 
ATOM      7  C   UNL     1      17.043 -50.200  66.593  1.00  0.00     0.093 A 
ATOM      8  C   UNL     1      18.016 -50.732  67.442  1.00  0.00     0.123 A 
ATOM      9  C   UNL     1      18.984 -49.898  67.994  1.00  0.00     0.094 A 
ATOM     10  C   UNL     1      18.973 -48.527  67.729  1.00  0.00     0.146 A 
ATOM     11  O   UNL     1      19.908 -47.766  68.285  1.00  0.00    -0.452 OA
ENDROOT
BRANCH   1  12
ATOM     12  C   UNL     1      21.086 -45.719  68.771  1.00  0.00     0.025 A 
ATOM     13  C   UNL     1      20.868 -45.096  70.010  1.00  0.00     0.016 A 
ATOM     14  C   UNL     1      21.907 -44.420  70.654  1.00  0.00     0.051 A 
ATOM     15  C   UNL     1      23.182 -44.367  70.077  1.00  0.00     0.157 A 
ATOM     16  C   UNL     1      22.372 -45.682  68.204  1.00  0.00     0.062 A 
ATOM     17  C   UNL     1      23.416 -45.006  68.847  1.00  0.00     0.158 A 
BRANCH  15  18
ATOM     18  O   UNL     1      24.215 -43.688  70.721  1.00  0.00    -0.504 OA
ATOM     19  H   UNL     1      25.075 -43.449  70.239  1.00  0.00     0.293 HD
ENDBRANCH  15  18
BRANCH  17  20
ATOM     20  O   UNL     1      24.678 -44.985  68.253  1.00  0.00    -0.504 OA
ATOM     21  H   UNL     1      25.094 -45.813  67.847  1.00  0.00     0.293 HD
ENDBRANCH  17  20
ENDBRANCH   1  12
BRANCH   2  22
ATOM     22  O   UNL     1      18.999 -44.399  67.254  1.00  0.00    -0.502 OA
ATOM     23  H   UNL     1      18.871 -43.920  66.371  1.00  0.00     0.293 HD
ENDBRANCH   2  22
BRANCH   6  24
ATOM     24  O   UNL     1      16.071 -48.419  65.348  1.00  0.00    -0.507 OA
ATOM     25  H   UNL     1      15.515 -49.039  64.780  1.00  0.00     0.293 HD
ENDBRANCH   6  24
BRANCH   8  26
ATOM     26  O   UNL     1      18.034 -52.094  67.735  1.00  0.00    -0.508 OA
ATOM     27  H   UNL     1      17.273 -52.540  68.234  1.00  0.00     0.293 HD
ENDBRANCH   8  26
TORSDOF 6
ENDMDL
