MODEL 1
REMARK VINA RESULT:    -5.538      0.000      0.000
REMARK INTER + INTRA:         -10.970
REMARK INTER:                  -8.613
REMARK INTRA:                  -2.357
REMARK UNBOUND:                -2.357
REMARK SMILES COc1cc(CNC(=O)CCCCC=CC(C)C)ccc1O
REMARK SMILES IDX 11 1 12 2 13 3 14 4 15 5 16 6 17 7 18 8 10 9 8 10 9 11 7 12
REMARK SMILES IDX 6 14 5 15 4 16 19 17 3 18 20 19 21 20 2 21 1 22 22 23
REMARK H PARENT 7 13 22 24
REMARK Flexibility Score: inf
ROOT
ATOM      1  C   UNL     1      -9.521   5.873 -20.138  1.00  0.00     0.010 C 
ENDROOT
BRANCH   1   2
ATOM      2  C   UNL     1      -9.434   5.940 -21.671  1.00  0.00     0.005 C 
BRANCH   2   3
ATOM      3  C   UNL     1      -8.713   4.724 -22.266  1.00  0.00     0.027 C 
BRANCH   3   4
ATOM      4  C   UNL     1      -7.993   3.947 -21.198  1.00  0.00    -0.031 C 
ATOM      5  C   UNL     1      -7.256   2.865 -21.494  1.00  0.00    -0.028 C 
BRANCH   5   6
ATOM      6  C   UNL     1      -6.533   2.088 -20.419  1.00  0.00     0.005 C 
ATOM      7  C   UNL     1      -5.315   1.368 -21.011  1.00  0.00     0.012 C 
ATOM      8  C   UNL     1      -6.099   3.015 -19.276  1.00  0.00     0.012 C 
ENDBRANCH   5   6
ENDBRANCH   3   4
ENDBRANCH   2   3
ENDBRANCH   1   2
BRANCH   1   9
ATOM      9  C   UNL     1      -8.950   7.125 -19.467  1.00  0.00     0.100 C 
BRANCH   9  10
ATOM     10  C   UNL     1      -7.490   6.938 -19.189  1.00  0.00     0.220 C 
ATOM     11  O   UNL     1      -7.116   6.581 -18.040  1.00  0.00    -0.275 OA
ATOM     12  N   UNL     1      -6.531   7.115 -20.240  1.00  0.00    -0.352 N 
ATOM     13  H   UNL     1      -6.864   7.441 -21.173  1.00  0.00     0.163 HD
BRANCH  12  14
ATOM     14  C   UNL     1      -5.154   6.642 -20.127  1.00  0.00     0.151 C 
BRANCH  14  15
ATOM     15  C   UNL     1      -4.770   5.896 -21.375  1.00  0.00    -0.025 A 
ATOM     16  C   UNL     1      -5.409   6.187 -22.588  1.00  0.00     0.056 A 
ATOM     17  C   UNL     1      -3.819   4.866 -21.325  1.00  0.00     0.009 A 
ATOM     18  C   UNL     1      -5.098   5.460 -23.755  1.00  0.00     0.160 A 
ATOM     19  C   UNL     1      -3.502   4.146 -22.480  1.00  0.00     0.050 A 
ATOM     20  C   UNL     1      -4.135   4.436 -23.691  1.00  0.00     0.157 A 
BRANCH  18  21
ATOM     21  O   UNL     1      -5.726   5.724 -24.983  1.00  0.00    -0.493 OA
ATOM     22  C   UNL     1      -7.034   6.269 -25.120  1.00  0.00     0.278 C 
ENDBRANCH  18  21
BRANCH  20  23
ATOM     23  O   UNL     1      -3.797   3.692 -24.822  1.00  0.00    -0.504 OA
ATOM     24  H   UNL     1      -4.111   3.950 -25.750  1.00  0.00     0.293 HD
ENDBRANCH  20  23
ENDBRANCH  14  15
ENDBRANCH  12  14
ENDBRANCH   9  10
ENDBRANCH   1   9
TORSDOF 10
ENDMDL
MODEL 2
REMARK VINA RESULT:    -5.335      2.593      4.733
REMARK INTER + INTRA:         -10.655
REMARK INTER:                  -9.120
REMARK INTRA:                  -1.535
REMARK UNBOUND:                -2.357
REMARK SMILES COc1cc(CNC(=O)CCCCC=CC(C)C)ccc1O
REMARK SMILES IDX 11 1 12 2 13 3 14 4 15 5 16 6 17 7 18 8 10 9 8 10 9 11 7 12
REMARK SMILES IDX 6 14 5 15 4 16 19 17 3 18 20 19 21 20 2 21 1 22 22 23
REMARK H PARENT 7 13 22 24
REMARK Flexibility Score: inf
ROOT
ATOM      1  C   UNL     1     -10.629   4.668 -24.603  1.00  0.00     0.010 C 
ENDROOT
BRANCH   1   2
ATOM      2  C   UNL     1     -10.654   6.189 -24.384  1.00  0.00     0.005 C 
BRANCH   2   3
ATOM      3  C   UNL     1      -9.297   6.730 -23.915  1.00  0.00     0.027 C 
BRANCH   3   4
ATOM      4  C   UNL     1      -9.326   7.067 -22.450  1.00  0.00    -0.031 C 
ATOM      5  C   UNL     1      -8.662   6.330 -21.547  1.00  0.00    -0.028 C 
BRANCH   5   6
ATOM      6  C   UNL     1      -8.692   6.672 -20.076  1.00  0.00     0.005 C 
ATOM      7  C   UNL     1     -10.052   6.302 -19.470  1.00  0.00     0.012 C 
ATOM      8  C   UNL     1      -7.562   5.954 -19.326  1.00  0.00     0.012 C 
ENDBRANCH   5   6
ENDBRANCH   3   4
ENDBRANCH   2   3
ENDBRANCH   1   2
BRANCH   1   9
ATOM      9  C   UNL     1      -9.272   4.174 -25.112  1.00  0.00     0.100 C 
BRANCH   9  10
ATOM     10  C   UNL     1      -8.837   2.971 -24.332  1.00  0.00     0.220 C 
ATOM     11  O   UNL     1      -8.916   1.828 -24.857  1.00  0.00    -0.275 OA
ATOM     12  N   UNL     1      -8.286   3.129 -23.018  1.00  0.00    -0.352 N 
ATOM     13  H   UNL     1      -8.261   4.081 -22.595  1.00  0.00     0.163 HD
BRANCH  12  14
ATOM     14  C   UNL     1      -7.557   2.057 -22.345  1.00  0.00     0.151 C 
BRANCH  14  15
ATOM     15  C   UNL     1      -6.408   2.638 -21.567  1.00  0.00    -0.025 A 
ATOM     16  C   UNL     1      -5.848   3.863 -21.956  1.00  0.00     0.056 A 
ATOM     17  C   UNL     1      -5.850   1.935 -20.488  1.00  0.00     0.009 A 
ATOM     18  C   UNL     1      -4.738   4.394 -21.269  1.00  0.00     0.160 A 
ATOM     19  C   UNL     1      -4.753   2.459 -19.800  1.00  0.00     0.050 A 
ATOM     20  C   UNL     1      -4.195   3.682 -20.184  1.00  0.00     0.157 A 
BRANCH  18  21
ATOM     21  O   UNL     1      -4.151   5.615 -21.639  1.00  0.00    -0.493 OA
ATOM     22  C   UNL     1      -4.780   6.886 -21.507  1.00  0.00     0.278 C 
ENDBRANCH  18  21
BRANCH  20  23
ATOM     23  O   UNL     1      -3.096   4.172 -19.477  1.00  0.00    -0.504 OA
ATOM     24  H   UNL     1      -2.149   3.876 -19.679  1.00  0.00     0.293 HD
ENDBRANCH  20  23
ENDBRANCH  14  15
ENDBRANCH  12  14
ENDBRANCH   9  10
ENDBRANCH   1   9
TORSDOF 10
ENDMDL
MODEL 3
REMARK VINA RESULT:    -5.159      2.287      4.410
REMARK INTER + INTRA:         -10.381
REMARK INTER:                  -8.601
REMARK INTRA:                  -1.780
REMARK UNBOUND:                -2.357
REMARK SMILES COc1cc(CNC(=O)CCCCC=CC(C)C)ccc1O
REMARK SMILES IDX 11 1 12 2 13 3 14 4 15 5 16 6 17 7 18 8 10 9 8 10 9 11 7 12
REMARK SMILES IDX 6 14 5 15 4 16 19 17 3 18 20 19 21 20 2 21 1 22 22 23
REMARK H PARENT 7 13 22 24
REMARK Flexibility Score: inf
ROOT
ATOM      1  C   UNL     1      -9.143   3.770 -24.424  1.00  0.00     0.010 C 
ENDROOT
BRANCH   1   2
ATOM      2  C   UNL     1      -8.030   4.599 -25.085  1.00  0.00     0.005 C 
BRANCH   2   3
ATOM      3  C   UNL     1      -6.757   4.646 -24.231  1.00  0.00     0.027 C 
BRANCH   3   4
ATOM      4  C   UNL     1      -6.965   3.957 -22.911  1.00  0.00    -0.031 C 
ATOM      5  C   UNL     1      -5.939   3.693 -22.087  1.00  0.00    -0.028 C 
BRANCH   5   6
ATOM      6  C   UNL     1      -6.152   3.003 -20.761  1.00  0.00     0.005 C 
ATOM      7  C   UNL     1      -7.647   2.751 -20.525  1.00  0.00     0.012 C 
ATOM      8  C   UNL     1      -5.375   1.681 -20.704  1.00  0.00     0.012 C 
ENDBRANCH   5   6
ENDBRANCH   3   4
ENDBRANCH   2   3
ENDBRANCH   1   2
BRANCH   1   9
ATOM      9  C   UNL     1     -10.421   4.583 -24.202  1.00  0.00     0.100 C 
BRANCH   9  10
ATOM     10  C   UNL     1     -10.105   5.842 -23.453  1.00  0.00     0.220 C 
ATOM     11  O   UNL     1     -10.352   6.959 -23.982  1.00  0.00    -0.275 OA
ATOM     12  N   UNL     1      -9.575   5.771 -22.123  1.00  0.00    -0.352 N 
ATOM     13  H   UNL     1      -9.351   4.836 -21.721  1.00  0.00     0.163 HD
BRANCH  12  14
ATOM     14  C   UNL     1      -9.550   6.928 -21.231  1.00  0.00     0.151 C 
BRANCH  14  15
ATOM     15  C   UNL     1      -8.290   6.907 -20.411  1.00  0.00    -0.025 A 
ATOM     16  C   UNL     1      -7.045   7.056 -21.037  1.00  0.00     0.056 A 
ATOM     17  C   UNL     1      -8.344   6.679 -19.027  1.00  0.00     0.009 A 
ATOM     18  C   UNL     1      -5.852   6.987 -20.289  1.00  0.00     0.160 A 
ATOM     19  C   UNL     1      -7.166   6.615 -18.279  1.00  0.00     0.050 A 
ATOM     20  C   UNL     1      -5.923   6.766 -18.901  1.00  0.00     0.157 A 
BRANCH  18  21
ATOM     21  O   UNL     1      -4.591   7.125 -20.889  1.00  0.00    -0.493 OA
ATOM     22  C   UNL     1      -4.359   7.113 -22.294  1.00  0.00     0.278 C 
ENDBRANCH  18  21
BRANCH  20  23
ATOM     23  O   UNL     1      -4.767   6.690 -18.123  1.00  0.00    -0.504 OA
ATOM     24  H   UNL     1      -4.775   6.319 -17.181  1.00  0.00     0.293 HD
ENDBRANCH  20  23
ENDBRANCH  14  15
ENDBRANCH  12  14
ENDBRANCH   9  10
ENDBRANCH   1   9
TORSDOF 10
ENDMDL
MODEL 4
REMARK VINA RESULT:    -4.961      2.162      4.545
REMARK INTER + INTRA:         -10.072
REMARK INTER:                  -7.825
REMARK INTRA:                  -2.247
REMARK UNBOUND:                -2.357
REMARK SMILES COc1cc(CNC(=O)CCCCC=CC(C)C)ccc1O
REMARK SMILES IDX 11 1 12 2 13 3 14 4 15 5 16 6 17 7 18 8 10 9 8 10 9 11 7 12
REMARK SMILES IDX 6 14 5 15 4 16 19 17 3 18 20 19 21 20 2 21 1 22 22 23
REMARK H PARENT 7 13 22 24
REMARK Flexibility Score: inf
ROOT
ATOM      1  C   UNL     1      -4.698   2.383 -20.036  1.00  0.00     0.010 C 
ENDROOT
BRANCH   1   2
ATOM      2  C   UNL     1      -6.182   2.458 -19.642  1.00  0.00     0.005 C 
BRANCH   2   3
ATOM      3  C   UNL     1      -7.090   2.725 -20.849  1.00  0.00     0.027 C 
BRANCH   3   4
ATOM      4  C   UNL     1      -7.874   3.994 -20.664  1.00  0.00    -0.031 C 
ATOM      5  C   UNL     1      -7.378   5.032 -19.973  1.00  0.00    -0.028 C 
BRANCH   5   6
ATOM      6  C   UNL     1      -8.168   6.306 -19.791  1.00  0.00     0.005 C 
ATOM      7  C   UNL     1      -9.664   6.041 -20.003  1.00  0.00     0.012 C 
ATOM      8  C   UNL     1      -7.925   6.903 -18.398  1.00  0.00     0.012 C 
ENDBRANCH   5   6
ENDBRANCH   3   4
ENDBRANCH   2   3
ENDBRANCH   1   2
BRANCH   1   9
ATOM      9  C   UNL     1      -4.055   3.769 -20.150  1.00  0.00     0.100 C 
BRANCH   9  10
ATOM     10  C   UNL     1      -4.054   4.219 -21.578  1.00  0.00     0.220 C 
ATOM     11  O   UNL     1      -3.911   3.370 -22.499  1.00  0.00    -0.275 OA
ATOM     12  N   UNL     1      -4.269   5.601 -21.895  1.00  0.00    -0.352 N 
ATOM     13  H   UNL     1      -4.354   6.287 -21.115  1.00  0.00     0.163 HD
BRANCH  12  14
ATOM     14  C   UNL     1      -4.599   6.049 -23.245  1.00  0.00     0.151 C 
BRANCH  14  15
ATOM     15  C   UNL     1      -6.091   6.016 -23.439  1.00  0.00    -0.025 A 
ATOM     16  C   UNL     1      -6.692   4.907 -24.047  1.00  0.00     0.056 A 
ATOM     17  C   UNL     1      -6.881   7.115 -23.069  1.00  0.00     0.009 A 
ATOM     18  C   UNL     1      -8.082   4.883 -24.282  1.00  0.00     0.160 A 
ATOM     19  C   UNL     1      -8.260   7.096 -23.295  1.00  0.00     0.050 A 
ATOM     20  C   UNL     1      -8.863   5.989 -23.899  1.00  0.00     0.157 A 
BRANCH  18  21
ATOM     21  O   UNL     1      -8.712   3.789 -24.896  1.00  0.00    -0.493 OA
ATOM     22  C   UNL     1      -8.599   2.440 -24.455  1.00  0.00     0.278 C 
ENDBRANCH  18  21
BRANCH  20  23
ATOM     23  O   UNL     1     -10.242   6.007 -24.114  1.00  0.00    -0.504 OA
ATOM     24  H   UNL     1     -10.890   5.541 -23.491  1.00  0.00     0.293 HD
ENDBRANCH  20  23
ENDBRANCH  14  15
ENDBRANCH  12  14
ENDBRANCH   9  10
ENDBRANCH   1   9
TORSDOF 10
ENDMDL
MODEL 5
REMARK VINA RESULT:    -4.822      2.263      4.923
REMARK INTER + INTRA:          -9.857
REMARK INTER:                  -8.356
REMARK INTRA:                  -1.500
REMARK UNBOUND:                -2.357
REMARK SMILES COc1cc(CNC(=O)CCCCC=CC(C)C)ccc1O
REMARK SMILES IDX 11 1 12 2 13 3 14 4 15 5 16 6 17 7 18 8 10 9 8 10 9 11 7 12
REMARK SMILES IDX 6 14 5 15 4 16 19 17 3 18 20 19 21 20 2 21 1 22 22 23
REMARK H PARENT 7 13 22 24
REMARK Flexibility Score: inf
ROOT
ATOM      1  C   UNL     1      -5.347   2.330 -19.784  1.00  0.00     0.010 C 
ENDROOT
BRANCH   1   2
ATOM      2  C   UNL     1      -5.940   2.100 -21.183  1.00  0.00     0.005 C 
BRANCH   2   3
ATOM      3  C   UNL     1      -7.386   2.599 -21.290  1.00  0.00     0.027 C 
BRANCH   3   4
ATOM      4  C   UNL     1      -7.891   2.495 -22.703  1.00  0.00    -0.031 C 
ATOM      5  C   UNL     1      -8.467   3.538 -23.320  1.00  0.00    -0.028 C 
BRANCH   5   6
ATOM      6  C   UNL     1      -8.972   3.431 -24.740  1.00  0.00     0.005 C 
ATOM      7  C   UNL     1      -9.172   1.959 -25.125  1.00  0.00     0.012 C 
ATOM      8  C   UNL     1     -10.284   4.208 -24.911  1.00  0.00     0.012 C 
ENDBRANCH   5   6
ENDBRANCH   3   4
ENDBRANCH   2   3
ENDBRANCH   1   2
BRANCH   1   9
ATOM      9  C   UNL     1      -3.936   2.925 -19.841  1.00  0.00     0.100 C 
BRANCH   9  10
ATOM     10  C   UNL     1      -3.810   3.837 -21.023  1.00  0.00     0.220 C 
ATOM     11  O   UNL     1      -3.372   3.384 -22.114  1.00  0.00    -0.275 OA
ATOM     12  N   UNL     1      -4.236   5.202 -20.924  1.00  0.00    -0.352 N 
ATOM     13  H   UNL     1      -4.565   5.560 -20.001  1.00  0.00     0.163 HD
BRANCH  12  14
ATOM     14  C   UNL     1      -4.441   6.042 -22.101  1.00  0.00     0.151 C 
BRANCH  14  15
ATOM     15  C   UNL     1      -5.903   6.366 -22.242  1.00  0.00    -0.025 A 
ATOM     16  C   UNL     1      -6.750   6.278 -21.128  1.00  0.00     0.056 A 
ATOM     17  C   UNL     1      -6.442   6.699 -23.494  1.00  0.00     0.009 A 
ATOM     18  C   UNL     1      -8.131   6.529 -21.256  1.00  0.00     0.160 A 
ATOM     19  C   UNL     1      -7.809   6.953 -23.626  1.00  0.00     0.050 A 
ATOM     20  C   UNL     1      -8.655   6.869 -22.517  1.00  0.00     0.157 A 
BRANCH  18  21
ATOM     21  O   UNL     1      -9.005   6.442 -20.160  1.00  0.00    -0.493 OA
ATOM     22  C   UNL     1      -8.650   6.755 -18.818  1.00  0.00     0.278 C 
ENDBRANCH  18  21
BRANCH  20  23
ATOM     23  O   UNL     1     -10.016   7.125 -22.687  1.00  0.00    -0.504 OA
ATOM     24  H   UNL     1     -10.655   6.427 -23.048  1.00  0.00     0.293 HD
ENDBRANCH  20  23
ENDBRANCH  14  15
ENDBRANCH  12  14
ENDBRANCH   9  10
ENDBRANCH   1   9
TORSDOF 10
ENDMDL
MODEL 6
REMARK VINA RESULT:    -4.777      2.419      4.757
REMARK INTER + INTRA:          -9.787
REMARK INTER:                  -8.627
REMARK INTRA:                  -1.161
REMARK UNBOUND:                -2.357
REMARK SMILES COc1cc(CNC(=O)CCCCC=CC(C)C)ccc1O
REMARK SMILES IDX 11 1 12 2 13 3 14 4 15 5 16 6 17 7 18 8 10 9 8 10 9 11 7 12
REMARK SMILES IDX 6 14 5 15 4 16 19 17 3 18 20 19 21 20 2 21 1 22 22 23
REMARK H PARENT 7 13 22 24
REMARK Flexibility Score: inf
ROOT
ATOM      1  C   UNL     1      -8.519   3.076 -24.645  1.00  0.00     0.010 C 
ENDROOT
BRANCH   1   2
ATOM      2  C   UNL     1      -8.330   3.258 -23.130  1.00  0.00     0.005 C 
BRANCH   2   3
ATOM      3  C   UNL     1      -7.738   2.009 -22.465  1.00  0.00     0.027 C 
BRANCH   3   4
ATOM      4  C   UNL     1      -6.966   2.371 -21.226  1.00  0.00    -0.031 C 
ATOM      5  C   UNL     1      -5.704   1.955 -21.039  1.00  0.00    -0.028 C 
BRANCH   5   6
ATOM      6  C   UNL     1      -4.931   2.322 -19.794  1.00  0.00     0.005 C 
ATOM      7  C   UNL     1      -3.756   3.243 -20.148  1.00  0.00     0.012 C 
ATOM      8  C   UNL     1      -5.846   2.999 -18.764  1.00  0.00     0.012 C 
ENDBRANCH   5   6
ENDBRANCH   3   4
ENDBRANCH   2   3
ENDBRANCH   1   2
BRANCH   1   9
ATOM      9  C   UNL     1      -9.903   3.531 -25.117  1.00  0.00     0.100 C 
BRANCH   9  10
ATOM     10  C   UNL     1     -10.238   4.864 -24.520  1.00  0.00     0.220 C 
ATOM     11  O   UNL     1     -11.351   5.029 -23.952  1.00  0.00    -0.275 OA
ATOM     12  N   UNL     1      -9.275   5.925 -24.550  1.00  0.00    -0.352 N 
ATOM     13  H   UNL     1      -8.375   5.773 -25.054  1.00  0.00     0.163 HD
BRANCH  12  14
ATOM     14  C   UNL     1      -9.405   7.120 -23.720  1.00  0.00     0.151 C 
BRANCH  14  15
ATOM     15  C   UNL     1      -8.792   6.866 -22.370  1.00  0.00    -0.025 A 
ATOM     16  C   UNL     1      -7.399   6.896 -22.217  1.00  0.00     0.056 A 
ATOM     17  C   UNL     1      -9.601   6.540 -21.270  1.00  0.00     0.009 A 
ATOM     18  C   UNL     1      -6.808   6.610 -20.970  1.00  0.00     0.160 A 
ATOM     19  C   UNL     1      -9.021   6.261 -20.030  1.00  0.00     0.050 A 
ATOM     20  C   UNL     1      -7.633   6.293 -19.875  1.00  0.00     0.157 A 
BRANCH  18  21
ATOM     21  O   UNL     1      -5.416   6.625 -20.788  1.00  0.00    -0.493 OA
ATOM     22  C   UNL     1      -4.464   6.383 -21.819  1.00  0.00     0.278 C 
ENDBRANCH  18  21
BRANCH  20  23
ATOM     23  O   UNL     1      -7.089   6.003 -18.623  1.00  0.00    -0.504 OA
ATOM     24  H   UNL     1      -6.992   6.707 -17.901  1.00  0.00     0.293 HD
ENDBRANCH  20  23
ENDBRANCH  14  15
ENDBRANCH  12  14
ENDBRANCH   9  10
ENDBRANCH   1   9
TORSDOF 10
ENDMDL
MODEL 7
REMARK VINA RESULT:    -4.590      2.355      5.092
REMARK INTER + INTRA:          -9.496
REMARK INTER:                  -7.397
REMARK INTRA:                  -2.099
REMARK UNBOUND:                -2.357
REMARK SMILES COc1cc(CNC(=O)CCCCC=CC(C)C)ccc1O
REMARK SMILES IDX 11 1 12 2 13 3 14 4 15 5 16 6 17 7 18 8 10 9 8 10 9 11 7 12
REMARK SMILES IDX 6 14 5 15 4 16 19 17 3 18 20 19 21 20 2 21 1 22 22 23
REMARK H PARENT 7 13 22 24
REMARK Flexibility Score: inf
ROOT
ATOM      1  C   UNL     1     -10.539   5.473 -23.975  1.00  0.00     0.010 C 
ENDROOT
BRANCH   1   2
ATOM      2  C   UNL     1      -9.826   6.808 -24.245  1.00  0.00     0.005 C 
BRANCH   2   3
ATOM      3  C   UNL     1      -8.703   7.080 -23.237  1.00  0.00     0.027 C 
BRANCH   3   4
ATOM      4  C   UNL     1      -7.353   6.986 -23.893  1.00  0.00    -0.031 C 
ATOM      5  C   UNL     1      -6.224   6.940 -23.170  1.00  0.00    -0.028 C 
BRANCH   5   6
ATOM      6  C   UNL     1      -4.869   6.844 -23.832  1.00  0.00     0.005 C 
ATOM      7  C   UNL     1      -3.757   7.122 -22.813  1.00  0.00     0.012 C 
ATOM      8  C   UNL     1      -4.672   5.463 -24.470  1.00  0.00     0.012 C 
ENDBRANCH   5   6
ENDBRANCH   3   4
ENDBRANCH   2   3
ENDBRANCH   1   2
BRANCH   1   9
ATOM      9  C   UNL     1     -10.160   4.394 -24.994  1.00  0.00     0.100 C 
BRANCH   9  10
ATOM     10  C   UNL     1      -9.230   3.400 -24.367  1.00  0.00     0.220 C 
ATOM     11  O   UNL     1      -8.898   2.368 -25.011  1.00  0.00    -0.275 OA
ATOM     12  N   UNL     1      -8.682   3.651 -23.067  1.00  0.00    -0.352 N 
ATOM     13  H   UNL     1      -8.997   4.496 -22.544  1.00  0.00     0.163 HD
BRANCH  12  14
ATOM     14  C   UNL     1      -7.542   2.903 -22.544  1.00  0.00     0.151 C 
BRANCH  14  15
ATOM     15  C   UNL     1      -6.823   3.731 -21.514  1.00  0.00    -0.025 A 
ATOM     16  C   UNL     1      -7.544   4.612 -20.697  1.00  0.00     0.056 A 
ATOM     17  C   UNL     1      -5.425   3.674 -21.405  1.00  0.00     0.009 A 
ATOM     18  C   UNL     1      -6.878   5.432 -19.764  1.00  0.00     0.160 A 
ATOM     19  C   UNL     1      -4.760   4.481 -20.478  1.00  0.00     0.050 A 
ATOM     20  C   UNL     1      -5.477   5.358 -19.660  1.00  0.00     0.157 A 
BRANCH  18  21
ATOM     21  O   UNL     1      -7.573   6.329 -18.937  1.00  0.00    -0.493 OA
ATOM     22  C   UNL     1      -8.915   6.751 -19.151  1.00  0.00     0.278 C 
ENDBRANCH  18  21
BRANCH  20  23
ATOM     23  O   UNL     1      -4.779   6.152 -18.749  1.00  0.00    -0.504 OA
ATOM     24  H   UNL     1      -3.775   6.275 -18.800  1.00  0.00     0.293 HD
ENDBRANCH  20  23
ENDBRANCH  14  15
ENDBRANCH  12  14
ENDBRANCH   9  10
ENDBRANCH   1   9
TORSDOF 10
ENDMDL
MODEL 8
REMARK VINA RESULT:    -4.569      2.343      5.363
REMARK INTER + INTRA:          -9.463
REMARK INTER:                  -7.394
REMARK INTRA:                  -2.069
REMARK UNBOUND:                -2.357
REMARK SMILES COc1cc(CNC(=O)CCCCC=CC(C)C)ccc1O
REMARK SMILES IDX 11 1 12 2 13 3 14 4 15 5 16 6 17 7 18 8 10 9 8 10 9 11 7 12
REMARK SMILES IDX 6 14 5 15 4 16 19 17 3 18 20 19 21 20 2 21 1 22 22 23
REMARK H PARENT 7 13 22 24
REMARK Flexibility Score: inf
ROOT
ATOM      1  C   UNL     1      -3.933   4.553 -20.702  1.00  0.00     0.010 C 
ENDROOT
BRANCH   1   2
ATOM      2  C   UNL     1      -4.963   5.454 -20.001  1.00  0.00     0.005 C 
BRANCH   2   3
ATOM      3  C   UNL     1      -5.140   6.798 -20.718  1.00  0.00     0.027 C 
BRANCH   3   4
ATOM      4  C   UNL     1      -4.722   6.702 -22.159  1.00  0.00    -0.031 C 
ATOM      5  C   UNL     1      -5.606   6.425 -23.130  1.00  0.00    -0.028 C 
BRANCH   5   6
ATOM      6  C   UNL     1      -5.183   6.331 -24.577  1.00  0.00     0.005 C 
ATOM      7  C   UNL     1      -3.796   6.956 -24.768  1.00  0.00     0.012 C 
ATOM      8  C   UNL     1      -5.178   4.870 -25.048  1.00  0.00     0.012 C 
ENDBRANCH   5   6
ENDBRANCH   3   4
ENDBRANCH   2   3
ENDBRANCH   1   2
BRANCH   1   9
ATOM      9  C   UNL     1      -3.997   3.104 -20.209  1.00  0.00     0.100 C 
BRANCH   9  10
ATOM     10  C   UNL     1      -5.381   2.560 -20.392  1.00  0.00     0.220 C 
ATOM     11  O   UNL     1      -6.064   2.244 -19.380  1.00  0.00    -0.275 OA
ATOM     12  N   UNL     1      -5.941   2.450 -21.707  1.00  0.00    -0.352 N 
ATOM     13  H   UNL     1      -5.344   2.688 -22.528  1.00  0.00     0.163 HD
BRANCH  12  14
ATOM     14  C   UNL     1      -7.369   2.240 -21.931  1.00  0.00     0.151 C 
BRANCH  14  15
ATOM     15  C   UNL     1      -8.015   3.539 -22.331  1.00  0.00    -0.025 A 
ATOM     16  C   UNL     1      -8.204   4.549 -21.378  1.00  0.00     0.056 A 
ATOM     17  C   UNL     1      -8.485   3.727 -23.640  1.00  0.00     0.009 A 
ATOM     18  C   UNL     1      -8.853   5.750 -21.726  1.00  0.00     0.160 A 
ATOM     19  C   UNL     1      -9.125   4.917 -23.992  1.00  0.00     0.050 A 
ATOM     20  C   UNL     1      -9.313   5.927 -23.044  1.00  0.00     0.157 A 
BRANCH  18  21
ATOM     21  O   UNL     1      -9.063   6.777 -20.791  1.00  0.00    -0.493 OA
ATOM     22  C   UNL     1      -8.909   6.632 -19.384  1.00  0.00     0.278 C 
ENDBRANCH  18  21
BRANCH  20  23
ATOM     23  O   UNL     1      -9.961   7.101 -23.430  1.00  0.00    -0.504 OA
ATOM     24  H   UNL     1     -10.317   7.767 -22.755  1.00  0.00     0.293 HD
ENDBRANCH  20  23
ENDBRANCH  14  15
ENDBRANCH  12  14
ENDBRANCH   9  10
ENDBRANCH   1   9
TORSDOF 10
ENDMDL
MODEL 9
REMARK VINA RESULT:    -4.338      1.615      2.173
REMARK INTER + INTRA:          -9.104
REMARK INTER:                  -7.280
REMARK INTRA:                  -1.823
REMARK UNBOUND:                -2.357
REMARK SMILES COc1cc(CNC(=O)CCCCC=CC(C)C)ccc1O
REMARK SMILES IDX 11 1 12 2 13 3 14 4 15 5 16 6 17 7 18 8 10 9 8 10 9 11 7 12
REMARK SMILES IDX 6 14 5 15 4 16 19 17 3 18 20 19 21 20 2 21 1 22 22 23
REMARK H PARENT 7 13 22 24
REMARK Flexibility Score: inf
ROOT
ATOM      1  C   UNL     1      -9.563   5.671 -22.557  1.00  0.00     0.010 C 
ENDROOT
BRANCH   1   2
ATOM      2  C   UNL     1      -8.871   5.959 -23.899  1.00  0.00     0.005 C 
BRANCH   2   3
ATOM      3  C   UNL     1      -7.929   4.825 -24.322  1.00  0.00     0.027 C 
BRANCH   3   4
ATOM      4  C   UNL     1      -8.056   3.645 -23.399  1.00  0.00    -0.031 C 
ATOM      5  C   UNL     1      -7.213   3.464 -22.370  1.00  0.00    -0.028 C 
BRANCH   5   6
ATOM      6  C   UNL     1      -7.345   2.278 -21.444  1.00  0.00     0.005 C 
ATOM      7  C   UNL     1      -6.028   1.493 -21.393  1.00  0.00     0.012 C 
ATOM      8  C   UNL     1      -7.751   2.729 -20.035  1.00  0.00     0.012 C 
ENDBRANCH   5   6
ENDBRANCH   3   4
ENDBRANCH   2   3
ENDBRANCH   1   2
BRANCH   1   9
ATOM      9  C   UNL     1      -9.596   6.900 -21.644  1.00  0.00     0.100 C 
BRANCH   9  10
ATOM     10  C   UNL     1      -8.718   6.677 -20.451  1.00  0.00     0.220 C 
ATOM     11  O   UNL     1      -9.170   6.054 -19.453  1.00  0.00    -0.275 OA
ATOM     12  N   UNL     1      -7.356   7.125 -20.469  1.00  0.00    -0.352 N 
ATOM     13  H   UNL     1      -7.017   7.666 -21.293  1.00  0.00     0.163 HD
BRANCH  12  14
ATOM     14  C   UNL     1      -6.371   6.665 -19.494  1.00  0.00     0.151 C 
BRANCH  14  15
ATOM     15  C   UNL     1      -5.327   5.830 -20.185  1.00  0.00    -0.025 A 
ATOM     16  C   UNL     1      -4.894   6.176 -21.472  1.00  0.00     0.056 A 
ATOM     17  C   UNL     1      -4.825   4.670 -19.575  1.00  0.00     0.009 A 
ATOM     18  C   UNL     1      -3.956   5.374 -22.152  1.00  0.00     0.160 A 
ATOM     19  C   UNL     1      -3.891   3.874 -20.242  1.00  0.00     0.050 A 
ATOM     20  C   UNL     1      -3.455   4.218 -21.525  1.00  0.00     0.157 A 
BRANCH  18  21
ATOM     21  O   UNL     1      -3.508   5.691 -23.445  1.00  0.00    -0.493 OA
ATOM     22  C   UNL     1      -2.723   6.833 -23.770  1.00  0.00     0.278 C 
ENDBRANCH  18  21
BRANCH  20  23
ATOM     23  O   UNL     1      -2.525   3.397 -22.163  1.00  0.00    -0.504 OA
ATOM     24  H   UNL     1      -1.631   3.169 -21.745  1.00  0.00     0.293 HD
ENDBRANCH  20  23
ENDBRANCH  14  15
ENDBRANCH  12  14
ENDBRANCH   9  10
ENDBRANCH   1   9
TORSDOF 10
ENDMDL
