MODEL 1
REMARK VINA RESULT:    -3.569      0.000      0.000
REMARK INTER + INTRA:          -8.802
REMARK INTER:                  -6.490
REMARK INTRA:                  -2.312
REMARK UNBOUND:                -2.312
REMARK SMILES CCCCCC=CCC=CCCCCCCCC(=O)[O-]
REMARK SMILES IDX 11 1 12 2 13 3 14 4 15 5 16 6 17 7 18 8 19 9 20 10 10 11
REMARK SMILES IDX 9 12 8 13 7 14 6 15 5 16 4 17 3 18 2 19 1 20
REMARK H PARENT
REMARK Flexibility Score: inf
ROOT
ATOM      1  C   UNL     1       0.118   5.160   3.377  1.00  0.00     0.027 C 
ENDROOT
BRANCH   1   2
ATOM      2  C   UNL     1      -0.046   6.519   2.671  1.00  0.00     0.004 C 
BRANCH   2   3
ATOM      3  C   UNL     1      -0.662   7.620   3.552  1.00  0.00     0.000 C 
BRANCH   3   4
ATOM      4  C   UNL     1       0.378   8.629   4.060  1.00  0.00     0.000 C 
BRANCH   4   5
ATOM      5  C   UNL     1      -0.206   9.504   5.175  1.00  0.00     0.000 C 
BRANCH   5   6
ATOM      6  C   UNL     1       0.900  10.046   6.088  1.00  0.00     0.006 C 
BRANCH   6   7
ATOM      7  C   UNL     1       1.726   8.904   6.687  1.00  0.00     0.053 C 
BRANCH   7   8
ATOM      8  C   UNL     1       3.187   9.159   6.498  1.00  0.00     0.041 C 
ATOM      9  O   UNL     1       3.851   9.737   7.399  1.00  0.00    -0.550 OA
ATOM     10  O   UNL     1       3.808   8.801   5.309  1.00  0.00    -0.550 OA
ENDBRANCH   7   8
ENDBRANCH   6   7
ENDBRANCH   5   6
ENDBRANCH   4   5
ENDBRANCH   3   4
ENDBRANCH   2   3
ENDBRANCH   1   2
BRANCH   1  11
ATOM     11  C   UNL     1       1.446   5.023   4.070  1.00  0.00    -0.031 C 
ATOM     12  C   UNL     1       1.630   5.441   5.331  1.00  0.00    -0.027 C 
BRANCH  12  13
ATOM     13  C   UNL     1       2.973   5.309   5.993  1.00  0.00     0.054 C 
BRANCH  13  14
ATOM     14  C   UNL     1       3.664   4.045   5.547  1.00  0.00    -0.027 C 
ATOM     15  C   UNL     1       3.666   2.884   6.229  1.00  0.00    -0.031 C 
BRANCH  15  16
ATOM     16  C   UNL     1       2.933   2.637   7.525  1.00  0.00     0.027 C 
BRANCH  16  17
ATOM     17  C   UNL     1       1.675   1.763   7.353  1.00  0.00     0.004 C 
BRANCH  17  18
ATOM     18  C   UNL     1       0.368   2.568   7.204  1.00  0.00     0.000 C 
BRANCH  18  19
ATOM     19  C   UNL     1      -0.393   2.339   5.888  1.00  0.00    -0.003 C 
ATOM     20  C   UNL     1      -0.056   1.003   5.225  1.00  0.00     0.004 C 
ENDBRANCH  18  19
ENDBRANCH  17  18
ENDBRANCH  16  17
ENDBRANCH  15  16
ENDBRANCH  13  14
ENDBRANCH  12  13
ENDBRANCH   1  11
TORSDOF 14
ENDMDL
MODEL 2
REMARK VINA RESULT:    -3.560      2.885      6.049
REMARK INTER + INTRA:          -8.786
REMARK INTER:                  -6.054
REMARK INTRA:                  -2.733
REMARK UNBOUND:                -2.312
REMARK SMILES CCCCCC=CCC=CCCCCCCCC(=O)[O-]
REMARK SMILES IDX 11 1 12 2 13 3 14 4 15 5 16 6 17 7 18 8 19 9 20 10 10 11
REMARK SMILES IDX 9 12 8 13 7 14 6 15 5 16 4 17 3 18 2 19 1 20
REMARK H PARENT
REMARK Flexibility Score: inf
ROOT
ATOM      1  C   UNL     1      -0.870   5.250   1.661  1.00  0.00     0.027 C 
ENDROOT
BRANCH   1   2
ATOM      2  C   UNL     1      -0.344   4.597   2.953  1.00  0.00     0.004 C 
BRANCH   2   3
ATOM      3  C   UNL     1       0.480   5.539   3.848  1.00  0.00     0.000 C 
BRANCH   3   4
ATOM      4  C   UNL     1       1.614   6.242   3.089  1.00  0.00     0.000 C 
BRANCH   4   5
ATOM      5  C   UNL     1       2.504   7.040   4.049  1.00  0.00     0.000 C 
BRANCH   5   6
ATOM      6  C   UNL     1       1.940   7.015   5.475  1.00  0.00     0.006 C 
BRANCH   6   7
ATOM      7  C   UNL     1       2.970   7.536   6.481  1.00  0.00     0.053 C 
BRANCH   7   8
ATOM      8  C   UNL     1       2.567   8.882   6.994  1.00  0.00     0.041 C 
ATOM      9  O   UNL     1       1.357   9.229   6.978  1.00  0.00    -0.550 OA
ATOM     10  O   UNL     1       3.532   9.771   7.447  1.00  0.00    -0.550 OA
ENDBRANCH   7   8
ENDBRANCH   6   7
ENDBRANCH   5   6
ENDBRANCH   4   5
ENDBRANCH   3   4
ENDBRANCH   2   3
ENDBRANCH   1   2
BRANCH   1  11
ATOM     11  C   UNL     1      -2.270   5.782   1.808  1.00  0.00    -0.031 C 
ATOM     12  C   UNL     1      -2.988   5.576   2.921  1.00  0.00    -0.027 C 
BRANCH  12  13
ATOM     13  C   UNL     1      -4.392   6.102   3.035  1.00  0.00     0.054 C 
BRANCH  13  14
ATOM     14  C   UNL     1      -4.511   7.449   2.366  1.00  0.00    -0.027 C 
ATOM     15  C   UNL     1      -4.355   8.635   2.984  1.00  0.00    -0.031 C 
BRANCH  15  16
ATOM     16  C   UNL     1      -3.984   8.815   4.435  1.00  0.00     0.027 C 
BRANCH  16  17
ATOM     17  C   UNL     1      -2.643   9.549   4.631  1.00  0.00     0.004 C 
BRANCH  17  18
ATOM     18  C   UNL     1      -1.403   8.656   4.424  1.00  0.00     0.000 C 
BRANCH  18  19
ATOM     19  C   UNL     1      -0.348   9.219   3.458  1.00  0.00    -0.003 C 
ATOM     20  C   UNL     1      -0.802   9.201   1.998  1.00  0.00     0.004 C 
ENDBRANCH  18  19
ENDBRANCH  17  18
ENDBRANCH  16  17
ENDBRANCH  15  16
ENDBRANCH  13  14
ENDBRANCH  12  13
ENDBRANCH   1  11
TORSDOF 14
ENDMDL
MODEL 3
REMARK VINA RESULT:    -3.537     16.500     18.122
REMARK INTER + INTRA:          -8.745
REMARK INTER:                  -6.312
REMARK INTRA:                  -2.433
REMARK UNBOUND:                -2.312
REMARK SMILES CCCCCC=CCC=CCCCCCCCC(=O)[O-]
REMARK SMILES IDX 11 1 12 2 13 3 14 4 15 5 16 6 17 7 18 8 19 9 20 10 10 11
REMARK SMILES IDX 9 12 8 13 7 14 6 15 5 16 4 17 3 18 2 19 1 20
REMARK H PARENT
REMARK Flexibility Score: inf
ROOT
ATOM      1  C   UNL     1      -9.218  -5.114  -1.172  1.00  0.00     0.027 C 
ENDROOT
BRANCH   1   2
ATOM      2  C   UNL     1     -10.084  -5.408  -2.410  1.00  0.00     0.004 C 
BRANCH   2   3
ATOM      3  C   UNL     1     -10.002  -6.863  -2.908  1.00  0.00     0.000 C 
BRANCH   3   4
ATOM      4  C   UNL     1      -9.683  -6.961  -4.407  1.00  0.00     0.000 C 
BRANCH   4   5
ATOM      5  C   UNL     1      -8.840  -8.206  -4.707  1.00  0.00     0.000 C 
BRANCH   5   6
ATOM      6  C   UNL     1      -7.944  -8.566  -3.516  1.00  0.00     0.006 C 
BRANCH   6   7
ATOM      7  C   UNL     1      -6.481  -8.696  -3.949  1.00  0.00     0.053 C 
BRANCH   7   8
ATOM      8  C   UNL     1      -5.773  -7.387  -3.800  1.00  0.00     0.041 C 
ATOM      9  O   UNL     1      -6.288  -6.462  -3.117  1.00  0.00    -0.550 OA
ATOM     10  O   UNL     1      -4.567  -7.170  -4.453  1.00  0.00    -0.550 OA
ENDBRANCH   7   8
ENDBRANCH   6   7
ENDBRANCH   5   6
ENDBRANCH   4   5
ENDBRANCH   3   4
ENDBRANCH   2   3
ENDBRANCH   1   2
BRANCH   1  11
ATOM     11  C   UNL     1      -9.797  -5.689   0.092  1.00  0.00    -0.031 C 
ATOM     12  C   UNL     1      -9.474  -5.204   1.300  1.00  0.00    -0.027 C 
BRANCH  12  13
ATOM     13  C   UNL     1     -10.052  -5.810   2.548  1.00  0.00     0.054 C 
BRANCH  13  14
ATOM     14  C   UNL     1      -8.955  -6.290   3.464  1.00  0.00    -0.027 C 
ATOM     15  C   UNL     1      -8.597  -7.578   3.633  1.00  0.00    -0.031 C 
BRANCH  15  16
ATOM     16  C   UNL     1      -9.198  -8.749   2.894  1.00  0.00     0.027 C 
BRANCH  16  17
ATOM     17  C   UNL     1      -8.206  -9.431   1.931  1.00  0.00     0.004 C 
BRANCH  17  18
ATOM     18  C   UNL     1      -8.341  -8.974   0.465  1.00  0.00     0.000 C 
BRANCH  18  19
ATOM     19  C   UNL     1      -7.178  -8.115  -0.060  1.00  0.00    -0.003 C 
ATOM     20  C   UNL     1      -6.054  -7.939   0.961  1.00  0.00     0.004 C 
ENDBRANCH  18  19
ENDBRANCH  17  18
ENDBRANCH  16  17
ENDBRANCH  15  16
ENDBRANCH  13  14
ENDBRANCH  12  13
ENDBRANCH   1  11
TORSDOF 14
ENDMDL
MODEL 4
REMARK VINA RESULT:    -3.308      3.645      7.300
REMARK INTER + INTRA:          -8.327
REMARK INTER:                  -6.592
REMARK INTRA:                  -1.735
REMARK UNBOUND:                -2.312
REMARK SMILES CCCCCC=CCC=CCCCCCCCC(=O)[O-]
REMARK SMILES IDX 11 1 12 2 13 3 14 4 15 5 16 6 17 7 18 8 19 9 20 10 10 11
REMARK SMILES IDX 9 12 8 13 7 14 6 15 5 16 4 17 3 18 2 19 1 20
REMARK H PARENT
REMARK Flexibility Score: inf
ROOT
ATOM      1  C   UNL     1       1.663   3.773   5.694  1.00  0.00     0.027 C 
ENDROOT
BRANCH   1   2
ATOM      2  C   UNL     1       1.567   3.161   7.103  1.00  0.00     0.004 C 
BRANCH   2   3
ATOM      3  C   UNL     1       2.899   2.616   7.649  1.00  0.00     0.000 C 
BRANCH   3   4
ATOM      4  C   UNL     1       3.301   1.278   7.010  1.00  0.00     0.000 C 
BRANCH   4   5
ATOM      5  C   UNL     1       4.773   0.956   7.294  1.00  0.00     0.000 C 
BRANCH   5   6
ATOM      6  C   UNL     1       5.221   1.555   8.632  1.00  0.00     0.006 C 
BRANCH   6   7
ATOM      7  C   UNL     1       6.663   2.064   8.551  1.00  0.00     0.053 C 
BRANCH   7   8
ATOM      8  C   UNL     1       7.608   0.928   8.321  1.00  0.00     0.041 C 
ATOM      9  O   UNL     1       8.361   0.925   7.311  1.00  0.00    -0.550 OA
ATOM     10  O   UNL     1       7.625  -0.150   9.196  1.00  0.00    -0.550 OA
ENDBRANCH   7   8
ENDBRANCH   6   7
ENDBRANCH   5   6
ENDBRANCH   4   5
ENDBRANCH   3   4
ENDBRANCH   2   3
ENDBRANCH   1   2
BRANCH   1  11
ATOM     11  C   UNL     1       1.841   5.267   5.721  1.00  0.00    -0.031 C 
ATOM     12  C   UNL     1       3.016   5.842   5.427  1.00  0.00    -0.027 C 
BRANCH  12  13
ATOM     13  C   UNL     1       3.171   7.336   5.479  1.00  0.00     0.054 C 
BRANCH  13  14
ATOM     14  C   UNL     1       2.681   7.876   6.800  1.00  0.00    -0.027 C 
ATOM     15  C   UNL     1       1.970   9.009   6.955  1.00  0.00    -0.031 C 
BRANCH  15  16
ATOM     16  C   UNL     1       1.500   9.899   5.830  1.00  0.00     0.027 C 
BRANCH  16  17
ATOM     17  C   UNL     1      -0.004   9.748   5.527  1.00  0.00     0.004 C 
BRANCH  17  18
ATOM     18  C   UNL     1      -0.308   9.196   4.119  1.00  0.00     0.000 C 
BRANCH  18  19
ATOM     19  C   UNL     1      -0.346   7.663   4.014  1.00  0.00    -0.003 C 
ATOM     20  C   UNL     1       0.460   7.123   2.833  1.00  0.00     0.004 C 
ENDBRANCH  18  19
ENDBRANCH  17  18
ENDBRANCH  16  17
ENDBRANCH  15  16
ENDBRANCH  13  14
ENDBRANCH  12  13
ENDBRANCH   1  11
TORSDOF 14
ENDMDL
MODEL 5
REMARK VINA RESULT:    -3.304      4.093      7.591
REMARK INTER + INTRA:          -8.321
REMARK INTER:                  -7.151
REMARK INTRA:                  -1.170
REMARK UNBOUND:                -2.312
REMARK SMILES CCCCCC=CCC=CCCCCCCCC(=O)[O-]
REMARK SMILES IDX 11 1 12 2 13 3 14 4 15 5 16 6 17 7 18 8 19 9 20 10 10 11
REMARK SMILES IDX 9 12 8 13 7 14 6 15 5 16 4 17 3 18 2 19 1 20
REMARK H PARENT
REMARK Flexibility Score: inf
ROOT
ATOM      1  C   UNL     1       2.143   4.962   4.934  1.00  0.00     0.027 C 
ENDROOT
BRANCH   1   2
ATOM      2  C   UNL     1       1.160   3.841   5.318  1.00  0.00     0.004 C 
BRANCH   2   3
ATOM      3  C   UNL     1       1.294   3.353   6.771  1.00  0.00     0.000 C 
BRANCH   3   4
ATOM      4  C   UNL     1       0.041   2.619   7.271  1.00  0.00     0.000 C 
BRANCH   4   5
ATOM      5  C   UNL     1       0.389   1.207   7.756  1.00  0.00     0.000 C 
BRANCH   5   6
ATOM      6  C   UNL     1      -0.860   0.468   8.251  1.00  0.00     0.006 C 
BRANCH   6   7
ATOM      7  C   UNL     1      -2.124   1.293   7.991  1.00  0.00     0.053 C 
BRANCH   7   8
ATOM      8  C   UNL     1      -3.095   1.133   9.117  1.00  0.00     0.041 C 
ATOM      9  O   UNL     1      -3.671   2.141   9.605  1.00  0.00    -0.550 OA
ATOM     10  O   UNL     1      -3.330  -0.124   9.659  1.00  0.00    -0.550 OA
ENDBRANCH   7   8
ENDBRANCH   6   7
ENDBRANCH   5   6
ENDBRANCH   4   5
ENDBRANCH   3   4
ENDBRANCH   2   3
ENDBRANCH   1   2
BRANCH   1  11
ATOM     11  C   UNL     1       1.910   6.229   5.712  1.00  0.00    -0.031 C 
ATOM     12  C   UNL     1       2.928   6.968   6.175  1.00  0.00    -0.027 C 
BRANCH  12  13
ATOM     13  C   UNL     1       2.668   8.219   6.967  1.00  0.00     0.054 C 
BRANCH  13  14
ATOM     14  C   UNL     1       2.908   9.444   6.119  1.00  0.00    -0.027 C 
ATOM     15  C   UNL     1       1.953  10.125   5.458  1.00  0.00    -0.031 C 
BRANCH  15  16
ATOM     16  C   UNL     1       0.478   9.810   5.498  1.00  0.00     0.027 C 
BRANCH  16  17
ATOM     17  C   UNL     1      -0.066   9.285   4.154  1.00  0.00     0.004 C 
BRANCH  17  18
ATOM     18  C   UNL     1      -1.312   8.387   4.290  1.00  0.00     0.000 C 
BRANCH  18  19
ATOM     19  C   UNL     1      -2.581   8.925   3.609  1.00  0.00    -0.003 C 
ATOM     20  C   UNL     1      -3.510   9.665   4.572  1.00  0.00     0.004 C 
ENDBRANCH  18  19
ENDBRANCH  17  18
ENDBRANCH  16  17
ENDBRANCH  15  16
ENDBRANCH  13  14
ENDBRANCH  12  13
ENDBRANCH   1  11
TORSDOF 14
ENDMDL
MODEL 6
REMARK VINA RESULT:    -3.297     14.108     16.982
REMARK INTER + INTRA:          -8.307
REMARK INTER:                  -5.615
REMARK INTRA:                  -2.692
REMARK UNBOUND:                -2.312
REMARK SMILES CCCCCC=CCC=CCCCCCCCC(=O)[O-]
REMARK SMILES IDX 11 1 12 2 13 3 14 4 15 5 16 6 17 7 18 8 19 9 20 10 10 11
REMARK SMILES IDX 9 12 8 13 7 14 6 15 5 16 4 17 3 18 2 19 1 20
REMARK H PARENT
REMARK Flexibility Score: inf
ROOT
ATOM      1  C   UNL     1      -7.558  -4.495  -3.084  1.00  0.00     0.027 C 
ENDROOT
BRANCH   1   2
ATOM      2  C   UNL     1      -8.701  -5.269  -3.765  1.00  0.00     0.004 C 
BRANCH   2   3
ATOM      3  C   UNL     1      -9.507  -6.174  -2.816  1.00  0.00     0.000 C 
BRANCH   3   4
ATOM      4  C   UNL     1      -9.235  -5.875  -1.334  1.00  0.00     0.000 C 
BRANCH   4   5
ATOM      5  C   UNL     1      -8.647  -7.101  -0.627  1.00  0.00     0.000 C 
BRANCH   5   6
ATOM      6  C   UNL     1      -8.058  -8.092  -1.637  1.00  0.00     0.006 C 
BRANCH   6   7
ATOM      7  C   UNL     1      -6.529  -8.114  -1.557  1.00  0.00     0.053 C 
BRANCH   7   8
ATOM      8  C   UNL     1      -5.938  -8.410  -2.899  1.00  0.00     0.041 C 
ATOM      9  O   UNL     1      -4.702  -8.624  -3.014  1.00  0.00    -0.550 OA
ATOM     10  O   UNL     1      -6.743  -8.403  -4.030  1.00  0.00    -0.550 OA
ENDBRANCH   7   8
ENDBRANCH   6   7
ENDBRANCH   5   6
ENDBRANCH   4   5
ENDBRANCH   3   4
ENDBRANCH   2   3
ENDBRANCH   1   2
BRANCH   1  11
ATOM     11  C   UNL     1      -6.215  -4.778  -3.702  1.00  0.00    -0.031 C 
ATOM     12  C   UNL     1      -5.116  -4.947  -2.954  1.00  0.00    -0.027 C 
BRANCH  12  13
ATOM     13  C   UNL     1      -3.784  -5.211  -3.598  1.00  0.00     0.054 C 
BRANCH  13  14
ATOM     14  C   UNL     1      -2.720  -4.323  -3.002  1.00  0.00    -0.027 C 
ATOM     15  C   UNL     1      -2.053  -3.362  -3.669  1.00  0.00    -0.031 C 
BRANCH  15  16
ATOM     16  C   UNL     1      -2.295  -2.977  -5.108  1.00  0.00     0.027 C 
BRANCH  16  17
ATOM     17  C   UNL     1      -3.048  -1.640  -5.259  1.00  0.00     0.004 C 
BRANCH  17  18
ATOM     18  C   UNL     1      -4.525  -1.795  -5.672  1.00  0.00     0.000 C 
BRANCH  18  19
ATOM     19  C   UNL     1      -5.549  -1.388  -4.599  1.00  0.00    -0.003 C 
ATOM     20  C   UNL     1      -4.901  -0.984  -3.274  1.00  0.00     0.004 C 
ENDBRANCH  18  19
ENDBRANCH  17  18
ENDBRANCH  16  17
ENDBRANCH  15  16
ENDBRANCH  13  14
ENDBRANCH  12  13
ENDBRANCH   1  11
TORSDOF 14
ENDMDL
MODEL 7
REMARK VINA RESULT:    -3.258      3.539      6.002
REMARK INTER + INTRA:          -8.237
REMARK INTER:                  -5.987
REMARK INTRA:                  -2.250
REMARK UNBOUND:                -2.312
REMARK SMILES CCCCCC=CCC=CCCCCCCCC(=O)[O-]
REMARK SMILES IDX 11 1 12 2 13 3 14 4 15 5 16 6 17 7 18 8 19 9 20 10 10 11
REMARK SMILES IDX 9 12 8 13 7 14 6 15 5 16 4 17 3 18 2 19 1 20
REMARK H PARENT
REMARK Flexibility Score: inf
ROOT
ATOM      1  C   UNL     1      -0.134   9.062   3.490  1.00  0.00     0.027 C 
ENDROOT
BRANCH   1   2
ATOM      2  C   UNL     1      -0.222   9.683   4.896  1.00  0.00     0.004 C 
BRANCH   2   3
ATOM      3  C   UNL     1      -1.658   9.935   5.388  1.00  0.00     0.000 C 
BRANCH   3   4
ATOM      4  C   UNL     1      -2.658  10.125   4.237  1.00  0.00     0.000 C 
BRANCH   4   5
ATOM      5  C   UNL     1      -3.769   9.070   4.298  1.00  0.00     0.000 C 
BRANCH   5   6
ATOM      6  C   UNL     1      -4.132   8.570   2.894  1.00  0.00     0.006 C 
BRANCH   6   7
ATOM      7  C   UNL     1      -4.914   7.255   2.965  1.00  0.00     0.053 C 
BRANCH   7   8
ATOM      8  C   UNL     1      -3.978   6.095   3.084  1.00  0.00     0.041 C 
ATOM      9  O   UNL     1      -2.766   6.224   2.766  1.00  0.00    -0.550 OA
ATOM     10  O   UNL     1      -4.452   4.858   3.501  1.00  0.00    -0.550 OA
ENDBRANCH   7   8
ENDBRANCH   6   7
ENDBRANCH   5   6
ENDBRANCH   4   5
ENDBRANCH   3   4
ENDBRANCH   2   3
ENDBRANCH   1   2
BRANCH   1  11
ATOM     11  C   UNL     1       0.452   7.676   3.503  1.00  0.00    -0.031 C 
ATOM     12  C   UNL     1       0.844   7.088   4.643  1.00  0.00    -0.027 C 
BRANCH  12  13
ATOM     13  C   UNL     1       1.443   5.710   4.627  1.00  0.00     0.054 C 
BRANCH  13  14
ATOM     14  C   UNL     1       2.592   5.618   5.600  1.00  0.00    -0.027 C 
ATOM     15  C   UNL     1       3.866   5.960   5.326  1.00  0.00    -0.031 C 
BRANCH  15  16
ATOM     16  C   UNL     1       4.346   6.541   4.019  1.00  0.00     0.027 C 
BRANCH  16  17
ATOM     17  C   UNL     1       4.253   8.079   3.970  1.00  0.00     0.004 C 
BRANCH  17  18
ATOM     18  C   UNL     1       4.515   8.768   5.324  1.00  0.00     0.000 C 
BRANCH  18  19
ATOM     19  C   UNL     1       3.339   9.589   5.877  1.00  0.00    -0.003 C 
ATOM     20  C   UNL     1       2.780   9.031   7.186  1.00  0.00     0.004 C 
ENDBRANCH  18  19
ENDBRANCH  17  18
ENDBRANCH  16  17
ENDBRANCH  15  16
ENDBRANCH  13  14
ENDBRANCH  12  13
ENDBRANCH   1  11
TORSDOF 14
ENDMDL
MODEL 8
REMARK VINA RESULT:    -3.222      2.786      5.822
REMARK INTER + INTRA:          -8.170
REMARK INTER:                  -5.921
REMARK INTRA:                  -2.249
REMARK UNBOUND:                -2.312
REMARK SMILES CCCCCC=CCC=CCCCCCCCC(=O)[O-]
REMARK SMILES IDX 11 1 12 2 13 3 14 4 15 5 16 6 17 7 18 8 19 9 20 10 10 11
REMARK SMILES IDX 9 12 8 13 7 14 6 15 5 16 4 17 3 18 2 19 1 20
REMARK H PARENT
REMARK Flexibility Score: inf
ROOT
ATOM      1  C   UNL     1      -3.019  10.049   5.018  1.00  0.00     0.027 C 
ENDROOT
BRANCH   1   2
ATOM      2  C   UNL     1      -1.506   9.791   4.888  1.00  0.00     0.004 C 
BRANCH   2   3
ATOM      3  C   UNL     1      -1.047   9.421   3.467  1.00  0.00     0.000 C 
BRANCH   3   4
ATOM      4  C   UNL     1       0.293   8.671   3.450  1.00  0.00     0.000 C 
BRANCH   4   5
ATOM      5  C   UNL     1       0.396   7.707   4.638  1.00  0.00     0.000 C 
BRANCH   5   6
ATOM      6  C   UNL     1       1.825   7.666   5.192  1.00  0.00     0.006 C 
BRANCH   6   7
ATOM      7  C   UNL     1       1.935   8.474   6.488  1.00  0.00     0.053 C 
BRANCH   7   8
ATOM      8  C   UNL     1       3.070   9.444   6.406  1.00  0.00     0.041 C 
ATOM      9  O   UNL     1       3.706   9.763   7.445  1.00  0.00    -0.550 OA
ATOM     10  O   UNL     1       3.397  10.031   5.192  1.00  0.00    -0.550 OA
ENDBRANCH   7   8
ENDBRANCH   6   7
ENDBRANCH   5   6
ENDBRANCH   4   5
ENDBRANCH   3   4
ENDBRANCH   2   3
ENDBRANCH   1   2
BRANCH   1  11
ATOM     11  C   UNL     1      -3.782   9.655   3.783  1.00  0.00    -0.031 C 
ATOM     12  C   UNL     1      -4.726   8.702   3.812  1.00  0.00    -0.027 C 
BRANCH  12  13
ATOM     13  C   UNL     1      -5.461   8.314   2.559  1.00  0.00     0.054 C 
BRANCH  13  14
ATOM     14  C   UNL     1      -4.541   8.365   1.365  1.00  0.00    -0.027 C 
ATOM     15  C   UNL     1      -3.696   7.383   0.998  1.00  0.00    -0.031 C 
BRANCH  15  16
ATOM     16  C   UNL     1      -3.567   6.047   1.688  1.00  0.00     0.027 C 
BRANCH  16  17
ATOM     17  C   UNL     1      -2.438   6.014   2.738  1.00  0.00     0.004 C 
BRANCH  17  18
ATOM     18  C   UNL     1      -1.122   5.397   2.225  1.00  0.00     0.000 C 
BRANCH  18  19
ATOM     19  C   UNL     1      -0.524   4.298   3.119  1.00  0.00    -0.003 C 
ATOM     20  C   UNL     1       1.001   4.359   3.205  1.00  0.00     0.004 C 
ENDBRANCH  18  19
ENDBRANCH  17  18
ENDBRANCH  16  17
ENDBRANCH  15  16
ENDBRANCH  13  14
ENDBRANCH  12  13
ENDBRANCH   1  11
TORSDOF 14
ENDMDL
MODEL 9
REMARK VINA RESULT:    -1.582      2.815      6.223
REMARK INTER + INTRA:          -5.189
REMARK INTER:                  -3.273
REMARK INTRA:                  -1.916
REMARK UNBOUND:                -2.312
REMARK SMILES CCCCCC=CCC=CCCCCCCCC(=O)[O-]
REMARK SMILES IDX 11 1 12 2 13 3 14 4 15 5 16 6 17 7 18 8 19 9 20 10 10 11
REMARK SMILES IDX 9 12 8 13 7 14 6 15 5 16 4 17 3 18 2 19 1 20
REMARK H PARENT
REMARK Flexibility Score: inf
ROOT
ATOM      1  C   UNL     1       0.106   9.483   4.780  1.00  0.00     0.027 C 
ENDROOT
BRANCH   1   2
ATOM      2  C   UNL     1       0.491  10.125   6.126  1.00  0.00     0.004 C 
BRANCH   2   3
ATOM      3  C   UNL     1       1.976   9.966   6.501  1.00  0.00     0.000 C 
BRANCH   3   4
ATOM      4  C   UNL     1       2.275   8.628   7.192  1.00  0.00     0.000 C 
BRANCH   4   5
ATOM      5  C   UNL     1       3.078   7.702   6.271  1.00  0.00     0.000 C 
BRANCH   5   6
ATOM      6  C   UNL     1       2.174   6.642   5.630  1.00  0.00     0.006 C 
BRANCH   6   7
ATOM      7  C   UNL     1       2.585   5.234   6.067  1.00  0.00     0.053 C 
BRANCH   7   8
ATOM      8  C   UNL     1       3.235   4.503   4.936  1.00  0.00     0.041 C 
ATOM      9  O   UNL     1       4.362   3.964   5.094  1.00  0.00    -0.550 OA
ATOM     10  O   UNL     1       2.619   4.457   3.692  1.00  0.00    -0.550 OA
ENDBRANCH   7   8
ENDBRANCH   6   7
ENDBRANCH   5   6
ENDBRANCH   4   5
ENDBRANCH   3   4
ENDBRANCH   2   3
ENDBRANCH   1   2
BRANCH   1  11
ATOM     11  C   UNL     1      -1.384   9.401   4.582  1.00  0.00    -0.031 C 
ATOM     12  C   UNL     1      -1.957   9.709   3.410  1.00  0.00    -0.027 C 
BRANCH  12  13
ATOM     13  C   UNL     1      -3.449   9.635   3.245  1.00  0.00     0.054 C 
BRANCH  13  14
ATOM     14  C   UNL     1      -4.053   8.709   4.271  1.00  0.00    -0.027 C 
ATOM     15  C   UNL     1      -4.492   7.461   4.021  1.00  0.00    -0.031 C 
BRANCH  15  16
ATOM     16  C   UNL     1      -4.405   6.761   2.687  1.00  0.00     0.027 C 
BRANCH  16  17
ATOM     17  C   UNL     1      -4.002   5.278   2.806  1.00  0.00     0.004 C 
BRANCH  17  18
ATOM     18  C   UNL     1      -2.577   4.972   2.303  1.00  0.00     0.000 C 
BRANCH  18  19
ATOM     19  C   UNL     1      -1.662   6.198   2.152  1.00  0.00    -0.003 C 
ATOM     20  C   UNL     1      -0.449   6.159   3.081  1.00  0.00     0.004 C 
ENDBRANCH  18  19
ENDBRANCH  17  18
ENDBRANCH  16  17
ENDBRANCH  15  16
ENDBRANCH  13  14
ENDBRANCH  12  13
ENDBRANCH   1  11
TORSDOF 14
ENDMDL
