MODEL 1
REMARK VINA RESULT:    13.481      0.000      0.000
REMARK INTER + INTRA:          26.574
REMARK INTER:                  19.392
REMARK INTRA:                   7.182
REMARK UNBOUND:                 7.182
REMARK SMILES O=c1cc(-c2ccc(O)c(O)c2)oc2cc(O[C@@H]3O[C@H](CO)[C@@H](O)[C@@H](O)[C@@H]3O)cc(O)c12
REMARK SMILES IDX 17 1 16 2 4 3 3 4 13 5 2 6 14 7 1 8 32 9 15 10 30 11 29 12
REMARK SMILES IDX 5 13 6 14 7 15 8 16 12 17 10 18 9 19 11 21 31 23 18 25 27 26
REMARK SMILES IDX 19 27 25 28 20 29 23 30 28 31 26 33 21 35 22 36 24 38
REMARK H PARENT 9 20 11 22 31 24 28 32 26 34 22 37 24 39
REMARK Flexibility Score: inf
ROOT
ATOM      1  O   UNL     1      27.613  35.375  27.506  1.00  0.00    -0.462 OA
ENDROOT
BRANCH   1   2
ATOM      2  C   UNL     1      28.845  35.874  27.054  1.00  0.00     0.130 A 
ATOM      3  C   UNL     1      32.169  39.259  27.536  1.00  0.00     0.138 A 
ATOM      4  C   UNL     1      32.951  38.728  26.497  1.00  0.00     0.100 A 
ATOM      5  O   UNL     1      31.022  38.666  27.860  1.00  0.00    -0.456 OA
ATOM      6  C   UNL     1      32.520  37.579  25.831  1.00  0.00     0.197 A 
ATOM      7  C   UNL     1      30.568  37.573  27.255  1.00  0.00     0.146 A 
ATOM      8  O   UNL     1      33.227  37.110  24.899  1.00  0.00    -0.289 OA
ATOM      9  C   UNL     1      31.305  36.973  26.207  1.00  0.00     0.107 A 
ATOM     10  C   UNL     1      29.353  37.022  27.667  1.00  0.00     0.094 A 
ATOM     11  C   UNL     1      30.795  35.810  25.585  1.00  0.00     0.134 A 
ATOM     12  C   UNL     1      29.572  35.270  26.013  1.00  0.00     0.093 A 
BRANCH   3  13
ATOM     13  C   UNL     1      32.578  40.478  28.279  1.00  0.00     0.021 A 
ATOM     14  C   UNL     1      31.639  41.502  28.495  1.00  0.00     0.016 A 
ATOM     15  C   UNL     1      31.994  42.655  29.198  1.00  0.00     0.051 A 
ATOM     16  C   UNL     1      33.290  42.802  29.706  1.00  0.00     0.157 A 
ATOM     17  C   UNL     1      33.876  40.626  28.804  1.00  0.00     0.062 A 
ATOM     18  C   UNL     1      34.231  41.784  29.511  1.00  0.00     0.158 A 
BRANCH  16  19
ATOM     19  O   UNL     1      33.649  43.951  30.407  1.00  0.00    -0.504 OA
ATOM     20  H   UNL     1      34.617  44.161  30.621  1.00  0.00     0.293 HD
ENDBRANCH  16  19
BRANCH  18  21
ATOM     21  O   UNL     1      35.519  41.928  30.028  1.00  0.00    -0.504 OA
ATOM     22  H   UNL     1      36.093  41.124  30.254  1.00  0.00     0.293 HD
ENDBRANCH  18  21
ENDBRANCH   3  13
BRANCH  11  23
ATOM     23  O   UNL     1      31.491  35.188  24.548  1.00  0.00    -0.507 OA
ATOM     24  H   UNL     1      32.495  35.277  24.450  1.00  0.00     0.293 HD
ENDBRANCH  11  23
ENDBRANCH   1   2
BRANCH   1  25
ATOM     25  C   UNL     1      26.451  36.165  27.767  1.00  0.00     0.339 C 
ATOM     26  C   UNL     1      26.786  37.351  28.693  1.00  0.00     0.214 C 
ATOM     27  O   UNL     1      25.822  36.580  26.561  1.00  0.00    -0.332 OA
ATOM     28  C   UNL     1      27.643  38.393  27.956  1.00  0.00     0.180 C 
ATOM     29  C   UNL     1      26.552  37.554  25.818  1.00  0.00     0.179 C 
ATOM     30  C   UNL     1      26.936  38.799  26.655  1.00  0.00     0.177 C 
BRANCH  26  31
ATOM     31  O   UNL     1      27.415  36.908  29.872  1.00  0.00    -0.384 OA
ATOM     32  H   UNL     1      28.027  36.165  29.631  1.00  0.00     0.211 HD
ENDBRANCH  26  31
BRANCH  28  33
ATOM     33  O   UNL     1      27.833  39.526  28.764  1.00  0.00    -0.387 OA
ATOM     34  H   UNL     1      27.725  39.233  29.706  1.00  0.00     0.211 HD
ENDBRANCH  28  33
BRANCH  29  35
ATOM     35  C   UNL     1      27.738  36.940  25.041  1.00  0.00     0.191 C 
BRANCH  35  36
ATOM     36  O   UNL     1      28.451  37.938  24.359  1.00  0.00    -0.394 OA
ATOM     37  H   UNL     1      28.056  38.808  24.631  1.00  0.00     0.210 HD
ENDBRANCH  35  36
ENDBRANCH  29  35
BRANCH  30  38
ATOM     38  O   UNL     1      25.767  39.525  26.944  1.00  0.00    -0.387 OA
ATOM     39  H   UNL     1      25.906  39.967  27.823  1.00  0.00     0.211 HD
ENDBRANCH  30  38
ENDBRANCH   1  25
TORSDOF 11
ENDMDL
MODEL 2
REMARK VINA RESULT:    13.489      1.144      2.030
REMARK INTER + INTRA:          26.585
REMARK INTER:                  22.579
REMARK INTRA:                   4.005
REMARK UNBOUND:                 7.182
REMARK SMILES O=c1cc(-c2ccc(O)c(O)c2)oc2cc(O[C@@H]3O[C@H](CO)[C@@H](O)[C@@H](O)[C@@H]3O)cc(O)c12
REMARK SMILES IDX 17 1 16 2 4 3 3 4 13 5 2 6 14 7 1 8 32 9 15 10 30 11 29 12
REMARK SMILES IDX 5 13 6 14 7 15 8 16 12 17 10 18 9 19 11 21 31 23 18 25 27 26
REMARK SMILES IDX 19 27 25 28 20 29 23 30 28 31 26 33 21 35 22 36 24 38
REMARK H PARENT 9 20 11 22 31 24 28 32 26 34 22 37 24 39
REMARK Flexibility Score: inf
ROOT
ATOM      1  O   UNL     1      27.228  37.556  24.977  1.00  0.00    -0.462 OA
ENDROOT
BRANCH   1   2
ATOM      2  C   UNL     1      28.614  37.572  25.201  1.00  0.00     0.130 A 
ATOM      3  C   UNL     1      32.253  39.760  27.372  1.00  0.00     0.138 A 
ATOM      4  C   UNL     1      33.195  38.873  26.825  1.00  0.00     0.100 A 
ATOM      5  O   UNL     1      30.965  39.611  27.073  1.00  0.00    -0.456 OA
ATOM      6  C   UNL     1      32.763  37.842  25.989  1.00  0.00     0.197 A 
ATOM      7  C   UNL     1      30.505  38.648  26.282  1.00  0.00     0.146 A 
ATOM      8  O   UNL     1      33.616  37.052  25.501  1.00  0.00    -0.289 OA
ATOM      9  C   UNL     1      31.390  37.709  25.702  1.00  0.00     0.107 A 
ATOM     10  C   UNL     1      29.133  38.571  26.029  1.00  0.00     0.094 A 
ATOM     11  C   UNL     1      30.869  36.696  24.865  1.00  0.00     0.134 A 
ATOM     12  C   UNL     1      29.487  36.635  24.622  1.00  0.00     0.093 A 
BRANCH   3  13
ATOM     13  C   UNL     1      32.655  40.874  28.267  1.00  0.00     0.021 A 
ATOM     14  C   UNL     1      31.724  41.883  28.575  1.00  0.00     0.016 A 
ATOM     15  C   UNL     1      32.074  42.938  29.421  1.00  0.00     0.051 A 
ATOM     16  C   UNL     1      33.354  42.998  29.984  1.00  0.00     0.157 A 
ATOM     17  C   UNL     1      33.937  40.934  28.848  1.00  0.00     0.062 A 
ATOM     18  C   UNL     1      34.286  41.994  29.698  1.00  0.00     0.158 A 
BRANCH  16  19
ATOM     19  O   UNL     1      33.706  44.050  30.827  1.00  0.00    -0.504 OA
ATOM     20  H   UNL     1      33.433  45.004  30.627  1.00  0.00     0.293 HD
ENDBRANCH  16  19
BRANCH  18  21
ATOM     21  O   UNL     1      35.557  42.051  30.269  1.00  0.00    -0.504 OA
ATOM     22  H   UNL     1      36.197  42.809  30.064  1.00  0.00     0.293 HD
ENDBRANCH  18  21
ENDBRANCH   3  13
BRANCH  11  23
ATOM     23  O   UNL     1      31.709  35.752  24.274  1.00  0.00    -0.507 OA
ATOM     24  H   UNL     1      31.632  35.508  23.294  1.00  0.00     0.293 HD
ENDBRANCH  11  23
ENDBRANCH   1   2
BRANCH   1  25
ATOM     25  C   UNL     1      26.260  36.974  25.853  1.00  0.00     0.339 C 
ATOM     26  C   UNL     1      26.898  35.885  26.737  1.00  0.00     0.214 C 
ATOM     27  O   UNL     1      25.586  37.967  26.616  1.00  0.00    -0.332 OA
ATOM     28  C   UNL     1      27.839  36.512  27.778  1.00  0.00     0.180 C 
ATOM     29  C   UNL     1      26.390  38.595  27.612  1.00  0.00     0.179 C 
ATOM     30  C   UNL     1      27.077  37.587  28.567  1.00  0.00     0.177 C 
BRANCH  26  31
ATOM     31  O   UNL     1      27.564  34.925  25.953  1.00  0.00    -0.384 OA
ATOM     32  H   UNL     1      27.293  34.025  26.274  1.00  0.00     0.211 HD
ENDBRANCH  26  31
BRANCH  28  33
ATOM     33  O   UNL     1      28.314  35.527  28.661  1.00  0.00    -0.387 OA
ATOM     34  H   UNL     1      29.046  35.047  28.193  1.00  0.00     0.211 HD
ENDBRANCH  28  33
BRANCH  29  35
ATOM     35  C   UNL     1      27.357  39.643  27.019  1.00  0.00     0.191 C 
BRANCH  35  36
ATOM     36  O   UNL     1      26.703  40.431  26.059  1.00  0.00    -0.394 OA
ATOM     37  H   UNL     1      26.888  41.379  26.294  1.00  0.00     0.210 HD
ENDBRANCH  35  36
ENDBRANCH  29  35
BRANCH  30  38
ATOM     38  O   UNL     1      26.094  36.990  29.375  1.00  0.00    -0.387 OA
ATOM     39  H   UNL     1      25.356  37.648  29.474  1.00  0.00     0.211 HD
ENDBRANCH  30  38
ENDBRANCH   1  25
TORSDOF 11
ENDMDL
MODEL 3
REMARK VINA RESULT:    14.654      3.057      5.543
REMARK INTER + INTRA:          28.261
REMARK INTER:                  22.334
REMARK INTRA:                   5.928
REMARK UNBOUND:                 7.182
REMARK SMILES O=c1cc(-c2ccc(O)c(O)c2)oc2cc(O[C@@H]3O[C@H](CO)[C@@H](O)[C@@H](O)[C@@H]3O)cc(O)c12
REMARK SMILES IDX 17 1 16 2 4 3 3 4 13 5 2 6 14 7 1 8 32 9 15 10 30 11 29 12
REMARK SMILES IDX 5 13 6 14 7 15 8 16 12 17 10 18 9 19 11 21 31 23 18 25 27 26
REMARK SMILES IDX 19 27 25 28 20 29 23 30 28 31 26 33 21 35 22 36 24 38
REMARK H PARENT 9 20 11 22 31 24 28 32 26 34 22 37 24 39
REMARK Flexibility Score: inf
ROOT
ATOM      1  O   UNL     1      27.719  39.487  28.135  1.00  0.00    -0.462 OA
ENDROOT
BRANCH   1   2
ATOM      2  C   UNL     1      28.937  38.827  27.909  1.00  0.00     0.130 A 
ATOM      3  C   UNL     1      32.149  37.429  24.673  1.00  0.00     0.138 A 
ATOM      4  C   UNL     1      32.954  36.812  25.645  1.00  0.00     0.100 A 
ATOM      5  O   UNL     1      31.020  38.028  25.043  1.00  0.00    -0.456 OA
ATOM      6  C   UNL     1      32.563  36.849  26.985  1.00  0.00     0.197 A 
ATOM      7  C   UNL     1      30.604  38.089  26.305  1.00  0.00     0.146 A 
ATOM      8  O   UNL     1      33.290  36.291  27.851  1.00  0.00    -0.289 OA
ATOM      9  C   UNL     1      31.366  37.501  27.342  1.00  0.00     0.107 A 
ATOM     10  C   UNL     1      29.405  38.743  26.595  1.00  0.00     0.094 A 
ATOM     11  C   UNL     1      30.896  37.585  28.673  1.00  0.00     0.134 A 
ATOM     12  C   UNL     1      29.688  38.246  28.946  1.00  0.00     0.093 A 
BRANCH   3  13
ATOM     13  C   UNL     1      32.515  37.420  23.234  1.00  0.00     0.021 A 
ATOM     14  C   UNL     1      31.569  36.996  22.284  1.00  0.00     0.016 A 
ATOM     15  C   UNL     1      31.884  36.986  20.923  1.00  0.00     0.051 A 
ATOM     16  C   UNL     1      33.145  37.410  20.487  1.00  0.00     0.157 A 
ATOM     17  C   UNL     1      33.777  37.859  22.787  1.00  0.00     0.062 A 
ATOM     18  C   UNL     1      34.091  37.850  21.420  1.00  0.00     0.158 A 
BRANCH  16  19
ATOM     19  O   UNL     1      33.463  37.401  19.130  1.00  0.00    -0.504 OA
ATOM     20  H   UNL     1      34.404  37.591  18.805  1.00  0.00     0.293 HD
ENDBRANCH  16  19
BRANCH  18  21
ATOM     21  O   UNL     1      35.343  38.282  20.982  1.00  0.00    -0.504 OA
ATOM     22  H   UNL     1      35.440  39.036  20.313  1.00  0.00     0.293 HD
ENDBRANCH  18  21
ENDBRANCH   3  13
BRANCH  11  23
ATOM     23  O   UNL     1      31.617  37.017  29.724  1.00  0.00    -0.507 OA
ATOM     24  H   UNL     1      31.163  36.492  30.461  1.00  0.00     0.293 HD
ENDBRANCH  11  23
ENDBRANCH   1   2
BRANCH   1  25
ATOM     25  C   UNL     1      26.525  39.294  27.373  1.00  0.00     0.339 C 
ATOM     26  C   UNL     1      26.848  39.104  25.878  1.00  0.00     0.214 C 
ATOM     27  O   UNL     1      25.739  38.232  27.899  1.00  0.00    -0.332 OA
ATOM     28  C   UNL     1      27.526  37.746  25.636  1.00  0.00     0.180 C 
ATOM     29  C   UNL     1      26.298  36.934  27.709  1.00  0.00     0.179 C 
ATOM     30  C   UNL     1      26.654  36.631  26.232  1.00  0.00     0.177 C 
BRANCH  26  31
ATOM     31  O   UNL     1      27.633  40.166  25.393  1.00  0.00    -0.384 OA
ATOM     32  H   UNL     1      27.021  40.895  25.109  1.00  0.00     0.211 HD
ENDBRANCH  26  31
BRANCH  28  33
ATOM     33  O   UNL     1      27.698  37.525  24.260  1.00  0.00    -0.387 OA
ATOM     34  H   UNL     1      27.871  36.555  24.141  1.00  0.00     0.211 HD
ENDBRANCH  28  33
BRANCH  29  35
ATOM     35  C   UNL     1      27.446  36.632  28.697  1.00  0.00     0.191 C 
BRANCH  35  36
ATOM     36  O   UNL     1      27.055  36.926  30.013  1.00  0.00    -0.394 OA
ATOM     37  H   UNL     1      27.132  36.081  30.529  1.00  0.00     0.210 HD
ENDBRANCH  35  36
ENDBRANCH  29  35
BRANCH  30  38
ATOM     38  O   UNL     1      25.462  36.504  25.498  1.00  0.00    -0.387 OA
ATOM     39  H   UNL     1      25.641  36.852  24.585  1.00  0.00     0.211 HD
ENDBRANCH  30  38
ENDBRANCH   1  25
TORSDOF 11
ENDMDL
MODEL 4
REMARK VINA RESULT:    14.763      3.044      5.544
REMARK INTER + INTRA:          28.418
REMARK INTER:                  24.206
REMARK INTRA:                   4.212
REMARK UNBOUND:                 7.182
REMARK SMILES O=c1cc(-c2ccc(O)c(O)c2)oc2cc(O[C@@H]3O[C@H](CO)[C@@H](O)[C@@H](O)[C@@H]3O)cc(O)c12
REMARK SMILES IDX 17 1 16 2 4 3 3 4 13 5 2 6 14 7 1 8 32 9 15 10 30 11 29 12
REMARK SMILES IDX 5 13 6 14 7 15 8 16 12 17 10 18 9 19 11 21 31 23 18 25 27 26
REMARK SMILES IDX 19 27 25 28 20 29 23 30 28 31 26 33 21 35 22 36 24 38
REMARK H PARENT 9 20 11 22 31 24 28 32 26 34 22 37 24 39
REMARK Flexibility Score: inf
ROOT
ATOM      1  O   UNL     1      27.222  39.321  27.873  1.00  0.00    -0.462 OA
ENDROOT
BRANCH   1   2
ATOM      2  C   UNL     1      28.615  39.173  27.775  1.00  0.00     0.130 A 
ATOM      3  C   UNL     1      32.342  36.252  28.334  1.00  0.00     0.138 A 
ATOM      4  C   UNL     1      33.259  37.243  27.946  1.00  0.00     0.100 A 
ATOM      5  O   UNL     1      31.043  36.539  28.370  1.00  0.00    -0.456 OA
ATOM      6  C   UNL     1      32.791  38.510  27.592  1.00  0.00     0.197 A 
ATOM      7  C   UNL     1      30.550  37.730  28.044  1.00  0.00     0.146 A 
ATOM      8  O   UNL     1      33.620  39.394  27.248  1.00  0.00    -0.289 OA
ATOM      9  C   UNL     1      31.408  38.776  27.633  1.00  0.00     0.107 A 
ATOM     10  C   UNL     1      29.170  37.935  28.110  1.00  0.00     0.094 A 
ATOM     11  C   UNL     1      30.850  40.030  27.291  1.00  0.00     0.134 A 
ATOM     12  C   UNL     1      29.461  40.218  27.364  1.00  0.00     0.093 A 
BRANCH   3  13
ATOM     13  C   UNL     1      32.783  34.888  28.722  1.00  0.00     0.021 A 
ATOM     14  C   UNL     1      31.892  34.044  29.409  1.00  0.00     0.016 A 
ATOM     15  C   UNL     1      32.278  32.753  29.778  1.00  0.00     0.051 A 
ATOM     16  C   UNL     1      33.555  32.279  29.457  1.00  0.00     0.157 A 
ATOM     17  C   UNL     1      34.062  34.399  28.391  1.00  0.00     0.062 A 
ATOM     18  C   UNL     1      34.447  33.102  28.761  1.00  0.00     0.158 A 
BRANCH  16  19
ATOM     19  O   UNL     1      33.944  30.992  29.825  1.00  0.00    -0.504 OA
ATOM     20  H   UNL     1      33.650  30.179  29.297  1.00  0.00     0.293 HD
ENDBRANCH  16  19
BRANCH  18  21
ATOM     21  O   UNL     1      35.716  32.623  28.434  1.00  0.00    -0.504 OA
ATOM     22  H   UNL     1      36.103  32.736  27.504  1.00  0.00     0.293 HD
ENDBRANCH  18  21
ENDBRANCH   3  13
BRANCH  11  23
ATOM     23  O   UNL     1      31.663  41.087  26.881  1.00  0.00    -0.507 OA
ATOM     24  H   UNL     1      31.368  42.053  26.970  1.00  0.00     0.293 HD
ENDBRANCH  11  23
ENDBRANCH   1   2
BRANCH   1  25
ATOM     25  C   UNL     1      26.276  38.863  26.904  1.00  0.00     0.339 C 
ATOM     26  C   UNL     1      26.925  38.746  25.511  1.00  0.00     0.214 C 
ATOM     27  O   UNL     1      25.653  37.653  27.317  1.00  0.00    -0.332 OA
ATOM     28  C   UNL     1      27.918  37.574  25.470  1.00  0.00     0.180 C 
ATOM     29  C   UNL     1      26.508  36.512  27.301  1.00  0.00     0.179 C 
ATOM     30  C   UNL     1      27.210  36.293  25.937  1.00  0.00     0.177 C 
BRANCH  26  31
ATOM     31  O   UNL     1      27.539  39.955  25.138  1.00  0.00    -0.384 OA
ATOM     32  H   UNL     1      28.500  39.771  24.968  1.00  0.00     0.211 HD
ENDBRANCH  26  31
BRANCH  28  33
ATOM     33  O   UNL     1      28.405  37.393  24.165  1.00  0.00    -0.387 OA
ATOM     34  H   UNL     1      27.788  36.763  23.710  1.00  0.00     0.211 HD
ENDBRANCH  28  33
BRANCH  29  35
ATOM     35  C   UNL     1      27.473  36.478  28.506  1.00  0.00     0.191 C 
BRANCH  35  36
ATOM     36  O   UNL     1      26.809  36.857  29.682  1.00  0.00    -0.394 OA
ATOM     37  H   UNL     1      25.928  37.226  29.407  1.00  0.00     0.210 HD
ENDBRANCH  35  36
ENDBRANCH  29  35
BRANCH  30  38
ATOM     38  O   UNL     1      26.246  35.901  24.993  1.00  0.00    -0.387 OA
ATOM     39  H   UNL     1      25.381  36.303  25.271  1.00  0.00     0.211 HD
ENDBRANCH  30  38
ENDBRANCH   1  25
TORSDOF 11
ENDMDL
MODEL 5
REMARK VINA RESULT:    14.830      3.116      5.032
REMARK INTER + INTRA:          28.515
REMARK INTER:                  24.727
REMARK INTRA:                   3.787
REMARK UNBOUND:                 7.182
REMARK SMILES O=c1cc(-c2ccc(O)c(O)c2)oc2cc(O[C@@H]3O[C@H](CO)[C@@H](O)[C@@H](O)[C@@H]3O)cc(O)c12
REMARK SMILES IDX 17 1 16 2 4 3 3 4 13 5 2 6 14 7 1 8 32 9 15 10 30 11 29 12
REMARK SMILES IDX 5 13 6 14 7 15 8 16 12 17 10 18 9 19 11 21 31 23 18 25 27 26
REMARK SMILES IDX 19 27 25 28 20 29 23 30 28 31 26 33 21 35 22 36 24 38
REMARK H PARENT 9 20 11 22 31 24 28 32 26 34 22 37 24 39
REMARK Flexibility Score: inf
ROOT
ATOM      1  O   UNL     1      27.329  36.113  27.992  1.00  0.00    -0.462 OA
ENDROOT
BRANCH   1   2
ATOM      2  C   UNL     1      28.712  36.241  27.786  1.00  0.00     0.130 A 
ATOM      3  C   UNL     1      32.199  36.929  24.606  1.00  0.00     0.138 A 
ATOM      4  C   UNL     1      33.199  36.836  25.588  1.00  0.00     0.100 A 
ATOM      5  O   UNL     1      30.922  36.795  24.958  1.00  0.00    -0.456 OA
ATOM      6  C   UNL     1      32.837  36.618  26.919  1.00  0.00     0.197 A 
ATOM      7  C   UNL     1      30.528  36.586  26.210  1.00  0.00     0.146 A 
ATOM      8  O   UNL     1      33.741  36.534  27.793  1.00  0.00    -0.289 OA
ATOM      9  C   UNL     1      31.475  36.491  27.257  1.00  0.00     0.107 A 
ATOM     10  C   UNL     1      29.163  36.461  26.482  1.00  0.00     0.094 A 
ATOM     11  C   UNL     1      31.022  36.270  28.578  1.00  0.00     0.134 A 
ATOM     12  C   UNL     1      29.646  36.147  28.831  1.00  0.00     0.093 A 
BRANCH   3  13
ATOM     13  C   UNL     1      32.526  37.158  23.176  1.00  0.00     0.021 A 
ATOM     14  C   UNL     1      31.543  36.926  22.198  1.00  0.00     0.016 A 
ATOM     15  C   UNL     1      31.821  37.142  20.846  1.00  0.00     0.051 A 
ATOM     16  C   UNL     1      33.081  37.604  20.449  1.00  0.00     0.157 A 
ATOM     17  C   UNL     1      33.787  37.636  22.771  1.00  0.00     0.062 A 
ATOM     18  C   UNL     1      34.064  37.854  21.413  1.00  0.00     0.158 A 
BRANCH  16  19
ATOM     19  O   UNL     1      33.362  37.819  19.101  1.00  0.00    -0.504 OA
ATOM     20  H   UNL     1      33.967  37.196  18.580  1.00  0.00     0.293 HD
ENDBRANCH  16  19
BRANCH  18  21
ATOM     21  O   UNL     1      35.316  38.324  21.016  1.00  0.00    -0.504 OA
ATOM     22  H   UNL     1      35.542  39.311  21.032  1.00  0.00     0.293 HD
ENDBRANCH  18  21
ENDBRANCH   3  13
BRANCH  11  23
ATOM     23  O   UNL     1      31.924  36.170  29.637  1.00  0.00    -0.507 OA
ATOM     24  H   UNL     1      31.823  36.726  30.478  1.00  0.00     0.293 HD
ENDBRANCH  11  23
ENDBRANCH   1   2
BRANCH   1  25
ATOM     25  C   UNL     1      26.414  37.202  28.130  1.00  0.00     0.339 C 
ATOM     26  C   UNL     1      27.145  38.488  28.562  1.00  0.00     0.214 C 
ATOM     27  O   UNL     1      25.643  37.387  26.949  1.00  0.00    -0.332 OA
ATOM     28  C   UNL     1      28.016  39.030  27.417  1.00  0.00     0.180 C 
ATOM     29  C   UNL     1      26.378  37.895  25.837  1.00  0.00     0.179 C 
ATOM     30  C   UNL     1      27.150  39.199  26.160  1.00  0.00     0.177 C 
BRANCH  26  31
ATOM     31  O   UNL     1      27.904  38.269  29.727  1.00  0.00    -0.384 OA
ATOM     32  H   UNL     1      27.369  38.577  30.504  1.00  0.00     0.211 HD
ENDBRANCH  26  31
BRANCH  28  33
ATOM     33  O   UNL     1      28.575  40.269  27.775  1.00  0.00    -0.387 OA
ATOM     34  H   UNL     1      28.355  40.906  27.046  1.00  0.00     0.211 HD
ENDBRANCH  28  33
BRANCH  29  35
ATOM     35  C   UNL     1      27.245  36.815  25.155  1.00  0.00     0.191 C 
BRANCH  35  36
ATOM     36  O   UNL     1      26.559  35.592  25.101  1.00  0.00    -0.394 OA
ATOM     37  H   UNL     1      25.596  35.810  24.990  1.00  0.00     0.210 HD
ENDBRANCH  35  36
ENDBRANCH  29  35
BRANCH  30  38
ATOM     38  O   UNL     1      26.221  40.238  26.346  1.00  0.00    -0.387 OA
ATOM     39  H   UNL     1      25.904  40.514  25.446  1.00  0.00     0.211 HD
ENDBRANCH  30  38
ENDBRANCH   1  25
TORSDOF 11
ENDMDL
MODEL 6
REMARK VINA RESULT:    14.902      3.047      5.339
REMARK INTER + INTRA:          28.618
REMARK INTER:                  21.062
REMARK INTRA:                   7.556
REMARK UNBOUND:                 7.182
REMARK SMILES O=c1cc(-c2ccc(O)c(O)c2)oc2cc(O[C@@H]3O[C@H](CO)[C@@H](O)[C@@H](O)[C@@H]3O)cc(O)c12
REMARK SMILES IDX 17 1 16 2 4 3 3 4 13 5 2 6 14 7 1 8 32 9 15 10 30 11 29 12
REMARK SMILES IDX 5 13 6 14 7 15 8 16 12 17 10 18 9 19 11 21 31 23 18 25 27 26
REMARK SMILES IDX 19 27 25 28 20 29 23 30 28 31 26 33 21 35 22 36 24 38
REMARK H PARENT 9 20 11 22 31 24 28 32 26 34 22 37 24 39
REMARK Flexibility Score: inf
ROOT
ATOM      1  O   UNL     1      27.608  38.455  24.706  1.00  0.00    -0.462 OA
ENDROOT
BRANCH   1   2
ATOM      2  C   UNL     1      28.863  38.543  25.330  1.00  0.00     0.130 A 
ATOM      3  C   UNL     1      32.206  36.257  27.847  1.00  0.00     0.138 A 
ATOM      4  C   UNL     1      33.022  37.398  27.920  1.00  0.00     0.100 A 
ATOM      5  O   UNL     1      31.041  36.326  27.209  1.00  0.00    -0.456 OA
ATOM      6  C   UNL     1      32.603  38.582  27.310  1.00  0.00     0.197 A 
ATOM      7  C   UNL     1      30.598  37.429  26.614  1.00  0.00     0.146 A 
ATOM      8  O   UNL     1      33.340  39.602  27.381  1.00  0.00    -0.289 OA
ATOM      9  C   UNL     1      31.367  38.615  26.634  1.00  0.00     0.107 A 
ATOM     10  C   UNL     1      29.361  37.402  25.966  1.00  0.00     0.094 A 
ATOM     11  C   UNL     1      30.867  39.771  25.990  1.00  0.00     0.134 A 
ATOM     12  C   UNL     1      29.622  39.726  25.344  1.00  0.00     0.093 A 
BRANCH   3  13
ATOM     13  C   UNL     1      32.601  34.972  28.478  1.00  0.00     0.021 A 
ATOM     14  C   UNL     1      31.668  34.274  29.265  1.00  0.00     0.016 A 
ATOM     15  C   UNL     1      32.010  33.059  29.862  1.00  0.00     0.051 A 
ATOM     16  C   UNL     1      33.286  32.514  29.675  1.00  0.00     0.157 A 
ATOM     17  C   UNL     1      33.878  34.411  28.283  1.00  0.00     0.062 A 
ATOM     18  C   UNL     1      34.220  33.190  28.882  1.00  0.00     0.158 A 
BRANCH  16  19
ATOM     19  O   UNL     1      33.631  31.302  30.271  1.00  0.00    -0.504 OA
ATOM     20  H   UNL     1      34.098  30.570  29.749  1.00  0.00     0.293 HD
ENDBRANCH  16  19
BRANCH  18  21
ATOM     21  O   UNL     1      35.487  32.640  28.689  1.00  0.00    -0.504 OA
ATOM     22  H   UNL     1      35.865  32.490  27.761  1.00  0.00     0.293 HD
ENDBRANCH  18  21
ENDBRANCH   3  13
BRANCH  11  23
ATOM     23  O   UNL     1      31.596  40.961  25.988  1.00  0.00    -0.507 OA
ATOM     24  H   UNL     1      32.607  40.968  25.933  1.00  0.00     0.293 HD
ENDBRANCH  11  23
ENDBRANCH   1   2
BRANCH   1  25
ATOM     25  C   UNL     1      26.431  37.904  25.300  1.00  0.00     0.339 C 
ATOM     26  C   UNL     1      26.674  36.457  25.770  1.00  0.00     0.214 C 
ATOM     27  O   UNL     1      25.935  38.737  26.341  1.00  0.00    -0.332 OA
ATOM     28  C   UNL     1      27.610  36.430  26.988  1.00  0.00     0.180 C 
ATOM     29  C   UNL     1      26.746  38.763  27.514  1.00  0.00     0.179 C 
ATOM     30  C   UNL     1      27.048  37.353  28.080  1.00  0.00     0.177 C 
BRANCH  26  31
ATOM     31  O   UNL     1      27.172  35.663  24.720  1.00  0.00    -0.384 OA
ATOM     32  H   UNL     1      26.402  35.211  24.286  1.00  0.00     0.211 HD
ENDBRANCH  26  31
BRANCH  28  33
ATOM     33  O   UNL     1      27.722  35.122  27.488  1.00  0.00    -0.387 OA
ATOM     34  H   UNL     1      27.279  35.113  28.377  1.00  0.00     0.211 HD
ENDBRANCH  28  33
BRANCH  29  35
ATOM     35  C   UNL     1      28.003  39.645  27.347  1.00  0.00     0.191 C 
BRANCH  35  36
ATOM     36  O   UNL     1      28.669  39.793  28.572  1.00  0.00    -0.394 OA
ATOM     37  H   UNL     1      28.651  38.904  29.016  1.00  0.00     0.210 HD
ENDBRANCH  35  36
ENDBRANCH  29  35
BRANCH  30  38
ATOM     38  O   UNL     1      25.860  36.815  28.605  1.00  0.00    -0.387 OA
ATOM     39  H   UNL     1      25.979  36.744  29.588  1.00  0.00     0.211 HD
ENDBRANCH  30  38
ENDBRANCH   1  25
TORSDOF 11
ENDMDL
