MODEL 1
REMARK VINA RESULT:    -7.664      0.000      0.000
REMARK INTER + INTRA:          -9.804
REMARK INTER:                  -9.456
REMARK INTRA:                  -0.348
REMARK UNBOUND:                -0.348
REMARK SMILES Oc1cc(O)c2cc(O)c(-c3cc(O)c(O)c(O)c3)[o+]c2c1
REMARK SMILES IDX 10 1 20 2 21 3 22 4 2 5 3 6 4 7 6 8 7 9 8 10 11 11 12 12
REMARK SMILES IDX 13 13 19 14 15 15 17 16 14 17 16 19 18 21 9 23 1 25 5 27
REMARK H PARENT 14 18 16 20 18 22 9 24 1 26 5 28
REMARK Flexibility Score: inf
ROOT
ATOM      1  C   UNL     1     -16.989  38.910  12.495  1.00  0.00     0.402 A 
ATOM      2  O   UNL     1     -16.348  38.958  11.331  1.00  0.00    -0.202 OA
ATOM      3  C   UNL     1     -16.492  39.951  10.459  1.00  0.00     0.368 A 
ATOM      4  C   UNL     1     -15.777  39.910   9.258  1.00  0.00     0.162 A 
ATOM      5  C   UNL     1     -15.910  40.937   8.323  1.00  0.00     0.128 A 
ATOM      6  C   UNL     1     -16.764  42.014   8.588  1.00  0.00     0.093 A 
ATOM      7  C   UNL     1     -17.490  42.078   9.783  1.00  0.00     0.136 A 
ATOM      8  C   UNL     1     -17.356  41.037  10.738  1.00  0.00     0.125 A 
ATOM      9  C   UNL     1     -18.034  41.024  11.967  1.00  0.00     0.078 A 
ATOM     10  C   UNL     1     -17.847  39.964  12.860  1.00  0.00     0.223 A 
ENDROOT
BRANCH   1  11
ATOM     11  C   UNL     1     -16.752  37.746  13.378  1.00  0.00     0.091 A 
ATOM     12  C   UNL     1     -17.712  36.727  13.448  1.00  0.00     0.068 A 
ATOM     13  C   UNL     1     -17.521  35.625  14.290  1.00  0.00     0.162 A 
ATOM     14  C   UNL     1     -15.612  37.666  14.195  1.00  0.00     0.068 A 
ATOM     15  C   UNL     1     -16.372  35.534  15.088  1.00  0.00     0.200 A 
ATOM     16  C   UNL     1     -15.409  36.572  15.044  1.00  0.00     0.162 A 
BRANCH  13  17
ATOM     17  O   UNL     1     -18.473  34.608  14.340  1.00  0.00    -0.504 OA
ATOM     18  H   UNL     1     -18.228  33.664  14.615  1.00  0.00     0.293 HD
ENDBRANCH  13  17
BRANCH  15  19
ATOM     19  O   UNL     1     -16.225  34.410  15.904  1.00  0.00    -0.502 OA
ATOM     20  H   UNL     1     -16.169  34.444  16.911  1.00  0.00     0.293 HD
ENDBRANCH  15  19
BRANCH  16  21
ATOM     21  O   UNL     1     -14.253  36.561  15.825  1.00  0.00    -0.504 OA
ATOM     22  H   UNL     1     -13.316  36.525  15.449  1.00  0.00     0.293 HD
ENDBRANCH  16  21
ENDBRANCH   1  11
BRANCH  10  23
ATOM     23  O   UNL     1     -18.482  39.976  14.103  1.00  0.00    -0.500 OA
ATOM     24  H   UNL     1     -18.956  39.157  14.466  1.00  0.00     0.294 HD
ENDBRANCH  10  23
BRANCH   5  25
ATOM     25  O   UNL     1     -15.189  40.878   7.132  1.00  0.00    -0.507 OA
ATOM     26  H   UNL     1     -15.623  41.085   6.240  1.00  0.00     0.293 HD
ENDBRANCH   5  25
BRANCH   7  27
ATOM     27  O   UNL     1     -18.324  43.184   9.971  1.00  0.00    -0.507 OA
ATOM     28  H   UNL     1     -18.998  43.270  10.717  1.00  0.00     0.293 HD
ENDBRANCH   7  27
TORSDOF 7
ENDMDL
MODEL 2
REMARK VINA RESULT:    -7.402      1.198      7.170
REMARK INTER + INTRA:          -9.482
REMARK INTER:                  -9.275
REMARK INTRA:                  -0.207
REMARK UNBOUND:                -0.348
REMARK SMILES Oc1cc(O)c2cc(O)c(-c3cc(O)c(O)c(O)c3)[o+]c2c1
REMARK SMILES IDX 10 1 20 2 21 3 22 4 2 5 3 6 4 7 6 8 7 9 8 10 11 11 12 12
REMARK SMILES IDX 13 13 19 14 15 15 17 16 14 17 16 19 18 21 9 23 1 25 5 27
REMARK H PARENT 14 18 16 20 18 22 9 24 1 26 5 28
REMARK Flexibility Score: inf
ROOT
ATOM      1  C   UNL     1     -16.249  39.297  12.151  1.00  0.00     0.402 A 
ATOM      2  O   UNL     1     -17.143  38.340  12.384  1.00  0.00    -0.202 OA
ATOM      3  C   UNL     1     -16.912  37.305  13.186  1.00  0.00     0.368 A 
ATOM      4  C   UNL     1     -17.914  36.347  13.364  1.00  0.00     0.162 A 
ATOM      5  C   UNL     1     -17.699  35.249  14.198  1.00  0.00     0.128 A 
ATOM      6  C   UNL     1     -16.473  35.104  14.857  1.00  0.00     0.093 A 
ATOM      7  C   UNL     1     -15.453  36.050  14.694  1.00  0.00     0.136 A 
ATOM      8  C   UNL     1     -15.669  37.171  13.849  1.00  0.00     0.125 A 
ATOM      9  C   UNL     1     -14.710  38.173  13.636  1.00  0.00     0.078 A 
ATOM     10  C   UNL     1     -14.998  39.251  12.793  1.00  0.00     0.223 A 
ENDROOT
BRANCH   1  11
ATOM     11  C   UNL     1     -16.622  40.395  11.230  1.00  0.00     0.091 A 
ATOM     12  C   UNL     1     -17.767  41.159  11.495  1.00  0.00     0.068 A 
ATOM     13  C   UNL     1     -18.151  42.189  10.629  1.00  0.00     0.162 A 
ATOM     14  C   UNL     1     -15.886  40.651  10.061  1.00  0.00     0.068 A 
ATOM     15  C   UNL     1     -17.403  42.460   9.474  1.00  0.00     0.200 A 
ATOM     16  C   UNL     1     -16.260  41.675   9.184  1.00  0.00     0.162 A 
BRANCH  13  17
ATOM     17  O   UNL     1     -19.282  42.955  10.909  1.00  0.00    -0.504 OA
ATOM     18  H   UNL     1     -20.217  42.593  10.764  1.00  0.00     0.293 HD
ENDBRANCH  13  17
BRANCH  15  19
ATOM     19  O   UNL     1     -17.825  43.504   8.648  1.00  0.00    -0.502 OA
ATOM     20  H   UNL     1     -17.773  43.486   7.640  1.00  0.00     0.293 HD
ENDBRANCH  15  19
BRANCH  16  21
ATOM     21  O   UNL     1     -15.480  41.873   8.044  1.00  0.00    -0.504 OA
ATOM     22  H   UNL     1     -14.516  42.173   8.062  1.00  0.00     0.293 HD
ENDBRANCH  16  21
ENDBRANCH   1  11
BRANCH  10  23
ATOM     23  O   UNL     1     -14.064  40.274  12.620  1.00  0.00    -0.500 OA
ATOM     24  H   UNL     1     -13.898  40.969  13.338  1.00  0.00     0.294 HD
ENDBRANCH  10  23
BRANCH   5  25
ATOM     25  O   UNL     1     -18.710  34.305  14.364  1.00  0.00    -0.507 OA
ATOM     26  H   UNL     1     -18.878  33.860  15.259  1.00  0.00     0.293 HD
ENDBRANCH   5  25
BRANCH   7  27
ATOM     27  O   UNL     1     -14.257  35.833  15.383  1.00  0.00    -0.507 OA
ATOM     28  H   UNL     1     -13.394  35.537  14.950  1.00  0.00     0.293 HD
ENDBRANCH   7  27
TORSDOF 7
ENDMDL
MODEL 3
REMARK VINA RESULT:    -7.147      2.012      7.273
REMARK INTER + INTRA:          -9.166
REMARK INTER:                  -8.851
REMARK INTRA:                  -0.315
REMARK UNBOUND:                -0.348
REMARK SMILES Oc1cc(O)c2cc(O)c(-c3cc(O)c(O)c(O)c3)[o+]c2c1
REMARK SMILES IDX 10 1 20 2 21 3 22 4 2 5 3 6 4 7 6 8 7 9 8 10 11 11 12 12
REMARK SMILES IDX 13 13 19 14 15 15 17 16 14 17 16 19 18 21 9 23 1 25 5 27
REMARK H PARENT 14 18 16 20 18 22 9 24 1 26 5 28
REMARK Flexibility Score: inf
ROOT
ATOM      1  C   UNL     1     -15.798  40.174  11.938  1.00  0.00     0.402 A 
ATOM      2  O   UNL     1     -14.849  39.514  12.596  1.00  0.00    -0.202 OA
ATOM      3  C   UNL     1     -15.101  38.500  13.418  1.00  0.00     0.368 A 
ATOM      4  C   UNL     1     -14.035  37.870  14.067  1.00  0.00     0.162 A 
ATOM      5  C   UNL     1     -14.270  36.806  14.938  1.00  0.00     0.128 A 
ATOM      6  C   UNL     1     -15.580  36.367  15.165  1.00  0.00     0.093 A 
ATOM      7  C   UNL     1     -16.665  36.982  14.527  1.00  0.00     0.136 A 
ATOM      8  C   UNL     1     -16.430  38.063  13.638  1.00  0.00     0.125 A 
ATOM      9  C   UNL     1     -17.453  38.730  12.946  1.00  0.00     0.078 A 
ATOM     10  C   UNL     1     -17.143  39.785  12.082  1.00  0.00     0.223 A 
ENDROOT
BRANCH   1  11
ATOM     11  C   UNL     1     -15.392  41.292  11.057  1.00  0.00     0.091 A 
ATOM     12  C   UNL     1     -15.653  42.611  11.451  1.00  0.00     0.068 A 
ATOM     13  C   UNL     1     -15.296  43.685  10.627  1.00  0.00     0.162 A 
ATOM     14  C   UNL     1     -14.802  41.059   9.803  1.00  0.00     0.068 A 
ATOM     15  C   UNL     1     -14.686  43.453   9.385  1.00  0.00     0.200 A 
ATOM     16  C   UNL     1     -14.444  42.122   8.967  1.00  0.00     0.162 A 
BRANCH  13  17
ATOM     17  O   UNL     1     -15.544  44.995  11.035  1.00  0.00    -0.504 OA
ATOM     18  H   UNL     1     -16.402  45.473  10.790  1.00  0.00     0.293 HD
ENDBRANCH  13  17
BRANCH  15  19
ATOM     19  O   UNL     1     -14.342  44.558   8.605  1.00  0.00    -0.502 OA
ATOM     20  H   UNL     1     -14.187  45.485   8.973  1.00  0.00     0.293 HD
ENDBRANCH  15  19
BRANCH  16  21
ATOM     21  O   UNL     1     -13.861  41.813   7.737  1.00  0.00    -0.504 OA
ATOM     22  H   UNL     1     -14.107  42.260   6.865  1.00  0.00     0.293 HD
ENDBRANCH  16  21
ENDBRANCH   1  11
BRANCH  10  23
ATOM     23  O   UNL     1     -18.154  40.415  11.356  1.00  0.00    -0.500 OA
ATOM     24  H   UNL     1     -18.387  40.133  10.411  1.00  0.00     0.294 HD
ENDBRANCH  10  23
BRANCH   5  25
ATOM     25  O   UNL     1     -13.195  36.191  15.575  1.00  0.00    -0.507 OA
ATOM     26  H   UNL     1     -13.120  35.181  15.632  1.00  0.00     0.293 HD
ENDBRANCH   5  25
BRANCH   7  27
ATOM     27  O   UNL     1     -17.941  36.488  14.809  1.00  0.00    -0.507 OA
ATOM     28  H   UNL     1     -18.587  36.913  15.457  1.00  0.00     0.293 HD
ENDBRANCH   7  27
TORSDOF 7
ENDMDL
MODEL 4
REMARK VINA RESULT:    -7.068      2.003      2.617
REMARK INTER + INTRA:          -9.068
REMARK INTER:                  -8.813
REMARK INTRA:                  -0.255
REMARK UNBOUND:                -0.348
REMARK SMILES Oc1cc(O)c2cc(O)c(-c3cc(O)c(O)c(O)c3)[o+]c2c1
REMARK SMILES IDX 10 1 20 2 21 3 22 4 2 5 3 6 4 7 6 8 7 9 8 10 11 11 12 12
REMARK SMILES IDX 13 13 19 14 15 15 17 16 14 17 16 19 18 21 9 23 1 25 5 27
REMARK H PARENT 14 18 16 20 18 22 9 24 1 26 5 28
REMARK Flexibility Score: inf
ROOT
ATOM      1  C   UNL     1     -15.716  38.988  12.563  1.00  0.00     0.402 A 
ATOM      2  O   UNL     1     -16.648  39.619  11.854  1.00  0.00    -0.202 OA
ATOM      3  C   UNL     1     -16.439  40.785  11.249  1.00  0.00     0.368 A 
ATOM      4  C   UNL     1     -17.484  41.372  10.528  1.00  0.00     0.162 A 
ATOM      5  C   UNL     1     -17.295  42.596   9.886  1.00  0.00     0.128 A 
ATOM      6  C   UNL     1     -16.054  43.240   9.963  1.00  0.00     0.093 A 
ATOM      7  C   UNL     1     -14.993  42.672  10.679  1.00  0.00     0.136 A 
ATOM      8  C   UNL     1     -15.180  41.425  11.332  1.00  0.00     0.125 A 
ATOM      9  C   UNL     1     -14.171  40.776  12.060  1.00  0.00     0.078 A 
ATOM     10  C   UNL     1     -14.429  39.546  12.673  1.00  0.00     0.223 A 
ENDROOT
BRANCH   1  11
ATOM     11  C   UNL     1     -16.072  37.699  13.198  1.00  0.00     0.091 A 
ATOM     12  C   UNL     1     -16.467  36.621  12.395  1.00  0.00     0.068 A 
ATOM     13  C   UNL     1     -16.828  35.397  12.972  1.00  0.00     0.162 A 
ATOM     14  C   UNL     1     -16.080  37.549  14.595  1.00  0.00     0.068 A 
ATOM     15  C   UNL     1     -16.814  35.240  14.366  1.00  0.00     0.200 A 
ATOM     16  C   UNL     1     -16.442  36.333  15.186  1.00  0.00     0.162 A 
BRANCH  13  17
ATOM     17  O   UNL     1     -17.203  34.325  12.164  1.00  0.00    -0.504 OA
ATOM     18  H   UNL     1     -18.164  34.008  12.116  1.00  0.00     0.293 HD
ENDBRANCH  13  17
BRANCH  15  19
ATOM     19  O   UNL     1     -17.174  33.997  14.890  1.00  0.00    -0.502 OA
ATOM     20  H   UNL     1     -17.951  33.445  14.557  1.00  0.00     0.293 HD
ENDBRANCH  15  19
BRANCH  16  21
ATOM     21  O   UNL     1     -16.426  36.257  16.580  1.00  0.00    -0.504 OA
ATOM     22  H   UNL     1     -15.589  36.129  17.130  1.00  0.00     0.293 HD
ENDBRANCH  16  21
ENDBRANCH   1  11
BRANCH  10  23
ATOM     23  O   UNL     1     -13.412  38.877  13.355  1.00  0.00    -0.500 OA
ATOM     24  H   UNL     1     -13.608  38.266  14.139  1.00  0.00     0.294 HD
ENDBRANCH  10  23
BRANCH   5  25
ATOM     25  O   UNL     1     -18.347  43.165   9.172  1.00  0.00    -0.507 OA
ATOM     26  H   UNL     1     -18.548  42.894   8.216  1.00  0.00     0.293 HD
ENDBRANCH   5  25
BRANCH   7  27
ATOM     27  O   UNL     1     -13.788  43.378  10.712  1.00  0.00    -0.507 OA
ATOM     28  H   UNL     1     -13.577  44.175  10.128  1.00  0.00     0.293 HD
ENDBRANCH   7  27
TORSDOF 7
ENDMDL
MODEL 5
REMARK VINA RESULT:    -6.756      2.497      3.594
REMARK INTER + INTRA:          -8.683
REMARK INTER:                  -8.371
REMARK INTRA:                  -0.312
REMARK UNBOUND:                -0.348
REMARK SMILES Oc1cc(O)c2cc(O)c(-c3cc(O)c(O)c(O)c3)[o+]c2c1
REMARK SMILES IDX 10 1 20 2 21 3 22 4 2 5 3 6 4 7 6 8 7 9 8 10 11 11 12 12
REMARK SMILES IDX 13 13 19 14 15 15 17 16 14 17 16 19 18 21 9 23 1 25 5 27
REMARK H PARENT 14 18 16 20 18 22 9 24 1 26 5 28
REMARK Flexibility Score: inf
ROOT
ATOM      1  C   UNL     1     -15.849  40.779  11.208  1.00  0.00     0.402 A 
ATOM      2  O   UNL     1     -15.619  42.001  11.680  1.00  0.00    -0.202 OA
ATOM      3  C   UNL     1     -15.508  43.074  10.903  1.00  0.00     0.368 A 
ATOM      4  C   UNL     1     -15.262  44.318  11.494  1.00  0.00     0.162 A 
ATOM      5  C   UNL     1     -15.138  45.460  10.703  1.00  0.00     0.128 A 
ATOM      6  C   UNL     1     -15.258  45.363   9.312  1.00  0.00     0.093 A 
ATOM      7  C   UNL     1     -15.504  44.128   8.697  1.00  0.00     0.136 A 
ATOM      8  C   UNL     1     -15.634  42.963   9.498  1.00  0.00     0.125 A 
ATOM      9  C   UNL     1     -15.893  41.689   8.970  1.00  0.00     0.078 A 
ATOM     10  C   UNL     1     -16.014  40.588   9.824  1.00  0.00     0.223 A 
ENDROOT
BRANCH   1  11
ATOM     11  C   UNL     1     -15.944  39.661  12.175  1.00  0.00     0.091 A 
ATOM     12  C   UNL     1     -17.202  39.140  12.505  1.00  0.00     0.068 A 
ATOM     13  C   UNL     1     -17.320  38.096  13.431  1.00  0.00     0.162 A 
ATOM     14  C   UNL     1     -14.803  39.149  12.815  1.00  0.00     0.068 A 
ATOM     15  C   UNL     1     -16.179  37.569  14.053  1.00  0.00     0.200 A 
ATOM     16  C   UNL     1     -14.906  38.109  13.745  1.00  0.00     0.162 A 
BRANCH  13  17
ATOM     17  O   UNL     1     -18.574  37.573  13.740  1.00  0.00    -0.504 OA
ATOM     18  H   UNL     1     -19.382  37.747  13.154  1.00  0.00     0.293 HD
ENDBRANCH  13  17
BRANCH  15  19
ATOM     19  O   UNL     1     -16.350  36.523  14.962  1.00  0.00    -0.502 OA
ATOM     20  H   UNL     1     -16.313  35.545  14.715  1.00  0.00     0.293 HD
ENDBRANCH  15  19
BRANCH  16  21
ATOM     21  O   UNL     1     -13.730  37.650  14.340  1.00  0.00    -0.504 OA
ATOM     22  H   UNL     1     -12.911  38.222  14.492  1.00  0.00     0.293 HD
ENDBRANCH  16  21
ENDBRANCH   1  11
BRANCH  10  23
ATOM     23  O   UNL     1     -16.321  39.330   9.304  1.00  0.00    -0.500 OA
ATOM     24  H   UNL     1     -15.714  38.531   9.449  1.00  0.00     0.294 HD
ENDBRANCH  10  23
BRANCH   5  25
ATOM     25  O   UNL     1     -14.893  46.691  11.309  1.00  0.00    -0.507 OA
ATOM     26  H   UNL     1     -15.409  46.989  12.129  1.00  0.00     0.293 HD
ENDBRANCH   5  25
BRANCH   7  27
ATOM     27  O   UNL     1     -15.608  44.113   7.303  1.00  0.00    -0.507 OA
ATOM     28  H   UNL     1     -14.921  44.504   6.676  1.00  0.00     0.293 HD
ENDBRANCH   7  27
TORSDOF 7
ENDMDL
MODEL 6
REMARK VINA RESULT:    -6.535     10.299     13.029
REMARK INTER + INTRA:          -8.411
REMARK INTER:                  -8.607
REMARK INTRA:                   0.196
REMARK UNBOUND:                -0.348
REMARK SMILES Oc1cc(O)c2cc(O)c(-c3cc(O)c(O)c(O)c3)[o+]c2c1
REMARK SMILES IDX 10 1 20 2 21 3 22 4 2 5 3 6 4 7 6 8 7 9 8 10 11 11 12 12
REMARK SMILES IDX 13 13 19 14 15 15 17 16 14 17 16 19 18 21 9 23 1 25 5 27
REMARK H PARENT 14 18 16 20 18 22 9 24 1 26 5 28
REMARK Flexibility Score: inf
ROOT
ATOM      1  C   UNL     1     -26.067  33.056  18.183  1.00  0.00     0.402 A 
ATOM      2  O   UNL     1     -26.690  33.350  17.045  1.00  0.00    -0.202 OA
ATOM      3  C   UNL     1     -26.115  33.247  15.851  1.00  0.00     0.368 A 
ATOM      4  C   UNL     1     -26.852  33.582  14.711  1.00  0.00     0.162 A 
ATOM      5  C   UNL     1     -26.274  33.486  13.445  1.00  0.00     0.128 A 
ATOM      6  C   UNL     1     -24.949  33.052  13.314  1.00  0.00     0.093 A 
ATOM      7  C   UNL     1     -24.191  32.711  14.441  1.00  0.00     0.136 A 
ATOM      8  C   UNL     1     -24.776  32.804  15.731  1.00  0.00     0.125 A 
ATOM      9  C   UNL     1     -24.097  32.471  16.913  1.00  0.00     0.078 A 
ATOM     10  C   UNL     1     -24.742  32.585  18.148  1.00  0.00     0.223 A 
ENDROOT
BRANCH   1  11
ATOM     11  C   UNL     1     -26.812  33.221  19.452  1.00  0.00     0.091 A 
ATOM     12  C   UNL     1     -28.212  33.170  19.442  1.00  0.00     0.068 A 
ATOM     13  C   UNL     1     -28.939  33.343  20.625  1.00  0.00     0.162 A 
ATOM     14  C   UNL     1     -26.147  33.487  20.661  1.00  0.00     0.068 A 
ATOM     15  C   UNL     1     -28.275  33.585  21.836  1.00  0.00     0.200 A 
ATOM     16  C   UNL     1     -26.861  33.665  21.851  1.00  0.00     0.162 A 
BRANCH  13  17
ATOM     17  O   UNL     1     -30.332  33.274  20.608  1.00  0.00    -0.504 OA
ATOM     18  H   UNL     1     -30.896  33.772  21.287  1.00  0.00     0.293 HD
ENDBRANCH  13  17
BRANCH  15  19
ATOM     19  O   UNL     1     -29.047  33.742  22.989  1.00  0.00    -0.502 OA
ATOM     20  H   UNL     1     -29.238  33.001  23.649  1.00  0.00     0.293 HD
ENDBRANCH  15  19
BRANCH  16  21
ATOM     21  O   UNL     1     -26.134  33.924  23.013  1.00  0.00    -0.504 OA
ATOM     22  H   UNL     1     -26.289  34.722  23.613  1.00  0.00     0.293 HD
ENDBRANCH  16  21
ENDBRANCH   1  11
BRANCH  10  23
ATOM     23  O   UNL     1     -24.084  32.206  19.319  1.00  0.00    -0.500 OA
ATOM     24  H   UNL     1     -23.695  32.890  19.957  1.00  0.00     0.294 HD
ENDBRANCH  10  23
BRANCH   5  25
ATOM     25  O   UNL     1     -27.024  33.825  12.321  1.00  0.00    -0.507 OA
ATOM     26  H   UNL     1     -26.808  34.646  11.767  1.00  0.00     0.293 HD
ENDBRANCH   5  25
BRANCH   7  27
ATOM     27  O   UNL     1     -22.875  32.290  14.227  1.00  0.00    -0.507 OA
ATOM     28  H   UNL     1     -22.605  31.570  13.573  1.00  0.00     0.293 HD
ENDBRANCH   7  27
TORSDOF 7
ENDMDL
MODEL 7
REMARK VINA RESULT:    -6.358     14.388     15.756
REMARK INTER + INTRA:          -8.193
REMARK INTER:                  -7.819
REMARK INTRA:                  -0.374
REMARK UNBOUND:                -0.348
REMARK SMILES Oc1cc(O)c2cc(O)c(-c3cc(O)c(O)c(O)c3)[o+]c2c1
REMARK SMILES IDX 10 1 20 2 21 3 22 4 2 5 3 6 4 7 6 8 7 9 8 10 11 11 12 12
REMARK SMILES IDX 13 13 19 14 15 15 17 16 14 17 16 19 18 21 9 23 1 25 5 27
REMARK H PARENT 14 18 16 20 18 22 9 24 1 26 5 28
REMARK Flexibility Score: inf
ROOT
ATOM      1  C   UNL     1     -30.522  37.700  19.999  1.00  0.00     0.402 A 
ATOM      2  O   UNL     1     -29.753  38.666  19.503  1.00  0.00    -0.202 OA
ATOM      3  C   UNL     1     -30.155  39.926  19.374  1.00  0.00     0.368 A 
ATOM      4  C   UNL     1     -29.273  40.869  18.839  1.00  0.00     0.162 A 
ATOM      5  C   UNL     1     -29.669  42.199  18.689  1.00  0.00     0.128 A 
ATOM      6  C   UNL     1     -30.956  42.591  19.076  1.00  0.00     0.093 A 
ATOM      7  C   UNL     1     -31.858  41.664  19.615  1.00  0.00     0.136 A 
ATOM      8  C   UNL     1     -31.458  40.311  19.772  1.00  0.00     0.125 A 
ATOM      9  C   UNL     1     -32.289  39.318  20.313  1.00  0.00     0.078 A 
ATOM     10  C   UNL     1     -31.823  38.006  20.441  1.00  0.00     0.223 A 
ENDROOT
BRANCH   1  11
ATOM     11  C   UNL     1     -29.963  36.332  20.083  1.00  0.00     0.091 A 
ATOM     12  C   UNL     1     -29.077  36.012  21.121  1.00  0.00     0.068 A 
ATOM     13  C   UNL     1     -28.520  34.731  21.211  1.00  0.00     0.162 A 
ATOM     14  C   UNL     1     -30.254  35.361  19.110  1.00  0.00     0.068 A 
ATOM     15  C   UNL     1     -28.828  33.755  20.253  1.00  0.00     0.200 A 
ATOM     16  C   UNL     1     -29.701  34.078  19.186  1.00  0.00     0.162 A 
BRANCH  13  17
ATOM     17  O   UNL     1     -27.653  34.417  22.257  1.00  0.00    -0.504 OA
ATOM     18  H   UNL     1     -27.554  33.467  22.598  1.00  0.00     0.293 HD
ENDBRANCH  13  17
BRANCH  15  19
ATOM     19  O   UNL     1     -28.252  32.491  20.394  1.00  0.00    -0.502 OA
ATOM     20  H   UNL     1     -27.821  32.156  21.243  1.00  0.00     0.293 HD
ENDBRANCH  15  19
BRANCH  16  21
ATOM     21  O   UNL     1     -30.036  33.166  18.184  1.00  0.00    -0.504 OA
ATOM     22  H   UNL     1     -29.522  32.317  17.996  1.00  0.00     0.293 HD
ENDBRANCH  16  21
ENDBRANCH   1  11
BRANCH  10  23
ATOM     23  O   UNL     1     -32.630  37.030  21.026  1.00  0.00    -0.500 OA
ATOM     24  H   UNL     1     -33.463  37.271  21.550  1.00  0.00     0.294 HD
ENDBRANCH  10  23
BRANCH   5  25
ATOM     25  O   UNL     1     -28.776  43.124  18.153  1.00  0.00    -0.507 OA
ATOM     26  H   UNL     1     -28.416  43.894  18.706  1.00  0.00     0.293 HD
ENDBRANCH   5  25
BRANCH   7  27
ATOM     27  O   UNL     1     -33.125  42.133  19.974  1.00  0.00    -0.507 OA
ATOM     28  H   UNL     1     -33.957  41.562  20.003  1.00  0.00     0.293 HD
ENDBRANCH   7  27
TORSDOF 7
ENDMDL
MODEL 8
REMARK VINA RESULT:    -6.324     10.157     13.191
REMARK INTER + INTRA:          -8.151
REMARK INTER:                  -8.262
REMARK INTRA:                   0.112
REMARK UNBOUND:                -0.348
REMARK SMILES Oc1cc(O)c2cc(O)c(-c3cc(O)c(O)c(O)c3)[o+]c2c1
REMARK SMILES IDX 10 1 20 2 21 3 22 4 2 5 3 6 4 7 6 8 7 9 8 10 11 11 12 12
REMARK SMILES IDX 13 13 19 14 15 15 17 16 14 17 16 19 18 21 9 23 1 25 5 27
REMARK H PARENT 14 18 16 20 18 22 9 24 1 26 5 28
REMARK Flexibility Score: inf
ROOT
ATOM      1  C   UNL     1     -26.504  33.259  18.044  1.00  0.00     0.402 A 
ATOM      2  O   UNL     1     -25.249  32.819  18.034  1.00  0.00    -0.202 OA
ATOM      3  C   UNL     1     -24.531  32.687  16.923  1.00  0.00     0.368 A 
ATOM      4  C   UNL     1     -23.219  32.213  17.014  1.00  0.00     0.162 A 
ATOM      5  C   UNL     1     -22.443  32.060  15.864  1.00  0.00     0.128 A 
ATOM      6  C   UNL     1     -22.981  32.383  14.613  1.00  0.00     0.093 A 
ATOM      7  C   UNL     1     -24.293  32.859  14.496  1.00  0.00     0.136 A 
ATOM      8  C   UNL     1     -25.085  33.018  15.663  1.00  0.00     0.125 A 
ATOM      9  C   UNL     1     -26.403  33.501  15.642  1.00  0.00     0.078 A 
ATOM     10  C   UNL     1     -27.119  33.635  16.836  1.00  0.00     0.223 A 
ENDROOT
BRANCH   1  11
ATOM     11  C   UNL     1     -27.202  33.354  19.346  1.00  0.00     0.091 A 
ATOM     12  C   UNL     1     -26.466  33.636  20.505  1.00  0.00     0.068 A 
ATOM     13  C   UNL     1     -27.100  33.712  21.750  1.00  0.00     0.162 A 
ATOM     14  C   UNL     1     -28.582  33.110  19.457  1.00  0.00     0.068 A 
ATOM     15  C   UNL     1     -28.481  33.491  21.858  1.00  0.00     0.200 A 
ATOM     16  C   UNL     1     -29.228  33.178  20.696  1.00  0.00     0.162 A 
BRANCH  13  17
ATOM     17  O   UNL     1     -26.362  34.010  22.895  1.00  0.00    -0.504 OA
ATOM     18  H   UNL     1     -25.928  34.916  23.026  1.00  0.00     0.293 HD
ENDBRANCH  13  17
BRANCH  15  19
ATOM     19  O   UNL     1     -29.066  33.587  23.122  1.00  0.00    -0.502 OA
ATOM     20  H   UNL     1     -29.154  32.815  23.766  1.00  0.00     0.293 HD
ENDBRANCH  15  19
BRANCH  16  21
ATOM     21  O   UNL     1     -30.600  32.924  20.728  1.00  0.00    -0.504 OA
ATOM     22  H   UNL     1     -31.310  33.638  20.648  1.00  0.00     0.293 HD
ENDBRANCH  16  21
ENDBRANCH   1  11
BRANCH  10  23
ATOM     23  O   UNL     1     -28.411  34.161  16.821  1.00  0.00    -0.500 OA
ATOM     24  H   UNL     1     -29.219  33.597  17.058  1.00  0.00     0.294 HD
ENDBRANCH  10  23
BRANCH   5  25
ATOM     25  O   UNL     1     -21.138  31.587  15.975  1.00  0.00    -0.507 OA
ATOM     26  H   UNL     1     -20.412  32.134  16.424  1.00  0.00     0.293 HD
ENDBRANCH   5  25
BRANCH   7  27
ATOM     27  O   UNL     1     -24.757  33.156  13.211  1.00  0.00    -0.507 OA
ATOM     28  H   UNL     1     -25.662  33.557  13.010  1.00  0.00     0.293 HD
ENDBRANCH   7  27
TORSDOF 7
ENDMDL
MODEL 9
REMARK VINA RESULT:    -6.183     14.824     16.692
REMARK INTER + INTRA:          -7.977
REMARK INTER:                  -7.602
REMARK INTRA:                  -0.374
REMARK UNBOUND:                -0.348
REMARK SMILES Oc1cc(O)c2cc(O)c(-c3cc(O)c(O)c(O)c3)[o+]c2c1
REMARK SMILES IDX 10 1 20 2 21 3 22 4 2 5 3 6 4 7 6 8 7 9 8 10 11 11 12 12
REMARK SMILES IDX 13 13 19 14 15 15 17 16 14 17 16 19 18 21 9 23 1 25 5 27
REMARK H PARENT 14 18 16 20 18 22 9 24 1 26 5 28
REMARK Flexibility Score: inf
ROOT
ATOM      1  C   UNL     1     -30.879  38.383  19.882  1.00  0.00     0.402 A 
ATOM      2  O   UNL     1     -31.724  39.409  19.933  1.00  0.00    -0.202 OA
ATOM      3  C   UNL     1     -31.402  40.639  19.543  1.00  0.00     0.368 A 
ATOM      4  C   UNL     1     -32.359  41.654  19.639  1.00  0.00     0.162 A 
ATOM      5  C   UNL     1     -32.049  42.954  19.240  1.00  0.00     0.128 A 
ATOM      6  C   UNL     1     -30.774  43.245  18.742  1.00  0.00     0.093 A 
ATOM      7  C   UNL     1     -29.798  42.246  18.636  1.00  0.00     0.136 A 
ATOM      8  C   UNL     1     -30.110  40.921  19.038  1.00  0.00     0.125 A 
ATOM      9  C   UNL     1     -29.201  39.854  18.956  1.00  0.00     0.078 A 
ATOM     10  C   UNL     1     -29.583  38.574  19.368  1.00  0.00     0.223 A 
ENDROOT
BRANCH   1  11
ATOM     11  C   UNL     1     -31.352  37.062  20.354  1.00  0.00     0.091 A 
ATOM     12  C   UNL     1     -31.067  36.655  21.664  1.00  0.00     0.068 A 
ATOM     13  C   UNL     1     -31.486  35.402  22.128  1.00  0.00     0.162 A 
ATOM     14  C   UNL     1     -32.033  36.179  19.498  1.00  0.00     0.068 A 
ATOM     15  C   UNL     1     -32.185  34.530  21.281  1.00  0.00     0.200 A 
ATOM     16  C   UNL     1     -32.454  34.922  19.947  1.00  0.00     0.162 A 
BRANCH  13  17
ATOM     17  O   UNL     1     -31.212  35.013  23.439  1.00  0.00    -0.504 OA
ATOM     18  H   UNL     1     -30.863  34.087  23.655  1.00  0.00     0.293 HD
ENDBRANCH  13  17
BRANCH  15  19
ATOM     19  O   UNL     1     -32.588  33.297  21.796  1.00  0.00    -0.502 OA
ATOM     20  H   UNL     1     -33.275  32.698  21.361  1.00  0.00     0.293 HD
ENDBRANCH  15  19
BRANCH  16  21
ATOM     21  O   UNL     1     -33.125  34.100  19.041  1.00  0.00    -0.504 OA
ATOM     22  H   UNL     1     -33.204  33.097  19.137  1.00  0.00     0.293 HD
ENDBRANCH  16  21
ENDBRANCH   1  11
BRANCH  10  23
ATOM     23  O   UNL     1     -28.697  37.504  19.239  1.00  0.00    -0.500 OA
ATOM     24  H   UNL     1     -28.570  37.020  18.358  1.00  0.00     0.294 HD
ENDBRANCH  10  23
BRANCH   5  25
ATOM     25  O   UNL     1     -33.016  43.952  19.344  1.00  0.00    -0.507 OA
ATOM     26  H   UNL     1     -32.889  44.859  18.909  1.00  0.00     0.293 HD
ENDBRANCH   5  25
BRANCH   7  27
ATOM     27  O   UNL     1     -28.549  42.617  18.132  1.00  0.00    -0.507 OA
ATOM     28  H   UNL     1     -28.402  43.051  17.232  1.00  0.00     0.293 HD
ENDBRANCH   7  27
TORSDOF 7
ENDMDL
