MODEL 1
REMARK VINA RESULT:    -2.154      0.000      0.000
REMARK INTER + INTRA:          -2.154
REMARK INTER:                  -2.154
REMARK INTRA:                   0.000
REMARK UNBOUND:                 0.000
REMARK SMILES CC(=O)[O-]
REMARK SMILES IDX 1 1 2 2 3 3 4 4
REMARK H PARENT
REMARK Flexibility Score: inf
ROOT
ATOM      1  C   UNL     1      -7.866  23.308  14.063  1.00  0.00     0.063 C 
ATOM      2  C   UNL     1      -8.046  21.830  14.124  1.00  0.00     0.038 C 
ATOM      3  O   UNL     1      -9.203  21.334  14.125  1.00  0.00    -0.550 OA
ATOM      4  O   UNL     1      -6.937  20.993  14.125  1.00  0.00    -0.550 OA
ENDROOT
TORSDOF 0
ENDMDL
MODEL 2
REMARK VINA RESULT:    -2.070      1.958      2.654
REMARK INTER + INTRA:          -2.070
REMARK INTER:                  -2.070
REMARK INTRA:                   0.000
REMARK UNBOUND:                 0.000
REMARK SMILES CC(=O)[O-]
REMARK SMILES IDX 1 1 2 2 3 3 4 4
REMARK H PARENT
REMARK Flexibility Score: inf
ROOT
ATOM      1  C   UNL     1      -8.367  25.267  13.586  1.00  0.00     0.063 C 
ATOM      2  C   UNL     1      -7.776  23.917  13.808  1.00  0.00     0.038 C 
ATOM      3  O   UNL     1      -6.528  23.760  13.770  1.00  0.00    -0.550 OA
ATOM      4  O   UNL     1      -8.597  22.838  14.111  1.00  0.00    -0.550 OA
ENDROOT
TORSDOF 0
ENDMDL
MODEL 3
REMARK VINA RESULT:    -1.987     14.614     15.000
REMARK INTER + INTRA:          -1.987
REMARK INTER:                  -1.987
REMARK INTRA:                   0.000
REMARK UNBOUND:                 0.000
REMARK SMILES CC(=O)[O-]
REMARK SMILES IDX 1 1 2 2 3 3 4 4
REMARK H PARENT
REMARK Flexibility Score: inf
ROOT
ATOM      1  C   UNL     1     -12.536  10.196   3.975  1.00  0.00     0.063 C 
ATOM      2  C   UNL     1     -12.011  10.544   5.325  1.00  0.00     0.038 C 
ATOM      3  O   UNL     1     -12.066   9.703   6.260  1.00  0.00    -0.550 OA
ATOM      4  O   UNL     1     -11.409  11.777   5.542  1.00  0.00    -0.550 OA
ENDROOT
TORSDOF 0
ENDMDL
MODEL 4
REMARK VINA RESULT:    -1.980     14.426     14.837
REMARK INTER + INTRA:          -1.980
REMARK INTER:                  -1.980
REMARK INTRA:                   0.000
REMARK UNBOUND:                 0.000
REMARK SMILES CC(=O)[O-]
REMARK SMILES IDX 1 1 2 2 3 3 4 4
REMARK H PARENT
REMARK Flexibility Score: inf
ROOT
ATOM      1  C   UNL     1     -12.472  10.261   4.122  1.00  0.00     0.063 C 
ATOM      2  C   UNL     1     -12.004  10.707   5.465  1.00  0.00     0.038 C 
ATOM      3  O   UNL     1     -11.415  11.812   5.593  1.00  0.00    -0.550 OA
ATOM      4  O   UNL     1     -12.264   9.930   6.587  1.00  0.00    -0.550 OA
ENDROOT
TORSDOF 0
ENDMDL
MODEL 5
REMARK VINA RESULT:    -1.928     14.444     14.844
REMARK INTER + INTRA:          -1.928
REMARK INTER:                  -1.928
REMARK INTRA:                   0.000
REMARK UNBOUND:                 0.000
REMARK SMILES CC(=O)[O-]
REMARK SMILES IDX 1 1 2 2 3 3 4 4
REMARK H PARENT
REMARK Flexibility Score: inf
ROOT
ATOM      1  C   UNL     1     -12.291   9.751   6.283  1.00  0.00     0.063 C 
ATOM      2  C   UNL     1     -12.012  10.779   5.240  1.00  0.00     0.038 C 
ATOM      3  O   UNL     1     -12.465  10.635   4.074  1.00  0.00    -0.550 OA
ATOM      4  O   UNL     1     -11.298  11.925   5.565  1.00  0.00    -0.550 OA
ENDROOT
TORSDOF 0
ENDMDL
MODEL 6
REMARK VINA RESULT:    -1.886     16.720     16.975
REMARK INTER + INTRA:          -1.886
REMARK INTER:                  -1.886
REMARK INTRA:                   0.000
REMARK UNBOUND:                 0.000
REMARK SMILES CC(=O)[O-]
REMARK SMILES IDX 1 1 2 2 3 3 4 4
REMARK H PARENT
REMARK Flexibility Score: inf
ROOT
ATOM      1  C   UNL     1      -3.150  20.555  -1.343  1.00  0.00     0.063 C 
ATOM      2  C   UNL     1      -1.693  20.304  -1.535  1.00  0.00     0.038 C 
ATOM      3  O   UNL     1      -1.065  20.900  -2.449  1.00  0.00    -0.550 OA
ATOM      4  O   UNL     1      -1.012  19.456  -0.671  1.00  0.00    -0.550 OA
ENDROOT
TORSDOF 0
ENDMDL
MODEL 7
REMARK VINA RESULT:    -1.835     15.303     15.671
REMARK INTER + INTRA:          -1.835
REMARK INTER:                  -1.835
REMARK INTRA:                   0.000
REMARK UNBOUND:                 0.000
REMARK SMILES CC(=O)[O-]
REMARK SMILES IDX 1 1 2 2 3 3 4 4
REMARK H PARENT
REMARK Flexibility Score: inf
ROOT
ATOM      1  C   UNL     1     -11.912  11.233   5.532  1.00  0.00     0.063 C 
ATOM      2  C   UNL     1     -11.922   9.952   4.769  1.00  0.00     0.038 C 
ATOM      3  O   UNL     1     -11.592   8.878   5.335  1.00  0.00    -0.550 OA
ATOM      4  O   UNL     1     -12.350   9.932   3.447  1.00  0.00    -0.550 OA
ENDROOT
TORSDOF 0
ENDMDL
MODEL 8
REMARK VINA RESULT:    -1.665     11.146     11.706
REMARK INTER + INTRA:          -1.665
REMARK INTER:                  -1.665
REMARK INTRA:                   0.000
REMARK UNBOUND:                 0.000
REMARK SMILES CC(=O)[O-]
REMARK SMILES IDX 1 1 2 2 3 3 4 4
REMARK H PARENT
REMARK Flexibility Score: inf
ROOT
ATOM      1  C   UNL     1      -1.201  12.087   9.173  1.00  0.00     0.063 C 
ATOM      2  C   UNL     1      -2.112  12.884  10.042  1.00  0.00     0.038 C 
ATOM      3  O   UNL     1      -2.065  14.142  10.021  1.00  0.00    -0.550 OA
ATOM      4  O   UNL     1      -3.054  12.243  10.838  1.00  0.00    -0.550 OA
ENDROOT
TORSDOF 0
ENDMDL
MODEL 9
REMARK VINA RESULT:    -1.635     12.879     13.359
REMARK INTER + INTRA:          -1.635
REMARK INTER:                  -1.635
REMARK INTRA:                   0.000
REMARK UNBOUND:                 0.000
REMARK SMILES CC(=O)[O-]
REMARK SMILES IDX 1 1 2 2 3 3 4 4
REMARK H PARENT
REMARK Flexibility Score: inf
ROOT
ATOM      1  C   UNL     1      -0.788  11.487   7.675  1.00  0.00     0.063 C 
ATOM      2  C   UNL     1      -0.844  11.931   9.096  1.00  0.00     0.038 C 
ATOM      3  O   UNL     1      -1.949  11.996   9.695  1.00  0.00    -0.550 OA
ATOM      4  O   UNL     1       0.329  12.222   9.782  1.00  0.00    -0.550 OA
ENDROOT
TORSDOF 0
ENDMDL
