MODEL 1
REMARK VINA RESULT:    -3.680      0.000      0.000
REMARK INTER + INTRA:          -4.670
REMARK INTER:                  -4.541
REMARK INTRA:                  -0.129
REMARK UNBOUND:                -0.129
REMARK SMILES CCCCCC(=O)[O-]
REMARK SMILES IDX 4 1 5 2 6 3 7 4 8 5 3 6 2 7 1 8
REMARK H PARENT
REMARK Flexibility Score: inf
ROOT
ATOM      1  C   UNL     1      46.628  -1.988  15.206  1.00  0.00     0.006 C 
ENDROOT
BRANCH   1   2
ATOM      2  C   UNL     1      45.774  -3.138  14.654  1.00  0.00     0.053 C 
BRANCH   2   3
ATOM      3  C   UNL     1      44.340  -2.723  14.556  1.00  0.00     0.041 C 
ATOM      4  O   UNL     1      43.529  -3.405  13.877  1.00  0.00    -0.550 OA
ATOM      5  O   UNL     1      43.890  -1.611  15.256  1.00  0.00    -0.550 OA
ENDBRANCH   2   3
ENDBRANCH   1   2
BRANCH   1   6
ATOM      6  C   UNL     1      47.174  -2.279  16.613  1.00  0.00     0.000 C 
BRANCH   6   7
ATOM      7  C   UNL     1      48.553  -2.952  16.583  1.00  0.00    -0.003 C 
ATOM      8  C   UNL     1      48.452  -4.430  16.951  1.00  0.00     0.004 C 
ENDBRANCH   6   7
ENDBRANCH   1   6
TORSDOF 4
ENDMDL
MODEL 2
REMARK VINA RESULT:    -3.587      1.687      2.048
REMARK INTER + INTRA:          -4.555
REMARK INTER:                  -4.480
REMARK INTRA:                  -0.075
REMARK UNBOUND:                -0.129
REMARK SMILES CCCCCC(=O)[O-]
REMARK SMILES IDX 4 1 5 2 6 3 7 4 8 5 3 6 2 7 1 8
REMARK H PARENT
REMARK Flexibility Score: inf
ROOT
ATOM      1  C   UNL     1      46.112  -1.455  16.035  1.00  0.00     0.006 C 
ENDROOT
BRANCH   1   2
ATOM      2  C   UNL     1      46.084  -0.453  14.874  1.00  0.00     0.053 C 
BRANCH   2   3
ATOM      3  C   UNL     1      44.675  -0.060  14.558  1.00  0.00     0.041 C 
ATOM      4  O   UNL     1      43.750  -0.911  14.625  1.00  0.00    -0.550 OA
ATOM      5  O   UNL     1      44.377   1.259  14.238  1.00  0.00    -0.550 OA
ENDBRANCH   2   3
ENDBRANCH   1   2
BRANCH   1   6
ATOM      6  C   UNL     1      46.880  -2.741  15.689  1.00  0.00     0.000 C 
BRANCH   6   7
ATOM      7  C   UNL     1      48.219  -2.847  16.434  1.00  0.00    -0.003 C 
ATOM      8  C   UNL     1      48.328  -4.173  17.181  1.00  0.00     0.004 C 
ENDBRANCH   6   7
ENDBRANCH   1   6
TORSDOF 4
ENDMDL
MODEL 3
REMARK VINA RESULT:    -3.518     10.884     12.110
REMARK INTER + INTRA:          -4.469
REMARK INTER:                  -4.423
REMARK INTRA:                  -0.046
REMARK UNBOUND:                -0.129
REMARK SMILES CCCCCC(=O)[O-]
REMARK SMILES IDX 4 1 5 2 6 3 7 4 8 5 3 6 2 7 1 8
REMARK H PARENT
REMARK Flexibility Score: inf
ROOT
ATOM      1  C   UNL     1      46.765   6.936  20.251  1.00  0.00     0.006 C 
ENDROOT
BRANCH   1   2
ATOM      2  C   UNL     1      46.746   7.851  21.482  1.00  0.00     0.053 C 
BRANCH   2   3
ATOM      3  C   UNL     1      47.876   7.513  22.402  1.00  0.00     0.041 C 
ATOM      4  O   UNL     1      48.225   6.315  22.563  1.00  0.00    -0.550 OA
ATOM      5  O   UNL     1      48.577   8.527  23.043  1.00  0.00    -0.550 OA
ENDBRANCH   2   3
ENDBRANCH   1   2
BRANCH   1   6
ATOM      6  C   UNL     1      46.387   7.675  18.958  1.00  0.00     0.000 C 
BRANCH   6   7
ATOM      7  C   UNL     1      46.703   6.859  17.697  1.00  0.00    -0.003 C 
ATOM      8  C   UNL     1      45.554   6.927  16.695  1.00  0.00     0.004 C 
ENDBRANCH   6   7
ENDBRANCH   1   6
TORSDOF 4
ENDMDL
MODEL 4
REMARK VINA RESULT:    -3.444     12.351     13.418
REMARK INTER + INTRA:          -4.379
REMARK INTER:                  -4.206
REMARK INTRA:                  -0.172
REMARK UNBOUND:                -0.129
REMARK SMILES CCCCCC(=O)[O-]
REMARK SMILES IDX 4 1 5 2 6 3 7 4 8 5 3 6 2 7 1 8
REMARK H PARENT
REMARK Flexibility Score: inf
ROOT
ATOM      1  C   UNL     1      46.802   9.034  22.650  1.00  0.00     0.006 C 
ENDROOT
BRANCH   1   2
ATOM      2  C   UNL     1      45.785   8.861  23.786  1.00  0.00     0.053 C 
BRANCH   2   3
ATOM      3  C   UNL     1      44.392   8.829  23.239  1.00  0.00     0.041 C 
ATOM      4  O   UNL     1      43.431   9.254  23.931  1.00  0.00    -0.550 OA
ATOM      5  O   UNL     1      44.164   8.375  21.947  1.00  0.00    -0.550 OA
ENDBRANCH   2   3
ENDBRANCH   1   2
BRANCH   1   6
ATOM      6  C   UNL     1      48.056   8.167  22.841  1.00  0.00     0.000 C 
BRANCH   6   7
ATOM      7  C   UNL     1      47.958   6.818  22.114  1.00  0.00    -0.003 C 
ATOM      8  C   UNL     1      47.110   6.935  20.851  1.00  0.00     0.004 C 
ENDBRANCH   6   7
ENDBRANCH   1   6
TORSDOF 4
ENDMDL
MODEL 5
REMARK VINA RESULT:    -3.430     10.330     11.248
REMARK INTER + INTRA:          -4.362
REMARK INTER:                  -4.282
REMARK INTRA:                  -0.080
REMARK UNBOUND:                -0.129
REMARK SMILES CCCCCC(=O)[O-]
REMARK SMILES IDX 4 1 5 2 6 3 7 4 8 5 3 6 2 7 1 8
REMARK H PARENT
REMARK Flexibility Score: inf
ROOT
ATOM      1  C   UNL     1      46.720   7.308  19.954  1.00  0.00     0.006 C 
ENDROOT
BRANCH   1   2
ATOM      2  C   UNL     1      45.995   7.728  18.668  1.00  0.00     0.053 C 
BRANCH   2   3
ATOM      3  C   UNL     1      46.745   7.248  17.466  1.00  0.00     0.041 C 
ATOM      4  O   UNL     1      47.068   8.056  16.556  1.00  0.00    -0.550 OA
ATOM      5  O   UNL     1      47.131   5.916  17.374  1.00  0.00    -0.550 OA
ENDBRANCH   2   3
ENDBRANCH   1   2
BRANCH   1   6
ATOM      6  C   UNL     1      46.329   8.172  21.163  1.00  0.00     0.000 C 
BRANCH   6   7
ATOM      7  C   UNL     1      47.107   7.798  22.433  1.00  0.00    -0.003 C 
ATOM      8  C   UNL     1      48.076   6.650  22.165  1.00  0.00     0.004 C 
ENDBRANCH   6   7
ENDBRANCH   1   6
TORSDOF 4
ENDMDL
MODEL 6
REMARK VINA RESULT:    -3.420     11.807     12.934
REMARK INTER + INTRA:          -4.349
REMARK INTER:                  -4.199
REMARK INTRA:                  -0.150
REMARK UNBOUND:                -0.129
REMARK SMILES CCCCCC(=O)[O-]
REMARK SMILES IDX 4 1 5 2 6 3 7 4 8 5 3 6 2 7 1 8
REMARK H PARENT
REMARK Flexibility Score: inf
ROOT
ATOM      1  C   UNL     1      47.296   7.758  22.288  1.00  0.00     0.006 C 
ENDROOT
BRANCH   1   2
ATOM      2  C   UNL     1      46.348   8.962  22.354  1.00  0.00     0.053 C 
BRANCH   2   3
ATOM      3  C   UNL     1      45.154   8.641  23.198  1.00  0.00     0.041 C 
ATOM      4  O   UNL     1      44.036   8.433  22.659  1.00  0.00    -0.550 OA
ATOM      5  O   UNL     1      45.289   8.522  24.575  1.00  0.00    -0.550 OA
ENDBRANCH   2   3
ENDBRANCH   1   2
BRANCH   1   6
ATOM      6  C   UNL     1      47.133   6.947  20.992  1.00  0.00     0.000 C 
BRANCH   6   7
ATOM      7  C   UNL     1      46.414   7.735  19.889  1.00  0.00    -0.003 C 
ATOM      8  C   UNL     1      46.692   7.135  18.514  1.00  0.00     0.004 C 
ENDBRANCH   6   7
ENDBRANCH   1   6
TORSDOF 4
ENDMDL
MODEL 7
REMARK VINA RESULT:    -3.358      9.981     10.859
REMARK INTER + INTRA:          -4.272
REMARK INTER:                  -4.162
REMARK INTRA:                  -0.110
REMARK UNBOUND:                -0.129
REMARK SMILES CCCCCC(=O)[O-]
REMARK SMILES IDX 4 1 5 2 6 3 7 4 8 5 3 6 2 7 1 8
REMARK H PARENT
REMARK Flexibility Score: inf
ROOT
ATOM      1  C   UNL     1      46.038   8.059  19.286  1.00  0.00     0.006 C 
ENDROOT
BRANCH   1   2
ATOM      2  C   UNL     1      46.703   6.857  18.603  1.00  0.00     0.053 C 
BRANCH   2   3
ATOM      3  C   UNL     1      46.238   6.737  17.187  1.00  0.00     0.041 C 
ATOM      4  O   UNL     1      46.963   6.171  16.327  1.00  0.00    -0.550 OA
ATOM      5  O   UNL     1      44.981   7.208  16.826  1.00  0.00    -0.550 OA
ENDBRANCH   2   3
ENDBRANCH   1   2
BRANCH   1   6
ATOM      6  C   UNL     1      46.237   8.059  20.810  1.00  0.00     0.000 C 
BRANCH   6   7
ATOM      7  C   UNL     1      47.187   6.949  21.282  1.00  0.00    -0.003 C 
ATOM      8  C   UNL     1      48.099   7.445  22.400  1.00  0.00     0.004 C 
ENDBRANCH   6   7
ENDBRANCH   1   6
TORSDOF 4
ENDMDL
MODEL 8
REMARK VINA RESULT:    -3.261     12.326     13.555
REMARK INTER + INTRA:          -4.153
REMARK INTER:                  -3.908
REMARK INTRA:                  -0.244
REMARK UNBOUND:                -0.129
REMARK SMILES CCCCCC(=O)[O-]
REMARK SMILES IDX 4 1 5 2 6 3 7 4 8 5 3 6 2 7 1 8
REMARK H PARENT
REMARK Flexibility Score: inf
ROOT
ATOM      1  C   UNL     1      46.672   9.311  22.935  1.00  0.00     0.006 C 
ENDROOT
BRANCH   1   2
ATOM      2  C   UNL     1      47.980   8.509  22.948  1.00  0.00     0.053 C 
BRANCH   2   3
ATOM      3  C   UNL     1      47.817   7.231  22.187  1.00  0.00     0.041 C 
ATOM      4  O   UNL     1      48.216   6.145  22.682  1.00  0.00    -0.550 OA
ATOM      5  O   UNL     1      47.178   7.234  20.954  1.00  0.00    -0.550 OA
ENDBRANCH   2   3
ENDBRANCH   1   2
BRANCH   1   6
ATOM      6  C   UNL     1      45.546   8.619  23.719  1.00  0.00     0.000 C 
BRANCH   6   7
ATOM      7  C   UNL     1      44.195   8.685  22.993  1.00  0.00    -0.003 C 
ATOM      8  C   UNL     1      44.359   9.213  21.571  1.00  0.00     0.004 C 
ENDBRANCH   6   7
ENDBRANCH   1   6
TORSDOF 4
ENDMDL
MODEL 9
REMARK VINA RESULT:    -3.222     10.054     11.117
REMARK INTER + INTRA:          -4.105
REMARK INTER:                  -3.974
REMARK INTRA:                  -0.131
REMARK UNBOUND:                -0.129
REMARK SMILES CCCCCC(=O)[O-]
REMARK SMILES IDX 4 1 5 2 6 3 7 4 8 5 3 6 2 7 1 8
REMARK H PARENT
REMARK Flexibility Score: inf
ROOT
ATOM      1  C   UNL     1      44.496   8.106  17.524  1.00  0.00     0.006 C 
ENDROOT
BRANCH   1   2
ATOM      2  C   UNL     1      45.885   8.405  18.104  1.00  0.00     0.053 C 
BRANCH   2   3
ATOM      3  C   UNL     1      46.508   7.154  18.637  1.00  0.00     0.041 C 
ATOM      4  O   UNL     1      46.791   6.206  17.859  1.00  0.00    -0.550 OA
ATOM      5  O   UNL     1      46.822   7.055  19.987  1.00  0.00    -0.550 OA
ENDBRANCH   2   3
ENDBRANCH   1   2
BRANCH   1   6
ATOM      6  C   UNL     1      44.480   8.124  15.987  1.00  0.00     0.000 C 
BRANCH   6   7
ATOM      7  C   UNL     1      44.300   6.724  15.383  1.00  0.00    -0.003 C 
ATOM      8  C   UNL     1      43.328   6.755  14.206  1.00  0.00     0.004 C 
ENDBRANCH   6   7
ENDBRANCH   1   6
TORSDOF 4
ENDMDL
