MODEL 1
REMARK VINA RESULT:    -4.371      0.000      0.000
REMARK INTER + INTRA:          -7.864
REMARK INTER:                  -6.670
REMARK INTRA:                  -1.194
REMARK UNBOUND:                -1.194
REMARK SMILES CCCCCCCCCCC(=O)[O-]
REMARK SMILES IDX 7 1 8 2 9 3 10 4 11 5 12 6 13 7 6 8 5 9 4 10 3 11 2 12 1 13
REMARK H PARENT
REMARK Flexibility Score: inf
ROOT
ATOM      1  C   UNL     1      19.211  16.412  46.508  1.00  0.00     0.000 C 
ENDROOT
BRANCH   1   2
ATOM      2  C   UNL     1      18.001  16.928  47.305  1.00  0.00     0.000 C 
BRANCH   2   3
ATOM      3  C   UNL     1      17.111  17.944  46.564  1.00  0.00     0.006 C 
BRANCH   3   4
ATOM      4  C   UNL     1      17.703  18.443  45.234  1.00  0.00     0.053 C 
BRANCH   4   5
ATOM      5  C   UNL     1      17.068  19.720  44.768  1.00  0.00     0.041 C 
ATOM      6  O   UNL     1      17.529  20.830  45.143  1.00  0.00    -0.550 OA
ATOM      7  O   UNL     1      15.994  19.686  43.888  1.00  0.00    -0.550 OA
ENDBRANCH   4   5
ENDBRANCH   3   4
ENDBRANCH   2   3
ENDBRANCH   1   2
BRANCH   1   8
ATOM      8  C   UNL     1      20.531  16.519  47.286  1.00  0.00     0.000 C 
BRANCH   8   9
ATOM      9  C   UNL     1      20.666  17.900  47.947  1.00  0.00    -0.000 C 
BRANCH   9  10
ATOM     10  C   UNL     1      20.992  19.013  46.938  1.00  0.00    -0.000 C 
BRANCH  10  11
ATOM     11  C   UNL     1      20.262  20.330  47.253  1.00  0.00    -0.000 C 
BRANCH  11  12
ATOM     12  C   UNL     1      19.337  20.210  48.475  1.00  0.00    -0.003 C 
ATOM     13  C   UNL     1      19.877  20.946  49.702  1.00  0.00     0.004 C 
ENDBRANCH  11  12
ENDBRANCH  10  11
ENDBRANCH   9  10
ENDBRANCH   8   9
ENDBRANCH   1   8
TORSDOF 9
ENDMDL
MODEL 2
REMARK VINA RESULT:    -4.347      1.282      3.321
REMARK INTER + INTRA:          -7.828
REMARK INTER:                  -6.650
REMARK INTRA:                  -1.178
REMARK UNBOUND:                -1.194
REMARK SMILES CCCCCCCCCCC(=O)[O-]
REMARK SMILES IDX 7 1 8 2 9 3 10 4 11 5 12 6 13 7 6 8 5 9 4 10 3 11 2 12 1 13
REMARK H PARENT
REMARK Flexibility Score: inf
ROOT
ATOM      1  C   UNL     1      20.081  20.209  48.612  1.00  0.00     0.000 C 
ENDROOT
BRANCH   1   2
ATOM      2  C   UNL     1      18.992  20.318  47.532  1.00  0.00     0.000 C 
BRANCH   2   3
ATOM      3  C   UNL     1      19.436  20.986  46.216  1.00  0.00     0.006 C 
BRANCH   3   4
ATOM      4  C   UNL     1      19.223  20.113  44.966  1.00  0.00     0.053 C 
BRANCH   4   5
ATOM      5  C   UNL     1      18.210  20.698  44.027  1.00  0.00     0.041 C 
ATOM      6  O   UNL     1      16.997  20.374  44.121  1.00  0.00    -0.550 OA
ATOM      7  O   UNL     1      18.598  21.631  43.074  1.00  0.00    -0.550 OA
ENDBRANCH   4   5
ENDBRANCH   3   4
ENDBRANCH   2   3
ENDBRANCH   1   2
BRANCH   1   8
ATOM      8  C   UNL     1      20.528  18.762  48.868  1.00  0.00     0.000 C 
BRANCH   8   9
ATOM      9  C   UNL     1      20.930  18.074  47.555  1.00  0.00    -0.000 C 
BRANCH   9  10
ATOM     10  C   UNL     1      20.304  16.678  47.398  1.00  0.00    -0.000 C 
BRANCH  10  11
ATOM     11  C   UNL     1      19.081  16.680  46.466  1.00  0.00    -0.000 C 
BRANCH  11  12
ATOM     12  C   UNL     1      17.760  16.858  47.230  1.00  0.00    -0.003 C 
ATOM     13  C   UNL     1      16.730  17.677  46.452  1.00  0.00     0.004 C 
ENDBRANCH  11  12
ENDBRANCH  10  11
ENDBRANCH   9  10
ENDBRANCH   8   9
ENDBRANCH   1   8
TORSDOF 9
ENDMDL
MODEL 3
REMARK VINA RESULT:    -4.331      1.945      3.160
REMARK INTER + INTRA:          -7.803
REMARK INTER:                  -6.497
REMARK INTRA:                  -1.306
REMARK UNBOUND:                -1.194
REMARK SMILES CCCCCCCCCCC(=O)[O-]
REMARK SMILES IDX 7 1 8 2 9 3 10 4 11 5 12 6 13 7 6 8 5 9 4 10 3 11 2 12 1 13
REMARK H PARENT
REMARK Flexibility Score: inf
ROOT
ATOM      1  C   UNL     1      21.009  18.014  47.477  1.00  0.00     0.000 C 
ENDROOT
BRANCH   1   2
ATOM      2  C   UNL     1      20.295  16.673  47.240  1.00  0.00     0.000 C 
BRANCH   2   3
ATOM      3  C   UNL     1      18.955  16.766  46.485  1.00  0.00     0.006 C 
BRANCH   3   4
ATOM      4  C   UNL     1      17.742  17.040  47.392  1.00  0.00     0.053 C 
BRANCH   4   5
ATOM      5  C   UNL     1      16.438  16.792  46.694  1.00  0.00     0.041 C 
ATOM      6  O   UNL     1      15.936  17.680  45.955  1.00  0.00    -0.550 OA
ATOM      7  O   UNL     1      15.797  15.567  46.824  1.00  0.00    -0.550 OA
ENDBRANCH   4   5
ENDBRANCH   3   4
ENDBRANCH   2   3
ENDBRANCH   1   2
BRANCH   1   8
ATOM      8  C   UNL     1      20.749  18.594  48.875  1.00  0.00     0.000 C 
BRANCH   8   9
ATOM      9  C   UNL     1      20.006  19.935  48.782  1.00  0.00    -0.000 C 
BRANCH   9  10
ATOM     10  C   UNL     1      19.992  20.509  47.355  1.00  0.00    -0.000 C 
BRANCH  10  11
ATOM     11  C   UNL     1      18.595  20.985  46.923  1.00  0.00    -0.000 C 
BRANCH  11  12
ATOM     12  C   UNL     1      18.141  20.347  45.600  1.00  0.00    -0.003 C 
ATOM     13  C   UNL     1      19.311  19.945  44.703  1.00  0.00     0.004 C 
ENDBRANCH  11  12
ENDBRANCH  10  11
ENDBRANCH   9  10
ENDBRANCH   8   9
ENDBRANCH   1   8
TORSDOF 9
ENDMDL
MODEL 4
REMARK VINA RESULT:    -4.302      1.016      1.955
REMARK INTER + INTRA:          -7.759
REMARK INTER:                  -6.453
REMARK INTRA:                  -1.306
REMARK UNBOUND:                -1.194
REMARK SMILES CCCCCCCCCCC(=O)[O-]
REMARK SMILES IDX 7 1 8 2 9 3 10 4 11 5 12 6 13 7 6 8 5 9 4 10 3 11 2 12 1 13
REMARK H PARENT
REMARK Flexibility Score: inf
ROOT
ATOM      1  C   UNL     1      17.793  17.201  47.141  1.00  0.00     0.000 C 
ENDROOT
BRANCH   1   2
ATOM      2  C   UNL     1      17.284  18.419  46.352  1.00  0.00     0.000 C 
BRANCH   2   3
ATOM      3  C   UNL     1      17.710  18.467  44.872  1.00  0.00     0.006 C 
BRANCH   3   4
ATOM      4  C   UNL     1      18.301  19.818  44.432  1.00  0.00     0.053 C 
BRANCH   4   5
ATOM      5  C   UNL     1      17.388  20.968  44.734  1.00  0.00     0.041 C 
ATOM      6  O   UNL     1      17.782  21.917  45.461  1.00  0.00    -0.550 OA
ATOM      7  O   UNL     1      16.115  21.014  44.179  1.00  0.00    -0.550 OA
ENDBRANCH   4   5
ENDBRANCH   3   4
ENDBRANCH   2   3
ENDBRANCH   1   2
BRANCH   1   8
ATOM      8  C   UNL     1      18.648  16.250  46.290  1.00  0.00     0.000 C 
BRANCH   8   9
ATOM      9  C   UNL     1      20.060  16.110  46.878  1.00  0.00    -0.000 C 
BRANCH   9  10
ATOM     10  C   UNL     1      20.343  17.127  47.996  1.00  0.00    -0.000 C 
BRANCH  10  11
ATOM     11  C   UNL     1      21.457  18.120  47.625  1.00  0.00    -0.000 C 
BRANCH  11  12
ATOM     12  C   UNL     1      20.936  19.308  46.802  1.00  0.00    -0.003 C 
ATOM     13  C   UNL     1      20.141  20.308  47.641  1.00  0.00     0.004 C 
ENDBRANCH  11  12
ENDBRANCH  10  11
ENDBRANCH   9  10
ENDBRANCH   8   9
ENDBRANCH   1   8
TORSDOF 9
ENDMDL
MODEL 5
REMARK VINA RESULT:    -4.300      1.138      1.757
REMARK INTER + INTRA:          -7.756
REMARK INTER:                  -6.702
REMARK INTRA:                  -1.054
REMARK UNBOUND:                -1.194
REMARK SMILES CCCCCCCCCCC(=O)[O-]
REMARK SMILES IDX 7 1 8 2 9 3 10 4 11 5 12 6 13 7 6 8 5 9 4 10 3 11 2 12 1 13
REMARK H PARENT
REMARK Flexibility Score: inf
ROOT
ATOM      1  C   UNL     1      17.944  17.434  47.090  1.00  0.00     0.000 C 
ENDROOT
BRANCH   1   2
ATOM      2  C   UNL     1      17.487  18.582  46.173  1.00  0.00     0.000 C 
BRANCH   2   3
ATOM      3  C   UNL     1      18.429  18.897  44.996  1.00  0.00     0.006 C 
BRANCH   3   4
ATOM      4  C   UNL     1      19.012  20.321  45.023  1.00  0.00     0.053 C 
BRANCH   4   5
ATOM      5  C   UNL     1      17.960  21.366  45.249  1.00  0.00     0.041 C 
ATOM      6  O   UNL     1      17.994  22.088  46.280  1.00  0.00    -0.550 OA
ATOM      7  O   UNL     1      16.965  21.572  44.301  1.00  0.00    -0.550 OA
ENDBRANCH   4   5
ENDBRANCH   3   4
ENDBRANCH   2   3
ENDBRANCH   1   2
BRANCH   1   8
ATOM      8  C   UNL     1      19.103  16.619  46.497  1.00  0.00     0.000 C 
BRANCH   8   9
ATOM      9  C   UNL     1      20.338  16.682  47.409  1.00  0.00    -0.000 C 
BRANCH   9  10
ATOM     10  C   UNL     1      20.957  18.088  47.476  1.00  0.00    -0.000 C 
BRANCH  10  11
ATOM     11  C   UNL     1      20.660  18.802  48.806  1.00  0.00    -0.000 C 
BRANCH  11  12
ATOM     12  C   UNL     1      19.926  20.137  48.605  1.00  0.00    -0.003 C 
ATOM     13  C   UNL     1      19.899  20.995  49.870  1.00  0.00     0.004 C 
ENDBRANCH  11  12
ENDBRANCH  10  11
ENDBRANCH   9  10
ENDBRANCH   8   9
ENDBRANCH   1   8
TORSDOF 9
ENDMDL
MODEL 6
REMARK VINA RESULT:    -4.251      1.389      3.526
REMARK INTER + INTRA:          -7.682
REMARK INTER:                  -6.563
REMARK INTRA:                  -1.119
REMARK UNBOUND:                -1.194
REMARK SMILES CCCCCCCCCCC(=O)[O-]
REMARK SMILES IDX 7 1 8 2 9 3 10 4 11 5 12 6 13 7 6 8 5 9 4 10 3 11 2 12 1 13
REMARK H PARENT
REMARK Flexibility Score: inf
ROOT
ATOM      1  C   UNL     1      20.984  18.215  49.054  1.00  0.00     0.000 C 
ENDROOT
BRANCH   1   2
ATOM      2  C   UNL     1      20.241  19.560  49.126  1.00  0.00     0.000 C 
BRANCH   2   3
ATOM      3  C   UNL     1      20.185  20.351  47.805  1.00  0.00     0.006 C 
BRANCH   3   4
ATOM      4  C   UNL     1      18.761  20.732  47.362  1.00  0.00     0.053 C 
BRANCH   4   5
ATOM      5  C   UNL     1      18.710  21.192  45.935  1.00  0.00     0.041 C 
ATOM      6  O   UNL     1      19.451  20.656  45.070  1.00  0.00    -0.550 OA
ATOM      7  O   UNL     1      17.814  22.182  45.552  1.00  0.00    -0.550 OA
ENDBRANCH   4   5
ENDBRANCH   3   4
ENDBRANCH   2   3
ENDBRANCH   1   2
BRANCH   1   8
ATOM      8  C   UNL     1      21.238  17.747  47.613  1.00  0.00     0.000 C 
BRANCH   8   9
ATOM      9  C   UNL     1      20.442  16.470  47.304  1.00  0.00    -0.000 C 
BRANCH   9  10
ATOM     10  C   UNL     1      19.165  16.746  46.493  1.00  0.00    -0.000 C 
BRANCH  10  11
ATOM     11  C   UNL     1      17.967  17.114  47.385  1.00  0.00    -0.000 C 
BRANCH  11  12
ATOM     12  C   UNL     1      16.748  17.577  46.570  1.00  0.00    -0.003 C 
ATOM     13  C   UNL     1      17.107  17.967  45.136  1.00  0.00     0.004 C 
ENDBRANCH  11  12
ENDBRANCH  10  11
ENDBRANCH   9  10
ENDBRANCH   8   9
ENDBRANCH   1   8
TORSDOF 9
ENDMDL
MODEL 7
REMARK VINA RESULT:    -4.246      1.523      3.292
REMARK INTER + INTRA:          -7.674
REMARK INTER:                  -6.539
REMARK INTRA:                  -1.135
REMARK UNBOUND:                -1.194
REMARK SMILES CCCCCCCCCCC(=O)[O-]
REMARK SMILES IDX 7 1 8 2 9 3 10 4 11 5 12 6 13 7 6 8 5 9 4 10 3 11 2 12 1 13
REMARK H PARENT
REMARK Flexibility Score: inf
ROOT
ATOM      1  C   UNL     1      20.149  20.432  46.942  1.00  0.00     0.000 C 
ENDROOT
BRANCH   1   2
ATOM      2  C   UNL     1      18.951  20.437  45.976  1.00  0.00     0.000 C 
BRANCH   2   3
ATOM      3  C   UNL     1      19.194  19.738  44.625  1.00  0.00     0.006 C 
BRANCH   3   4
ATOM      4  C   UNL     1      18.004  19.821  43.652  1.00  0.00     0.053 C 
BRANCH   4   5
ATOM      5  C   UNL     1      17.684  21.233  43.259  1.00  0.00     0.041 C 
ATOM      6  O   UNL     1      18.549  21.941  42.680  1.00  0.00    -0.550 OA
ATOM      7  O   UNL     1      16.417  21.753  43.493  1.00  0.00    -0.550 OA
ENDBRANCH   4   5
ENDBRANCH   3   4
ENDBRANCH   2   3
ENDBRANCH   1   2
BRANCH   1   8
ATOM      8  C   UNL     1      19.761  20.047  48.377  1.00  0.00     0.000 C 
BRANCH   8   9
ATOM      9  C   UNL     1      20.566  18.829  48.853  1.00  0.00    -0.000 C 
BRANCH   9  10
ATOM     10  C   UNL     1      21.139  18.002  47.690  1.00  0.00    -0.000 C 
BRANCH  10  11
ATOM     11  C   UNL     1      20.497  16.610  47.581  1.00  0.00    -0.000 C 
BRANCH  11  12
ATOM     12  C   UNL     1      19.375  16.560  46.532  1.00  0.00    -0.003 C 
ATOM     13  C   UNL     1      18.008  16.931  47.107  1.00  0.00     0.004 C 
ENDBRANCH  11  12
ENDBRANCH  10  11
ENDBRANCH   9  10
ENDBRANCH   8   9
ENDBRANCH   1   8
TORSDOF 9
ENDMDL
MODEL 8
REMARK VINA RESULT:    -4.133      3.324      4.580
REMARK INTER + INTRA:          -7.502
REMARK INTER:                  -6.212
REMARK INTRA:                  -1.289
REMARK UNBOUND:                -1.194
REMARK SMILES CCCCCCCCCCC(=O)[O-]
REMARK SMILES IDX 7 1 8 2 9 3 10 4 11 5 12 6 13 7 6 8 5 9 4 10 3 11 2 12 1 13
REMARK H PARENT
REMARK Flexibility Score: inf
ROOT
ATOM      1  C   UNL     1      17.409  17.336  46.350  1.00  0.00     0.000 C 
ENDROOT
BRANCH   1   2
ATOM      2  C   UNL     1      18.480  17.027  47.410  1.00  0.00     0.000 C 
BRANCH   2   3
ATOM      3  C   UNL     1      19.839  16.560  46.854  1.00  0.00     0.006 C 
BRANCH   3   4
ATOM      4  C   UNL     1      21.032  16.858  47.780  1.00  0.00     0.053 C 
BRANCH   4   5
ATOM      5  C   UNL     1      21.933  15.672  47.951  1.00  0.00     0.041 C 
ATOM      6  O   UNL     1      21.491  14.507  47.767  1.00  0.00    -0.550 OA
ATOM      7  O   UNL     1      23.272  15.852  48.273  1.00  0.00    -0.550 OA
ENDBRANCH   4   5
ENDBRANCH   3   4
ENDBRANCH   2   3
ENDBRANCH   1   2
BRANCH   1   8
ATOM      8  C   UNL     1      17.975  18.061  45.119  1.00  0.00     0.000 C 
BRANCH   8   9
ATOM      9  C   UNL     1      18.017  19.579  45.350  1.00  0.00    -0.000 C 
BRANCH   9  10
ATOM     10  C   UNL     1      19.430  20.165  45.202  1.00  0.00    -0.000 C 
BRANCH  10  11
ATOM     11  C   UNL     1      20.176  20.255  46.544  1.00  0.00    -0.000 C 
BRANCH  11  12
ATOM     12  C   UNL     1      19.241  20.595  47.715  1.00  0.00    -0.003 C 
ATOM     13  C   UNL     1      19.836  20.229  49.075  1.00  0.00     0.004 C 
ENDBRANCH  11  12
ENDBRANCH  10  11
ENDBRANCH   9  10
ENDBRANCH   8   9
ENDBRANCH   1   8
TORSDOF 9
ENDMDL
MODEL 9
REMARK VINA RESULT:    -4.086      3.936      5.767
REMARK INTER + INTRA:          -7.430
REMARK INTER:                  -6.432
REMARK INTRA:                  -0.997
REMARK UNBOUND:                -1.194
REMARK SMILES CCCCCCCCCCC(=O)[O-]
REMARK SMILES IDX 7 1 8 2 9 3 10 4 11 5 12 6 13 7 6 8 5 9 4 10 3 11 2 12 1 13
REMARK H PARENT
REMARK Flexibility Score: inf
ROOT
ATOM      1  C   UNL     1      21.251  19.075  46.827  1.00  0.00     0.000 C 
ENDROOT
BRANCH   1   2
ATOM      2  C   UNL     1      21.106  18.196  48.080  1.00  0.00     0.000 C 
BRANCH   2   3
ATOM      3  C   UNL     1      22.092  17.016  48.172  1.00  0.00     0.006 C 
BRANCH   3   4
ATOM      4  C   UNL     1      21.446  15.638  47.945  1.00  0.00     0.053 C 
BRANCH   4   5
ATOM      5  C   UNL     1      22.442  14.519  48.020  1.00  0.00     0.041 C 
ATOM      6  O   UNL     1      22.053  13.321  47.992  1.00  0.00    -0.550 OA
ATOM      7  O   UNL     1      23.801  14.797  48.078  1.00  0.00    -0.550 OA
ENDBRANCH   4   5
ENDBRANCH   3   4
ENDBRANCH   2   3
ENDBRANCH   1   2
BRANCH   1   8
ATOM      8  C   UNL     1      20.033  19.980  46.585  1.00  0.00     0.000 C 
BRANCH   8   9
ATOM      9  C   UNL     1      19.437  19.734  45.191  1.00  0.00    -0.000 C 
BRANCH   9  10
ATOM     10  C   UNL     1      18.294  18.705  45.206  1.00  0.00    -0.000 C 
BRANCH  10  11
ATOM     11  C   UNL     1      17.609  18.601  46.579  1.00  0.00    -0.000 C 
BRANCH  11  12
ATOM     12  C   UNL     1      17.633  17.171  47.141  1.00  0.00    -0.003 C 
ATOM     13  C   UNL     1      18.262  16.165  46.177  1.00  0.00     0.004 C 
ENDBRANCH  11  12
ENDBRANCH  10  11
ENDBRANCH   9  10
ENDBRANCH   8   9
ENDBRANCH   1   8
TORSDOF 9
ENDMDL
