MODEL 1
REMARK VINA RESULT:    -4.382      0.000      0.000
REMARK INTER + INTRA:         -16.116
REMARK INTER:                 -11.554
REMARK INTRA:                  -4.562
REMARK UNBOUND:                -4.562
REMARK SMILES CCCCCCCCCCCCCCCCCCCCCCCCCCCCCC(=O)[O-]
REMARK SMILES IDX 16 1 17 2 18 3 19 4 20 5 21 6 22 7 23 8 24 9 25 10 26 11
REMARK SMILES IDX 27 12 28 13 29 14 30 15 31 16 32 17 15 18 14 19 13 20 12 21
REMARK SMILES IDX 11 22 10 23 9 24 8 25 7 26 6 27 5 28 4 29 3 30 2 31 1 32
REMARK H PARENT
REMARK Flexibility Score: inf
ROOT
ATOM      1  C   UNL     1      64.211  29.379   9.892  1.00  0.00     0.000 C 
ENDROOT
BRANCH   1   2
ATOM      2  C   UNL     1      65.439  30.012   9.218  1.00  0.00     0.000 C 
BRANCH   2   3
ATOM      3  C   UNL     1      65.430  31.556   9.240  1.00  0.00     0.000 C 
BRANCH   3   4
ATOM      4  C   UNL     1      65.411  32.113  10.674  1.00  0.00     0.000 C 
BRANCH   4   5
ATOM      5  C   UNL     1      66.016  33.524  10.777  1.00  0.00     0.000 C 
BRANCH   5   6
ATOM      6  C   UNL     1      67.169  33.667  11.791  1.00  0.00     0.000 C 
BRANCH   6   7
ATOM      7  C   UNL     1      66.893  34.622  12.968  1.00  0.00     0.000 C 
BRANCH   7   8
ATOM      8  C   UNL     1      67.772  34.391  14.212  1.00  0.00     0.000 C 
BRANCH   8   9
ATOM      9  C   UNL     1      67.320  33.229  15.117  1.00  0.00     0.000 C 
BRANCH   9  10
ATOM     10  C   UNL     1      67.231  33.565  16.619  1.00  0.00     0.000 C 
BRANCH  10  11
ATOM     11  C   UNL     1      67.467  35.045  16.976  1.00  0.00     0.000 C 
BRANCH  11  12
ATOM     12  C   UNL     1      66.199  35.902  16.841  1.00  0.00     0.000 C 
BRANCH  12  13
ATOM     13  C   UNL     1      65.089  35.494  17.826  1.00  0.00     0.006 C 
BRANCH  13  14
ATOM     14  C   UNL     1      63.916  34.740  17.174  1.00  0.00     0.053 C 
BRANCH  14  15
ATOM     15  C   UNL     1      62.611  34.987  17.868  1.00  0.00     0.041 C 
ATOM     16  O   UNL     1      62.537  34.928  19.124  1.00  0.00    -0.550 OA
ATOM     17  O   UNL     1      61.466  35.246  17.124  1.00  0.00    -0.550 OA
ENDBRANCH  14  15
ENDBRANCH  13  14
ENDBRANCH  12  13
ENDBRANCH  11  12
ENDBRANCH  10  11
ENDBRANCH   9  10
ENDBRANCH   8   9
ENDBRANCH   7   8
ENDBRANCH   6   7
ENDBRANCH   5   6
ENDBRANCH   4   5
ENDBRANCH   3   4
ENDBRANCH   2   3
ENDBRANCH   1   2
BRANCH   1  18
ATOM     18  C   UNL     1      63.314  28.620   8.900  1.00  0.00     0.000 C 
BRANCH  18  19
ATOM     19  C   UNL     1      61.837  29.057   8.965  1.00  0.00     0.000 C 
BRANCH  19  20
ATOM     20  C   UNL     1      61.604  30.510   9.418  1.00  0.00     0.000 C 
BRANCH  20  21
ATOM     21  C   UNL     1      60.856  30.608  10.759  1.00  0.00     0.000 C 
BRANCH  21  22
ATOM     22  C   UNL     1      60.231  29.266  11.177  1.00  0.00     0.000 C 
BRANCH  22  23
ATOM     23  C   UNL     1      60.034  29.168  12.700  1.00  0.00     0.000 C 
BRANCH  23  24
ATOM     24  C   UNL     1      61.149  28.369  13.392  1.00  0.00    -0.000 C 
BRANCH  24  25
ATOM     25  C   UNL     1      62.210  29.276  14.042  1.00  0.00    -0.000 C 
BRANCH  25  26
ATOM     26  C   UNL     1      63.419  29.514  13.113  1.00  0.00    -0.000 C 
BRANCH  26  27
ATOM     27  C   UNL     1      64.397  30.585  13.637  1.00  0.00    -0.000 C 
BRANCH  27  28
ATOM     28  C   UNL     1      63.764  31.631  14.570  1.00  0.00    -0.000 C 
BRANCH  28  29
ATOM     29  C   UNL     1      63.846  33.059  14.003  1.00  0.00    -0.000 C 
BRANCH  29  30
ATOM     30  C   UNL     1      62.467  33.752  13.963  1.00  0.00    -0.000 C 
BRANCH  30  31
ATOM     31  C   UNL     1      61.335  32.845  13.451  1.00  0.00    -0.003 C 
ATOM     32  C   UNL     1      60.362  32.421  14.549  1.00  0.00     0.004 C 
ENDBRANCH  30  31
ENDBRANCH  29  30
ENDBRANCH  28  29
ENDBRANCH  27  28
ENDBRANCH  26  27
ENDBRANCH  25  26
ENDBRANCH  24  25
ENDBRANCH  23  24
ENDBRANCH  22  23
ENDBRANCH  21  22
ENDBRANCH  20  21
ENDBRANCH  19  20
ENDBRANCH  18  19
ENDBRANCH   1  18
TORSDOF 28
ENDMDL
MODEL 2
REMARK VINA RESULT:    -4.319      4.930      7.599
REMARK INTER + INTRA:         -15.950
REMARK INTER:                 -13.030
REMARK INTRA:                  -2.920
REMARK UNBOUND:                -4.562
REMARK SMILES CCCCCCCCCCCCCCCCCCCCCCCCCCCCCC(=O)[O-]
REMARK SMILES IDX 16 1 17 2 18 3 19 4 20 5 21 6 22 7 23 8 24 9 25 10 26 11
REMARK SMILES IDX 27 12 28 13 29 14 30 15 31 16 32 17 15 18 14 19 13 20 12 21
REMARK SMILES IDX 11 22 10 23 9 24 8 25 7 26 6 27 5 28 4 29 3 30 2 31 1 32
REMARK H PARENT
REMARK Flexibility Score: inf
ROOT
ATOM      1  C   UNL     1      61.816  34.573  16.809  1.00  0.00     0.000 C 
ENDROOT
BRANCH   1   2
ATOM      2  C   UNL     1      62.983  34.890  17.758  1.00  0.00     0.000 C 
BRANCH   2   3
ATOM      3  C   UNL     1      64.374  34.659  17.129  1.00  0.00     0.000 C 
BRANCH   3   4
ATOM      4  C   UNL     1      65.460  35.518  17.800  1.00  0.00     0.000 C 
BRANCH   4   5
ATOM      5  C   UNL     1      66.699  34.704  18.213  1.00  0.00     0.000 C 
BRANCH   5   6
ATOM      6  C   UNL     1      67.057  34.775  19.711  1.00  0.00     0.000 C 
BRANCH   6   7
ATOM      7  C   UNL     1      67.791  33.540  20.269  1.00  0.00     0.000 C 
BRANCH   7   8
ATOM      8  C   UNL     1      67.816  33.440  21.807  1.00  0.00     0.000 C 
BRANCH   8   9
ATOM      9  C   UNL     1      66.844  32.402  22.403  1.00  0.00     0.000 C 
BRANCH   9  10
ATOM     10  C   UNL     1      67.498  31.339  23.308  1.00  0.00     0.000 C 
BRANCH  10  11
ATOM     11  C   UNL     1      66.696  30.034  23.472  1.00  0.00     0.000 C 
BRANCH  11  12
ATOM     12  C   UNL     1      67.590  28.784  23.514  1.00  0.00     0.000 C 
BRANCH  12  13
ATOM     13  C   UNL     1      67.150  27.696  22.519  1.00  0.00     0.006 C 
BRANCH  13  14
ATOM     14  C   UNL     1      66.797  26.349  23.177  1.00  0.00     0.053 C 
BRANCH  14  15
ATOM     15  C   UNL     1      65.710  26.472  24.202  1.00  0.00     0.041 C 
ATOM     16  O   UNL     1      64.512  26.621  23.844  1.00  0.00    -0.550 OA
ATOM     17  O   UNL     1      66.026  26.459  25.555  1.00  0.00    -0.550 OA
ENDBRANCH  14  15
ENDBRANCH  13  14
ENDBRANCH  12  13
ENDBRANCH  11  12
ENDBRANCH  10  11
ENDBRANCH   9  10
ENDBRANCH   8   9
ENDBRANCH   7   8
ENDBRANCH   6   7
ENDBRANCH   5   6
ENDBRANCH   4   5
ENDBRANCH   3   4
ENDBRANCH   2   3
ENDBRANCH   1   2
BRANCH   1  18
ATOM     18  C   UNL     1      61.960  33.202  16.127  1.00  0.00     0.000 C 
BRANCH  18  19
ATOM     19  C   UNL     1      61.197  33.108  14.791  1.00  0.00     0.000 C 
BRANCH  19  20
ATOM     20  C   UNL     1      62.044  33.382  13.534  1.00  0.00     0.000 C 
BRANCH  20  21
ATOM     21  C   UNL     1      63.548  33.148  13.761  1.00  0.00     0.000 C 
BRANCH  21  22
ATOM     22  C   UNL     1      64.248  32.604  12.505  1.00  0.00     0.000 C 
BRANCH  22  23
ATOM     23  C   UNL     1      64.451  31.079  12.570  1.00  0.00     0.000 C 
BRANCH  23  24
ATOM     24  C   UNL     1      63.839  30.454  13.833  1.00  0.00    -0.000 C 
BRANCH  24  25
ATOM     25  C   UNL     1      63.080  29.148  13.537  1.00  0.00    -0.000 C 
BRANCH  25  26
ATOM     26  C   UNL     1      61.555  29.308  13.721  1.00  0.00    -0.000 C 
BRANCH  26  27
ATOM     27  C   UNL     1      60.866  30.031  12.547  1.00  0.00    -0.000 C 
BRANCH  27  28
ATOM     28  C   UNL     1      60.999  29.322  11.188  1.00  0.00    -0.000 C 
BRANCH  28  29
ATOM     29  C   UNL     1      61.095  30.308  10.011  1.00  0.00    -0.000 C 
BRANCH  29  30
ATOM     30  C   UNL     1      62.332  30.044   9.127  1.00  0.00    -0.000 C 
BRANCH  30  31
ATOM     31  C   UNL     1      63.377  29.127   9.785  1.00  0.00    -0.003 C 
ATOM     32  C   UNL     1      64.803  29.404   9.312  1.00  0.00     0.004 C 
ENDBRANCH  30  31
ENDBRANCH  29  30
ENDBRANCH  28  29
ENDBRANCH  27  28
ENDBRANCH  26  27
ENDBRANCH  25  26
ENDBRANCH  24  25
ENDBRANCH  23  24
ENDBRANCH  22  23
ENDBRANCH  21  22
ENDBRANCH  20  21
ENDBRANCH  19  20
ENDBRANCH  18  19
ENDBRANCH   1  18
TORSDOF 28
ENDMDL
MODEL 3
REMARK VINA RESULT:    -4.296      8.422     12.342
REMARK INTER + INTRA:         -15.891
REMARK INTER:                 -12.076
REMARK INTRA:                  -3.815
REMARK UNBOUND:                -4.562
REMARK SMILES CCCCCCCCCCCCCCCCCCCCCCCCCCCCCC(=O)[O-]
REMARK SMILES IDX 16 1 17 2 18 3 19 4 20 5 21 6 22 7 23 8 24 9 25 10 26 11
REMARK SMILES IDX 27 12 28 13 29 14 30 15 31 16 32 17 15 18 14 19 13 20 12 21
REMARK SMILES IDX 11 22 10 23 9 24 8 25 7 26 6 27 5 28 4 29 3 30 2 31 1 32
REMARK H PARENT
REMARK Flexibility Score: inf
ROOT
ATOM      1  C   UNL     1      63.139  28.671  24.510  1.00  0.00     0.000 C 
ENDROOT
BRANCH   1   2
ATOM      2  C   UNL     1      63.033  30.121  25.010  1.00  0.00     0.000 C 
BRANCH   2   3
ATOM      3  C   UNL     1      64.331  30.936  24.825  1.00  0.00     0.000 C 
BRANCH   3   4
ATOM      4  C   UNL     1      65.005  30.648  23.473  1.00  0.00     0.000 C 
BRANCH   4   5
ATOM      5  C   UNL     1      66.346  31.383  23.303  1.00  0.00     0.000 C 
BRANCH   5   6
ATOM      6  C   UNL     1      66.282  32.670  22.455  1.00  0.00     0.000 C 
BRANCH   6   7
ATOM      7  C   UNL     1      67.586  33.038  21.720  1.00  0.00     0.000 C 
BRANCH   7   8
ATOM      8  C   UNL     1      67.710  34.521  21.320  1.00  0.00     0.000 C 
BRANCH   8   9
ATOM      9  C   UNL     1      66.474  35.104  20.609  1.00  0.00     0.000 C 
BRANCH   9  10
ATOM     10  C   UNL     1      66.619  35.280  19.084  1.00  0.00     0.000 C 
BRANCH  10  11
ATOM     11  C   UNL     1      65.295  35.421  18.309  1.00  0.00     0.000 C 
BRANCH  11  12
ATOM     12  C   UNL     1      65.302  34.664  16.971  1.00  0.00     0.000 C 
BRANCH  12  13
ATOM     13  C   UNL     1      63.889  34.357  16.447  1.00  0.00     0.006 C 
BRANCH  13  14
ATOM     14  C   UNL     1      63.865  33.687  15.061  1.00  0.00     0.053 C 
BRANCH  14  15
ATOM     15  C   UNL     1      62.486  33.614  14.476  1.00  0.00     0.041 C 
ATOM     16  O   UNL     1      62.317  33.206  13.297  1.00  0.00    -0.550 OA
ATOM     17  O   UNL     1      61.392  34.033  15.222  1.00  0.00    -0.550 OA
ENDBRANCH  14  15
ENDBRANCH  13  14
ENDBRANCH  12  13
ENDBRANCH  11  12
ENDBRANCH  10  11
ENDBRANCH   9  10
ENDBRANCH   8   9
ENDBRANCH   7   8
ENDBRANCH   6   7
ENDBRANCH   5   6
ENDBRANCH   4   5
ENDBRANCH   3   4
ENDBRANCH   2   3
ENDBRANCH   1   2
BRANCH   1  18
ATOM     18  C   UNL     1      62.437  27.668  25.441  1.00  0.00     0.000 C 
BRANCH  18  19
ATOM     19  C   UNL     1      61.548  28.346  26.501  1.00  0.00     0.000 C 
BRANCH  19  20
ATOM     20  C   UNL     1      61.670  27.770  27.924  1.00  0.00     0.000 C 
BRANCH  20  21
ATOM     21  C   UNL     1      62.145  28.810  28.954  1.00  0.00     0.000 C 
BRANCH  21  22
ATOM     22  C   UNL     1      63.581  29.287  28.680  1.00  0.00     0.000 C 
BRANCH  22  23
ATOM     23  C   UNL     1      63.667  30.818  28.548  1.00  0.00     0.000 C 
BRANCH  23  24
ATOM     24  C   UNL     1      65.116  31.327  28.487  1.00  0.00    -0.000 C 
BRANCH  24  25
ATOM     25  C   UNL     1      66.137  30.184  28.338  1.00  0.00    -0.000 C 
BRANCH  25  26
ATOM     26  C   UNL     1      67.116  30.430  27.170  1.00  0.00    -0.000 C 
BRANCH  26  27
ATOM     27  C   UNL     1      67.252  29.226  26.217  1.00  0.00    -0.000 C 
BRANCH  27  28
ATOM     28  C   UNL     1      66.098  28.212  26.294  1.00  0.00    -0.000 C 
BRANCH  28  29
ATOM     29  C   UNL     1      66.287  27.023  25.335  1.00  0.00    -0.000 C 
BRANCH  29  30
ATOM     30  C   UNL     1      66.778  27.470  23.941  1.00  0.00    -0.000 C 
BRANCH  30  31
ATOM     31  C   UNL     1      66.453  26.467  22.821  1.00  0.00    -0.003 C 
ATOM     32  C   UNL     1      67.026  26.875  21.465  1.00  0.00     0.004 C 
ENDBRANCH  30  31
ENDBRANCH  29  30
ENDBRANCH  28  29
ENDBRANCH  27  28
ENDBRANCH  26  27
ENDBRANCH  25  26
ENDBRANCH  24  25
ENDBRANCH  23  24
ENDBRANCH  22  23
ENDBRANCH  21  22
ENDBRANCH  20  21
ENDBRANCH  19  20
ENDBRANCH  18  19
ENDBRANCH   1  18
TORSDOF 28
ENDMDL
MODEL 4
REMARK VINA RESULT:    -4.203      8.518     12.636
REMARK INTER + INTRA:         -15.646
REMARK INTER:                 -11.562
REMARK INTRA:                  -4.084
REMARK UNBOUND:                -4.562
REMARK SMILES CCCCCCCCCCCCCCCCCCCCCCCCCCCCCC(=O)[O-]
REMARK SMILES IDX 16 1 17 2 18 3 19 4 20 5 21 6 22 7 23 8 24 9 25 10 26 11
REMARK SMILES IDX 27 12 28 13 29 14 30 15 31 16 32 17 15 18 14 19 13 20 12 21
REMARK SMILES IDX 11 22 10 23 9 24 8 25 7 26 6 27 5 28 4 29 3 30 2 31 1 32
REMARK H PARENT
REMARK Flexibility Score: inf
ROOT
ATOM      1  C   UNL     1      61.737  29.131  25.164  1.00  0.00     0.000 C 
ENDROOT
BRANCH   1   2
ATOM      2  C   UNL     1      61.217  28.069  26.146  1.00  0.00     0.000 C 
BRANCH   2   3
ATOM      3  C   UNL     1      62.276  27.595  27.164  1.00  0.00     0.000 C 
BRANCH   3   4
ATOM      4  C   UNL     1      62.018  28.163  28.570  1.00  0.00     0.000 C 
BRANCH   4   5
ATOM      5  C   UNL     1      63.195  29.000  29.104  1.00  0.00     0.000 C 
BRANCH   5   6
ATOM      6  C   UNL     1      63.271  30.441  28.561  1.00  0.00     0.000 C 
BRANCH   6   7
ATOM      7  C   UNL     1      64.639  30.854  27.985  1.00  0.00     0.000 C 
BRANCH   7   8
ATOM      8  C   UNL     1      65.622  29.690  27.747  1.00  0.00     0.000 C 
BRANCH   8   9
ATOM      9  C   UNL     1      66.821  30.032  26.842  1.00  0.00     0.000 C 
BRANCH   9  10
ATOM     10  C   UNL     1      67.218  28.931  25.838  1.00  0.00     0.000 C 
BRANCH  10  11
ATOM     11  C   UNL     1      66.244  27.741  25.749  1.00  0.00     0.000 C 
BRANCH  11  12
ATOM     12  C   UNL     1      66.409  26.928  24.455  1.00  0.00     0.000 C 
BRANCH  12  13
ATOM     13  C   UNL     1      67.355  27.597  23.442  1.00  0.00     0.006 C 
BRANCH  13  14
ATOM     14  C   UNL     1      66.787  27.683  22.014  1.00  0.00     0.053 C 
BRANCH  14  15
ATOM     15  C   UNL     1      67.207  26.530  21.152  1.00  0.00     0.041 C 
ATOM     16  O   UNL     1      67.367  25.387  21.655  1.00  0.00    -0.550 OA
ATOM     17  O   UNL     1      67.458  26.728  19.800  1.00  0.00    -0.550 OA
ENDBRANCH  14  15
ENDBRANCH  13  14
ENDBRANCH  12  13
ENDBRANCH  11  12
ENDBRANCH  10  11
ENDBRANCH   9  10
ENDBRANCH   8   9
ENDBRANCH   7   8
ENDBRANCH   6   7
ENDBRANCH   5   6
ENDBRANCH   4   5
ENDBRANCH   3   4
ENDBRANCH   2   3
ENDBRANCH   1   2
BRANCH   1  18
ATOM     18  C   UNL     1      63.250  29.020  24.913  1.00  0.00     0.000 C 
BRANCH  18  19
ATOM     19  C   UNL     1      63.908  30.372  24.575  1.00  0.00     0.000 C 
BRANCH  19  20
ATOM     20  C   UNL     1      64.903  30.340  23.400  1.00  0.00     0.000 C 
BRANCH  20  21
ATOM     21  C   UNL     1      65.713  31.641  23.264  1.00  0.00     0.000 C 
BRANCH  21  22
ATOM     22  C   UNL     1      67.218  31.375  23.097  1.00  0.00     0.000 C 
BRANCH  22  23
ATOM     23  C   UNL     1      67.770  31.970  21.789  1.00  0.00     0.000 C 
BRANCH  23  24
ATOM     24  C   UNL     1      67.503  33.478  21.666  1.00  0.00    -0.000 C 
BRANCH  24  25
ATOM     25  C   UNL     1      67.803  34.018  20.255  1.00  0.00    -0.000 C 
BRANCH  25  26
ATOM     26  C   UNL     1      67.045  35.330  19.962  1.00  0.00    -0.000 C 
BRANCH  26  27
ATOM     27  C   UNL     1      66.345  35.342  18.588  1.00  0.00    -0.000 C 
BRANCH  27  28
ATOM     28  C   UNL     1      66.769  34.208  17.640  1.00  0.00    -0.000 C 
BRANCH  28  29
ATOM     29  C   UNL     1      65.771  33.991  16.490  1.00  0.00    -0.000 C 
BRANCH  29  30
ATOM     30  C   UNL     1      64.496  34.846  16.653  1.00  0.00    -0.000 C 
BRANCH  30  31
ATOM     31  C   UNL     1      63.222  34.018  16.888  1.00  0.00    -0.003 C 
ATOM     32  C   UNL     1      62.254  34.670  17.874  1.00  0.00     0.004 C 
ENDBRANCH  30  31
ENDBRANCH  29  30
ENDBRANCH  28  29
ENDBRANCH  27  28
ENDBRANCH  26  27
ENDBRANCH  25  26
ENDBRANCH  24  25
ENDBRANCH  23  24
ENDBRANCH  22  23
ENDBRANCH  21  22
ENDBRANCH  20  21
ENDBRANCH  19  20
ENDBRANCH  18  19
ENDBRANCH   1  18
TORSDOF 28
ENDMDL
MODEL 5
REMARK VINA RESULT:    -4.202      3.196      5.360
REMARK INTER + INTRA:         -15.644
REMARK INTER:                 -11.861
REMARK INTRA:                  -3.783
REMARK UNBOUND:                -4.562
REMARK SMILES CCCCCCCCCCCCCCCCCCCCCCCCCCCCCC(=O)[O-]
REMARK SMILES IDX 16 1 17 2 18 3 19 4 20 5 21 6 22 7 23 8 24 9 25 10 26 11
REMARK SMILES IDX 27 12 28 13 29 14 30 15 31 16 32 17 15 18 14 19 13 20 12 21
REMARK SMILES IDX 11 22 10 23 9 24 8 25 7 26 6 27 5 28 4 29 3 30 2 31 1 32
REMARK H PARENT
REMARK Flexibility Score: inf
ROOT
ATOM      1  C   UNL     1      63.528  30.620  14.540  1.00  0.00     0.000 C 
ENDROOT
BRANCH   1   2
ATOM      2  C   UNL     1      62.383  31.410  15.195  1.00  0.00     0.000 C 
BRANCH   2   3
ATOM      3  C   UNL     1      62.196  32.827  14.612  1.00  0.00     0.000 C 
BRANCH   3   4
ATOM      4  C   UNL     1      62.315  33.916  15.692  1.00  0.00     0.000 C 
BRANCH   4   5
ATOM      5  C   UNL     1      63.639  33.843  16.473  1.00  0.00     0.000 C 
BRANCH   5   6
ATOM      6  C   UNL     1      63.816  34.922  17.560  1.00  0.00     0.000 C 
BRANCH   6   7
ATOM      7  C   UNL     1      65.157  35.680  17.520  1.00  0.00     0.000 C 
BRANCH   7   8
ATOM      8  C   UNL     1      66.293  35.035  18.337  1.00  0.00     0.000 C 
BRANCH   8   9
ATOM      9  C   UNL     1      66.238  35.311  19.851  1.00  0.00     0.000 C 
BRANCH   9  10
ATOM     10  C   UNL     1      67.385  34.687  20.672  1.00  0.00     0.000 C 
BRANCH  10  11
ATOM     11  C   UNL     1      67.940  33.359  20.123  1.00  0.00     0.000 C 
BRANCH  11  12
ATOM     12  C   UNL     1      67.814  32.200  21.124  1.00  0.00     0.000 C 
BRANCH  12  13
ATOM     13  C   UNL     1      67.309  32.650  22.506  1.00  0.00     0.006 C 
BRANCH  13  14
ATOM     14  C   UNL     1      65.913  32.113  22.870  1.00  0.00     0.053 C 
BRANCH  14  15
ATOM     15  C   UNL     1      65.967  30.805  23.600  1.00  0.00     0.041 C 
ATOM     16  O   UNL     1      66.815  30.621  24.513  1.00  0.00    -0.550 OA
ATOM     17  O   UNL     1      65.105  29.774  23.245  1.00  0.00    -0.550 OA
ENDBRANCH  14  15
ENDBRANCH  13  14
ENDBRANCH  12  13
ENDBRANCH  11  12
ENDBRANCH  10  11
ENDBRANCH   9  10
ENDBRANCH   8   9
ENDBRANCH   7   8
ENDBRANCH   6   7
ENDBRANCH   5   6
ENDBRANCH   4   5
ENDBRANCH   3   4
ENDBRANCH   2   3
ENDBRANCH   1   2
BRANCH   1  18
ATOM     18  C   UNL     1      63.026  29.445  13.684  1.00  0.00     0.000 C 
BRANCH  18  19
ATOM     19  C   UNL     1      61.509  29.206  13.815  1.00  0.00     0.000 C 
BRANCH  19  20
ATOM     20  C   UNL     1      60.715  29.304  12.500  1.00  0.00     0.000 C 
BRANCH  20  21
ATOM     21  C   UNL     1      61.040  30.575  11.695  1.00  0.00     0.000 C 
BRANCH  21  22
ATOM     22  C   UNL     1      61.300  30.273  10.210  1.00  0.00     0.000 C 
BRANCH  22  23
ATOM     23  C   UNL     1      61.956  28.896  10.006  1.00  0.00     0.000 C 
BRANCH  23  24
ATOM     24  C   UNL     1      63.314  28.987   9.292  1.00  0.00    -0.000 C 
BRANCH  24  25
ATOM     25  C   UNL     1      64.375  29.721  10.133  1.00  0.00    -0.000 C 
BRANCH  25  26
ATOM     26  C   UNL     1      64.834  31.037   9.468  1.00  0.00    -0.000 C 
BRANCH  26  27
ATOM     27  C   UNL     1      65.525  32.011  10.443  1.00  0.00    -0.000 C 
BRANCH  27  28
ATOM     28  C   UNL     1      64.825  32.160  11.805  1.00  0.00    -0.000 C 
BRANCH  28  29
ATOM     29  C   UNL     1      65.176  33.482  12.511  1.00  0.00    -0.000 C 
BRANCH  29  30
ATOM     30  C   UNL     1      65.915  33.252  13.847  1.00  0.00    -0.000 C 
BRANCH  30  31
ATOM     31  C   UNL     1      66.738  34.465  14.313  1.00  0.00    -0.003 C 
ATOM     32  C   UNL     1      67.081  35.430  13.180  1.00  0.00     0.004 C 
ENDBRANCH  30  31
ENDBRANCH  29  30
ENDBRANCH  28  29
ENDBRANCH  27  28
ENDBRANCH  26  27
ENDBRANCH  25  26
ENDBRANCH  24  25
ENDBRANCH  23  24
ENDBRANCH  22  23
ENDBRANCH  21  22
ENDBRANCH  20  21
ENDBRANCH  19  20
ENDBRANCH  18  19
ENDBRANCH   1  18
TORSDOF 28
ENDMDL
MODEL 6
REMARK VINA RESULT:    -4.161      5.082      7.670
REMARK INTER + INTRA:         -15.535
REMARK INTER:                 -12.659
REMARK INTRA:                  -2.876
REMARK UNBOUND:                -4.562
REMARK SMILES CCCCCCCCCCCCCCCCCCCCCCCCCCCCCC(=O)[O-]
REMARK SMILES IDX 16 1 17 2 18 3 19 4 20 5 21 6 22 7 23 8 24 9 25 10 26 11
REMARK SMILES IDX 27 12 28 13 29 14 30 15 31 16 32 17 15 18 14 19 13 20 12 21
REMARK SMILES IDX 11 22 10 23 9 24 8 25 7 26 6 27 5 28 4 29 3 30 2 31 1 32
REMARK H PARENT
REMARK Flexibility Score: inf
ROOT
ATOM      1  C   UNL     1      62.150  34.551  16.795  1.00  0.00     0.000 C 
ENDROOT
BRANCH   1   2
ATOM      2  C   UNL     1      63.166  34.978  17.867  1.00  0.00     0.000 C 
BRANCH   2   3
ATOM      3  C   UNL     1      64.632  34.681  17.485  1.00  0.00     0.000 C 
BRANCH   3   4
ATOM      4  C   UNL     1      65.625  35.489  18.338  1.00  0.00     0.000 C 
BRANCH   4   5
ATOM      5  C   UNL     1      66.781  34.632  18.885  1.00  0.00     0.000 C 
BRANCH   5   6
ATOM      6  C   UNL     1      66.781  34.433  20.414  1.00  0.00     0.000 C 
BRANCH   6   7
ATOM      7  C   UNL     1      67.704  33.313  20.930  1.00  0.00     0.000 C 
BRANCH   7   8
ATOM      8  C   UNL     1      67.436  32.867  22.381  1.00  0.00     0.000 C 
BRANCH   8   9
ATOM      9  C   UNL     1      65.964  32.534  22.693  1.00  0.00     0.000 C 
BRANCH   9  10
ATOM     10  C   UNL     1      65.689  31.061  23.056  1.00  0.00     0.000 C 
BRANCH  10  11
ATOM     11  C   UNL     1      64.976  30.840  24.404  1.00  0.00     0.000 C 
BRANCH  11  12
ATOM     12  C   UNL     1      64.667  29.360  24.680  1.00  0.00     0.000 C 
BRANCH  12  13
ATOM     13  C   UNL     1      63.245  28.953  24.258  1.00  0.00     0.006 C 
BRANCH  13  14
ATOM     14  C   UNL     1      62.197  29.075  25.380  1.00  0.00     0.053 C 
BRANCH  14  15
ATOM     15  C   UNL     1      61.872  27.756  26.015  1.00  0.00     0.041 C 
ATOM     16  O   UNL     1      62.700  27.199  26.783  1.00  0.00    -0.550 OA
ATOM     17  O   UNL     1      60.668  27.124  25.728  1.00  0.00    -0.550 OA
ENDBRANCH  14  15
ENDBRANCH  13  14
ENDBRANCH  12  13
ENDBRANCH  11  12
ENDBRANCH  10  11
ENDBRANCH   9  10
ENDBRANCH   8   9
ENDBRANCH   7   8
ENDBRANCH   6   7
ENDBRANCH   5   6
ENDBRANCH   4   5
ENDBRANCH   3   4
ENDBRANCH   2   3
ENDBRANCH   1   2
BRANCH   1  18
ATOM     18  C   UNL     1      62.696  33.460  15.860  1.00  0.00     0.000 C 
BRANCH  18  19
ATOM     19  C   UNL     1      61.616  32.855  14.941  1.00  0.00     0.000 C 
BRANCH  19  20
ATOM     20  C   UNL     1      61.818  33.113  13.436  1.00  0.00     0.000 C 
BRANCH  20  21
ATOM     21  C   UNL     1      63.302  33.177  13.032  1.00  0.00     0.000 C 
BRANCH  21  22
ATOM     22  C   UNL     1      63.850  31.802  12.615  1.00  0.00     0.000 C 
BRANCH  22  23
ATOM     23  C   UNL     1      64.756  31.188  13.697  1.00  0.00     0.000 C 
BRANCH  23  24
ATOM     24  C   UNL     1      64.332  29.763  14.085  1.00  0.00    -0.000 C 
BRANCH  24  25
ATOM     25  C   UNL     1      63.183  29.230  13.210  1.00  0.00    -0.000 C 
BRANCH  25  26
ATOM     26  C   UNL     1      61.810  29.383  13.899  1.00  0.00    -0.000 C 
BRANCH  26  27
ATOM     27  C   UNL     1      60.619  29.300  12.922  1.00  0.00    -0.000 C 
BRANCH  27  28
ATOM     28  C   UNL     1      61.010  29.097  11.448  1.00  0.00    -0.000 C 
BRANCH  28  29
ATOM     29  C   UNL     1      61.057  30.418  10.660  1.00  0.00    -0.000 C 
BRANCH  29  30
ATOM     30  C   UNL     1      61.887  30.296   9.364  1.00  0.00    -0.000 C 
BRANCH  30  31
ATOM     31  C   UNL     1      62.854  29.100   9.360  1.00  0.00    -0.003 C 
ATOM     32  C   UNL     1      64.289  29.487   9.714  1.00  0.00     0.004 C 
ENDBRANCH  30  31
ENDBRANCH  29  30
ENDBRANCH  28  29
ENDBRANCH  27  28
ENDBRANCH  26  27
ENDBRANCH  25  26
ENDBRANCH  24  25
ENDBRANCH  23  24
ENDBRANCH  22  23
ENDBRANCH  21  22
ENDBRANCH  20  21
ENDBRANCH  19  20
ENDBRANCH  18  19
ENDBRANCH   1  18
TORSDOF 28
ENDMDL
MODEL 7
REMARK VINA RESULT:    -4.156      7.274     11.282
REMARK INTER + INTRA:         -15.522
REMARK INTER:                 -12.344
REMARK INTRA:                  -3.178
REMARK UNBOUND:                -4.562
REMARK SMILES CCCCCCCCCCCCCCCCCCCCCCCCCCCCCC(=O)[O-]
REMARK SMILES IDX 16 1 17 2 18 3 19 4 20 5 21 6 22 7 23 8 24 9 25 10 26 11
REMARK SMILES IDX 27 12 28 13 29 14 30 15 31 16 32 17 15 18 14 19 13 20 12 21
REMARK SMILES IDX 11 22 10 23 9 24 8 25 7 26 6 27 5 28 4 29 3 30 2 31 1 32
REMARK H PARENT
REMARK Flexibility Score: inf
ROOT
ATOM      1  C   UNL     1      66.263  30.828  23.144  1.00  0.00     0.000 C 
ENDROOT
BRANCH   1   2
ATOM      2  C   UNL     1      66.367  32.314  22.764  1.00  0.00     0.000 C 
BRANCH   2   3
ATOM      3  C   UNL     1      67.778  32.739  22.304  1.00  0.00     0.000 C 
BRANCH   3   4
ATOM      4  C   UNL     1      67.758  33.395  20.912  1.00  0.00     0.000 C 
BRANCH   4   5
ATOM      5  C   UNL     1      67.504  34.912  20.969  1.00  0.00     0.000 C 
BRANCH   5   6
ATOM      6  C   UNL     1      66.233  35.389  20.238  1.00  0.00     0.000 C 
BRANCH   6   7
ATOM      7  C   UNL     1      66.434  35.787  18.763  1.00  0.00     0.000 C 
BRANCH   7   8
ATOM      8  C   UNL     1      65.148  35.811  17.915  1.00  0.00     0.000 C 
BRANCH   8   9
ATOM      9  C   UNL     1      64.970  34.602  16.976  1.00  0.00     0.000 C 
BRANCH   9  10
ATOM     10  C   UNL     1      63.509  34.254  16.627  1.00  0.00     0.000 C 
BRANCH  10  11
ATOM     11  C   UNL     1      63.274  33.775  15.182  1.00  0.00     0.000 C 
BRANCH  11  12
ATOM     12  C   UNL     1      61.785  33.712  14.807  1.00  0.00     0.000 C 
BRANCH  12  13
ATOM     13  C   UNL     1      61.551  33.306  13.342  1.00  0.00     0.006 C 
BRANCH  13  14
ATOM     14  C   UNL     1      60.922  31.911  13.169  1.00  0.00     0.053 C 
BRANCH  14  15
ATOM     15  C   UNL     1      61.931  30.806  13.254  1.00  0.00     0.041 C 
ATOM     16  O   UNL     1      61.925  30.013  14.232  1.00  0.00    -0.550 OA
ATOM     17  O   UNL     1      62.903  30.675  12.269  1.00  0.00    -0.550 OA
ENDBRANCH  14  15
ENDBRANCH  13  14
ENDBRANCH  12  13
ENDBRANCH  11  12
ENDBRANCH  10  11
ENDBRANCH   9  10
ENDBRANCH   8   9
ENDBRANCH   7   8
ENDBRANCH   6   7
ENDBRANCH   5   6
ENDBRANCH   4   5
ENDBRANCH   3   4
ENDBRANCH   2   3
ENDBRANCH   1   2
BRANCH   1  18
ATOM     18  C   UNL     1      67.637  30.149  23.275  1.00  0.00     0.000 C 
BRANCH  18  19
ATOM     19  C   UNL     1      67.836  29.443  24.630  1.00  0.00     0.000 C 
BRANCH  19  20
ATOM     20  C   UNL     1      67.268  30.192  25.848  1.00  0.00     0.000 C 
BRANCH  20  21
ATOM     21  C   UNL     1      66.347  29.316  26.716  1.00  0.00     0.000 C 
BRANCH  21  22
ATOM     22  C   UNL     1      65.503  30.150  27.694  1.00  0.00     0.000 C 
BRANCH  22  23
ATOM     23  C   UNL     1      64.276  30.780  27.009  1.00  0.00     0.000 C 
BRANCH  23  24
ATOM     24  C   UNL     1      63.270  29.729  26.515  1.00  0.00    -0.000 C 
BRANCH  24  25
ATOM     25  C   UNL     1      63.073  29.772  24.989  1.00  0.00    -0.000 C 
BRANCH  25  26
ATOM     26  C   UNL     1      63.656  28.524  24.292  1.00  0.00    -0.000 C 
BRANCH  26  27
ATOM     27  C   UNL     1      63.422  27.217  25.076  1.00  0.00    -0.000 C 
BRANCH  27  28
ATOM     28  C   UNL     1      64.368  26.064  24.699  1.00  0.00    -0.000 C 
BRANCH  28  29
ATOM     29  C   UNL     1      65.813  26.536  24.461  1.00  0.00    -0.000 C 
BRANCH  29  30
ATOM     30  C   UNL     1      66.369  26.056  23.103  1.00  0.00    -0.000 C 
BRANCH  30  31
ATOM     31  C   UNL     1      66.356  27.141  22.013  1.00  0.00    -0.003 C 
ATOM     32  C   UNL     1      67.287  26.827  20.842  1.00  0.00     0.004 C 
ENDBRANCH  30  31
ENDBRANCH  29  30
ENDBRANCH  28  29
ENDBRANCH  27  28
ENDBRANCH  26  27
ENDBRANCH  25  26
ENDBRANCH  24  25
ENDBRANCH  23  24
ENDBRANCH  22  23
ENDBRANCH  21  22
ENDBRANCH  20  21
ENDBRANCH  19  20
ENDBRANCH  18  19
ENDBRANCH   1  18
TORSDOF 28
ENDMDL
MODEL 8
REMARK VINA RESULT:    -4.143      3.944      6.114
REMARK INTER + INTRA:         -15.486
REMARK INTER:                 -12.206
REMARK INTRA:                  -3.280
REMARK UNBOUND:                -4.562
REMARK SMILES CCCCCCCCCCCCCCCCCCCCCCCCCCCCCC(=O)[O-]
REMARK SMILES IDX 16 1 17 2 18 3 19 4 20 5 21 6 22 7 23 8 24 9 25 10 26 11
REMARK SMILES IDX 27 12 28 13 29 14 30 15 31 16 32 17 15 18 14 19 13 20 12 21
REMARK SMILES IDX 11 22 10 23 9 24 8 25 7 26 6 27 5 28 4 29 3 30 2 31 1 32
REMARK H PARENT
REMARK Flexibility Score: inf
ROOT
ATOM      1  C   UNL     1      61.667  32.752  15.747  1.00  0.00     0.000 C 
ENDROOT
BRANCH   1   2
ATOM      2  C   UNL     1      61.965  34.258  15.676  1.00  0.00     0.000 C 
BRANCH   2   3
ATOM      3  C   UNL     1      61.852  34.977  17.037  1.00  0.00     0.000 C 
BRANCH   3   4
ATOM      4  C   UNL     1      63.075  34.713  17.932  1.00  0.00     0.000 C 
BRANCH   4   5
ATOM      5  C   UNL     1      64.406  34.773  17.161  1.00  0.00     0.000 C 
BRANCH   5   6
ATOM      6  C   UNL     1      65.526  35.576  17.855  1.00  0.00     0.000 C 
BRANCH   6   7
ATOM      7  C   UNL     1      66.757  34.751  18.280  1.00  0.00     0.000 C 
BRANCH   7   8
ATOM      8  C   UNL     1      67.033  34.732  19.796  1.00  0.00     0.000 C 
BRANCH   8   9
ATOM      9  C   UNL     1      67.717  33.452  20.312  1.00  0.00     0.000 C 
BRANCH   9  10
ATOM     10  C   UNL     1      67.679  33.261  21.842  1.00  0.00     0.000 C 
BRANCH  10  11
ATOM     11  C   UNL     1      66.330  32.779  22.410  1.00  0.00     0.000 C 
BRANCH  11  12
ATOM     12  C   UNL     1      66.447  31.461  23.191  1.00  0.00     0.000 C 
BRANCH  12  13
ATOM     13  C   UNL     1      65.085  30.796  23.456  1.00  0.00     0.006 C 
BRANCH  13  14
ATOM     14  C   UNL     1      64.698  30.730  24.945  1.00  0.00     0.053 C 
BRANCH  14  15
ATOM     15  C   UNL     1      63.471  29.903  25.189  1.00  0.00     0.041 C 
ATOM     16  O   UNL     1      62.818  30.034  26.258  1.00  0.00    -0.550 OA
ATOM     17  O   UNL     1      63.071  28.960  24.250  1.00  0.00    -0.550 OA
ENDBRANCH  14  15
ENDBRANCH  13  14
ENDBRANCH  12  13
ENDBRANCH  11  12
ENDBRANCH  10  11
ENDBRANCH   9  10
ENDBRANCH   8   9
ENDBRANCH   7   8
ENDBRANCH   6   7
ENDBRANCH   5   6
ENDBRANCH   4   5
ENDBRANCH   3   4
ENDBRANCH   2   3
ENDBRANCH   1   2
BRANCH   1  18
ATOM     18  C   UNL     1      60.611  32.305  14.722  1.00  0.00     0.000 C 
BRANCH  18  19
ATOM     19  C   UNL     1      61.005  32.630  13.268  1.00  0.00     0.000 C 
BRANCH  19  20
ATOM     20  C   UNL     1      61.179  31.408  12.348  1.00  0.00     0.000 C 
BRANCH  20  21
ATOM     21  C   UNL     1      61.027  30.070  13.092  1.00  0.00     0.000 C 
BRANCH  21  22
ATOM     22  C   UNL     1      60.877  28.882  12.128  1.00  0.00     0.000 C 
BRANCH  22  23
ATOM     23  C   UNL     1      60.735  29.338  10.665  1.00  0.00     0.000 C 
BRANCH  23  24
ATOM     24  C   UNL     1      61.744  28.653   9.730  1.00  0.00    -0.000 C 
BRANCH  24  25
ATOM     25  C   UNL     1      62.829  29.619   9.222  1.00  0.00    -0.000 C 
BRANCH  25  26
ATOM     26  C   UNL     1      64.216  29.303   9.822  1.00  0.00    -0.000 C 
BRANCH  26  27
ATOM     27  C   UNL     1      65.099  30.551  10.021  1.00  0.00    -0.000 C 
BRANCH  27  28
ATOM     28  C   UNL     1      64.698  31.439  11.211  1.00  0.00    -0.000 C 
BRANCH  28  29
ATOM     29  C   UNL     1      64.723  30.682  12.551  1.00  0.00    -0.000 C 
BRANCH  29  30
ATOM     30  C   UNL     1      64.542  31.625  13.759  1.00  0.00    -0.000 C 
BRANCH  30  31
ATOM     31  C   UNL     1      64.621  33.118  13.394  1.00  0.00    -0.003 C 
ATOM     32  C   UNL     1      65.897  33.792  13.897  1.00  0.00     0.004 C 
ENDBRANCH  30  31
ENDBRANCH  29  30
ENDBRANCH  28  29
ENDBRANCH  27  28
ENDBRANCH  26  27
ENDBRANCH  25  26
ENDBRANCH  24  25
ENDBRANCH  23  24
ENDBRANCH  22  23
ENDBRANCH  21  22
ENDBRANCH  20  21
ENDBRANCH  19  20
ENDBRANCH  18  19
ENDBRANCH   1  18
TORSDOF 28
ENDMDL
MODEL 9
REMARK VINA RESULT:    -4.067      7.804     11.835
REMARK INTER + INTRA:         -15.287
REMARK INTER:                 -12.293
REMARK INTRA:                  -2.994
REMARK UNBOUND:                -4.562
REMARK SMILES CCCCCCCCCCCCCCCCCCCCCCCCCCCCCC(=O)[O-]
REMARK SMILES IDX 16 1 17 2 18 3 19 4 20 5 21 6 22 7 23 8 24 9 25 10 26 11
REMARK SMILES IDX 27 12 28 13 29 14 30 15 31 16 32 17 15 18 14 19 13 20 12 21
REMARK SMILES IDX 11 22 10 23 9 24 8 25 7 26 6 27 5 28 4 29 3 30 2 31 1 32
REMARK H PARENT
REMARK Flexibility Score: inf
ROOT
ATOM      1  C   UNL     1      65.629  31.036  23.197  1.00  0.00     0.000 C 
ENDROOT
BRANCH   1   2
ATOM      2  C   UNL     1      65.868  32.474  22.710  1.00  0.00     0.000 C 
BRANCH   2   3
ATOM      3  C   UNL     1      67.340  32.769  22.348  1.00  0.00     0.000 C 
BRANCH   3   4
ATOM      4  C   UNL     1      67.469  33.453  20.976  1.00  0.00     0.000 C 
BRANCH   4   5
ATOM      5  C   UNL     1      67.174  34.962  21.028  1.00  0.00     0.000 C 
BRANCH   5   6
ATOM      6  C   UNL     1      66.207  35.476  19.943  1.00  0.00     0.000 C 
BRANCH   6   7
ATOM      7  C   UNL     1      66.355  34.808  18.562  1.00  0.00     0.000 C 
BRANCH   7   8
ATOM      8  C   UNL     1      65.450  35.390  17.459  1.00  0.00     0.000 C 
BRANCH   8   9
ATOM      9  C   UNL     1      63.948  35.095  17.631  1.00  0.00     0.000 C 
BRANCH   9  10
ATOM     10  C   UNL     1      63.366  34.067  16.640  1.00  0.00     0.000 C 
BRANCH  10  11
ATOM     11  C   UNL     1      61.931  34.356  16.161  1.00  0.00     0.000 C 
BRANCH  11  12
ATOM     12  C   UNL     1      61.674  33.881  14.722  1.00  0.00     0.000 C 
BRANCH  12  13
ATOM     13  C   UNL     1      60.843  32.588  14.655  1.00  0.00     0.006 C 
BRANCH  13  14
ATOM     14  C   UNL     1      61.671  31.323  14.363  1.00  0.00     0.053 C 
BRANCH  14  15
ATOM     15  C   UNL     1      61.488  30.821  12.963  1.00  0.00     0.041 C 
ATOM     16  O   UNL     1      62.140  31.331  12.014  1.00  0.00    -0.550 OA
ATOM     17  O   UNL     1      60.567  29.814  12.700  1.00  0.00    -0.550 OA
ENDBRANCH  14  15
ENDBRANCH  13  14
ENDBRANCH  12  13
ENDBRANCH  11  12
ENDBRANCH  10  11
ENDBRANCH   9  10
ENDBRANCH   8   9
ENDBRANCH   7   8
ENDBRANCH   6   7
ENDBRANCH   5   6
ENDBRANCH   4   5
ENDBRANCH   3   4
ENDBRANCH   2   3
ENDBRANCH   1   2
BRANCH   1  18
ATOM     18  C   UNL     1      66.927  30.218  23.299  1.00  0.00     0.000 C 
BRANCH  18  19
ATOM     19  C   UNL     1      67.298  29.853  24.750  1.00  0.00     0.000 C 
BRANCH  19  20
ATOM     20  C   UNL     1      66.206  30.138  25.797  1.00  0.00     0.000 C 
BRANCH  20  21
ATOM     21  C   UNL     1      66.705  29.982  27.244  1.00  0.00     0.000 C 
BRANCH  21  22
ATOM     22  C   UNL     1      65.643  30.400  28.274  1.00  0.00     0.000 C 
BRANCH  22  23
ATOM     23  C   UNL     1      64.359  30.919  27.603  1.00  0.00     0.000 C 
BRANCH  23  24
ATOM     24  C   UNL     1      63.084  30.452  28.323  1.00  0.00    -0.000 C 
BRANCH  24  25
ATOM     25  C   UNL     1      63.029  28.923  28.493  1.00  0.00    -0.000 C 
BRANCH  25  26
ATOM     26  C   UNL     1      61.676  28.336  28.035  1.00  0.00    -0.000 C 
BRANCH  26  27
ATOM     27  C   UNL     1      61.745  27.625  26.669  1.00  0.00    -0.000 C 
BRANCH  27  28
ATOM     28  C   UNL     1      61.708  28.565  25.452  1.00  0.00    -0.000 C 
BRANCH  28  29
ATOM     29  C   UNL     1      63.011  28.528  24.634  1.00  0.00    -0.000 C 
BRANCH  29  30
ATOM     30  C   UNL     1      64.048  27.553  25.231  1.00  0.00    -0.000 C 
BRANCH  30  31
ATOM     31  C   UNL     1      64.514  26.468  24.246  1.00  0.00    -0.003 C 
ATOM     32  C   UNL     1      66.034  26.380  24.123  1.00  0.00     0.004 C 
ENDBRANCH  30  31
ENDBRANCH  29  30
ENDBRANCH  28  29
ENDBRANCH  27  28
ENDBRANCH  26  27
ENDBRANCH  25  26
ENDBRANCH  24  25
ENDBRANCH  23  24
ENDBRANCH  22  23
ENDBRANCH  21  22
ENDBRANCH  20  21
ENDBRANCH  19  20
ENDBRANCH  18  19
ENDBRANCH   1  18
TORSDOF 28
ENDMDL
