MODEL 1
REMARK VINA RESULT:    -4.055      0.000      0.000
REMARK INTER + INTRA:          -4.481
REMARK INTER:                  -4.292
REMARK INTRA:                  -0.189
REMARK UNBOUND:                -0.189
REMARK SMILES CC1=CC[C@@H](C(C)C)C=C1
REMARK SMILES IDX 1 1 2 2 3 3 4 4 5 5 9 6 10 7 6 8 7 9 8 10
REMARK H PARENT
REMARK Flexibility Score: inf
ROOT
ATOM      1  C   UNL     1     147.167 148.446 130.474  1.00  0.00     0.044 C 
ATOM      2  C   UNL     1     146.524 147.256 131.120  1.00  0.00    -0.055 C 
ATOM      3  C   UNL     1     145.744 146.435 130.400  1.00  0.00    -0.023 C 
ATOM      4  C   UNL     1     145.153 145.198 131.025  1.00  0.00     0.035 C 
ATOM      5  C   UNL     1     144.764 145.461 132.498  1.00  0.00     0.018 C 
ATOM      6  C   UNL     1     145.896 146.162 133.224  1.00  0.00    -0.023 C 
ATOM      7  C   UNL     1     146.676 147.036 132.578  1.00  0.00    -0.001 C 
ENDROOT
BRANCH   5   8
ATOM      8  C   UNL     1     144.270 144.170 133.216  1.00  0.00    -0.010 C 
ATOM      9  C   UNL     1     143.749 143.090 132.250  1.00  0.00     0.008 C 
ATOM     10  C   UNL     1     145.360 143.583 134.125  1.00  0.00     0.008 C 
ENDBRANCH   5   8
TORSDOF 1
ENDMDL
MODEL 2
REMARK VINA RESULT:    -4.021      1.131      3.923
REMARK INTER + INTRA:          -4.445
REMARK INTER:                  -4.255
REMARK INTRA:                  -0.190
REMARK UNBOUND:                -0.189
REMARK SMILES CC1=CC[C@@H](C(C)C)C=C1
REMARK SMILES IDX 1 1 2 2 3 3 4 4 5 5 9 6 10 7 6 8 7 9 8 10
REMARK H PARENT
REMARK Flexibility Score: inf
ROOT
ATOM      1  C   UNL     1     143.507 142.334 130.559  1.00  0.00     0.044 C 
ATOM      2  C   UNL     1     144.166 143.529 131.180  1.00  0.00    -0.055 C 
ATOM      3  C   UNL     1     144.993 144.299 130.455  1.00  0.00    -0.023 C 
ATOM      4  C   UNL     1     145.600 145.541 131.052  1.00  0.00     0.035 C 
ATOM      5  C   UNL     1     145.935 145.324 132.546  1.00  0.00     0.018 C 
ATOM      6  C   UNL     1     144.760 144.685 133.261  1.00  0.00    -0.023 C 
ATOM      7  C   UNL     1     143.974 143.810 132.623  1.00  0.00    -0.001 C 
ENDROOT
BRANCH   5   8
ATOM      8  C   UNL     1     146.445 146.628 133.230  1.00  0.00    -0.010 C 
ATOM      9  C   UNL     1     146.977 147.676 132.236  1.00  0.00     0.008 C 
ATOM     10  C   UNL     1     145.362 147.250 134.124  1.00  0.00     0.008 C 
ENDBRANCH   5   8
TORSDOF 1
ENDMDL
MODEL 3
REMARK VINA RESULT:    -4.016      1.212      4.150
REMARK INTER + INTRA:          -4.440
REMARK INTER:                  -4.249
REMARK INTRA:                  -0.191
REMARK UNBOUND:                -0.189
REMARK SMILES CC1=CC[C@@H](C(C)C)C=C1
REMARK SMILES IDX 1 1 2 2 3 3 4 4 5 5 9 6 10 7 6 8 7 9 8 10
REMARK H PARENT
REMARK Flexibility Score: inf
ROOT
ATOM      1  C   UNL     1     143.584 142.361 130.657  1.00  0.00     0.044 C 
ATOM      2  C   UNL     1     144.190 143.606 131.234  1.00  0.00    -0.055 C 
ATOM      3  C   UNL     1     143.866 144.003 132.474  1.00  0.00    -0.023 C 
ATOM      4  C   UNL     1     144.524 145.211 133.086  1.00  0.00     0.035 C 
ATOM      5  C   UNL     1     144.771 146.301 132.017  1.00  0.00     0.018 C 
ATOM      6  C   UNL     1     145.399 145.691 130.780  1.00  0.00    -0.023 C 
ATOM      7  C   UNL     1     145.078 144.449 130.399  1.00  0.00    -0.001 C 
ENDROOT
BRANCH   5   8
ATOM      8  C   UNL     1     145.567 147.513 132.587  1.00  0.00    -0.010 C 
ATOM      9  C   UNL     1     145.716 147.488 134.119  1.00  0.00     0.008 C 
ATOM     10  C   UNL     1     146.948 147.636 131.925  1.00  0.00     0.008 C 
ENDBRANCH   5   8
TORSDOF 1
ENDMDL
MODEL 4
REMARK VINA RESULT:    -3.936      0.681      1.930
REMARK INTER + INTRA:          -4.355
REMARK INTER:                  -4.169
REMARK INTRA:                  -0.186
REMARK UNBOUND:                -0.189
REMARK SMILES CC1=CC[C@@H](C(C)C)C=C1
REMARK SMILES IDX 1 1 2 2 3 3 4 4 5 5 9 6 10 7 6 8 7 9 8 10
REMARK H PARENT
REMARK Flexibility Score: inf
ROOT
ATOM      1  C   UNL     1     147.253 148.566 130.373  1.00  0.00     0.044 C 
ATOM      2  C   UNL     1     146.495 147.573 131.203  1.00  0.00    -0.055 C 
ATOM      3  C   UNL     1     146.554 147.626 132.542  1.00  0.00    -0.023 C 
ATOM      4  C   UNL     1     145.739 146.677 133.381  1.00  0.00     0.035 C 
ATOM      5  C   UNL     1     145.658 145.285 132.712  1.00  0.00     0.018 C 
ATOM      6  C   UNL     1     145.309 145.427 131.244  1.00  0.00    -0.023 C 
ATOM      7  C   UNL     1     145.751 146.475 130.541  1.00  0.00    -0.001 C 
ENDROOT
BRANCH   5   8
ATOM      8  C   UNL     1     144.716 144.315 133.486  1.00  0.00    -0.010 C 
ATOM      9  C   UNL     1     143.502 145.014 134.125  1.00  0.00     0.008 C 
ATOM     10  C   UNL     1     144.248 143.158 132.590  1.00  0.00     0.008 C 
ENDBRANCH   5   8
TORSDOF 1
ENDMDL
MODEL 5
REMARK VINA RESULT:    -3.877     12.565     13.273
REMARK INTER + INTRA:          -4.292
REMARK INTER:                  -4.107
REMARK INTRA:                  -0.185
REMARK UNBOUND:                -0.189
REMARK SMILES CC1=CC[C@@H](C(C)C)C=C1
REMARK SMILES IDX 1 1 2 2 3 3 4 4 5 5 9 6 10 7 6 8 7 9 8 10
REMARK H PARENT
REMARK Flexibility Score: inf
ROOT
ATOM      1  C   UNL     1     136.113 140.590 125.704  1.00  0.00     0.044 C 
ATOM      2  C   UNL     1     135.977 139.478 126.701  1.00  0.00    -0.055 C 
ATOM      3  C   UNL     1     136.435 138.250 126.409  1.00  0.00    -0.023 C 
ATOM      4  C   UNL     1     136.367 137.147 127.432  1.00  0.00     0.035 C 
ATOM      5  C   UNL     1     135.075 137.258 128.274  1.00  0.00     0.018 C 
ATOM      6  C   UNL     1     134.875 138.686 128.744  1.00  0.00    -0.023 C 
ATOM      7  C   UNL     1     135.255 139.712 127.974  1.00  0.00    -0.001 C 
ENDROOT
BRANCH   5   8
ATOM      8  C   UNL     1     135.032 136.211 129.427  1.00  0.00    -0.010 C 
ATOM      9  C   UNL     1     135.710 134.876 129.072  1.00  0.00     0.008 C 
ATOM     10  C   UNL     1     135.633 136.781 130.721  1.00  0.00     0.008 C 
ENDBRANCH   5   8
TORSDOF 1
ENDMDL
MODEL 6
REMARK VINA RESULT:    -3.626      2.049      3.327
REMARK INTER + INTRA:          -4.027
REMARK INTER:                  -3.849
REMARK INTRA:                  -0.178
REMARK UNBOUND:                -0.189
REMARK SMILES CC1=CC[C@@H](C(C)C)C=C1
REMARK SMILES IDX 1 1 2 2 3 3 4 4 5 5 9 6 10 7 6 8 7 9 8 10
REMARK H PARENT
REMARK Flexibility Score: inf
ROOT
ATOM      1  C   UNL     1     148.374 143.500 130.368  1.00  0.00     0.044 C 
ATOM      2  C   UNL     1     147.464 144.245 131.299  1.00  0.00    -0.055 C 
ATOM      3  C   UNL     1     147.625 144.141 132.627  1.00  0.00    -0.023 C 
ATOM      4  C   UNL     1     146.762 144.942 133.566  1.00  0.00     0.035 C 
ATOM      5  C   UNL     1     145.321 145.063 133.017  1.00  0.00     0.018 C 
ATOM      6  C   UNL     1     145.348 145.458 131.553  1.00  0.00    -0.023 C 
ATOM      7  C   UNL     1     146.328 145.024 130.753  1.00  0.00    -0.001 C 
ENDROOT
BRANCH   5   8
ATOM      8  C   UNL     1     144.433 145.992 133.897  1.00  0.00    -0.010 C 
ATOM      9  C   UNL     1     145.039 147.389 134.124  1.00  0.00     0.008 C 
ATOM     10  C   UNL     1     143.015 146.121 133.319  1.00  0.00     0.008 C 
ENDBRANCH   5   8
TORSDOF 1
ENDMDL
MODEL 7
REMARK VINA RESULT:    -3.611      1.969      3.002
REMARK INTER + INTRA:          -4.011
REMARK INTER:                  -3.836
REMARK INTRA:                  -0.175
REMARK UNBOUND:                -0.189
REMARK SMILES CC1=CC[C@@H](C(C)C)C=C1
REMARK SMILES IDX 1 1 2 2 3 3 4 4 5 5 9 6 10 7 6 8 7 9 8 10
REMARK H PARENT
REMARK Flexibility Score: inf
ROOT
ATOM      1  C   UNL     1     142.373 147.254 130.348  1.00  0.00     0.044 C 
ATOM      2  C   UNL     1     143.268 146.511 131.296  1.00  0.00    -0.055 C 
ATOM      3  C   UNL     1     143.124 146.663 132.621  1.00  0.00    -0.023 C 
ATOM      4  C   UNL     1     143.971 145.867 133.578  1.00  0.00     0.035 C 
ATOM      5  C   UNL     1     145.401 145.682 133.021  1.00  0.00     0.018 C 
ATOM      6  C   UNL     1     145.348 145.240 131.571  1.00  0.00    -0.023 C 
ATOM      7  C   UNL     1     144.373 145.678 130.765  1.00  0.00    -0.001 C 
ENDROOT
BRANCH   5   8
ATOM      8  C   UNL     1     146.269 144.753 133.923  1.00  0.00    -0.010 C 
ATOM      9  C   UNL     1     145.665 143.352 134.124  1.00  0.00     0.008 C 
ATOM     10  C   UNL     1     147.704 144.638 133.388  1.00  0.00     0.008 C 
ENDBRANCH   5   8
TORSDOF 1
ENDMDL
