MODEL 1
REMARK VINA RESULT:    -2.363      0.000      0.000
REMARK INTER + INTRA:          -3.363
REMARK INTER:                  -3.606
REMARK INTRA:                   0.244
REMARK UNBOUND:                 0.244
REMARK SMILES CC1=CCC[C@H](C)C(=O)C[C@@H](C(C)C)C(=O)C1
REMARK SMILES IDX 8 1 9 2 6 3 7 4 5 5 4 6 3 7 2 8 1 9 10 11 11 12 15 13 16 14
REMARK SMILES IDX 17 15 12 17 13 18 14 19
REMARK H PARENT
REMARK Flexibility Score: 70.00
ROOT
ATOM      1  C   UNL     1      13.315  16.552  24.894  1.00  0.00     0.136 C 
ATOM      2  O   UNL     1      13.971  15.927  24.073  1.00  0.00    -0.299 OA
ENDROOT
BRANCH   1   3
ATOM      3  C   UNL     1      11.995  15.997  25.391  1.00  0.00     0.053 C 
ATOM      4  C   UNL     1      11.120  15.630  24.188  1.00  0.00     0.016 C 
BRANCH   3   5
ATOM      5  C   UNL     1      12.169  14.772  26.320  1.00  0.00     0.015 C 
BRANCH   5   6
ATOM      6  C   UNL     1      12.671  15.127  27.730  1.00  0.00     0.028 C 
BRANCH   6   7
ATOM      7  C   UNL     1      14.148  14.848  27.877  1.00  0.00    -0.028 C 
ATOM      8  C   UNL     1      15.114  15.784  28.015  1.00  0.00    -0.070 CG0
ATOM      9  C   UNL     1      16.544  15.316  28.123  1.00  0.00     0.039 C 
ATOM     10  G   UNL     1      14.820  17.271  28.076  1.00  0.00     0.000 G0
ENDBRANCH   6   7
ENDBRANCH   5   6
ENDBRANCH   3   5
ENDBRANCH   1   3
BRANCH   1  11
ATOM     11  C   UNL     1      13.794  17.913  25.338  1.00  0.00     0.087 C 
BRANCH  11  12
ATOM     12  C   UNL     1      15.324  17.957  25.568  1.00  0.00     0.066 C 
BRANCH  12  13
ATOM     13  C   UNL     1      15.610  18.076  27.057  1.00  0.00     0.140 C 
ATOM     14  O   UNL     1      16.532  18.785  27.437  1.00  0.00    -0.299 OA
BRANCH  13  15
ATOM     15  C   UNL     1      14.831  17.283  28.076  1.00  0.00     0.106 CG0
ATOM     16  G   UNL     1      15.131  15.799  28.002  1.00  0.00     0.000 G0
ENDBRANCH  13  15
ENDBRANCH  12  13
BRANCH  12  17
ATOM     17  C   UNL     1      16.004  19.128  24.788  1.00  0.00    -0.006 C 
ATOM     18  C   UNL     1      17.517  18.890  24.628  1.00  0.00     0.008 C 
ATOM     19  C   UNL     1      15.385  19.336  23.394  1.00  0.00     0.008 C 
ENDBRANCH  12  17
ENDBRANCH  11  12
ENDBRANCH   1  11
TORSDOF 1
ENDMDL
MODEL 2
REMARK VINA RESULT:    -2.283      2.186      3.937
REMARK INTER + INTRA:          -3.240
REMARK INTER:                  -4.645
REMARK INTRA:                   1.405
REMARK UNBOUND:                 0.244
REMARK SMILES CC1=CCC[C@H](C)C(=O)C[C@@H](C(C)C)C(=O)C1
REMARK SMILES IDX 8 1 9 2 6 3 7 4 5 5 4 6 3 7 2 8 1 9 10 11 11 12 15 13 16 14
REMARK SMILES IDX 17 15 12 17 13 18 14 19
REMARK H PARENT
REMARK Flexibility Score: 70.00
ROOT
ATOM      1  C   UNL     1      16.320  14.563  27.392  1.00  0.00     0.136 C 
ATOM      2  O   UNL     1      17.265  14.819  28.125  1.00  0.00    -0.299 OA
ENDROOT
BRANCH   1   3
ATOM      3  C   UNL     1      15.771  13.152  27.327  1.00  0.00     0.053 C 
ATOM      4  C   UNL     1      16.834  12.175  27.839  1.00  0.00     0.016 C 
BRANCH   3   5
ATOM      5  C   UNL     1      14.457  12.980  28.125  1.00  0.00     0.015 C 
BRANCH   5   6
ATOM      6  C   UNL     1      13.560  14.230  28.123  1.00  0.00     0.028 C 
BRANCH   6   7
ATOM      7  C   UNL     1      12.416  14.086  27.147  1.00  0.00    -0.028 C 
ATOM      8  C   UNL     1      12.166  14.910  26.104  1.00  0.00    -0.070 CG0
ATOM      9  C   UNL     1      10.956  14.623  25.249  1.00  0.00     0.039 C 
ATOM     10  G   UNL     1      13.048  16.093  25.757  1.00  0.00     0.000 G0
ENDBRANCH   6   7
ENDBRANCH   5   6
ENDBRANCH   3   5
ENDBRANCH   1   3
BRANCH   1  11
ATOM     11  C   UNL     1      15.768  15.646  26.496  1.00  0.00     0.087 C 
BRANCH  11  12
ATOM     12  C   UNL     1      15.093  16.789  27.295  1.00  0.00     0.066 C 
BRANCH  12  13
ATOM     13  C   UNL     1      13.614  16.847  26.946  1.00  0.00     0.140 C 
ATOM     14  O   UNL     1      12.843  17.436  27.690  1.00  0.00    -0.299 OA
BRANCH  13  15
ATOM     15  C   UNL     1      13.060  16.131  25.739  1.00  0.00     0.106 CG0
ATOM     16  G   UNL     1      12.187  14.951  26.120  1.00  0.00     0.000 G0
ENDBRANCH  13  15
ENDBRANCH  12  13
BRANCH  12  17
ATOM     17  C   UNL     1      15.769  18.172  27.030  1.00  0.00    -0.006 C 
ATOM     18  C   UNL     1      17.019  18.362  27.909  1.00  0.00     0.008 C 
ATOM     19  C   UNL     1      16.171  18.351  25.554  1.00  0.00     0.008 C 
ENDBRANCH  12  17
ENDBRANCH  11  12
ENDBRANCH   1  11
TORSDOF 1
ENDMDL
MODEL 3
REMARK VINA RESULT:    -1.800      1.822      3.990
REMARK INTER + INTRA:          -2.503
REMARK INTER:                  -4.994
REMARK INTRA:                   2.491
REMARK UNBOUND:                 0.244
REMARK SMILES CC1=CCC[C@H](C)C(=O)C[C@@H](C(C)C)C(=O)C1
REMARK SMILES IDX 8 1 9 2 6 3 7 4 5 5 4 6 3 7 2 8 1 9 10 11 11 12 15 13 16 14
REMARK SMILES IDX 17 15 12 17 13 18 14 19
REMARK H PARENT
REMARK Flexibility Score: 70.00
ROOT
ATOM      1  C   UNL     1      12.000  14.901  27.158  1.00  0.00     0.136 C 
ATOM      2  O   UNL     1      11.043  14.314  27.641  1.00  0.00    -0.299 OA
ENDROOT
BRANCH   1   3
ATOM      3  C   UNL     1      12.309  14.761  25.681  1.00  0.00     0.053 C 
ATOM      4  C   UNL     1      11.323  13.772  25.053  1.00  0.00     0.016 C 
BRANCH   3   5
ATOM      5  C   UNL     1      12.267  16.112  24.927  1.00  0.00     0.015 C 
BRANCH   5   6
ATOM      6  C   UNL     1      12.531  17.334  25.824  1.00  0.00     0.028 C 
BRANCH   6   7
ATOM      7  C   UNL     1      13.723  18.125  25.342  1.00  0.00    -0.028 C 
ATOM      8  C   UNL     1      15.010  17.709  25.384  1.00  0.00    -0.070 CG0
ATOM      9  C   UNL     1      16.075  18.650  24.879  1.00  0.00     0.039 C 
ATOM     10  G   UNL     1      15.420  16.345  25.904  1.00  0.00     0.000 G0
ENDBRANCH   6   7
ENDBRANCH   5   6
ENDBRANCH   3   5
ENDBRANCH   1   3
BRANCH   1  11
ATOM     11  C   UNL     1      12.913  15.693  28.064  1.00  0.00     0.087 C 
BRANCH  11  12
ATOM     12  C   UNL     1      14.370  15.170  28.040  1.00  0.00     0.066 C 
BRANCH  12  13
ATOM     13  C   UNL     1      15.274  16.218  27.409  1.00  0.00     0.140 C 
ATOM     14  O   UNL     1      15.845  17.030  28.125  1.00  0.00    -0.299 OA
BRANCH  13  15
ATOM     15  C   UNL     1      15.428  16.330  25.913  1.00  0.00     0.106 CG0
ATOM     16  G   UNL     1      15.004  17.688  25.390  1.00  0.00     0.000 G0
ENDBRANCH  13  15
ENDBRANCH  12  13
BRANCH  12  17
ATOM     17  C   UNL     1      14.497  13.813  27.277  1.00  0.00    -0.006 C 
ATOM     18  C   UNL     1      15.971  13.458  27.008  1.00  0.00     0.008 C 
ATOM     19  C   UNL     1      13.840  12.650  28.043  1.00  0.00     0.008 C 
ENDBRANCH  12  17
ENDBRANCH  11  12
ENDBRANCH   1  11
TORSDOF 1
ENDMDL
MODEL 4
REMARK VINA RESULT:    -0.844      1.724      3.598
REMARK INTER + INTRA:          -1.044
REMARK INTER:                  -2.750
REMARK INTRA:                   1.706
REMARK UNBOUND:                 0.244
REMARK SMILES CC1=CCC[C@H](C)C(=O)C[C@@H](C(C)C)C(=O)C1
REMARK SMILES IDX 8 1 9 2 6 3 7 4 5 5 4 6 3 7 2 8 1 9 10 11 11 12 15 13 16 14
REMARK SMILES IDX 17 15 12 17 13 18 14 19
REMARK H PARENT
REMARK Flexibility Score: 70.00
ROOT
ATOM      1  C   UNL     1      16.111  17.082  26.157  1.00  0.00     0.136 C 
ATOM      2  O   UNL     1      15.923  16.061  25.510  1.00  0.00    -0.299 OA
ENDROOT
BRANCH   1   3
ATOM      3  C   UNL     1      15.910  17.076  27.658  1.00  0.00     0.053 C 
ATOM      4  C   UNL     1      15.528  18.486  28.120  1.00  0.00     0.016 C 
BRANCH   3   5
ATOM      5  C   UNL     1      14.843  16.055  28.119  1.00  0.00     0.015 C 
BRANCH   5   6
ATOM      6  C   UNL     1      13.399  16.577  28.021  1.00  0.00     0.028 C 
BRANCH   6   7
ATOM      7  C   UNL     1      12.655  15.929  26.878  1.00  0.00    -0.028 C 
ATOM      8  C   UNL     1      12.436  16.488  25.666  1.00  0.00    -0.070 CG0
ATOM      9  C   UNL     1      11.646  15.696  24.654  1.00  0.00     0.039 C 
ATOM     10  G   UNL     1      12.955  17.860  25.284  1.00  0.00     0.000 G0
ENDBRANCH   6   7
ENDBRANCH   5   6
ENDBRANCH   3   5
ENDBRANCH   1   3
BRANCH   1  11
ATOM     11  C   UNL     1      16.458  18.360  25.430  1.00  0.00     0.087 C 
BRANCH  11  12
ATOM     12  C   UNL     1      15.272  18.911  24.601  1.00  0.00     0.066 C 
BRANCH  12  13
ATOM     13  C   UNL     1      14.208  17.834  24.460  1.00  0.00     0.140 C 
ATOM     14  O   UNL     1      14.359  16.944  23.634  1.00  0.00    -0.299 OA
BRANCH  13  15
ATOM     15  C   UNL     1      12.932  17.876  25.263  1.00  0.00     0.106 CG0
ATOM     16  G   UNL     1      12.462  16.493  25.671  1.00  0.00     0.000 G0
ENDBRANCH  13  15
ENDBRANCH  12  13
BRANCH  12  17
ATOM     17  C   UNL     1      15.723  19.417  23.193  1.00  0.00    -0.006 C 
ATOM     18  C   UNL     1      14.797  20.534  22.677  1.00  0.00     0.008 C 
ATOM     19  C   UNL     1      17.172  19.938  23.198  1.00  0.00     0.008 C 
ENDBRANCH  12  17
ENDBRANCH  11  12
ENDBRANCH   1  11
TORSDOF 1
ENDMDL
MODEL 5
REMARK VINA RESULT:    -0.804      2.278      4.750
REMARK INTER + INTRA:          -0.983
REMARK INTER:                  -2.139
REMARK INTRA:                   1.156
REMARK UNBOUND:                 0.244
REMARK SMILES CC1=CCC[C@H](C)C(=O)C[C@@H](C(C)C)C(=O)C1
REMARK SMILES IDX 8 1 9 2 6 3 7 4 5 5 4 6 3 7 2 8 1 9 10 11 11 12 15 13 16 14
REMARK SMILES IDX 17 15 12 17 13 18 14 19
REMARK H PARENT
REMARK Flexibility Score: 70.00
ROOT
ATOM      1  C   UNL     1      14.405  13.899  27.760  1.00  0.00     0.136 C 
ATOM      2  O   UNL     1      13.907  12.784  27.812  1.00  0.00    -0.299 OA
ENDROOT
BRANCH   1   3
ATOM      3  C   UNL     1      15.872  14.060  27.417  1.00  0.00     0.053 C 
ATOM      4  C   UNL     1      16.623  12.784  27.810  1.00  0.00     0.016 C 
BRANCH   3   5
ATOM      5  C   UNL     1      16.109  14.382  25.922  1.00  0.00     0.015 C 
BRANCH   5   6
ATOM      6  C   UNL     1      15.305  15.590  25.412  1.00  0.00     0.028 C 
BRANCH   6   7
ATOM      7  C   UNL     1      15.837  16.886  25.976  1.00  0.00    -0.028 C 
ATOM      8  C   UNL     1      15.101  17.990  26.236  1.00  0.00    -0.070 CG0
ATOM      9  C   UNL     1      15.813  19.205  26.777  1.00  0.00     0.039 C 
ATOM     10  G   UNL     1      13.601  18.053  26.018  1.00  0.00     0.000 G0
ENDBRANCH   6   7
ENDBRANCH   5   6
ENDBRANCH   3   5
ENDBRANCH   1   3
BRANCH   1  11
ATOM     11  C   UNL     1      13.563  15.099  28.125  1.00  0.00     0.087 C 
BRANCH  11  12
ATOM     12  C   UNL     1      12.808  15.685  26.907  1.00  0.00     0.066 C 
BRANCH  12  13
ATOM     13  C   UNL     1      12.824  17.204  26.983  1.00  0.00     0.140 C 
ATOM     14  O   UNL     1      12.144  17.771  27.827  1.00  0.00    -0.299 OA
BRANCH  13  15
ATOM     15  C   UNL     1      13.602  18.035  25.993  1.00  0.00     0.106 CG0
ATOM     16  G   UNL     1      15.094  18.002  26.261  1.00  0.00     0.000 G0
ENDBRANCH  13  15
ENDBRANCH  12  13
BRANCH  12  17
ATOM     17  C   UNL     1      11.339  15.161  26.817  1.00  0.00    -0.006 C 
ATOM     18  C   UNL     1      11.122  14.314  25.549  1.00  0.00     0.008 C 
ATOM     19  C   UNL     1      10.943  14.322  28.046  1.00  0.00     0.008 C 
ENDBRANCH  12  17
ENDBRANCH  11  12
ENDBRANCH   1  11
TORSDOF 1
ENDMDL
MODEL 6
REMARK VINA RESULT:    -0.468      1.510      4.082
REMARK INTER + INTRA:          -0.470
REMARK INTER:                  -3.126
REMARK INTRA:                   2.655
REMARK UNBOUND:                 0.244
REMARK SMILES CC1=CCC[C@H](C)C(=O)C[C@@H](C(C)C)C(=O)C1
REMARK SMILES IDX 8 1 9 2 6 3 7 4 5 5 4 6 3 7 2 8 1 9 10 11 11 12 15 13 16 14
REMARK SMILES IDX 17 15 12 17 13 18 14 19
REMARK H PARENT
REMARK Flexibility Score: 70.00
ROOT
ATOM      1  C   UNL     1      14.190  17.108  24.895  1.00  0.00     0.136 C 
ATOM      2  O   UNL     1      14.374  16.358  23.947  1.00  0.00    -0.299 OA
ENDROOT
BRANCH   1   3
ATOM      3  C   UNL     1      15.369  17.768  25.580  1.00  0.00     0.053 C 
ATOM      4  C   UNL     1      16.022  18.760  24.612  1.00  0.00     0.016 C 
BRANCH   3   5
ATOM      5  C   UNL     1      14.978  18.483  26.895  1.00  0.00     0.015 C 
BRANCH   5   6
ATOM      6  C   UNL     1      14.902  17.546  28.114  1.00  0.00     0.028 C 
BRANCH   6   7
ATOM      7  C   UNL     1      15.844  16.375  27.968  1.00  0.00    -0.028 C 
ATOM      8  C   UNL     1      15.472  15.085  27.804  1.00  0.00    -0.070 CG0
ATOM      9  C   UNL     1      16.558  14.043  27.701  1.00  0.00     0.039 C 
ATOM     10  G   UNL     1      14.023  14.649  27.709  1.00  0.00     0.000 G0
ENDBRANCH   6   7
ENDBRANCH   5   6
ENDBRANCH   3   5
ENDBRANCH   1   3
BRANCH   1  11
ATOM     11  C   UNL     1      12.788  17.296  25.424  1.00  0.00     0.087 C 
BRANCH  11  12
ATOM     12  C   UNL     1      12.321  16.108  26.301  1.00  0.00     0.066 C 
BRANCH  12  13
ATOM     13  C   UNL     1      13.424  15.063  26.368  1.00  0.00     0.140 C 
ATOM     14  O   UNL     1      13.788  14.506  25.342  1.00  0.00    -0.299 OA
BRANCH  13  15
ATOM     15  C   UNL     1      14.032  14.641  27.683  1.00  0.00     0.106 CG0
ATOM     16  G   UNL     1      15.479  15.074  27.814  1.00  0.00     0.000 G0
ENDBRANCH  13  15
ENDBRANCH  12  13
BRANCH  12  17
ATOM     17  C   UNL     1      10.999  15.468  25.771  1.00  0.00    -0.006 C 
ATOM     18  C   UNL     1      10.881  15.611  24.241  1.00  0.00     0.008 C 
ATOM     19  C   UNL     1      10.884  13.978  26.139  1.00  0.00     0.008 C 
ENDBRANCH  12  17
ENDBRANCH  11  12
ENDBRANCH   1  11
TORSDOF 1
ENDMDL
MODEL 7
REMARK VINA RESULT:     0.151      1.848      4.088
REMARK INTER + INTRA:           0.473
REMARK INTER:                  -2.319
REMARK INTRA:                   2.792
REMARK UNBOUND:                 0.244
REMARK SMILES CC1=CCC[C@H](C)C(=O)C[C@@H](C(C)C)C(=O)C1
REMARK SMILES IDX 8 1 9 2 6 3 7 4 5 5 4 6 3 7 2 8 1 9 10 11 11 12 15 13 16 14
REMARK SMILES IDX 17 15 12 17 13 18 14 19
REMARK H PARENT
REMARK Flexibility Score: 70.00
ROOT
ATOM      1  C   UNL     1      13.810  17.970  26.446  1.00  0.00     0.136 C 
ATOM      2  O   UNL     1      13.156  18.315  25.473  1.00  0.00    -0.299 OA
ENDROOT
BRANCH   1   3
ATOM      3  C   UNL     1      15.305  18.215  26.481  1.00  0.00     0.053 C 
ATOM      4  C   UNL     1      15.783  18.195  27.937  1.00  0.00     0.016 C 
BRANCH   3   5
ATOM      5  C   UNL     1      16.102  17.189  25.642  1.00  0.00     0.015 C 
BRANCH   5   6
ATOM      6  C   UNL     1      15.312  15.912  25.306  1.00  0.00     0.028 C 
BRANCH   6   7
ATOM      7  C   UNL     1      15.936  14.693  25.943  1.00  0.00    -0.028 C 
ATOM      8  C   UNL     1      15.676  14.240  27.190  1.00  0.00    -0.070 CG0
ATOM      9  C   UNL     1      16.417  13.016  27.667  1.00  0.00     0.039 C 
ATOM     10  G   UNL     1      14.673  14.899  28.116  1.00  0.00     0.000 G0
ENDBRANCH   6   7
ENDBRANCH   5   6
ENDBRANCH   3   5
ENDBRANCH   1   3
BRANCH   1  11
ATOM     11  C   UNL     1      13.125  17.225  27.567  1.00  0.00     0.087 C 
BRANCH  11  12
ATOM     12  C   UNL     1      12.469  15.907  27.087  1.00  0.00     0.066 C 
BRANCH  12  13
ATOM     13  C   UNL     1      13.252  14.723  27.633  1.00  0.00     0.140 C 
ATOM     14  O   UNL     1      12.704  13.634  27.733  1.00  0.00    -0.299 OA
BRANCH  13  15
ATOM     15  C   UNL     1      14.670  14.874  28.125  1.00  0.00     0.106 CG0
ATOM     16  G   UNL     1      15.673  14.204  27.206  1.00  0.00     0.000 G0
ENDBRANCH  13  15
ENDBRANCH  12  13
BRANCH  12  17
ATOM     17  C   UNL     1      12.378  15.827  25.530  1.00  0.00    -0.006 C 
ATOM     18  C   UNL     1      12.454  14.369  25.039  1.00  0.00     0.008 C 
ATOM     19  C   UNL     1      11.085  16.464  24.988  1.00  0.00     0.008 C 
ENDBRANCH  12  17
ENDBRANCH  11  12
ENDBRANCH   1  11
TORSDOF 1
ENDMDL
MODEL 8
REMARK VINA RESULT:     0.348      1.985      3.695
REMARK INTER + INTRA:           0.775
REMARK INTER:                  -4.747
REMARK INTRA:                   5.522
REMARK UNBOUND:                 0.244
REMARK SMILES CC1=CCC[C@H](C)C(=O)C[C@@H](C(C)C)C(=O)C1
REMARK SMILES IDX 8 1 9 2 6 3 7 4 5 5 4 6 3 7 2 8 1 9 10 11 11 12 15 13 16 14
REMARK SMILES IDX 17 15 12 17 13 18 14 19
REMARK H PARENT
REMARK Flexibility Score: 70.00
ROOT
ATOM      1  C   UNL     1      13.474  15.442  27.495  1.00  0.00     0.136 C 
ATOM      2  O   UNL     1      14.523  14.922  27.847  1.00  0.00    -0.299 OA
ENDROOT
BRANCH   1   3
ATOM      3  C   UNL     1      12.648  14.813  26.392  1.00  0.00     0.053 C 
ATOM      4  C   UNL     1      11.163  14.916  26.756  1.00  0.00     0.016 C 
BRANCH   3   5
ATOM      5  C   UNL     1      12.905  15.454  25.007  1.00  0.00     0.015 C 
BRANCH   5   6
ATOM      6  C   UNL     1      14.394  15.683  24.695  1.00  0.00     0.028 C 
BRANCH   6   7
ATOM      7  C   UNL     1      14.587  16.835  23.739  1.00  0.00    -0.028 C 
ATOM      8  C   UNL     1      14.902  18.103  24.091  1.00  0.00    -0.070 CG0
ATOM      9  C   UNL     1      15.029  19.131  22.995  1.00  0.00     0.039 C 
ATOM     10  G   UNL     1      15.140  18.526  25.528  1.00  0.00     0.000 G0
ENDBRANCH   6   7
ENDBRANCH   5   6
ENDBRANCH   3   5
ENDBRANCH   1   3
BRANCH   1  11
ATOM     11  C   UNL     1      13.062  16.758  28.112  1.00  0.00     0.087 C 
BRANCH  11  12
ATOM     12  C   UNL     1      14.088  17.886  27.843  1.00  0.00     0.066 C 
BRANCH  12  13
ATOM     13  C   UNL     1      13.947  18.368  26.408  1.00  0.00     0.140 C 
ATOM     14  O   UNL     1      12.832  18.561  25.945  1.00  0.00    -0.299 OA
BRANCH  13  15
ATOM     15  C   UNL     1      15.149  18.543  25.513  1.00  0.00     0.106 CG0
ATOM     16  G   UNL     1      14.882  18.083  24.093  1.00  0.00     0.000 G0
ENDBRANCH  13  15
ENDBRANCH  12  13
BRANCH  12  17
ATOM     17  C   UNL     1      15.555  17.426  28.120  1.00  0.00    -0.006 C 
ATOM     18  C   UNL     1      16.024  16.391  27.080  1.00  0.00     0.008 C 
ATOM     19  C   UNL     1      16.545  18.606  28.125  1.00  0.00     0.008 C 
ENDBRANCH  12  17
ENDBRANCH  11  12
ENDBRANCH   1  11
TORSDOF 1
ENDMDL
