MODEL 1
REMARK VINA RESULT:    -6.024      0.000      0.000
REMARK INTER + INTRA:          -7.187
REMARK INTER:                  -7.257
REMARK INTRA:                   0.070
REMARK UNBOUND:                 0.070
REMARK SMILES O=c1c(O)c(-c2ccc(O)c(O)c2)oc2cc(O)cc(O)c12
REMARK SMILES IDX 5 1 3 2 2 3 1 4 22 5 20 6 19 7 17 8 16 9 15 10 14 11 6 12
REMARK SMILES IDX 7 13 8 14 9 15 13 16 11 17 10 18 12 20 4 22 21 24 18 26
REMARK H PARENT 10 19 12 21 4 23 21 25 18 27
REMARK Flexibility Score: inf
ROOT
ATOM      1  C   UNL     1      40.284  30.706  25.539  1.00  0.00     0.180 A 
ATOM      2  C   UNL     1      40.599  31.827  26.327  1.00  0.00     0.208 A 
ATOM      3  C   UNL     1      40.788  31.657  27.708  1.00  0.00     0.238 A 
ATOM      4  O   UNL     1      41.125  32.655  28.399  1.00  0.00    -0.285 OA
ATOM      5  C   UNL     1      40.644  30.374  28.287  1.00  0.00     0.111 A 
ATOM      6  C   UNL     1      40.773  30.094  29.680  1.00  0.00     0.134 A 
ATOM      7  C   UNL     1      40.738  28.766  30.124  1.00  0.00     0.093 A 
ATOM      8  C   UNL     1      40.513  27.714  29.232  1.00  0.00     0.123 A 
ATOM      9  C   UNL     1      40.327  27.983  27.878  1.00  0.00     0.094 A 
ATOM     10  C   UNL     1      40.392  29.294  27.401  1.00  0.00     0.146 A 
ATOM     11  O   UNL     1      40.219  29.505  26.102  1.00  0.00    -0.452 OA
ENDROOT
BRANCH   1  12
ATOM     12  C   UNL     1      40.045  30.809  24.082  1.00  0.00     0.025 A 
ATOM     13  C   UNL     1      40.556  29.820  23.226  1.00  0.00     0.016 A 
ATOM     14  C   UNL     1      40.324  29.887  21.850  1.00  0.00     0.051 A 
ATOM     15  C   UNL     1      39.567  30.935  21.311  1.00  0.00     0.157 A 
ATOM     16  C   UNL     1      39.267  31.848  23.539  1.00  0.00     0.062 A 
ATOM     17  C   UNL     1      39.033  31.914  22.157  1.00  0.00     0.158 A 
BRANCH  15  18
ATOM     18  O   UNL     1      39.336  31.006  19.939  1.00  0.00    -0.504 OA
ATOM     19  H   UNL     1      39.019  31.862  19.498  1.00  0.00     0.293 HD
ENDBRANCH  15  18
BRANCH  17  20
ATOM     20  O   UNL     1      38.268  32.948  21.620  1.00  0.00    -0.504 OA
ATOM     21  H   UNL     1      37.426  33.278  22.078  1.00  0.00     0.293 HD
ENDBRANCH  17  20
ENDBRANCH   1  12
BRANCH   2  22
ATOM     22  O   UNL     1      40.760  33.081  25.732  1.00  0.00    -0.502 OA
ATOM     23  H   UNL     1      40.142  33.421  25.004  1.00  0.00     0.293 HD
ENDBRANCH   2  22
BRANCH   6  24
ATOM     24  O   UNL     1      40.909  31.077  30.664  1.00  0.00    -0.507 OA
ATOM     25  H   UNL     1      40.174  31.706  30.953  1.00  0.00     0.293 HD
ENDBRANCH   6  24
BRANCH   8  26
ATOM     26  O   UNL     1      40.465  26.397  29.684  1.00  0.00    -0.508 OA
ATOM     27  H   UNL     1      40.467  26.176  30.673  1.00  0.00     0.293 HD
ENDBRANCH   8  26
TORSDOF 6
ENDMDL
MODEL 2
REMARK VINA RESULT:    -5.773      2.052      6.749
REMARK INTER + INTRA:          -6.885
REMARK INTER:                  -6.592
REMARK INTRA:                  -0.293
REMARK UNBOUND:                 0.070
REMARK SMILES O=c1c(O)c(-c2ccc(O)c(O)c2)oc2cc(O)cc(O)c12
REMARK SMILES IDX 5 1 3 2 2 3 1 4 22 5 20 6 19 7 17 8 16 9 15 10 14 11 6 12
REMARK SMILES IDX 7 13 8 14 9 15 13 16 11 17 10 18 12 20 4 22 21 24 18 26
REMARK H PARENT 10 19 12 21 4 23 21 25 18 27
REMARK Flexibility Score: inf
ROOT
ATOM      1  C   UNL     1      40.277  30.857  26.429  1.00  0.00     0.180 A 
ATOM      2  C   UNL     1      40.642  29.503  26.522  1.00  0.00     0.208 A 
ATOM      3  C   UNL     1      40.742  28.742  25.347  1.00  0.00     0.238 A 
ATOM      4  O   UNL     1      41.123  27.545  25.433  1.00  0.00    -0.285 OA
ATOM      5  C   UNL     1      40.460  29.339  24.095  1.00  0.00     0.111 A 
ATOM      6  C   UNL     1      40.490  28.651  22.844  1.00  0.00     0.134 A 
ATOM      7  C   UNL     1      40.321  29.372  21.655  1.00  0.00     0.093 A 
ATOM      8  C   UNL     1      40.057  30.745  21.677  1.00  0.00     0.123 A 
ATOM      9  C   UNL     1      39.967  31.413  22.896  1.00  0.00     0.094 A 
ATOM     10  C   UNL     1      40.167  30.728  24.096  1.00  0.00     0.146 A 
ATOM     11  O   UNL     1      40.082  31.404  25.235  1.00  0.00    -0.452 OA
ENDROOT
BRANCH   1  12
ATOM     12  C   UNL     1      40.127  31.718  27.625  1.00  0.00     0.025 A 
ATOM     13  C   UNL     1      41.112  32.674  27.917  1.00  0.00     0.016 A 
ATOM     14  C   UNL     1      40.980  33.510  29.028  1.00  0.00     0.051 A 
ATOM     15  C   UNL     1      39.853  33.412  29.855  1.00  0.00     0.157 A 
ATOM     16  C   UNL     1      38.987  31.637  28.445  1.00  0.00     0.062 A 
ATOM     17  C   UNL     1      38.853  32.478  29.561  1.00  0.00     0.158 A 
BRANCH  15  18
ATOM     18  O   UNL     1      39.718  34.243  30.965  1.00  0.00    -0.504 OA
ATOM     19  H   UNL     1      40.422  34.934  31.199  1.00  0.00     0.293 HD
ENDBRANCH  15  18
BRANCH  17  20
ATOM     20  O   UNL     1      37.726  32.393  30.377  1.00  0.00    -0.504 OA
ATOM     21  H   UNL     1      36.938  33.020  30.259  1.00  0.00     0.293 HD
ENDBRANCH  17  20
ENDBRANCH   1  12
BRANCH   2  22
ATOM     22  O   UNL     1      40.939  28.940  27.767  1.00  0.00    -0.502 OA
ATOM     23  H   UNL     1      40.862  29.462  28.632  1.00  0.00     0.293 HD
ENDBRANCH   2  22
BRANCH   6  24
ATOM     24  O   UNL     1      40.655  27.269  22.717  1.00  0.00    -0.507 OA
ATOM     25  H   UNL     1      40.531  26.605  23.467  1.00  0.00     0.293 HD
ENDBRANCH   6  24
BRANCH   8  26
ATOM     26  O   UNL     1      39.875  31.451  20.490  1.00  0.00    -0.508 OA
ATOM     27  H   UNL     1      40.144  31.061  19.595  1.00  0.00     0.293 HD
ENDBRANCH   8  26
TORSDOF 6
ENDMDL
MODEL 3
REMARK VINA RESULT:    -5.731      0.689      1.490
REMARK INTER + INTRA:          -6.834
REMARK INTER:                  -7.046
REMARK INTRA:                   0.212
REMARK UNBOUND:                 0.070
REMARK SMILES O=c1c(O)c(-c2ccc(O)c(O)c2)oc2cc(O)cc(O)c12
REMARK SMILES IDX 5 1 3 2 2 3 1 4 22 5 20 6 19 7 17 8 16 9 15 10 14 11 6 12
REMARK SMILES IDX 7 13 8 14 9 15 13 16 11 17 10 18 12 20 4 22 21 24 18 26
REMARK H PARENT 10 19 12 21 4 23 21 25 18 27
REMARK Flexibility Score: inf
ROOT
ATOM      1  C   UNL     1      40.293  30.624  25.819  1.00  0.00     0.180 A 
ATOM      2  C   UNL     1      40.603  31.761  26.586  1.00  0.00     0.208 A 
ATOM      3  C   UNL     1      40.794  31.619  27.969  1.00  0.00     0.238 A 
ATOM      4  O   UNL     1      41.125  32.632  28.641  1.00  0.00    -0.285 OA
ATOM      5  C   UNL     1      40.657  30.346  28.572  1.00  0.00     0.111 A 
ATOM      6  C   UNL     1      40.789  30.093  29.971  1.00  0.00     0.134 A 
ATOM      7  C   UNL     1      40.762  28.774  30.440  1.00  0.00     0.093 A 
ATOM      8  C   UNL     1      40.543  27.704  29.568  1.00  0.00     0.123 A 
ATOM      9  C   UNL     1      40.354  27.946  28.209  1.00  0.00     0.094 A 
ATOM     10  C   UNL     1      40.412  29.248  27.707  1.00  0.00     0.146 A 
ATOM     11  O   UNL     1      40.236  29.434  26.405  1.00  0.00    -0.452 OA
ENDROOT
BRANCH   1  12
ATOM     12  C   UNL     1      40.053  30.698  24.360  1.00  0.00     0.025 A 
ATOM     13  C   UNL     1      39.391  31.815  23.824  1.00  0.00     0.016 A 
ATOM     14  C   UNL     1      39.173  31.914  22.448  1.00  0.00     0.051 A 
ATOM     15  C   UNL     1      39.625  30.906  21.586  1.00  0.00     0.157 A 
ATOM     16  C   UNL     1      40.524  29.699  23.489  1.00  0.00     0.062 A 
ATOM     17  C   UNL     1      40.306  29.799  22.107  1.00  0.00     0.158 A 
BRANCH  15  18
ATOM     18  O   UNL     1      39.407  31.001  20.214  1.00  0.00    -0.504 OA
ATOM     19  H   UNL     1      38.977  30.245  19.692  1.00  0.00     0.293 HD
ENDBRANCH  15  18
BRANCH  17  20
ATOM     20  O   UNL     1      40.767  28.805  21.246  1.00  0.00    -0.504 OA
ATOM     21  H   UNL     1      41.732  28.780  20.934  1.00  0.00     0.293 HD
ENDBRANCH  17  20
ENDBRANCH   1  12
BRANCH   2  22
ATOM     22  O   UNL     1      40.756  33.005  25.966  1.00  0.00    -0.502 OA
ATOM     23  H   UNL     1      41.248  33.775  26.406  1.00  0.00     0.293 HD
ENDBRANCH   2  22
BRANCH   6  24
ATOM     24  O   UNL     1      40.919  31.096  30.936  1.00  0.00    -0.507 OA
ATOM     25  H   UNL     1      40.777  30.962  31.926  1.00  0.00     0.293 HD
ENDBRANCH   6  24
BRANCH   8  26
ATOM     26  O   UNL     1      40.503  26.396  30.045  1.00  0.00    -0.508 OA
ATOM     27  H   UNL     1      40.455  25.603  29.416  1.00  0.00     0.293 HD
ENDBRANCH   8  26
TORSDOF 6
ENDMDL
MODEL 4
REMARK VINA RESULT:    -5.206      1.514      2.492
REMARK INTER + INTRA:          -6.201
REMARK INTER:                  -6.560
REMARK INTRA:                   0.358
REMARK UNBOUND:                 0.070
REMARK SMILES O=c1c(O)c(-c2ccc(O)c(O)c2)oc2cc(O)cc(O)c12
REMARK SMILES IDX 5 1 3 2 2 3 1 4 22 5 20 6 19 7 17 8 16 9 15 10 14 11 6 12
REMARK SMILES IDX 7 13 8 14 9 15 13 16 11 17 10 18 12 20 4 22 21 24 18 26
REMARK H PARENT 10 19 12 21 4 23 21 25 18 27
REMARK Flexibility Score: inf
ROOT
ATOM      1  C   UNL     1      40.333  29.433  26.543  1.00  0.00     0.180 A 
ATOM      2  C   UNL     1      40.462  30.211  27.705  1.00  0.00     0.208 A 
ATOM      3  C   UNL     1      40.657  29.568  28.938  1.00  0.00     0.238 A 
ATOM      4  O   UNL     1      40.828  30.273  29.968  1.00  0.00    -0.285 OA
ATOM      5  C   UNL     1      40.703  28.155  28.996  1.00  0.00     0.111 A 
ATOM      6  C   UNL     1      40.855  27.397  30.196  1.00  0.00     0.134 A 
ATOM      7  C   UNL     1      41.018  26.008  30.120  1.00  0.00     0.093 A 
ATOM      8  C   UNL     1      40.969  25.343  28.891  1.00  0.00     0.123 A 
ATOM      9  C   UNL     1      40.761  26.068  27.720  1.00  0.00     0.094 A 
ATOM     10  C   UNL     1      40.632  27.458  27.761  1.00  0.00     0.146 A 
ATOM     11  O   UNL     1      40.445  28.112  26.621  1.00  0.00    -0.452 OA
ENDROOT
BRANCH   1  12
ATOM     12  C   UNL     1      40.100  30.036  25.211  1.00  0.00     0.025 A 
ATOM     13  C   UNL     1      39.487  31.297  25.120  1.00  0.00     0.016 A 
ATOM     14  C   UNL     1      39.277  31.894  23.875  1.00  0.00     0.051 A 
ATOM     15  C   UNL     1      39.689  31.246  22.703  1.00  0.00     0.157 A 
ATOM     16  C   UNL     1      40.532  29.400  24.033  1.00  0.00     0.062 A 
ATOM     17  C   UNL     1      40.322  30.000  22.782  1.00  0.00     0.158 A 
BRANCH  15  18
ATOM     18  O   UNL     1      39.480  31.837  21.459  1.00  0.00    -0.504 OA
ATOM     19  H   UNL     1      39.971  32.680  21.183  1.00  0.00     0.293 HD
ENDBRANCH  15  18
BRANCH  17  20
ATOM     20  O   UNL     1      40.745  29.365  21.615  1.00  0.00    -0.504 OA
ATOM     21  H   UNL     1      41.723  29.158  21.450  1.00  0.00     0.293 HD
ENDBRANCH  17  20
ENDBRANCH   1  12
BRANCH   2  22
ATOM     22  O   UNL     1      40.437  31.607  27.623  1.00  0.00    -0.502 OA
ATOM     23  H   UNL     1      40.046  32.188  28.355  1.00  0.00     0.293 HD
ENDBRANCH   2  22
BRANCH   6  24
ATOM     24  O   UNL     1      40.826  27.952  31.478  1.00  0.00    -0.507 OA
ATOM     25  H   UNL     1      40.543  27.459  32.312  1.00  0.00     0.293 HD
ENDBRANCH   6  24
BRANCH   8  26
ATOM     26  O   UNL     1      41.117  23.960  28.826  1.00  0.00    -0.508 OA
ATOM     27  H   UNL     1      41.773  23.468  29.422  1.00  0.00     0.293 HD
ENDBRANCH   8  26
TORSDOF 6
ENDMDL
MODEL 5
REMARK VINA RESULT:    -5.028      1.680      3.352
REMARK INTER + INTRA:          -5.987
REMARK INTER:                  -6.407
REMARK INTRA:                   0.420
REMARK UNBOUND:                 0.070
REMARK SMILES O=c1c(O)c(-c2ccc(O)c(O)c2)oc2cc(O)cc(O)c12
REMARK SMILES IDX 5 1 3 2 2 3 1 4 22 5 20 6 19 7 17 8 16 9 15 10 14 11 6 12
REMARK SMILES IDX 7 13 8 14 9 15 13 16 11 17 10 18 12 20 4 22 21 24 18 26
REMARK H PARENT 10 19 12 21 4 23 21 25 18 27
REMARK Flexibility Score: inf
ROOT
ATOM      1  C   UNL     1      40.084  30.630  26.322  1.00  0.00     0.180 A 
ATOM      2  C   UNL     1      40.486  29.418  26.908  1.00  0.00     0.208 A 
ATOM      3  C   UNL     1      40.628  29.349  28.303  1.00  0.00     0.238 A 
ATOM      4  O   UNL     1      40.935  28.246  28.826  1.00  0.00    -0.285 OA
ATOM      5  C   UNL     1      40.383  30.498  29.093  1.00  0.00     0.111 A 
ATOM      6  C   UNL     1      40.536  30.553  30.511  1.00  0.00     0.134 A 
ATOM      7  C   UNL     1      40.140  31.705  31.204  1.00  0.00     0.093 A 
ATOM      8  C   UNL     1      39.659  32.826  30.522  1.00  0.00     0.123 A 
ATOM      9  C   UNL     1      39.563  32.802  29.133  1.00  0.00     0.094 A 
ATOM     10  C   UNL     1      39.915  31.655  28.418  1.00  0.00     0.146 A 
ATOM     11  O   UNL     1      39.799  31.671  27.096  1.00  0.00    -0.452 OA
ENDROOT
BRANCH   1  12
ATOM     12  C   UNL     1      39.937  30.787  24.857  1.00  0.00     0.025 A 
ATOM     13  C   UNL     1      39.327  31.944  24.343  1.00  0.00     0.016 A 
ATOM     14  C   UNL     1      39.196  32.122  22.964  1.00  0.00     0.051 A 
ATOM     15  C   UNL     1      39.686  31.153  22.078  1.00  0.00     0.157 A 
ATOM     16  C   UNL     1      40.445  29.828  23.963  1.00  0.00     0.062 A 
ATOM     17  C   UNL     1      40.316  30.007  22.578  1.00  0.00     0.158 A 
BRANCH  15  18
ATOM     18  O   UNL     1      39.556  31.326  20.702  1.00  0.00    -0.504 OA
ATOM     19  H   UNL     1      38.870  30.807  20.164  1.00  0.00     0.293 HD
ENDBRANCH  15  18
BRANCH  17  20
ATOM     20  O   UNL     1      40.815  29.053  21.693  1.00  0.00    -0.504 OA
ATOM     21  H   UNL     1      41.594  28.454  21.943  1.00  0.00     0.293 HD
ENDBRANCH  17  20
ENDBRANCH   1  12
BRANCH   2  22
ATOM     22  O   UNL     1      40.700  28.289  26.111  1.00  0.00    -0.502 OA
ATOM     23  H   UNL     1      40.661  27.347  26.481  1.00  0.00     0.293 HD
ENDBRANCH   2  22
BRANCH   6  24
ATOM     24  O   UNL     1      41.091  29.525  31.278  1.00  0.00    -0.507 OA
ATOM     25  H   UNL     1      40.791  29.276  32.209  1.00  0.00     0.293 HD
ENDBRANCH   6  24
BRANCH   8  26
ATOM     26  O   UNL     1      39.282  33.973  31.218  1.00  0.00    -0.508 OA
ATOM     27  H   UNL     1      38.959  34.803  30.736  1.00  0.00     0.293 HD
ENDBRANCH   8  26
TORSDOF 6
ENDMDL
MODEL 6
REMARK VINA RESULT:    -4.458      1.804      7.102
REMARK INTER + INTRA:          -5.300
REMARK INTER:                  -5.831
REMARK INTRA:                   0.531
REMARK UNBOUND:                 0.070
REMARK SMILES O=c1c(O)c(-c2ccc(O)c(O)c2)oc2cc(O)cc(O)c12
REMARK SMILES IDX 5 1 3 2 2 3 1 4 22 5 20 6 19 7 17 8 16 9 15 10 14 11 6 12
REMARK SMILES IDX 7 13 8 14 9 15 13 16 11 17 10 18 12 20 4 22 21 24 18 26
REMARK H PARENT 10 19 12 21 4 23 21 25 18 27
REMARK Flexibility Score: inf
ROOT
ATOM      1  C   UNL     1      40.655  28.500  28.168  1.00  0.00     0.180 A 
ATOM      2  C   UNL     1      40.404  29.821  28.578  1.00  0.00     0.208 A 
ATOM      3  C   UNL     1      40.305  30.830  27.607  1.00  0.00     0.238 A 
ATOM      4  O   UNL     1      40.025  32.000  27.977  1.00  0.00    -0.285 OA
ATOM      5  C   UNL     1      40.474  30.509  26.239  1.00  0.00     0.111 A 
ATOM      6  C   UNL     1      40.435  31.458  25.173  1.00  0.00     0.134 A 
ATOM      7  C   UNL     1      40.486  31.010  23.847  1.00  0.00     0.093 A 
ATOM      8  C   UNL     1      40.641  29.653  23.551  1.00  0.00     0.123 A 
ATOM      9  C   UNL     1      40.740  28.726  24.585  1.00  0.00     0.094 A 
ATOM     10  C   UNL     1      40.656  29.139  25.917  1.00  0.00     0.146 A 
ATOM     11  O   UNL     1      40.745  28.221  26.872  1.00  0.00    -0.452 OA
ENDROOT
BRANCH   1  12
ATOM     12  C   UNL     1      40.798  27.388  29.134  1.00  0.00     0.025 A 
ATOM     13  C   UNL     1      40.809  27.664  30.511  1.00  0.00     0.016 A 
ATOM     14  C   UNL     1      40.922  26.627  31.440  1.00  0.00     0.051 A 
ATOM     15  C   UNL     1      41.010  25.298  31.007  1.00  0.00     0.157 A 
ATOM     16  C   UNL     1      40.865  26.050  28.705  1.00  0.00     0.062 A 
ATOM     17  C   UNL     1      40.977  25.008  29.638  1.00  0.00     0.158 A 
BRANCH  15  18
ATOM     18  O   UNL     1      41.125  24.261  31.930  1.00  0.00    -0.504 OA
ATOM     19  H   UNL     1      41.685  24.358  32.770  1.00  0.00     0.293 HD
ENDBRANCH  15  18
BRANCH  17  20
ATOM     20  O   UNL     1      41.050  23.683  29.211  1.00  0.00    -0.504 OA
ATOM     21  H   UNL     1      41.611  22.998  29.703  1.00  0.00     0.293 HD
ENDBRANCH  17  20
ENDBRANCH   1  12
BRANCH   2  22
ATOM     22  O   UNL     1      40.216  30.111  29.933  1.00  0.00    -0.502 OA
ATOM     23  H   UNL     1      40.181  31.061  30.286  1.00  0.00     0.293 HD
ENDBRANCH   2  22
BRANCH   6  24
ATOM     24  O   UNL     1      40.375  32.842  25.362  1.00  0.00    -0.507 OA
ATOM     25  H   UNL     1      40.979  33.364  25.979  1.00  0.00     0.293 HD
ENDBRANCH   6  24
BRANCH   8  26
ATOM     26  O   UNL     1      40.706  29.218  22.229  1.00  0.00    -0.508 OA
ATOM     27  H   UNL     1      40.829  29.868  21.463  1.00  0.00     0.293 HD
ENDBRANCH   8  26
TORSDOF 6
ENDMDL
