MODEL 1
REMARK VINA RESULT:    -4.024      0.000      0.000
REMARK INTER + INTRA:          -4.539
REMARK INTER:                  -4.494
REMARK INTRA:                  -0.044
REMARK UNBOUND:                -0.044
REMARK SMILES O=C([O-])c1ccc(O)c(O)c1
REMARK SMILES IDX 4 1 11 2 5 3 9 4 6 5 7 6 2 7 1 8 3 9 10 10 8 12
REMARK H PARENT 10 11 8 13
REMARK Flexibility Score: inf
ROOT
ATOM      1  C   UNL     1      -8.200  -1.368   7.780  1.00  0.00     0.001 A 
ATOM      2  C   UNL     1      -8.458  -1.106   6.421  1.00  0.00     0.060 A 
ATOM      3  C   UNL     1      -9.272  -1.703   8.624  1.00  0.00     0.014 A 
ATOM      4  C   UNL     1      -9.761  -1.176   5.916  1.00  0.00     0.158 A 
ATOM      5  C   UNL     1     -10.574  -1.775   8.122  1.00  0.00     0.051 A 
ATOM      6  C   UNL     1     -10.825  -1.513   6.768  1.00  0.00     0.157 A 
ENDROOT
BRANCH   1   7
ATOM      7  C   UNL     1      -6.823  -1.292   8.316  1.00  0.00     0.072 C 
ATOM      8  O   UNL     1      -6.599  -1.503   9.538  1.00  0.00    -0.545 OA
ATOM      9  O   UNL     1      -5.757  -0.988   7.477  1.00  0.00    -0.545 OA
ENDBRANCH   1   7
BRANCH   4  10
ATOM     10  O   UNL     1      -9.978  -0.911   4.564  1.00  0.00    -0.504 OA
ATOM     11  H   UNL     1     -10.524  -1.527   3.974  1.00  0.00     0.293 HD
ENDBRANCH   4  10
BRANCH   6  12
ATOM     12  O   UNL     1     -12.125  -1.586   6.270  1.00  0.00    -0.504 OA
ATOM     13  H   UNL     1     -12.563  -2.475   6.057  1.00  0.00     0.293 HD
ENDBRANCH   6  12
TORSDOF 3
ENDMDL
MODEL 2
REMARK VINA RESULT:    -3.832      1.210      2.199
REMARK INTER + INTRA:          -4.325
REMARK INTER:                  -4.284
REMARK INTRA:                  -0.041
REMARK UNBOUND:                -0.044
REMARK SMILES O=C([O-])c1ccc(O)c(O)c1
REMARK SMILES IDX 4 1 11 2 5 3 9 4 6 5 7 6 2 7 1 8 3 9 10 10 8 12
REMARK H PARENT 10 11 8 13
REMARK Flexibility Score: inf
ROOT
ATOM      1  C   UNL     1      -8.472  -0.830   7.953  1.00  0.00     0.001 A 
ATOM      2  C   UNL     1      -9.794  -0.491   8.295  1.00  0.00     0.060 A 
ATOM      3  C   UNL     1      -8.184  -1.195   6.627  1.00  0.00     0.014 A 
ATOM      4  C   UNL     1     -10.810  -0.516   7.332  1.00  0.00     0.158 A 
ATOM      5  C   UNL     1      -9.196  -1.220   5.664  1.00  0.00     0.051 A 
ATOM      6  C   UNL     1     -10.511  -0.882   6.010  1.00  0.00     0.157 A 
ENDROOT
BRANCH   1   7
ATOM      7  C   UNL     1      -7.398  -0.805   8.971  1.00  0.00     0.072 C 
ATOM      8  O   UNL     1      -6.477  -1.665   8.952  1.00  0.00    -0.545 OA
ATOM      9  O   UNL     1      -7.390   0.170   9.961  1.00  0.00    -0.545 OA
ENDBRANCH   1   7
BRANCH   4  10
ATOM     10  O   UNL     1     -12.108  -0.174   7.709  1.00  0.00    -0.504 OA
ATOM     11  H   UNL     1     -12.769  -0.861   8.050  1.00  0.00     0.293 HD
ENDBRANCH   4  10
BRANCH   6  12
ATOM     12  O   UNL     1     -11.518  -0.908   5.046  1.00  0.00    -0.504 OA
ATOM     13  H   UNL     1     -12.061  -1.745   4.869  1.00  0.00     0.293 HD
ENDBRANCH   6  12
TORSDOF 3
ENDMDL
MODEL 3
REMARK VINA RESULT:    -3.655      2.025      2.313
REMARK INTER + INTRA:          -4.127
REMARK INTER:                  -4.089
REMARK INTRA:                  -0.038
REMARK UNBOUND:                -0.044
REMARK SMILES O=C([O-])c1ccc(O)c(O)c1
REMARK SMILES IDX 4 1 11 2 5 3 9 4 6 5 7 6 2 7 1 8 3 9 10 10 8 12
REMARK H PARENT 10 11 8 13
REMARK Flexibility Score: inf
ROOT
ATOM      1  C   UNL     1      -8.229  -0.461   8.565  1.00  0.00     0.001 A 
ATOM      2  C   UNL     1      -9.028  -0.824   7.466  1.00  0.00     0.060 A 
ATOM      3  C   UNL     1      -8.627   0.622   9.368  1.00  0.00     0.014 A 
ATOM      4  C   UNL     1     -10.202  -0.121   7.173  1.00  0.00     0.158 A 
ATOM      5  C   UNL     1      -9.798   1.325   9.078  1.00  0.00     0.051 A 
ATOM      6  C   UNL     1     -10.591   0.959   7.982  1.00  0.00     0.157 A 
ENDROOT
BRANCH   1   7
ATOM      7  C   UNL     1      -6.987  -1.204   8.875  1.00  0.00     0.072 C 
ATOM      8  O   UNL     1      -6.077  -1.319   8.011  1.00  0.00    -0.545 OA
ATOM      9  O   UNL     1      -6.807  -1.784  10.125  1.00  0.00    -0.545 OA
ENDBRANCH   1   7
BRANCH   4  10
ATOM     10  O   UNL     1     -10.969  -0.510   6.075  1.00  0.00    -0.504 OA
ATOM     11  H   UNL     1     -11.834  -1.028   6.178  1.00  0.00     0.293 HD
ENDBRANCH   4  10
BRANCH   6  12
ATOM     12  O   UNL     1     -11.759   1.663   7.696  1.00  0.00    -0.504 OA
ATOM     13  H   UNL     1     -11.969   1.985   6.758  1.00  0.00     0.293 HD
ENDBRANCH   6  12
TORSDOF 3
ENDMDL
MODEL 4
REMARK VINA RESULT:    -3.588     20.545     21.625
REMARK INTER + INTRA:          -4.052
REMARK INTER:                  -4.014
REMARK INTRA:                  -0.038
REMARK UNBOUND:                -0.044
REMARK SMILES O=C([O-])c1ccc(O)c(O)c1
REMARK SMILES IDX 4 1 11 2 5 3 9 4 6 5 7 6 2 7 1 8 3 9 10 10 8 12
REMARK H PARENT 10 11 8 13
REMARK Flexibility Score: inf
ROOT
ATOM      1  C   UNL     1       4.399   5.625  -8.727  1.00  0.00     0.001 A 
ATOM      2  C   UNL     1       3.737   4.387  -8.622  1.00  0.00     0.060 A 
ATOM      3  C   UNL     1       3.719   6.714  -9.299  1.00  0.00     0.014 A 
ATOM      4  C   UNL     1       2.423   4.239  -9.079  1.00  0.00     0.158 A 
ATOM      5  C   UNL     1       2.407   6.568  -9.756  1.00  0.00     0.051 A 
ATOM      6  C   UNL     1       1.752   5.333  -9.649  1.00  0.00     0.157 A 
ENDROOT
BRANCH   1   7
ATOM      7  C   UNL     1       5.789   5.783  -8.245  1.00  0.00     0.072 C 
ATOM      8  O   UNL     1       6.695   6.182  -9.024  1.00  0.00    -0.545 OA
ATOM      9  O   UNL     1       6.112   5.492  -6.925  1.00  0.00    -0.545 OA
ENDBRANCH   1   7
BRANCH   4  10
ATOM     10  O   UNL     1       1.800   2.997  -8.958  1.00  0.00    -0.504 OA
ATOM     11  H   UNL     1       0.888   2.891  -8.530  1.00  0.00     0.293 HD
ENDBRANCH   4  10
BRANCH   6  12
ATOM     12  O   UNL     1       0.443   5.192 -10.105  1.00  0.00    -0.504 OA
ATOM     13  H   UNL     1       0.161   4.401 -10.673  1.00  0.00     0.293 HD
ENDBRANCH   6  12
TORSDOF 3
ENDMDL
MODEL 5
REMARK VINA RESULT:    -3.567     10.031     12.280
REMARK INTER + INTRA:          -4.029
REMARK INTER:                  -3.984
REMARK INTRA:                  -0.044
REMARK UNBOUND:                -0.044
REMARK SMILES O=C([O-])c1ccc(O)c(O)c1
REMARK SMILES IDX 4 1 11 2 5 3 9 4 6 5 7 6 2 7 1 8 3 9 10 10 8 12
REMARK H PARENT 10 11 8 13
REMARK Flexibility Score: inf
ROOT
ATOM      1  C   UNL     1     -11.749   3.185  -4.132  1.00  0.00     0.001 A 
ATOM      2  C   UNL     1     -11.377   1.863  -3.825  1.00  0.00     0.060 A 
ATOM      3  C   UNL     1     -12.123   4.047  -3.087  1.00  0.00     0.014 A 
ATOM      4  C   UNL     1     -11.378   1.410  -2.500  1.00  0.00     0.158 A 
ATOM      5  C   UNL     1     -12.125   3.597  -1.764  1.00  0.00     0.051 A 
ATOM      6  C   UNL     1     -11.754   2.280  -1.464  1.00  0.00     0.157 A 
ENDROOT
BRANCH   1   7
ATOM      7  C   UNL     1     -11.749   3.664  -5.532  1.00  0.00     0.072 C 
ATOM      8  O   UNL     1     -12.080   4.849  -5.803  1.00  0.00    -0.545 OA
ATOM      9  O   UNL     1     -11.382   2.813  -6.567  1.00  0.00    -0.545 OA
ENDBRANCH   1   7
BRANCH   4  10
ATOM     10  O   UNL     1     -11.003   0.093  -2.235  1.00  0.00    -0.504 OA
ATOM     11  H   UNL     1     -10.129  -0.136  -1.776  1.00  0.00     0.293 HD
ENDBRANCH   4  10
BRANCH   6  12
ATOM     12  O   UNL     1     -11.756   1.835  -0.143  1.00  0.00    -0.504 OA
ATOM     13  H   UNL     1     -12.589   1.885   0.432  1.00  0.00     0.293 HD
ENDBRANCH   6  12
TORSDOF 3
ENDMDL
MODEL 6
REMARK VINA RESULT:    -3.517     18.032     18.662
REMARK INTER + INTRA:          -3.973
REMARK INTER:                  -3.937
REMARK INTRA:                  -0.036
REMARK UNBOUND:                -0.044
REMARK SMILES O=C([O-])c1ccc(O)c(O)c1
REMARK SMILES IDX 4 1 11 2 5 3 9 4 6 5 7 6 2 7 1 8 3 9 10 10 8 12
REMARK H PARENT 10 11 8 13
REMARK Flexibility Score: inf
ROOT
ATOM      1  C   UNL     1       0.777  -4.826  -8.594  1.00  0.00     0.001 A 
ATOM      2  C   UNL     1      -0.354  -5.659  -8.503  1.00  0.00     0.060 A 
ATOM      3  C   UNL     1       0.602  -3.476  -8.942  1.00  0.00     0.014 A 
ATOM      4  C   UNL     1      -1.635  -5.154  -8.755  1.00  0.00     0.158 A 
ATOM      5  C   UNL     1      -0.676  -2.969  -9.194  1.00  0.00     0.051 A 
ATOM      6  C   UNL     1      -1.799  -3.803  -9.102  1.00  0.00     0.157 A 
ENDROOT
BRANCH   1   7
ATOM      7  C   UNL     1       2.131  -5.359  -8.328  1.00  0.00     0.072 C 
ATOM      8  O   UNL     1       2.704  -6.102  -9.170  1.00  0.00    -0.545 OA
ATOM      9  O   UNL     1       2.791  -5.046  -7.146  1.00  0.00    -0.545 OA
ENDBRANCH   1   7
BRANCH   4  10
ATOM     10  O   UNL     1      -2.731  -6.009  -8.655  1.00  0.00    -0.504 OA
ATOM     11  H   UNL     1      -2.800  -6.863  -9.197  1.00  0.00     0.293 HD
ENDBRANCH   4  10
BRANCH   6  12
ATOM     12  O   UNL     1      -3.071  -3.294  -9.354  1.00  0.00    -0.504 OA
ATOM     13  H   UNL     1      -3.419  -3.177 -10.298  1.00  0.00     0.293 HD
ENDBRANCH   6  12
TORSDOF 3
ENDMDL
MODEL 7
REMARK VINA RESULT:    -3.445      7.244      7.248
REMARK INTER + INTRA:          -3.892
REMARK INTER:                  -3.855
REMARK INTRA:                  -0.037
REMARK UNBOUND:                -0.044
REMARK SMILES O=C([O-])c1ccc(O)c(O)c1
REMARK SMILES IDX 4 1 11 2 5 3 9 4 6 5 7 6 2 7 1 8 3 9 10 10 8 12
REMARK H PARENT 10 11 8 13
REMARK Flexibility Score: inf
ROOT
ATOM      1  C   UNL     1      -8.986   6.036   9.046  1.00  0.00     0.001 A 
ATOM      2  C   UNL     1      -9.373   6.193   7.702  1.00  0.00     0.060 A 
ATOM      3  C   UNL     1      -9.559   5.000   9.803  1.00  0.00     0.014 A 
ATOM      4  C   UNL     1     -10.314   5.332   7.125  1.00  0.00     0.158 A 
ATOM      5  C   UNL     1     -10.497   4.139   9.229  1.00  0.00     0.051 A 
ATOM      6  C   UNL     1     -10.879   4.299   7.890  1.00  0.00     0.157 A 
ENDROOT
BRANCH   1   7
ATOM      7  C   UNL     1      -7.993   6.946   9.657  1.00  0.00     0.072 C 
ATOM      8  O   UNL     1      -6.879   6.507  10.052  1.00  0.00    -0.545 OA
ATOM      9  O   UNL     1      -8.274   8.299   9.803  1.00  0.00    -0.545 OA
ENDBRANCH   1   7
BRANCH   4  10
ATOM     10  O   UNL     1     -10.672   5.518   5.790  1.00  0.00    -0.504 OA
ATOM     11  H   UNL     1     -10.004   5.818   5.090  1.00  0.00     0.293 HD
ENDBRANCH   4  10
BRANCH   6  12
ATOM     12  O   UNL     1     -11.815   3.438   7.321  1.00  0.00    -0.504 OA
ATOM     13  H   UNL     1     -12.114   3.540   6.358  1.00  0.00     0.293 HD
ENDBRANCH   6  12
TORSDOF 3
ENDMDL
MODEL 8
REMARK VINA RESULT:    -3.440     18.010     18.555
REMARK INTER + INTRA:          -3.887
REMARK INTER:                  -3.850
REMARK INTRA:                  -0.037
REMARK UNBOUND:                -0.044
REMARK SMILES O=C([O-])c1ccc(O)c(O)c1
REMARK SMILES IDX 4 1 11 2 5 3 9 4 6 5 7 6 2 7 1 8 3 9 10 10 8 12
REMARK H PARENT 10 11 8 13
REMARK Flexibility Score: inf
ROOT
ATOM      1  C   UNL     1       0.510  -2.264  -8.694  1.00  0.00     0.001 A 
ATOM      2  C   UNL     1      -0.864  -2.099  -8.946  1.00  0.00     0.060 A 
ATOM      3  C   UNL     1       1.051  -3.561  -8.695  1.00  0.00     0.014 A 
ATOM      4  C   UNL     1      -1.683  -3.207  -9.194  1.00  0.00     0.158 A 
ATOM      5  C   UNL     1       0.236  -4.668  -8.943  1.00  0.00     0.051 A 
ATOM      6  C   UNL     1      -1.132  -4.498  -9.193  1.00  0.00     0.157 A 
ENDROOT
BRANCH   1   7
ATOM      7  C   UNL     1       1.377  -1.094  -8.431  1.00  0.00     0.072 C 
ATOM      8  O   UNL     1       1.581  -0.234  -9.329  1.00  0.00    -0.545 OA
ATOM      9  O   UNL     1       1.976  -0.927  -7.189  1.00  0.00    -0.545 OA
ENDBRANCH   1   7
BRANCH   4  10
ATOM     10  O   UNL     1      -3.040  -3.003  -9.441  1.00  0.00    -0.504 OA
ATOM     11  H   UNL     1      -3.417  -2.089  -9.664  1.00  0.00     0.293 HD
ENDBRANCH   4  10
BRANCH   6  12
ATOM     12  O   UNL     1      -1.942  -5.605  -9.440  1.00  0.00    -0.504 OA
ATOM     13  H   UNL     1      -1.562  -6.544  -9.472  1.00  0.00     0.293 HD
ENDBRANCH   6  12
TORSDOF 3
ENDMDL
