MODEL 1
REMARK VINA RESULT:    -5.952      0.000      0.000
REMARK INTER + INTRA:         -10.717
REMARK INTER:                  -9.084
REMARK INTRA:                  -1.633
REMARK UNBOUND:                -1.633
REMARK SMILES OC[C@@H]1O[C@H](O[C@@]2(CO)O[C@@H](CO)[C@H](O)[C@@H]2O)[C@H](O)[C@@H](O)[C@@H]1O
REMARK SMILES IDX 6 1 5 2 3 3 22 4 4 5 20 6 18 7 2 8 1 9 23 11 21 13 19 15
REMARK SMILES IDX 7 17 16 18 10 19 14 20 11 21 8 22 9 23 17 25 15 27 12 29
REMARK SMILES IDX 13 30
REMARK H PARENT 1 10 23 12 21 14 19 16 9 24 17 26 15 28 13 31
REMARK Flexibility Score: inf
ROOT
ATOM      1  O   UNL     1       9.581 -24.715  53.068  1.00  0.00    -0.313 OA
ENDROOT
BRANCH   1   2
ATOM      2  C   UNL     1       8.828 -25.076  51.917  1.00  0.00     0.285 C 
ATOM      3  C   UNL     1      10.634 -25.917  50.581  1.00  0.00     0.178 C 
ATOM      4  C   UNL     1      10.136 -27.375  50.756  1.00  0.00     0.177 C 
ATOM      5  O   UNL     1       9.603 -24.945  50.731  1.00  0.00    -0.341 OA
ATOM      6  C   UNL     1       9.311 -27.559  52.039  1.00  0.00     0.179 C 
ATOM      7  C   UNL     1       8.221 -26.484  52.083  1.00  0.00     0.202 C 
BRANCH   3   8
ATOM      8  C   UNL     1      11.926 -25.538  51.341  1.00  0.00     0.191 C 
BRANCH   8   9
ATOM      9  O   UNL     1      12.002 -24.165  51.602  1.00  0.00    -0.394 OA
ATOM     10  H   UNL     1      11.692 -24.044  52.538  1.00  0.00     0.210 HD
ENDBRANCH   8   9
ENDBRANCH   3   8
BRANCH   4  11
ATOM     11  O   UNL     1      11.193 -28.300  50.671  1.00  0.00    -0.387 OA
ATOM     12  H   UNL     1      10.819 -29.174  50.386  1.00  0.00     0.211 HD
ENDBRANCH   4  11
BRANCH   6  13
ATOM     13  O   UNL     1       8.725 -28.836  52.027  1.00  0.00    -0.387 OA
ATOM     14  H   UNL     1       7.810 -28.731  51.655  1.00  0.00     0.211 HD
ENDBRANCH   6  13
BRANCH   7  15
ATOM     15  O   UNL     1       7.528 -26.571  53.302  1.00  0.00    -0.385 OA
ATOM     16  H   UNL     1       8.195 -26.422  54.021  1.00  0.00     0.211 HD
ENDBRANCH   7  15
ENDBRANCH   1   2
BRANCH   1  17
ATOM     17  C   UNL     1       9.161 -23.493  53.676  1.00  0.00     0.224 C 
ATOM     18  C   UNL     1       7.904 -22.942  52.931  1.00  0.00     0.208 C 
ATOM     19  O   UNL     1      10.193 -22.517  53.622  1.00  0.00    -0.337 OA
ATOM     20  C   UNL     1       8.374 -21.609  52.373  1.00  0.00     0.180 C 
ATOM     21  C   UNL     1       9.617 -21.295  53.214  1.00  0.00     0.179 C 
BRANCH  17  22
ATOM     22  C   UNL     1       8.900 -23.822  55.164  1.00  0.00     0.225 C 
BRANCH  22  23
ATOM     23  O   UNL     1       9.377 -25.098  55.494  1.00  0.00    -0.391 OA
ATOM     24  H   UNL     1       9.307 -25.172  56.481  1.00  0.00     0.210 HD
ENDBRANCH  22  23
ENDBRANCH  17  22
BRANCH  18  25
ATOM     25  O   UNL     1       6.754 -22.835  53.741  1.00  0.00    -0.385 OA
ATOM     26  H   UNL     1       6.627 -21.885  53.992  1.00  0.00     0.211 HD
ENDBRANCH  18  25
BRANCH  20  27
ATOM     27  O   UNL     1       7.386 -20.603  52.404  1.00  0.00    -0.387 OA
ATOM     28  H   UNL     1       6.508 -21.000  52.168  1.00  0.00     0.211 HD
ENDBRANCH  20  27
BRANCH  21  29
ATOM     29  C   UNL     1      10.654 -20.481  52.433  1.00  0.00     0.191 C 
BRANCH  29  30
ATOM     30  O   UNL     1      11.271 -21.289  51.470  1.00  0.00    -0.394 OA
ATOM     31  H   UNL     1      12.236 -21.304  51.701  1.00  0.00     0.210 HD
ENDBRANCH  29  30
ENDBRANCH  21  29
ENDBRANCH   1  17
TORSDOF 13
ENDMDL
MODEL 2
REMARK VINA RESULT:    -5.749      1.943      5.756
REMARK INTER + INTRA:         -10.406
REMARK INTER:                  -8.920
REMARK INTRA:                  -1.486
REMARK UNBOUND:                -1.633
REMARK SMILES OC[C@@H]1O[C@H](O[C@@]2(CO)O[C@@H](CO)[C@H](O)[C@@H]2O)[C@H](O)[C@@H](O)[C@@H]1O
REMARK SMILES IDX 6 1 5 2 3 3 22 4 4 5 20 6 18 7 2 8 1 9 23 11 21 13 19 15
REMARK SMILES IDX 7 17 16 18 10 19 14 20 11 21 8 22 9 23 17 25 15 27 12 29
REMARK SMILES IDX 13 30
REMARK H PARENT 1 10 23 12 21 14 19 16 9 24 17 26 15 28 13 31
REMARK Flexibility Score: inf
ROOT
ATOM      1  O   UNL     1       9.680 -24.908  53.479  1.00  0.00    -0.313 OA
ENDROOT
BRANCH   1   2
ATOM      2  C   UNL     1       9.082 -24.040  52.523  1.00  0.00     0.285 C 
ATOM      3  C   UNL     1       7.517 -22.956  53.982  1.00  0.00     0.178 C 
ATOM      4  C   UNL     1       8.331 -21.637  53.939  1.00  0.00     0.177 C 
ATOM      5  O   UNL     1       7.720 -23.783  52.840  1.00  0.00    -0.341 OA
ATOM      6  C   UNL     1       9.814 -21.878  53.619  1.00  0.00     0.179 C 
ATOM      7  C   UNL     1       9.913 -22.751  52.364  1.00  0.00     0.202 C 
BRANCH   3   8
ATOM      8  C   UNL     1       7.567 -23.749  55.309  1.00  0.00     0.191 C 
BRANCH   8   9
ATOM      9  O   UNL     1       8.798 -23.612  55.960  1.00  0.00    -0.394 OA
ATOM     10  H   UNL     1       8.881 -24.396  56.562  1.00  0.00     0.210 HD
ENDBRANCH   8   9
ENDBRANCH   3   8
BRANCH   4  11
ATOM     11  O   UNL     1       8.161 -20.881  55.114  1.00  0.00    -0.387 OA
ATOM     12  H   UNL     1       8.110 -19.923  54.862  1.00  0.00     0.211 HD
ENDBRANCH   4  11
BRANCH   6  13
ATOM     13  O   UNL     1      10.441 -20.640  53.393  1.00  0.00    -0.387 OA
ATOM     14  H   UNL     1       9.783 -19.935  53.630  1.00  0.00     0.211 HD
ENDBRANCH   6  13
BRANCH   7  15
ATOM     15  O   UNL     1      11.260 -23.070  52.122  1.00  0.00    -0.385 OA
ATOM     16  H   UNL     1      11.772 -22.224  52.198  1.00  0.00     0.211 HD
ENDBRANCH   7  15
ENDBRANCH   1   2
BRANCH   1  17
ATOM     17  C   UNL     1      10.104 -26.160  52.938  1.00  0.00     0.224 C 
ATOM     18  C   UNL     1      10.691 -27.051  54.078  1.00  0.00     0.208 C 
ATOM     19  O   UNL     1      11.100 -25.974  51.941  1.00  0.00    -0.337 OA
ATOM     20  C   UNL     1      12.139 -27.255  53.664  1.00  0.00     0.180 C 
ATOM     21  C   UNL     1      12.128 -26.912  52.170  1.00  0.00     0.179 C 
BRANCH  17  22
ATOM     22  C   UNL     1       8.860 -26.775  52.255  1.00  0.00     0.225 C 
BRANCH  22  23
ATOM     23  O   UNL     1       7.802 -26.922  53.162  1.00  0.00    -0.391 OA
ATOM     24  H   UNL     1       6.969 -26.806  52.636  1.00  0.00     0.210 HD
ENDBRANCH  22  23
ENDBRANCH  17  22
BRANCH  18  25
ATOM     25  O   UNL     1       9.993 -28.259  54.284  1.00  0.00    -0.385 OA
ATOM     26  H   UNL     1      10.155 -28.859  53.512  1.00  0.00     0.211 HD
ENDBRANCH  18  25
BRANCH  20  27
ATOM     27  O   UNL     1      12.635 -28.542  53.957  1.00  0.00    -0.387 OA
ATOM     28  H   UNL     1      13.251 -28.486  54.732  1.00  0.00     0.211 HD
ENDBRANCH  20  27
BRANCH  21  29
ATOM     29  C   UNL     1      13.463 -26.325  51.700  1.00  0.00     0.191 C 
BRANCH  29  30
ATOM     30  O   UNL     1      14.175 -25.818  52.794  1.00  0.00    -0.394 OA
ATOM     31  H   UNL     1      15.099 -25.655  52.470  1.00  0.00     0.210 HD
ENDBRANCH  29  30
ENDBRANCH  21  29
ENDBRANCH   1  17
TORSDOF 13
ENDMDL
MODEL 3
REMARK VINA RESULT:    -5.669      1.578      5.789
REMARK INTER + INTRA:         -10.285
REMARK INTER:                  -8.403
REMARK INTRA:                  -1.882
REMARK UNBOUND:                -1.633
REMARK SMILES OC[C@@H]1O[C@H](O[C@@]2(CO)O[C@@H](CO)[C@H](O)[C@@H]2O)[C@H](O)[C@@H](O)[C@@H]1O
REMARK SMILES IDX 6 1 5 2 3 3 22 4 4 5 20 6 18 7 2 8 1 9 23 11 21 13 19 15
REMARK SMILES IDX 7 17 16 18 10 19 14 20 11 21 8 22 9 23 17 25 15 27 12 29
REMARK SMILES IDX 13 30
REMARK H PARENT 1 10 23 12 21 14 19 16 9 24 17 26 15 28 13 31
REMARK Flexibility Score: inf
ROOT
ATOM      1  O   UNL     1       9.896 -24.119  52.591  1.00  0.00    -0.313 OA
ENDROOT
BRANCH   1   2
ATOM      2  C   UNL     1       8.525 -23.775  52.435  1.00  0.00     0.285 C 
ATOM      3  C   UNL     1       8.108 -23.023  54.674  1.00  0.00     0.178 C 
ATOM      4  C   UNL     1       8.021 -21.547  54.204  1.00  0.00     0.177 C 
ATOM      5  O   UNL     1       7.805 -23.962  53.648  1.00  0.00    -0.341 OA
ATOM      6  C   UNL     1       8.806 -21.303  52.907  1.00  0.00     0.179 C 
ATOM      7  C   UNL     1       8.383 -22.348  51.869  1.00  0.00     0.202 C 
BRANCH   3   8
ATOM      8  C   UNL     1       9.367 -23.411  55.485  1.00  0.00     0.191 C 
BRANCH   8   9
ATOM      9  O   UNL     1       9.579 -24.794  55.501  1.00  0.00    -0.394 OA
ATOM     10  H   UNL     1      10.549 -24.927  55.338  1.00  0.00     0.210 HD
ENDBRANCH   8   9
ENDBRANCH   3   8
BRANCH   4  11
ATOM     11  O   UNL     1       8.396 -20.653  55.224  1.00  0.00    -0.387 OA
ATOM     12  H   UNL     1       7.781 -20.783  55.992  1.00  0.00     0.211 HD
ENDBRANCH   4  11
BRANCH   6  13
ATOM     13  O   UNL     1       8.515 -20.012  52.433  1.00  0.00    -0.387 OA
ATOM     14  H   UNL     1       7.528 -19.906  52.469  1.00  0.00     0.211 HD
ENDBRANCH   6  13
BRANCH   7  15
ATOM     15  O   UNL     1       9.169 -22.205  50.714  1.00  0.00    -0.385 OA
ATOM     16  H   UNL     1       9.890 -21.560  50.937  1.00  0.00     0.211 HD
ENDBRANCH   7  15
ENDBRANCH   1   2
BRANCH   1  17
ATOM     17  C   UNL     1      10.231 -25.412  52.084  1.00  0.00     0.224 C 
ATOM     18  C   UNL     1       8.944 -26.111  51.544  1.00  0.00     0.208 C 
ATOM     19  O   UNL     1      10.804 -26.223  53.100  1.00  0.00    -0.337 OA
ATOM     20  C   UNL     1       8.806 -27.340  52.429  1.00  0.00     0.180 C 
ATOM     21  C   UNL     1      10.208 -27.500  53.028  1.00  0.00     0.179 C 
BRANCH  17  22
ATOM     22  C   UNL     1      11.308 -25.181  51.000  1.00  0.00     0.225 C 
BRANCH  22  23
ATOM     23  O   UNL     1      10.829 -24.356  49.973  1.00  0.00    -0.391 OA
ATOM     24  H   UNL     1      11.119 -23.435  50.200  1.00  0.00     0.210 HD
ENDBRANCH  22  23
ENDBRANCH  17  22
BRANCH  18  25
ATOM     25  O   UNL     1       8.988 -26.416  50.167  1.00  0.00    -0.385 OA
ATOM     26  H   UNL     1       8.756 -25.603  49.651  1.00  0.00     0.211 HD
ENDBRANCH  18  25
BRANCH  20  27
ATOM     27  O   UNL     1       8.336 -28.480  51.744  1.00  0.00    -0.387 OA
ATOM     28  H   UNL     1       7.719 -28.196  51.022  1.00  0.00     0.211 HD
ENDBRANCH  20  27
BRANCH  21  29
ATOM     29  C   UNL     1      10.172 -28.123  54.427  1.00  0.00     0.191 C 
BRANCH  29  30
ATOM     30  O   UNL     1      10.904 -27.334  55.322  1.00  0.00    -0.394 OA
ATOM     31  H   UNL     1      11.637 -27.911  55.662  1.00  0.00     0.210 HD
ENDBRANCH  29  30
ENDBRANCH  21  29
ENDBRANCH   1  17
TORSDOF 13
ENDMDL
MODEL 4
REMARK VINA RESULT:    -5.650      1.743      3.438
REMARK INTER + INTRA:         -10.256
REMARK INTER:                  -8.913
REMARK INTRA:                  -1.343
REMARK UNBOUND:                -1.633
REMARK SMILES OC[C@@H]1O[C@H](O[C@@]2(CO)O[C@@H](CO)[C@H](O)[C@@H]2O)[C@H](O)[C@@H](O)[C@@H]1O
REMARK SMILES IDX 6 1 5 2 3 3 22 4 4 5 20 6 18 7 2 8 1 9 23 11 21 13 19 15
REMARK SMILES IDX 7 17 16 18 10 19 14 20 11 21 8 22 9 23 17 25 15 27 12 29
REMARK SMILES IDX 13 30
REMARK H PARENT 1 10 23 12 21 14 19 16 9 24 17 26 15 28 13 31
REMARK Flexibility Score: inf
ROOT
ATOM      1  O   UNL     1       9.312 -23.771  52.829  1.00  0.00    -0.313 OA
ENDROOT
BRANCH   1   2
ATOM      2  C   UNL     1       8.407 -24.733  53.355  1.00  0.00     0.285 C 
ATOM      3  C   UNL     1       8.853 -26.504  51.800  1.00  0.00     0.178 C 
ATOM      4  C   UNL     1       9.589 -27.328  52.890  1.00  0.00     0.177 C 
ATOM      5  O   UNL     1       7.905 -25.584  52.332  1.00  0.00    -0.341 OA
ATOM      6  C   UNL     1      10.164 -26.438  54.002  1.00  0.00     0.179 C 
ATOM      7  C   UNL     1       9.056 -25.513  54.516  1.00  0.00     0.202 C 
BRANCH   3   8
ATOM      8  C   UNL     1       9.739 -25.878  50.699  1.00  0.00     0.191 C 
BRANCH   8   9
ATOM      9  O   UNL     1       9.424 -26.366  49.426  1.00  0.00    -0.394 OA
ATOM     10  H   UNL     1       9.339 -25.571  48.838  1.00  0.00     0.210 HD
ENDBRANCH   8   9
ENDBRANCH   3   8
BRANCH   4  11
ATOM     11  O   UNL     1      10.566 -28.173  52.332  1.00  0.00    -0.387 OA
ATOM     12  H   UNL     1      10.104 -28.897  51.837  1.00  0.00     0.211 HD
ENDBRANCH   4  11
BRANCH   6  13
ATOM     13  O   UNL     1      10.628 -27.256  55.047  1.00  0.00    -0.387 OA
ATOM     14  H   UNL     1       9.990 -28.013  55.128  1.00  0.00     0.211 HD
ENDBRANCH   6  13
BRANCH   7  15
ATOM     15  O   UNL     1       9.593 -24.620  55.458  1.00  0.00    -0.385 OA
ATOM     16  H   UNL     1      10.581 -24.686  55.385  1.00  0.00     0.211 HD
ENDBRANCH   7  15
ENDBRANCH   1   2
BRANCH   1  17
ATOM     17  C   UNL     1       8.930 -22.417  53.080  1.00  0.00     0.224 C 
ATOM     18  C   UNL     1      10.158 -21.617  53.615  1.00  0.00     0.208 C 
ATOM     19  O   UNL     1       7.885 -22.355  54.042  1.00  0.00    -0.337 OA
ATOM     20  C   UNL     1       9.728 -21.189  55.009  1.00  0.00     0.180 C 
ATOM     21  C   UNL     1       8.203 -21.337  54.966  1.00  0.00     0.179 C 
BRANCH  17  22
ATOM     22  C   UNL     1       8.375 -21.874  51.744  1.00  0.00     0.225 C 
BRANCH  22  23
ATOM     23  O   UNL     1       7.699 -20.660  51.929  1.00  0.00    -0.391 OA
ATOM     24  H   UNL     1       7.085 -20.565  51.156  1.00  0.00     0.210 HD
ENDBRANCH  22  23
ENDBRANCH  17  22
BRANCH  18  25
ATOM     25  O   UNL     1      10.545 -20.537  52.794  1.00  0.00    -0.385 OA
ATOM     26  H   UNL     1       9.751 -19.974  52.610  1.00  0.00     0.211 HD
ENDBRANCH  18  25
BRANCH  20  27
ATOM     27  O   UNL     1      10.174 -19.900  55.368  1.00  0.00    -0.387 OA
ATOM     28  H   UNL     1      10.990 -19.680  54.849  1.00  0.00     0.211 HD
ENDBRANCH  20  27
BRANCH  21  29
ATOM     29  C   UNL     1       7.617 -21.694  56.335  1.00  0.00     0.191 C 
BRANCH  29  30
ATOM     30  O   UNL     1       7.093 -22.992  56.309  1.00  0.00    -0.394 OA
ATOM     31  H   UNL     1       7.874 -23.605  56.299  1.00  0.00     0.210 HD
ENDBRANCH  29  30
ENDBRANCH  21  29
ENDBRANCH   1  17
TORSDOF 13
ENDMDL
MODEL 5
REMARK VINA RESULT:    -5.592      1.512      5.600
REMARK INTER + INTRA:         -10.166
REMARK INTER:                  -8.197
REMARK INTRA:                  -1.970
REMARK UNBOUND:                -1.633
REMARK SMILES OC[C@@H]1O[C@H](O[C@@]2(CO)O[C@@H](CO)[C@H](O)[C@@H]2O)[C@H](O)[C@@H](O)[C@@H]1O
REMARK SMILES IDX 6 1 5 2 3 3 22 4 4 5 20 6 18 7 2 8 1 9 23 11 21 13 19 15
REMARK SMILES IDX 7 17 16 18 10 19 14 20 11 21 8 22 9 23 17 25 15 27 12 29
REMARK SMILES IDX 13 30
REMARK H PARENT 1 10 23 12 21 14 19 16 9 24 17 26 15 28 13 31
REMARK Flexibility Score: inf
ROOT
ATOM      1  O   UNL     1       9.196 -24.266  52.414  1.00  0.00    -0.313 OA
ENDROOT
BRANCH   1   2
ATOM      2  C   UNL     1       9.861 -23.493  53.406  1.00  0.00     0.285 C 
ATOM      3  C   UNL     1       8.991 -21.342  52.801  1.00  0.00     0.178 C 
ATOM      4  C   UNL     1       8.102 -21.301  54.071  1.00  0.00     0.177 C 
ATOM      5  O   UNL     1      10.136 -22.178  52.938  1.00  0.00    -0.341 OA
ATOM      6  C   UNL     1       7.767 -22.707  54.592  1.00  0.00     0.179 C 
ATOM      7  C   UNL     1       9.067 -23.505  54.728  1.00  0.00     0.202 C 
BRANCH   3   8
ATOM      8  C   UNL     1       8.257 -21.553  51.456  1.00  0.00     0.191 C 
BRANCH   8   9
ATOM      9  O   UNL     1       9.142 -21.833  50.409  1.00  0.00    -0.394 OA
ATOM     10  H   UNL     1       8.587 -21.906  49.589  1.00  0.00     0.210 HD
ENDBRANCH   8   9
ENDBRANCH   3   8
BRANCH   4  11
ATOM     11  O   UNL     1       6.946 -20.523  53.872  1.00  0.00    -0.387 OA
ATOM     12  H   UNL     1       7.223 -19.575  53.780  1.00  0.00     0.211 HD
ENDBRANCH   4  11
BRANCH   6  13
ATOM     13  O   UNL     1       7.142 -22.592  55.846  1.00  0.00    -0.387 OA
ATOM     14  H   UNL     1       7.146 -21.628  56.085  1.00  0.00     0.211 HD
ENDBRANCH   6  13
BRANCH   7  15
ATOM     15  O   UNL     1       8.768 -24.826  55.100  1.00  0.00    -0.385 OA
ATOM     16  H   UNL     1       9.557 -25.169  55.596  1.00  0.00     0.211 HD
ENDBRANCH   7  15
ENDBRANCH   1   2
BRANCH   1  17
ATOM     17  C   UNL     1       9.898 -25.450  52.034  1.00  0.00     0.224 C 
ATOM     18  C   UNL     1       8.876 -26.565  51.651  1.00  0.00     0.208 C 
ATOM     19  O   UNL     1      10.715 -25.920  53.099  1.00  0.00    -0.337 OA
ATOM     20  C   UNL     1       9.140 -27.660  52.672  1.00  0.00     0.180 C 
ATOM     21  C   UNL     1      10.536 -27.316  53.203  1.00  0.00     0.179 C 
BRANCH  17  22
ATOM     22  C   UNL     1      10.829 -25.041  50.870  1.00  0.00     0.225 C 
BRANCH  22  23
ATOM     23  O   UNL     1      10.104 -24.471  49.814  1.00  0.00    -0.391 OA
ATOM     24  H   UNL     1       9.468 -23.833  50.229  1.00  0.00     0.210 HD
ENDBRANCH  22  23
ENDBRANCH  17  22
BRANCH  18  25
ATOM     25  O   UNL     1       8.980 -27.010  50.316  1.00  0.00    -0.385 OA
ATOM     26  H   UNL     1       9.913 -27.297  50.146  1.00  0.00     0.211 HD
ENDBRANCH  18  25
BRANCH  20  27
ATOM     27  O   UNL     1       9.026 -28.963  52.146  1.00  0.00    -0.387 OA
ATOM     28  H   UNL     1       9.910 -29.257  51.805  1.00  0.00     0.211 HD
ENDBRANCH  20  27
BRANCH  21  29
ATOM     29  C   UNL     1      10.723 -27.744  54.661  1.00  0.00     0.191 C 
BRANCH  29  30
ATOM     30  O   UNL     1      10.858 -26.615  55.479  1.00  0.00    -0.394 OA
ATOM     31  H   UNL     1      11.150 -25.877  54.882  1.00  0.00     0.210 HD
ENDBRANCH  29  30
ENDBRANCH  21  29
ENDBRANCH   1  17
TORSDOF 13
ENDMDL
MODEL 6
REMARK VINA RESULT:    -5.349      1.768      5.469
REMARK INTER + INTRA:          -9.797
REMARK INTER:                  -8.077
REMARK INTRA:                  -1.719
REMARK UNBOUND:                -1.633
REMARK SMILES OC[C@@H]1O[C@H](O[C@@]2(CO)O[C@@H](CO)[C@H](O)[C@@H]2O)[C@H](O)[C@@H](O)[C@@H]1O
REMARK SMILES IDX 6 1 5 2 3 3 22 4 4 5 20 6 18 7 2 8 1 9 23 11 21 13 19 15
REMARK SMILES IDX 7 17 16 18 10 19 14 20 11 21 8 22 9 23 17 25 15 27 12 29
REMARK SMILES IDX 13 30
REMARK H PARENT 1 10 23 12 21 14 19 16 9 24 17 26 15 28 13 31
REMARK Flexibility Score: inf
ROOT
ATOM      1  O   UNL     1      10.199 -23.984  52.158  1.00  0.00    -0.313 OA
ENDROOT
BRANCH   1   2
ATOM      2  C   UNL     1       8.792 -24.005  51.957  1.00  0.00     0.285 C 
ATOM      3  C   UNL     1       8.161 -24.960  54.064  1.00  0.00     0.178 C 
ATOM      4  C   UNL     1       7.576 -23.607  54.547  1.00  0.00     0.177 C 
ATOM      5  O   UNL     1       8.187 -25.092  52.647  1.00  0.00    -0.341 OA
ATOM      6  C   UNL     1       8.221 -22.407  53.837  1.00  0.00     0.179 C 
ATOM      7  C   UNL     1       8.169 -22.642  52.324  1.00  0.00     0.202 C 
BRANCH   3   8
ATOM      8  C   UNL     1       9.483 -25.410  54.729  1.00  0.00     0.191 C 
BRANCH   8   9
ATOM      9  O   UNL     1      10.007 -26.564  54.135  1.00  0.00    -0.394 OA
ATOM     10  H   UNL     1      10.810 -26.808  54.665  1.00  0.00     0.210 HD
ENDBRANCH   8   9
ENDBRANCH   3   8
BRANCH   4  11
ATOM     11  O   UNL     1       7.632 -23.485  55.948  1.00  0.00    -0.387 OA
ATOM     12  H   UNL     1       8.568 -23.277  56.203  1.00  0.00     0.211 HD
ENDBRANCH   4  11
BRANCH   6  13
ATOM     13  O   UNL     1       7.506 -21.243  54.166  1.00  0.00    -0.387 OA
ATOM     14  H   UNL     1       8.135 -20.480  54.070  1.00  0.00     0.211 HD
ENDBRANCH   6  13
BRANCH   7  15
ATOM     15  O   UNL     1       8.852 -21.605  51.667  1.00  0.00    -0.385 OA
ATOM     16  H   UNL     1       8.168 -20.941  51.393  1.00  0.00     0.211 HD
ENDBRANCH   7  15
ENDBRANCH   1   2
BRANCH   1  17
ATOM     17  C   UNL     1      10.934 -24.738  51.193  1.00  0.00     0.224 C 
ATOM     18  C   UNL     1      10.195 -24.693  49.819  1.00  0.00     0.208 C 
ATOM     19  O   UNL     1      11.065 -26.094  51.601  1.00  0.00    -0.337 OA
ATOM     20  C   UNL     1       9.841 -26.147  49.554  1.00  0.00     0.180 C 
ATOM     21  C   UNL     1      10.785 -26.914  50.487  1.00  0.00     0.179 C 
BRANCH  17  22
ATOM     22  C   UNL     1      12.350 -24.118  51.152  1.00  0.00     0.225 C 
BRANCH  22  23
ATOM     23  O   UNL     1      13.263 -24.885  51.890  1.00  0.00    -0.391 OA
ATOM     24  H   UNL     1      13.125 -24.638  52.841  1.00  0.00     0.210 HD
ENDBRANCH  22  23
ENDBRANCH  17  22
BRANCH  18  25
ATOM     25  O   UNL     1      10.944 -24.102  48.780  1.00  0.00    -0.385 OA
ATOM     26  H   UNL     1      11.416 -23.307  49.138  1.00  0.00     0.211 HD
ENDBRANCH  18  25
BRANCH  20  27
ATOM     27  O   UNL     1       9.944 -26.516  48.197  1.00  0.00    -0.387 OA
ATOM     28  H   UNL     1      10.873 -26.360  47.885  1.00  0.00     0.211 HD
ENDBRANCH  20  27
BRANCH  21  29
ATOM     29  C   UNL     1      10.177 -28.234  50.970  1.00  0.00     0.191 C 
BRANCH  29  30
ATOM     30  O   UNL     1       9.026 -27.984  51.725  1.00  0.00    -0.394 OA
ATOM     31  H   UNL     1       9.226 -28.300  52.645  1.00  0.00     0.210 HD
ENDBRANCH  29  30
ENDBRANCH  21  29
ENDBRANCH   1  17
TORSDOF 13
ENDMDL
MODEL 7
REMARK VINA RESULT:    -5.349      1.864      5.223
REMARK INTER + INTRA:          -9.796
REMARK INTER:                  -8.152
REMARK INTRA:                  -1.643
REMARK UNBOUND:                -1.633
REMARK SMILES OC[C@@H]1O[C@H](O[C@@]2(CO)O[C@@H](CO)[C@H](O)[C@@H]2O)[C@H](O)[C@@H](O)[C@@H]1O
REMARK SMILES IDX 6 1 5 2 3 3 22 4 4 5 20 6 18 7 2 8 1 9 23 11 21 13 19 15
REMARK SMILES IDX 7 17 16 18 10 19 14 20 11 21 8 22 9 23 17 25 15 27 12 29
REMARK SMILES IDX 13 30
REMARK H PARENT 1 10 23 12 21 14 19 16 9 24 17 26 15 28 13 31
REMARK Flexibility Score: inf
ROOT
ATOM      1  O   UNL     1       9.372 -25.629  51.966  1.00  0.00    -0.313 OA
ENDROOT
BRANCH   1   2
ATOM      2  C   UNL     1       9.760 -24.736  53.003  1.00  0.00     0.285 C 
ATOM      3  C   UNL     1       9.996 -22.754  51.673  1.00  0.00     0.178 C 
ATOM      4  C   UNL     1       8.716 -22.137  52.295  1.00  0.00     0.177 C 
ATOM      5  O   UNL     1      10.624 -23.718  52.512  1.00  0.00    -0.341 OA
ATOM      6  C   UNL     1       7.748 -23.209  52.818  1.00  0.00     0.179 C 
ATOM      7  C   UNL     1       8.520 -24.170  53.726  1.00  0.00     0.202 C 
BRANCH   3   8
ATOM      8  C   UNL     1       9.887 -23.223  50.204  1.00  0.00     0.191 C 
BRANCH   8   9
ATOM      9  O   UNL     1      10.930 -24.085  49.846  1.00  0.00    -0.394 OA
ATOM     10  H   UNL     1      10.685 -24.978  50.203  1.00  0.00     0.210 HD
ENDBRANCH   8   9
ENDBRANCH   3   8
BRANCH   4  11
ATOM     11  O   UNL     1       8.086 -21.243  51.409  1.00  0.00    -0.387 OA
ATOM     12  H   UNL     1       8.407 -21.438  50.491  1.00  0.00     0.211 HD
ENDBRANCH   4  11
BRANCH   6  13
ATOM     13  O   UNL     1       6.722 -22.582  53.545  1.00  0.00    -0.387 OA
ATOM     14  H   UNL     1       6.091 -23.295  53.829  1.00  0.00     0.211 HD
ENDBRANCH   6  13
BRANCH   7  15
ATOM     15  O   UNL     1       7.673 -25.218  54.125  1.00  0.00    -0.385 OA
ATOM     16  H   UNL     1       8.228 -26.041  54.149  1.00  0.00     0.211 HD
ENDBRANCH   7  15
ENDBRANCH   1   2
BRANCH   1  17
ATOM     17  C   UNL     1      10.124 -26.843  51.936  1.00  0.00     0.224 C 
ATOM     18  C   UNL     1      10.469 -27.282  53.393  1.00  0.00     0.208 C 
ATOM     19  O   UNL     1      11.333 -26.674  51.207  1.00  0.00    -0.337 OA
ATOM     20  C   UNL     1      11.988 -27.243  53.429  1.00  0.00     0.180 C 
ATOM     21  C   UNL     1      12.375 -27.272  51.946  1.00  0.00     0.179 C 
BRANCH  17  22
ATOM     22  C   UNL     1       9.252 -27.867  51.174  1.00  0.00     0.225 C 
BRANCH  22  23
ATOM     23  O   UNL     1       7.947 -27.905  51.685  1.00  0.00    -0.391 OA
ATOM     24  H   UNL     1       7.973 -28.520  52.463  1.00  0.00     0.210 HD
ENDBRANCH  22  23
ENDBRANCH  17  22
BRANCH  18  25
ATOM     25  O   UNL     1       9.933 -28.534  53.761  1.00  0.00    -0.385 OA
ATOM     26  H   UNL     1      10.190 -29.205  53.079  1.00  0.00     0.211 HD
ENDBRANCH  18  25
BRANCH  20  27
ATOM     27  O   UNL     1      12.562 -28.276  54.197  1.00  0.00    -0.387 OA
ATOM     28  H   UNL     1      13.257 -27.894  54.794  1.00  0.00     0.211 HD
ENDBRANCH  20  27
BRANCH  21  29
ATOM     29  C   UNL     1      13.684 -26.525  51.674  1.00  0.00     0.191 C 
BRANCH  29  30
ATOM     30  O   UNL     1      14.076 -25.813  52.814  1.00  0.00    -0.394 OA
ATOM     31  H   UNL     1      13.289 -25.808  53.420  1.00  0.00     0.210 HD
ENDBRANCH  29  30
ENDBRANCH  21  29
ENDBRANCH   1  17
TORSDOF 13
ENDMDL
MODEL 8
REMARK VINA RESULT:    -5.196      2.293      5.231
REMARK INTER + INTRA:          -9.562
REMARK INTER:                  -7.831
REMARK INTRA:                  -1.732
REMARK UNBOUND:                -1.633
REMARK SMILES OC[C@@H]1O[C@H](O[C@@]2(CO)O[C@@H](CO)[C@H](O)[C@@H]2O)[C@H](O)[C@@H](O)[C@@H]1O
REMARK SMILES IDX 6 1 5 2 3 3 22 4 4 5 20 6 18 7 2 8 1 9 23 11 21 13 19 15
REMARK SMILES IDX 7 17 16 18 10 19 14 20 11 21 8 22 9 23 17 25 15 27 12 29
REMARK SMILES IDX 13 30
REMARK H PARENT 1 10 23 12 21 14 19 16 9 24 17 26 15 28 13 31
REMARK Flexibility Score: inf
ROOT
ATOM      1  O   UNL     1       9.698 -25.810  51.755  1.00  0.00    -0.313 OA
ENDROOT
BRANCH   1   2
ATOM      2  C   UNL     1      10.964 -25.162  51.786  1.00  0.00     0.285 C 
ATOM      3  C   UNL     1      11.735 -25.821  49.613  1.00  0.00     0.178 C 
ATOM      4  C   UNL     1      11.562 -24.378  49.071  1.00  0.00     0.177 C 
ATOM      5  O   UNL     1      11.928 -25.877  51.023  1.00  0.00    -0.341 OA
ATOM      6  C   UNL     1      10.511 -23.583  49.859  1.00  0.00     0.179 C 
ATOM      7  C   UNL     1      10.831 -23.688  51.354  1.00  0.00     0.202 C 
BRANCH   3   8
ATOM      8  C   UNL     1      10.716 -26.869  49.109  1.00  0.00     0.191 C 
BRANCH   8   9
ATOM      9  O   UNL     1       9.461 -26.304  48.852  1.00  0.00    -0.394 OA
ATOM     10  H   UNL     1       9.272 -25.694  49.611  1.00  0.00     0.210 HD
ENDBRANCH   8   9
ENDBRANCH   3   8
BRANCH   4  11
ATOM     11  O   UNL     1      11.303 -24.369  47.688  1.00  0.00    -0.387 OA
ATOM     12  H   UNL     1      12.002 -23.823  47.245  1.00  0.00     0.211 HD
ENDBRANCH   4  11
BRANCH   6  13
ATOM     13  O   UNL     1      10.556 -22.238  49.453  1.00  0.00    -0.387 OA
ATOM     14  H   UNL     1      11.261 -22.169  48.757  1.00  0.00     0.211 HD
ENDBRANCH   6  13
BRANCH   7  15
ATOM     15  O   UNL     1       9.818 -23.056  52.094  1.00  0.00    -0.385 OA
ATOM     16  H   UNL     1      10.250 -22.676  52.903  1.00  0.00     0.211 HD
ENDBRANCH   7  15
ENDBRANCH   1   2
BRANCH   1  17
ATOM     17  C   UNL     1       9.401 -26.557  52.936  1.00  0.00     0.224 C 
ATOM     18  C   UNL     1      10.438 -26.212  54.049  1.00  0.00     0.208 C 
ATOM     19  O   UNL     1       9.449 -27.955  52.679  1.00  0.00    -0.337 OA
ATOM     20  C   UNL     1      11.136 -27.537  54.313  1.00  0.00     0.180 C 
ATOM     21  C   UNL     1      10.162 -28.568  53.730  1.00  0.00     0.179 C 
BRANCH  17  22
ATOM     22  C   UNL     1       7.946 -26.197  53.316  1.00  0.00     0.225 C 
BRANCH  22  23
ATOM     23  O   UNL     1       7.751 -24.809  53.321  1.00  0.00    -0.391 OA
ATOM     24  H   UNL     1       8.407 -24.435  52.679  1.00  0.00     0.210 HD
ENDBRANCH  22  23
ENDBRANCH  17  22
BRANCH  18  25
ATOM     25  O   UNL     1       9.873 -25.638  55.208  1.00  0.00    -0.385 OA
ATOM     26  H   UNL     1      10.057 -24.665  55.205  1.00  0.00     0.211 HD
ENDBRANCH  18  25
BRANCH  20  27
ATOM     27  O   UNL     1      11.457 -27.747  55.670  1.00  0.00    -0.387 OA
ATOM     28  H   UNL     1      10.632 -27.979  56.169  1.00  0.00     0.211 HD
ENDBRANCH  20  27
BRANCH  21  29
ATOM     29  C   UNL     1      10.884 -29.809  53.198  1.00  0.00     0.191 C 
BRANCH  29  30
ATOM     30  O   UNL     1      12.255 -29.720  53.468  1.00  0.00    -0.394 OA
ATOM     31  H   UNL     1      12.340 -29.694  54.457  1.00  0.00     0.210 HD
ENDBRANCH  29  30
ENDBRANCH  21  29
ENDBRANCH   1  17
TORSDOF 13
ENDMDL
MODEL 9
REMARK VINA RESULT:    -5.167      1.676      5.618
REMARK INTER + INTRA:          -9.518
REMARK INTER:                  -7.492
REMARK INTRA:                  -2.026
REMARK UNBOUND:                -1.633
REMARK SMILES OC[C@@H]1O[C@H](O[C@@]2(CO)O[C@@H](CO)[C@H](O)[C@@H]2O)[C@H](O)[C@@H](O)[C@@H]1O
REMARK SMILES IDX 6 1 5 2 3 3 22 4 4 5 20 6 18 7 2 8 1 9 23 11 21 13 19 15
REMARK SMILES IDX 7 17 16 18 10 19 14 20 11 21 8 22 9 23 17 25 15 27 12 29
REMARK SMILES IDX 13 30
REMARK H PARENT 1 10 23 12 21 14 19 16 9 24 17 26 15 28 13 31
REMARK Flexibility Score: inf
ROOT
ATOM      1  O   UNL     1      10.030 -24.961  53.047  1.00  0.00    -0.313 OA
ENDROOT
BRANCH   1   2
ATOM      2  C   UNL     1       8.789 -24.618  52.443  1.00  0.00     0.285 C 
ATOM      3  C   UNL     1       7.970 -23.154  54.157  1.00  0.00     0.178 C 
ATOM      4  C   UNL     1       8.189 -21.911  53.255  1.00  0.00     0.177 C 
ATOM      5  O   UNL     1       7.791 -24.361  53.423  1.00  0.00    -0.341 OA
ATOM      6  C   UNL     1       9.277 -22.146  52.196  1.00  0.00     0.179 C 
ATOM      7  C   UNL     1       8.970 -23.449  51.453  1.00  0.00     0.202 C 
BRANCH   3   8
ATOM      8  C   UNL     1       8.945 -23.319  55.346  1.00  0.00     0.191 C 
BRANCH   8   9
ATOM      9  O   UNL     1       8.875 -24.596  55.913  1.00  0.00    -0.394 OA
ATOM     10  H   UNL     1       9.394 -25.194  55.313  1.00  0.00     0.210 HD
ENDBRANCH   8   9
ENDBRANCH   3   8
BRANCH   4  11
ATOM     11  O   UNL     1       8.433 -20.753  54.015  1.00  0.00    -0.387 OA
ATOM     12  H   UNL     1       8.971 -20.127  53.464  1.00  0.00     0.211 HD
ENDBRANCH   4  11
BRANCH   6  13
ATOM     13  O   UNL     1       9.277 -21.068  51.294  1.00  0.00    -0.387 OA
ATOM     14  H   UNL     1       8.333 -20.778  51.190  1.00  0.00     0.211 HD
ENDBRANCH   6  13
BRANCH   7  15
ATOM     15  O   UNL     1      10.014 -23.733  50.556  1.00  0.00    -0.385 OA
ATOM     16  H   UNL     1       9.708 -23.439  49.659  1.00  0.00     0.211 HD
ENDBRANCH   7  15
ENDBRANCH   1   2
BRANCH   1  17
ATOM     17  C   UNL     1      10.511 -26.257  52.687  1.00  0.00     0.224 C 
ATOM     18  C   UNL     1      12.061 -26.211  52.515  1.00  0.00     0.208 C 
ATOM     19  O   UNL     1       9.925 -26.696  51.469  1.00  0.00    -0.337 OA
ATOM     20  C   UNL     1      12.270 -26.571  51.053  1.00  0.00     0.180 C 
ATOM     21  C   UNL     1      10.948 -27.241  50.664  1.00  0.00     0.179 C 
BRANCH  17  22
ATOM     22  C   UNL     1      10.043 -27.214  53.808  1.00  0.00     0.225 C 
BRANCH  22  23
ATOM     23  O   UNL     1      10.446 -26.755  55.070  1.00  0.00    -0.391 OA
ATOM     24  H   UNL     1       9.616 -26.649  55.603  1.00  0.00     0.210 HD
ENDBRANCH  22  23
ENDBRANCH  17  22
BRANCH  18  25
ATOM     25  O   UNL     1      12.766 -27.050  53.403  1.00  0.00    -0.385 OA
ATOM     26  H   UNL     1      13.597 -26.591  53.685  1.00  0.00     0.211 HD
ENDBRANCH  18  25
BRANCH  20  27
ATOM     27  O   UNL     1      13.411 -27.368  50.824  1.00  0.00    -0.387 OA
ATOM     28  H   UNL     1      14.219 -26.877  51.124  1.00  0.00     0.211 HD
ENDBRANCH  20  27
BRANCH  21  29
ATOM     29  C   UNL     1      10.601 -27.025  49.188  1.00  0.00     0.191 C 
BRANCH  29  30
ATOM     30  O   UNL     1       9.440 -26.251  49.076  1.00  0.00    -0.394 OA
ATOM     31  H   UNL     1       8.890 -26.462  49.876  1.00  0.00     0.210 HD
ENDBRANCH  29  30
ENDBRANCH  21  29
ENDBRANCH   1  17
TORSDOF 13
ENDMDL
