MODEL 1
REMARK VINA RESULT:    -6.064      0.000      0.000
REMARK INTER + INTRA:          -7.626
REMARK INTER:                  -7.305
REMARK INTRA:                  -0.321
REMARK UNBOUND:                -0.321
REMARK SMILES O=c1c(O)c(-c2ccc(O)c(O)c2)oc2cc(O)cc(O)c12
REMARK SMILES IDX 5 1 3 2 2 3 1 4 22 5 20 6 19 7 17 8 16 9 15 10 14 11 6 12
REMARK SMILES IDX 7 13 8 14 9 15 13 16 11 17 10 18 12 20 4 22 21 24 18 26
REMARK H PARENT 10 19 12 21 4 23 21 25 18 27
REMARK Flexibility Score: inf
ROOT
ATOM      1  C   UNL     1      11.775  -4.824  18.574  1.00  0.00     0.180 A 
ATOM      2  C   UNL     1      12.778  -5.435  17.801  1.00  0.00     0.208 A 
ATOM      3  C   UNL     1      12.734  -5.310  16.404  1.00  0.00     0.238 A 
ATOM      4  O   UNL     1      13.664  -5.813  15.723  1.00  0.00    -0.285 OA
ATOM      5  C   UNL     1      11.679  -4.588  15.795  1.00  0.00     0.111 A 
ATOM      6  C   UNL     1      11.514  -4.431  14.386  1.00  0.00     0.134 A 
ATOM      7  C   UNL     1      10.507  -3.587  13.899  1.00  0.00     0.093 A 
ATOM      8  C   UNL     1       9.620  -2.947  14.768  1.00  0.00     0.123 A 
ATOM      9  C   UNL     1       9.737  -3.142  16.142  1.00  0.00     0.094 A 
ATOM     10  C   UNL     1      10.753  -3.948  16.660  1.00  0.00     0.146 A 
ATOM     11  O   UNL     1      10.836  -4.099  17.976  1.00  0.00    -0.452 OA
ENDROOT
BRANCH   1  12
ATOM     12  C   UNL     1      11.739  -4.933  20.050  1.00  0.00     0.025 A 
ATOM     13  C   UNL     1      11.035  -5.990  20.647  1.00  0.00     0.016 A 
ATOM     14  C   UNL     1      11.005  -6.125  22.037  1.00  0.00     0.051 A 
ATOM     15  C   UNL     1      11.691  -5.217  22.851  1.00  0.00     0.157 A 
ATOM     16  C   UNL     1      12.445  -4.033  20.868  1.00  0.00     0.062 A 
ATOM     17  C   UNL     1      12.419  -4.168  22.264  1.00  0.00     0.158 A 
BRANCH  15  18
ATOM     18  O   UNL     1      11.642  -5.376  24.235  1.00  0.00    -0.504 OA
ATOM     19  H   UNL     1      11.797  -6.273  24.679  1.00  0.00     0.293 HD
ENDBRANCH  15  18
BRANCH  17  20
ATOM     20  O   UNL     1      13.116  -3.268  23.069  1.00  0.00    -0.504 OA
ATOM     21  H   UNL     1      13.224  -3.421  24.065  1.00  0.00     0.293 HD
ENDBRANCH  17  20
ENDBRANCH   1  12
BRANCH   2  22
ATOM     22  O   UNL     1      13.822  -6.125  18.425  1.00  0.00    -0.502 OA
ATOM     23  H   UNL     1      13.745  -6.493  19.365  1.00  0.00     0.293 HD
ENDBRANCH   2  22
BRANCH   6  24
ATOM     24  O   UNL     1      12.285  -5.097  13.430  1.00  0.00    -0.507 OA
ATOM     25  H   UNL     1      12.605  -6.050  13.512  1.00  0.00     0.293 HD
ENDBRANCH   6  24
BRANCH   8  26
ATOM     26  O   UNL     1       8.612  -2.122  14.275  1.00  0.00    -0.508 OA
ATOM     27  H   UNL     1       7.760  -2.504  13.881  1.00  0.00     0.293 HD
ENDBRANCH   8  26
TORSDOF 6
ENDMDL
MODEL 2
REMARK VINA RESULT:    -5.909     20.054     21.699
REMARK INTER + INTRA:          -7.439
REMARK INTER:                  -7.127
REMARK INTRA:                  -0.312
REMARK UNBOUND:                -0.321
REMARK SMILES O=c1c(O)c(-c2ccc(O)c(O)c2)oc2cc(O)cc(O)c12
REMARK SMILES IDX 5 1 3 2 2 3 1 4 22 5 20 6 19 7 17 8 16 9 15 10 14 11 6 12
REMARK SMILES IDX 7 13 8 14 9 15 13 16 11 17 10 18 12 20 4 22 21 24 18 26
REMARK H PARENT 10 19 12 21 4 23 21 25 18 27
REMARK Flexibility Score: inf
ROOT
ATOM      1  C   UNL     1      22.673  11.717  10.542  1.00  0.00     0.180 A 
ATOM      2  C   UNL     1      22.238  11.432  11.849  1.00  0.00     0.208 A 
ATOM      3  C   UNL     1      20.872  11.546  12.152  1.00  0.00     0.238 A 
ATOM      4  O   UNL     1      20.483  11.237  13.308  1.00  0.00    -0.285 OA
ATOM      5  C   UNL     1      19.960  11.958  11.150  1.00  0.00     0.111 A 
ATOM      6  C   UNL     1      18.560  12.145  11.357  1.00  0.00     0.134 A 
ATOM      7  C   UNL     1      17.732  12.427  10.264  1.00  0.00     0.093 A 
ATOM      8  C   UNL     1      18.264  12.594   8.982  1.00  0.00     0.123 A 
ATOM      9  C   UNL     1      19.636  12.472   8.782  1.00  0.00     0.094 A 
ATOM     10  C   UNL     1      20.484  12.155   9.845  1.00  0.00     0.146 A 
ATOM     11  O   UNL     1      21.784  12.037   9.609  1.00  0.00    -0.452 OA
ENDROOT
BRANCH   1  12
ATOM     12  C   UNL     1      24.100  11.644  10.153  1.00  0.00     0.025 A 
ATOM     13  C   UNL     1      24.645  10.415   9.754  1.00  0.00     0.016 A 
ATOM     14  C   UNL     1      25.983  10.327   9.363  1.00  0.00     0.051 A 
ATOM     15  C   UNL     1      26.793  11.467   9.350  1.00  0.00     0.157 A 
ATOM     16  C   UNL     1      24.909  12.794  10.120  1.00  0.00     0.062 A 
ATOM     17  C   UNL     1      26.252  12.709   9.725  1.00  0.00     0.158 A 
BRANCH  15  18
ATOM     18  O   UNL     1      28.125  11.349   8.957  1.00  0.00    -0.504 OA
ATOM     19  H   UNL     1      28.892  11.537   9.592  1.00  0.00     0.293 HD
ENDBRANCH  15  18
BRANCH  17  20
ATOM     20  O   UNL     1      27.050  13.853   9.701  1.00  0.00    -0.504 OA
ATOM     21  H   UNL     1      27.939  13.869   9.214  1.00  0.00     0.293 HD
ENDBRANCH  17  20
ENDBRANCH   1  12
BRANCH   2  22
ATOM     22  O   UNL     1      23.153  11.007  12.816  1.00  0.00    -0.502 OA
ATOM     23  H   UNL     1      22.904  10.906  13.793  1.00  0.00     0.293 HD
ENDBRANCH   2  22
BRANCH   6  24
ATOM     24  O   UNL     1      17.942  12.092  12.610  1.00  0.00    -0.507 OA
ATOM     25  H   UNL     1      18.418  12.212  13.491  1.00  0.00     0.293 HD
ENDBRANCH   6  24
BRANCH   8  26
ATOM     26  O   UNL     1      17.435  12.891   7.902  1.00  0.00    -0.508 OA
ATOM     27  H   UNL     1      17.803  12.982   6.962  1.00  0.00     0.293 HD
ENDBRANCH   8  26
TORSDOF 6
ENDMDL
MODEL 3
REMARK VINA RESULT:    -5.835      3.441      8.476
REMARK INTER + INTRA:          -7.350
REMARK INTER:                  -7.268
REMARK INTRA:                  -0.082
REMARK UNBOUND:                -0.321
REMARK SMILES O=c1c(O)c(-c2ccc(O)c(O)c2)oc2cc(O)cc(O)c12
REMARK SMILES IDX 5 1 3 2 2 3 1 4 22 5 20 6 19 7 17 8 16 9 15 10 14 11 6 12
REMARK SMILES IDX 7 13 8 14 9 15 13 16 11 17 10 18 12 20 4 22 21 24 18 26
REMARK H PARENT 10 19 12 21 4 23 21 25 18 27
REMARK Flexibility Score: inf
ROOT
ATOM      1  C   UNL     1      12.394  -4.023  12.906  1.00  0.00     0.180 A 
ATOM      2  C   UNL     1      11.415  -5.019  13.070  1.00  0.00     0.208 A 
ATOM      3  C   UNL     1      10.892  -5.256  14.352  1.00  0.00     0.238 A 
ATOM      4  O   UNL     1       9.978  -6.110  14.482  1.00  0.00    -0.285 OA
ATOM      5  C   UNL     1      11.366  -4.505  15.455  1.00  0.00     0.111 A 
ATOM      6  C   UNL     1      10.934  -4.689  16.803  1.00  0.00     0.134 A 
ATOM      7  C   UNL     1      11.373  -3.803  17.795  1.00  0.00     0.093 A 
ATOM      8  C   UNL     1      12.278  -2.780  17.498  1.00  0.00     0.123 A 
ATOM      9  C   UNL     1      12.750  -2.631  16.197  1.00  0.00     0.094 A 
ATOM     10  C   UNL     1      12.303  -3.476  15.178  1.00  0.00     0.146 A 
ATOM     11  O   UNL     1      12.769  -3.292  13.950  1.00  0.00    -0.452 OA
ENDROOT
BRANCH   1  12
ATOM     12  C   UNL     1      13.011  -3.733  11.592  1.00  0.00     0.025 A 
ATOM     13  C   UNL     1      14.395  -3.895  11.428  1.00  0.00     0.016 A 
ATOM     14  C   UNL     1      14.996  -3.647  10.191  1.00  0.00     0.051 A 
ATOM     15  C   UNL     1      14.222  -3.249   9.096  1.00  0.00     0.157 A 
ATOM     16  C   UNL     1      12.231  -3.353  10.485  1.00  0.00     0.062 A 
ATOM     17  C   UNL     1      12.831  -3.106   9.241  1.00  0.00     0.158 A 
BRANCH  15  18
ATOM     18  O   UNL     1      14.849  -3.007   7.875  1.00  0.00    -0.504 OA
ATOM     19  H   UNL     1      14.356  -2.602   7.088  1.00  0.00     0.293 HD
ENDBRANCH  15  18
BRANCH  17  20
ATOM     20  O   UNL     1      12.052  -2.723   8.150  1.00  0.00    -0.504 OA
ATOM     21  H   UNL     1      12.159  -1.814   7.715  1.00  0.00     0.293 HD
ENDBRANCH  17  20
ENDBRANCH   1  12
BRANCH   2  22
ATOM     22  O   UNL     1      10.947  -5.733  11.963  1.00  0.00    -0.502 OA
ATOM     23  H   UNL     1       9.964  -5.784  11.725  1.00  0.00     0.293 HD
ENDBRANCH   2  22
BRANCH   6  24
ATOM     24  O   UNL     1      10.106  -5.733  17.223  1.00  0.00    -0.507 OA
ATOM     25  H   UNL     1      10.137  -6.674  16.859  1.00  0.00     0.293 HD
ENDBRANCH   6  24
BRANCH   8  26
ATOM     26  O   UNL     1      12.722  -1.913  18.494  1.00  0.00    -0.508 OA
ATOM     27  H   UNL     1      12.702  -0.907  18.368  1.00  0.00     0.293 HD
ENDBRANCH   8  26
TORSDOF 6
ENDMDL
MODEL 4
REMARK VINA RESULT:    -5.813     11.564     14.599
REMARK INTER + INTRA:          -7.323
REMARK INTER:                  -7.003
REMARK INTRA:                  -0.320
REMARK UNBOUND:                -0.321
REMARK SMILES O=c1c(O)c(-c2ccc(O)c(O)c2)oc2cc(O)cc(O)c12
REMARK SMILES IDX 5 1 3 2 2 3 1 4 22 5 20 6 19 7 17 8 16 9 15 10 14 11 6 12
REMARK SMILES IDX 7 13 8 14 9 15 13 16 11 17 10 18 12 20 4 22 21 24 18 26
REMARK H PARENT 10 19 12 21 4 23 21 25 18 27
REMARK Flexibility Score: inf
ROOT
ATOM      1  C   UNL     1      24.081  -4.988  13.950  1.00  0.00     0.180 A 
ATOM      2  C   UNL     1      25.418  -5.334  14.213  1.00  0.00     0.208 A 
ATOM      3  C   UNL     1      25.789  -5.672  15.525  1.00  0.00     0.238 A 
ATOM      4  O   UNL     1      26.974  -6.033  15.742  1.00  0.00    -0.285 OA
ATOM      5  C   UNL     1      24.823  -5.644  16.559  1.00  0.00     0.111 A 
ATOM      6  C   UNL     1      25.097  -5.929  17.931  1.00  0.00     0.134 A 
ATOM      7  C   UNL     1      24.039  -5.999  18.845  1.00  0.00     0.093 A 
ATOM      8  C   UNL     1      22.726  -5.731  18.451  1.00  0.00     0.123 A 
ATOM      9  C   UNL     1      22.457  -5.393  17.127  1.00  0.00     0.094 A 
ATOM     10  C   UNL     1      23.486  -5.350  16.183  1.00  0.00     0.146 A 
ATOM     11  O   UNL     1      23.185  -5.035  14.929  1.00  0.00    -0.452 OA
ENDROOT
BRANCH   1  12
ATOM     12  C   UNL     1      23.620  -4.596  12.599  1.00  0.00     0.025 A 
ATOM     13  C   UNL     1      23.644  -3.243  12.226  1.00  0.00     0.016 A 
ATOM     14  C   UNL     1      23.234  -2.852  10.950  1.00  0.00     0.051 A 
ATOM     15  C   UNL     1      22.807  -3.806  10.021  1.00  0.00     0.157 A 
ATOM     16  C   UNL     1      23.209  -5.556  11.657  1.00  0.00     0.062 A 
ATOM     17  C   UNL     1      22.799  -5.167  10.374  1.00  0.00     0.158 A 
BRANCH  15  18
ATOM     18  O   UNL     1      22.400  -3.387   8.756  1.00  0.00    -0.504 OA
ATOM     19  H   UNL     1      21.460  -3.057   8.574  1.00  0.00     0.293 HD
ENDBRANCH  15  18
BRANCH  17  20
ATOM     20  O   UNL     1      22.387  -6.125   9.448  1.00  0.00    -0.504 OA
ATOM     21  H   UNL     1      22.822  -7.039   9.403  1.00  0.00     0.293 HD
ENDBRANCH  17  20
ENDBRANCH   1  12
BRANCH   2  22
ATOM     22  O   UNL     1      26.351  -5.375  13.173  1.00  0.00    -0.502 OA
ATOM     23  H   UNL     1      26.354  -6.108  12.474  1.00  0.00     0.293 HD
ENDBRANCH   2  22
BRANCH   6  24
ATOM     24  O   UNL     1      26.381  -6.121  18.446  1.00  0.00    -0.507 OA
ATOM     25  H   UNL     1      26.735  -7.000  18.795  1.00  0.00     0.293 HD
ENDBRANCH   6  24
BRANCH   8  26
ATOM     26  O   UNL     1      21.681  -5.787  19.370  1.00  0.00    -0.508 OA
ATOM     27  H   UNL     1      21.243  -4.945  19.728  1.00  0.00     0.293 HD
ENDBRANCH   8  26
TORSDOF 6
ENDMDL
MODEL 5
REMARK VINA RESULT:    -5.757     11.461     14.266
REMARK INTER + INTRA:          -7.256
REMARK INTER:                  -7.372
REMARK INTRA:                   0.116
REMARK UNBOUND:                -0.321
REMARK SMILES O=c1c(O)c(-c2ccc(O)c(O)c2)oc2cc(O)cc(O)c12
REMARK SMILES IDX 5 1 3 2 2 3 1 4 22 5 20 6 19 7 17 8 16 9 15 10 14 11 6 12
REMARK SMILES IDX 7 13 8 14 9 15 13 16 11 17 10 18 12 20 4 22 21 24 18 26
REMARK H PARENT 10 19 12 21 4 23 21 25 18 27
REMARK Flexibility Score: inf
ROOT
ATOM      1  C   UNL     1      24.281  -5.022  15.149  1.00  0.00     0.180 A 
ATOM      2  C   UNL     1      25.246  -5.343  16.121  1.00  0.00     0.208 A 
ATOM      3  C   UNL     1      24.822  -5.677  17.417  1.00  0.00     0.238 A 
ATOM      4  O   UNL     1      25.686  -6.016  18.266  1.00  0.00    -0.285 OA
ATOM      5  C   UNL     1      23.441  -5.672  17.729  1.00  0.00     0.111 A 
ATOM      6  C   UNL     1      22.902  -5.956  19.020  1.00  0.00     0.134 A 
ATOM      7  C   UNL     1      21.514  -6.050  19.183  1.00  0.00     0.093 A 
ATOM      8  C   UNL     1      20.645  -5.806  18.117  1.00  0.00     0.123 A 
ATOM      9  C   UNL     1      21.161  -5.469  16.868  1.00  0.00     0.094 A 
ATOM     10  C   UNL     1      22.541  -5.403  16.665  1.00  0.00     0.146 A 
ATOM     11  O   UNL     1      22.992  -5.090  15.456  1.00  0.00    -0.452 OA
ENDROOT
BRANCH   1  12
ATOM     12  C   UNL     1      24.652  -4.634  13.769  1.00  0.00     0.025 A 
ATOM     13  C   UNL     1      24.034  -3.525  13.173  1.00  0.00     0.016 A 
ATOM     14  C   UNL     1      24.382  -3.128  11.880  1.00  0.00     0.051 A 
ATOM     15  C   UNL     1      25.364  -3.824  11.168  1.00  0.00     0.157 A 
ATOM     16  C   UNL     1      25.654  -5.321  13.059  1.00  0.00     0.062 A 
ATOM     17  C   UNL     1      26.008  -4.923  11.762  1.00  0.00     0.158 A 
BRANCH  15  18
ATOM     18  O   UNL     1      25.690  -3.407   9.879  1.00  0.00    -0.504 OA
ATOM     19  H   UNL     1      26.252  -3.974   9.255  1.00  0.00     0.293 HD
ENDBRANCH  15  18
BRANCH  17  20
ATOM     20  O   UNL     1      26.998  -5.612  11.063  1.00  0.00    -0.504 OA
ATOM     21  H   UNL     1      27.719  -5.124  10.545  1.00  0.00     0.293 HD
ENDBRANCH  17  20
ENDBRANCH   1  12
BRANCH   2  22
ATOM     22  O   UNL     1      26.603  -5.362  15.784  1.00  0.00    -0.502 OA
ATOM     23  H   UNL     1      27.065  -6.194  15.440  1.00  0.00     0.293 HD
ENDBRANCH   2  22
BRANCH   6  24
ATOM     24  O   UNL     1      23.678  -6.125  20.170  1.00  0.00    -0.507 OA
ATOM     25  H   UNL     1      24.636  -6.442  20.176  1.00  0.00     0.293 HD
ENDBRANCH   6  24
BRANCH   8  26
ATOM     26  O   UNL     1      19.266  -5.886  18.291  1.00  0.00    -0.508 OA
ATOM     27  H   UNL     1      18.858  -6.128  19.187  1.00  0.00     0.293 HD
ENDBRANCH   8  26
TORSDOF 6
ENDMDL
MODEL 6
REMARK VINA RESULT:    -5.713      2.127      3.549
REMARK INTER + INTRA:          -7.203
REMARK INTER:                  -6.917
REMARK INTRA:                  -0.286
REMARK UNBOUND:                -0.321
REMARK SMILES O=c1c(O)c(-c2ccc(O)c(O)c2)oc2cc(O)cc(O)c12
REMARK SMILES IDX 5 1 3 2 2 3 1 4 22 5 20 6 19 7 17 8 16 9 15 10 14 11 6 12
REMARK SMILES IDX 7 13 8 14 9 15 13 16 11 17 10 18 12 20 4 22 21 24 18 26
REMARK H PARENT 10 19 12 21 4 23 21 25 18 27
REMARK Flexibility Score: inf
ROOT
ATOM      1  C   UNL     1      12.217  -4.500  16.675  1.00  0.00     0.180 A 
ATOM      2  C   UNL     1      11.045  -4.452  15.899  1.00  0.00     0.208 A 
ATOM      3  C   UNL     1      11.154  -4.269  14.511  1.00  0.00     0.238 A 
ATOM      4  O   UNL     1      10.105  -4.282  13.817  1.00  0.00    -0.285 OA
ATOM      5  C   UNL     1      12.431  -4.120  13.919  1.00  0.00     0.111 A 
ATOM      6  C   UNL     1      12.656  -3.890  12.528  1.00  0.00     0.134 A 
ATOM      7  C   UNL     1      13.966  -3.889  12.032  1.00  0.00     0.093 A 
ATOM      8  C   UNL     1      15.060  -4.045  12.886  1.00  0.00     0.123 A 
ATOM      9  C   UNL     1      14.852  -4.211  14.253  1.00  0.00     0.094 A 
ATOM     10  C   UNL     1      13.557  -4.253  14.774  1.00  0.00     0.146 A 
ATOM     11  O   UNL     1      13.402  -4.423  16.080  1.00  0.00    -0.452 OA
ENDROOT
BRANCH   1  12
ATOM     12  C   UNL     1      12.183  -4.665  18.146  1.00  0.00     0.025 A 
ATOM     13  C   UNL     1      11.996  -5.943  18.694  1.00  0.00     0.016 A 
ATOM     14  C   UNL     1      11.980  -6.125  20.079  1.00  0.00     0.051 A 
ATOM     15  C   UNL     1      12.165  -5.036  20.937  1.00  0.00     0.157 A 
ATOM     16  C   UNL     1      12.389  -3.574  19.010  1.00  0.00     0.062 A 
ATOM     17  C   UNL     1      12.376  -3.755  20.401  1.00  0.00     0.158 A 
BRANCH  15  18
ATOM     18  O   UNL     1      12.143  -5.248  22.315  1.00  0.00    -0.504 OA
ATOM     19  H   UNL     1      11.823  -4.538  22.963  1.00  0.00     0.293 HD
ENDBRANCH  15  18
BRANCH  17  20
ATOM     20  O   UNL     1      12.575  -2.667  21.251  1.00  0.00    -0.504 OA
ATOM     21  H   UNL     1      13.354  -2.636  21.898  1.00  0.00     0.293 HD
ENDBRANCH  17  20
ENDBRANCH   1  12
BRANCH   2  22
ATOM     22  O   UNL     1       9.796  -4.623  16.503  1.00  0.00    -0.502 OA
ATOM     23  H   UNL     1       9.033  -3.971  16.366  1.00  0.00     0.293 HD
ENDBRANCH   2  22
BRANCH   6  24
ATOM     24  O   UNL     1      11.640  -3.631  11.605  1.00  0.00    -0.507 OA
ATOM     25  H   UNL     1      10.657  -3.578  11.831  1.00  0.00     0.293 HD
ENDBRANCH   6  24
BRANCH   8  26
ATOM     26  O   UNL     1      16.361  -4.027  12.387  1.00  0.00    -0.508 OA
ATOM     27  H   UNL     1      16.960  -4.843  12.439  1.00  0.00     0.293 HD
ENDBRANCH   8  26
TORSDOF 6
ENDMDL
MODEL 7
REMARK VINA RESULT:    -5.541      1.509      2.758
REMARK INTER + INTRA:          -6.996
REMARK INTER:                  -6.668
REMARK INTRA:                  -0.328
REMARK UNBOUND:                -0.321
REMARK SMILES O=c1c(O)c(-c2ccc(O)c(O)c2)oc2cc(O)cc(O)c12
REMARK SMILES IDX 5 1 3 2 2 3 1 4 22 5 20 6 19 7 17 8 16 9 15 10 14 11 6 12
REMARK SMILES IDX 7 13 8 14 9 15 13 16 11 17 10 18 12 20 4 22 21 24 18 26
REMARK H PARENT 10 19 12 21 4 23 21 25 18 27
REMARK Flexibility Score: inf
ROOT
ATOM      1  C   UNL     1      11.746  -4.458  18.201  1.00  0.00     0.180 A 
ATOM      2  C   UNL     1      10.397  -4.430  17.806  1.00  0.00     0.208 A 
ATOM      3  C   UNL     1      10.088  -4.230  16.451  1.00  0.00     0.238 A 
ATOM      4  O   UNL     1       8.881  -4.261  16.097  1.00  0.00    -0.285 OA
ATOM      5  C   UNL     1      11.130  -4.044  15.511  1.00  0.00     0.111 A 
ATOM      6  C   UNL     1      10.931  -3.795  14.120  1.00  0.00     0.134 A 
ATOM      7  C   UNL     1      12.035  -3.757  13.260  1.00  0.00     0.093 A 
ATOM      8  C   UNL     1      13.336  -3.896  13.752  1.00  0.00     0.123 A 
ATOM      9  C   UNL     1      13.543  -4.080  15.116  1.00  0.00     0.094 A 
ATOM     10  C   UNL     1      12.460  -4.159  15.995  1.00  0.00     0.146 A 
ATOM     11  O   UNL     1      12.701  -4.346  17.286  1.00  0.00    -0.452 OA
ENDROOT
BRANCH   1  12
ATOM     12  C   UNL     1      12.150  -4.638  19.615  1.00  0.00     0.025 A 
ATOM     13  C   UNL     1      12.379  -5.932  20.108  1.00  0.00     0.016 A 
ATOM     14  C   UNL     1      12.780  -6.125  21.432  1.00  0.00     0.051 A 
ATOM     15  C   UNL     1      12.974  -5.029  22.278  1.00  0.00     0.157 A 
ATOM     16  C   UNL     1      12.364  -3.536  20.461  1.00  0.00     0.062 A 
ATOM     17  C   UNL     1      12.770  -3.727  21.790  1.00  0.00     0.158 A 
BRANCH  15  18
ATOM     18  O   UNL     1      13.372  -5.252  23.596  1.00  0.00    -0.504 OA
ATOM     19  H   UNL     1      13.796  -6.124  23.889  1.00  0.00     0.293 HD
ENDBRANCH  15  18
BRANCH  17  20
ATOM     20  O   UNL     1      12.975  -2.629  22.625  1.00  0.00    -0.504 OA
ATOM     21  H   UNL     1      13.853  -2.124  22.631  1.00  0.00     0.293 HD
ENDBRANCH  17  20
ENDBRANCH   1  12
BRANCH   2  22
ATOM     22  O   UNL     1       9.385  -4.637  18.748  1.00  0.00    -0.502 OA
ATOM     23  H   UNL     1       8.630  -3.977  18.888  1.00  0.00     0.293 HD
ENDBRANCH   2  22
BRANCH   6  24
ATOM     24  O   UNL     1       9.682  -3.551  13.542  1.00  0.00    -0.507 OA
ATOM     25  H   UNL     1       8.874  -4.146  13.645  1.00  0.00     0.293 HD
ENDBRANCH   6  24
BRANCH   8  26
ATOM     26  O   UNL     1      14.431  -3.841  12.892  1.00  0.00    -0.508 OA
ATOM     27  H   UNL     1      15.246  -4.426  13.034  1.00  0.00     0.293 HD
ENDBRANCH   8  26
TORSDOF 6
ENDMDL
MODEL 8
REMARK VINA RESULT:    -5.274      2.679      8.126
REMARK INTER + INTRA:          -6.675
REMARK INTER:                  -7.076
REMARK INTRA:                   0.402
REMARK UNBOUND:                -0.321
REMARK SMILES O=c1c(O)c(-c2ccc(O)c(O)c2)oc2cc(O)cc(O)c12
REMARK SMILES IDX 5 1 3 2 2 3 1 4 22 5 20 6 19 7 17 8 16 9 15 10 14 11 6 12
REMARK SMILES IDX 7 13 8 14 9 15 13 16 11 17 10 18 12 20 4 22 21 24 18 26
REMARK H PARENT 10 19 12 21 4 23 21 25 18 27
REMARK Flexibility Score: inf
ROOT
ATOM      1  C   UNL     1      12.182  -4.001  14.009  1.00  0.00     0.180 A 
ATOM      2  C   UNL     1      10.875  -3.563  14.289  1.00  0.00     0.208 A 
ATOM      3  C   UNL     1      10.348  -3.768  15.574  1.00  0.00     0.238 A 
ATOM      4  O   UNL     1       9.199  -3.326  15.833  1.00  0.00    -0.285 OA
ATOM      5  C   UNL     1      11.128  -4.423  16.558  1.00  0.00     0.111 A 
ATOM      6  C   UNL     1      10.679  -4.718  17.881  1.00  0.00     0.134 A 
ATOM      7  C   UNL     1      11.580  -5.251  18.812  1.00  0.00     0.093 A 
ATOM      8  C   UNL     1      12.894  -5.559  18.449  1.00  0.00     0.123 A 
ATOM      9  C   UNL     1      13.322  -5.329  17.144  1.00  0.00     0.094 A 
ATOM     10  C   UNL     1      12.459  -4.765  16.202  1.00  0.00     0.146 A 
ATOM     11  O   UNL     1      12.910  -4.552  14.973  1.00  0.00    -0.452 OA
ENDROOT
BRANCH   1  12
ATOM     12  C   UNL     1      12.796  -3.843  12.671  1.00  0.00     0.025 A 
ATOM     13  C   UNL     1      14.177  -4.039  12.518  1.00  0.00     0.016 A 
ATOM     14  C   UNL     1      14.776  -3.916  11.262  1.00  0.00     0.051 A 
ATOM     15  C   UNL     1      14.002  -3.610  10.138  1.00  0.00     0.157 A 
ATOM     16  C   UNL     1      12.017  -3.556  11.536  1.00  0.00     0.062 A 
ATOM     17  C   UNL     1      12.615  -3.434  10.274  1.00  0.00     0.158 A 
BRANCH  15  18
ATOM     18  O   UNL     1      14.627  -3.491   8.897  1.00  0.00    -0.504 OA
ATOM     19  H   UNL     1      15.150  -4.254   8.483  1.00  0.00     0.293 HD
ENDBRANCH  15  18
BRANCH  17  20
ATOM     20  O   UNL     1      11.836  -3.143   9.154  1.00  0.00    -0.504 OA
ATOM     21  H   UNL     1      12.049  -3.532   8.244  1.00  0.00     0.293 HD
ENDBRANCH  17  20
ENDBRANCH   1  12
BRANCH   2  22
ATOM     22  O   UNL     1      10.131  -2.901  13.308  1.00  0.00    -0.502 OA
ATOM     23  H   UNL     1      10.540  -2.210  12.690  1.00  0.00     0.293 HD
ENDBRANCH   2  22
BRANCH   6  24
ATOM     24  O   UNL     1       9.365  -4.536  18.319  1.00  0.00    -0.507 OA
ATOM     25  H   UNL     1       8.932  -5.053  19.069  1.00  0.00     0.293 HD
ENDBRANCH   6  24
BRANCH   8  26
ATOM     26  O   UNL     1      13.779  -6.104  19.376  1.00  0.00    -0.508 OA
ATOM     27  H   UNL     1      14.544  -6.703  19.090  1.00  0.00     0.293 HD
ENDBRANCH   8  26
TORSDOF 6
ENDMDL
MODEL 9
REMARK VINA RESULT:    -5.104     20.660     21.627
REMARK INTER + INTRA:          -6.469
REMARK INTER:                  -6.855
REMARK INTRA:                   0.385
REMARK UNBOUND:                -0.321
REMARK SMILES O=c1c(O)c(-c2ccc(O)c(O)c2)oc2cc(O)cc(O)c12
REMARK SMILES IDX 5 1 3 2 2 3 1 4 22 5 20 6 19 7 17 8 16 9 15 10 14 11 6 12
REMARK SMILES IDX 7 13 8 14 9 15 13 16 11 17 10 18 12 20 4 22 21 24 18 26
REMARK H PARENT 10 19 12 21 4 23 21 25 18 27
REMARK Flexibility Score: inf
ROOT
ATOM      1  C   UNL     1      23.320  12.875  12.531  1.00  0.00     0.180 A 
ATOM      2  C   UNL     1      23.600  12.843  11.153  1.00  0.00     0.208 A 
ATOM      3  C   UNL     1      22.546  12.633  10.249  1.00  0.00     0.238 A 
ATOM      4  O   UNL     1      22.795  12.660   9.016  1.00  0.00    -0.285 OA
ATOM      5  C   UNL     1      21.230  12.442  10.733  1.00  0.00     0.111 A 
ATOM      6  C   UNL     1      20.094  12.183   9.909  1.00  0.00     0.134 A 
ATOM      7  C   UNL     1      18.818  12.141  10.485  1.00  0.00     0.093 A 
ATOM      8  C   UNL     1      18.646  12.285  11.865  1.00  0.00     0.123 A 
ATOM      9  C   UNL     1      19.755  12.479  12.683  1.00  0.00     0.094 A 
ATOM     10  C   UNL     1      21.036  12.562  12.135  1.00  0.00     0.146 A 
ATOM     11  O   UNL     1      22.065  12.759  12.949  1.00  0.00    -0.452 OA
ENDROOT
BRANCH   1  12
ATOM     12  C   UNL     1      24.381  13.066  13.546  1.00  0.00     0.025 A 
ATOM     13  C   UNL     1      25.557  13.747  13.197  1.00  0.00     0.016 A 
ATOM     14  C   UNL     1      26.562  13.956  14.143  1.00  0.00     0.051 A 
ATOM     15  C   UNL     1      26.402  13.503  15.457  1.00  0.00     0.157 A 
ATOM     16  C   UNL     1      24.213  12.629  14.872  1.00  0.00     0.062 A 
ATOM     17  C   UNL     1      25.219  12.840  15.825  1.00  0.00     0.158 A 
BRANCH  15  18
ATOM     18  O   UNL     1      27.423  13.725  16.379  1.00  0.00    -0.504 OA
ATOM     19  H   UNL     1      27.441  13.266  17.283  1.00  0.00     0.293 HD
ENDBRANCH  15  18
BRANCH  17  20
ATOM     20  O   UNL     1      25.048  12.398  17.137  1.00  0.00    -0.504 OA
ATOM     21  H   UNL     1      24.133  12.152  17.498  1.00  0.00     0.293 HD
ENDBRANCH  17  20
ENDBRANCH   1  12
BRANCH   2  22
ATOM     22  O   UNL     1      24.904  13.055  10.696  1.00  0.00    -0.502 OA
ATOM     23  H   UNL     1      25.713  12.655  11.156  1.00  0.00     0.293 HD
ENDBRANCH   2  22
BRANCH   6  24
ATOM     24  O   UNL     1      20.166  11.933   8.536  1.00  0.00    -0.507 OA
ATOM     25  H   UNL     1      20.393  11.040   8.125  1.00  0.00     0.293 HD
ENDBRANCH   6  24
BRANCH   8  26
ATOM     26  O   UNL     1      17.375  12.226  12.432  1.00  0.00    -0.508 OA
ATOM     27  H   UNL     1      17.219  12.448  13.409  1.00  0.00     0.293 HD
ENDBRANCH   8  26
TORSDOF 6
ENDMDL
