MODEL 1
REMARK VINA RESULT:    -2.460      0.000      0.000
REMARK INTER + INTRA:          -2.460
REMARK INTER:                  -2.460
REMARK INTRA:                   0.000
REMARK UNBOUND:                 0.000
REMARK SMILES CC(=O)[O-]
REMARK SMILES IDX 1 1 2 2 3 3 4 4
REMARK H PARENT
REMARK Flexibility Score: inf
ROOT
ATOM      1  C   UNL     1       8.702  -9.740  15.989  1.00  0.00     0.063 C 
ATOM      2  C   UNL     1       7.511  -9.442  15.144  1.00  0.00     0.038 C 
ATOM      3  O   UNL     1       6.498 -10.188  15.193  1.00  0.00    -0.550 OA
ATOM      4  O   UNL     1       7.493  -8.308  14.340  1.00  0.00    -0.550 OA
ENDROOT
TORSDOF 0
ENDMDL
MODEL 2
REMARK VINA RESULT:    -2.401      1.409      1.770
REMARK INTER + INTRA:          -2.401
REMARK INTER:                  -2.401
REMARK INTRA:                   0.000
REMARK UNBOUND:                 0.000
REMARK SMILES CC(=O)[O-]
REMARK SMILES IDX 1 1 2 2 3 3 4 4
REMARK H PARENT
REMARK Flexibility Score: inf
ROOT
ATOM      1  C   UNL     1       7.348  -8.171  14.430  1.00  0.00     0.063 C 
ATOM      2  C   UNL     1       7.522  -9.406  15.247  1.00  0.00     0.038 C 
ATOM      3  O   UNL     1       6.619 -10.284  15.265  1.00  0.00    -0.550 OA
ATOM      4  O   UNL     1       8.703  -9.618  15.947  1.00  0.00    -0.550 OA
ENDROOT
TORSDOF 0
ENDMDL
MODEL 3
REMARK VINA RESULT:    -2.371     16.314     16.854
REMARK INTER + INTRA:          -2.371
REMARK INTER:                  -2.371
REMARK INTRA:                   0.000
REMARK UNBOUND:                 0.000
REMARK SMILES CC(=O)[O-]
REMARK SMILES IDX 1 1 2 2 3 3 4 4
REMARK H PARENT
REMARK Flexibility Score: inf
ROOT
ATOM      1  C   UNL     1     -10.287  -8.388  16.017  1.00  0.00     0.063 C 
ATOM      2  C   UNL     1      -9.031  -8.190  16.795  1.00  0.00     0.038 C 
ATOM      3  O   UNL     1      -8.115  -9.054  16.748  1.00  0.00    -0.550 OA
ATOM      4  O   UNL     1      -8.843  -7.027  17.531  1.00  0.00    -0.550 OA
ENDROOT
TORSDOF 0
ENDMDL
MODEL 4
REMARK VINA RESULT:    -2.290     16.205     16.715
REMARK INTER + INTRA:          -2.290
REMARK INTER:                  -2.290
REMARK INTRA:                   0.000
REMARK UNBOUND:                 0.000
REMARK SMILES CC(=O)[O-]
REMARK SMILES IDX 1 1 2 2 3 3 4 4
REMARK H PARENT
REMARK Flexibility Score: inf
ROOT
ATOM      1  C   UNL     1      -8.638  -7.032  17.501  1.00  0.00     0.063 C 
ATOM      2  C   UNL     1      -8.952  -8.271  16.735  1.00  0.00     0.038 C 
ATOM      3  O   UNL     1      -8.133  -9.227  16.715  1.00  0.00    -0.550 OA
ATOM      4  O   UNL     1     -10.173  -8.397  16.084  1.00  0.00    -0.550 OA
ENDROOT
TORSDOF 0
ENDMDL
MODEL 5
REMARK VINA RESULT:    -2.058     20.297     20.716
REMARK INTER + INTRA:          -2.058
REMARK INTER:                  -2.058
REMARK INTRA:                   0.000
REMARK UNBOUND:                 0.000
REMARK SMILES CC(=O)[O-]
REMARK SMILES IDX 1 1 2 2 3 3 4 4
REMARK H PARENT
REMARK Flexibility Score: inf
ROOT
ATOM      1  C   UNL     1     -10.200 -17.818  21.033  1.00  0.00     0.063 C 
ATOM      2  C   UNL     1      -9.736 -18.155  22.409  1.00  0.00     0.038 C 
ATOM      3  O   UNL     1      -9.977 -19.291  22.897  1.00  0.00    -0.550 OA
ATOM      4  O   UNL     1      -8.988 -17.238  23.136  1.00  0.00    -0.550 OA
ENDROOT
TORSDOF 0
ENDMDL
MODEL 6
REMARK VINA RESULT:    -2.022     20.350     20.611
REMARK INTER + INTRA:          -2.022
REMARK INTER:                  -2.022
REMARK INTRA:                   0.000
REMARK UNBOUND:                 0.000
REMARK SMILES CC(=O)[O-]
REMARK SMILES IDX 1 1 2 2 3 3 4 4
REMARK H PARENT
REMARK Flexibility Score: inf
ROOT
ATOM      1  C   UNL     1      -9.993 -19.417  22.729  1.00  0.00     0.063 C 
ATOM      2  C   UNL     1      -9.628 -18.002  22.433  1.00  0.00     0.038 C 
ATOM      3  O   UNL     1      -9.022 -17.312  23.296  1.00  0.00    -0.550 OA
ATOM      4  O   UNL     1      -9.906 -17.457  21.186  1.00  0.00    -0.550 OA
ENDROOT
TORSDOF 0
ENDMDL
MODEL 7
REMARK VINA RESULT:    -1.897     12.045     12.567
REMARK INTER + INTRA:          -1.897
REMARK INTER:                  -1.897
REMARK INTRA:                   0.000
REMARK UNBOUND:                 0.000
REMARK SMILES CC(=O)[O-]
REMARK SMILES IDX 1 1 2 2 3 3 4 4
REMARK H PARENT
REMARK Flexibility Score: inf
ROOT
ATOM      1  C   UNL     1       6.165 -21.496  17.520  1.00  0.00     0.063 C 
ATOM      2  C   UNL     1       7.332 -21.832  16.655  1.00  0.00     0.038 C 
ATOM      3  O   UNL     1       7.943 -22.922  16.813  1.00  0.00    -0.550 OA
ATOM      4  O   UNL     1       7.716 -20.969  15.636  1.00  0.00    -0.550 OA
ENDROOT
TORSDOF 0
ENDMDL
MODEL 8
REMARK VINA RESULT:    -1.895     20.269     20.747
REMARK INTER + INTRA:          -1.895
REMARK INTER:                  -1.895
REMARK INTRA:                   0.000
REMARK UNBOUND:                 0.000
REMARK SMILES CC(=O)[O-]
REMARK SMILES IDX 1 1 2 2 3 3 4 4
REMARK H PARENT
REMARK Flexibility Score: inf
ROOT
ATOM      1  C   UNL     1      -9.143 -17.536  23.135  1.00  0.00     0.063 C 
ATOM      2  C   UNL     1      -9.900 -18.163  22.014  1.00  0.00     0.038 C 
ATOM      3  O   UNL     1     -10.185 -17.489  20.989  1.00  0.00    -0.550 OA
ATOM      4  O   UNL     1     -10.244 -19.508  22.072  1.00  0.00    -0.550 OA
ENDROOT
TORSDOF 0
ENDMDL
MODEL 9
REMARK VINA RESULT:    -1.857     16.216     16.736
REMARK INTER + INTRA:          -1.857
REMARK INTER:                  -1.857
REMARK INTRA:                   0.000
REMARK UNBOUND:                 0.000
REMARK SMILES CC(=O)[O-]
REMARK SMILES IDX 1 1 2 2 3 3 4 4
REMARK H PARENT
REMARK Flexibility Score: inf
ROOT
ATOM      1  C   UNL     1      -7.953  -9.088  16.877  1.00  0.00     0.063 C 
ATOM      2  C   UNL     1      -8.994  -8.021  16.882  1.00  0.00     0.038 C 
ATOM      3  O   UNL     1      -8.828  -6.979  17.569  1.00  0.00    -0.550 OA
ATOM      4  O   UNL     1     -10.125  -8.148  16.086  1.00  0.00    -0.550 OA
ENDROOT
TORSDOF 0
ENDMDL
