MODEL 1
REMARK VINA RESULT:    -3.370      0.000      0.000
REMARK INTER + INTRA:          -8.129
REMARK INTER:                  -5.932
REMARK INTRA:                  -2.197
REMARK UNBOUND:                -2.197
REMARK SMILES CCCCCCC=CCCCCCCCC(=O)[O-]
REMARK SMILES IDX 10 1 11 2 12 3 13 4 14 5 15 6 16 7 17 8 18 9 9 10 8 11 7 12
REMARK SMILES IDX 6 13 5 14 4 15 3 16 2 17 1 18
REMARK H PARENT
REMARK Flexibility Score: inf
ROOT
ATOM      1  C   UNL     1      54.178  30.377  51.034  1.00  0.00     0.004 C 
ENDROOT
BRANCH   1   2
ATOM      2  C   UNL     1      55.420  29.933  51.832  1.00  0.00     0.000 C 
BRANCH   2   3
ATOM      3  C   UNL     1      56.771  30.287  51.182  1.00  0.00     0.000 C 
BRANCH   3   4
ATOM      4  C   UNL     1      58.004  30.104  52.090  1.00  0.00     0.000 C 
BRANCH   4   5
ATOM      5  C   UNL     1      59.131  29.244  51.488  1.00  0.00     0.006 C 
BRANCH   5   6
ATOM      6  C   UNL     1      58.651  28.366  50.325  1.00  0.00     0.053 C 
BRANCH   6   7
ATOM      7  C   UNL     1      59.710  27.379  49.945  1.00  0.00     0.041 C 
ATOM      8  O   UNL     1      59.428  26.157  49.836  1.00  0.00    -0.550 OA
ATOM      9  O   UNL     1      60.998  27.816  49.660  1.00  0.00    -0.550 OA
ENDBRANCH   6   7
ENDBRANCH   5   6
ENDBRANCH   4   5
ENDBRANCH   3   4
ENDBRANCH   2   3
ENDBRANCH   1   2
BRANCH   1  10
ATOM     10  C   UNL     1      53.347  29.217  50.462  1.00  0.00     0.027 C 
BRANCH  10  11
ATOM     11  C   UNL     1      54.188  27.987  50.253  1.00  0.00    -0.031 C 
ATOM     12  C   UNL     1      53.640  26.801  49.952  1.00  0.00    -0.031 C 
BRANCH  12  13
ATOM     13  C   UNL     1      54.480  25.564  49.800  1.00  0.00     0.027 C 
BRANCH  13  14
ATOM     14  C   UNL     1      55.901  25.796  50.339  1.00  0.00     0.004 C 
BRANCH  14  15
ATOM     15  C   UNL     1      56.070  25.312  51.787  1.00  0.00     0.000 C 
BRANCH  15  16
ATOM     16  C   UNL     1      56.538  26.432  52.733  1.00  0.00    -0.000 C 
BRANCH  16  17
ATOM     17  C   UNL     1      55.406  26.961  53.625  1.00  0.00    -0.003 C 
ATOM     18  C   UNL     1      54.240  25.980  53.743  1.00  0.00     0.004 C 
ENDBRANCH  16  17
ENDBRANCH  15  16
ENDBRANCH  14  15
ENDBRANCH  13  14
ENDBRANCH  12  13
ENDBRANCH  10  11
ENDBRANCH   1  10
TORSDOF 13
ENDMDL
MODEL 2
REMARK VINA RESULT:    -3.326      1.514      3.414
REMARK INTER + INTRA:          -8.051
REMARK INTER:                  -5.361
REMARK INTRA:                  -2.690
REMARK UNBOUND:                -2.197
REMARK SMILES CCCCCCC=CCCCCCCCC(=O)[O-]
REMARK SMILES IDX 10 1 11 2 12 3 13 4 14 5 15 6 16 7 17 8 18 9 9 10 8 11 7 12
REMARK SMILES IDX 6 13 5 14 4 15 3 16 2 17 1 18
REMARK H PARENT
REMARK Flexibility Score: inf
ROOT
ATOM      1  C   UNL     1      54.126  26.792  50.949  1.00  0.00     0.004 C 
ENDROOT
BRANCH   1   2
ATOM      2  C   UNL     1      55.178  25.939  50.212  1.00  0.00     0.000 C 
BRANCH   2   3
ATOM      3  C   UNL     1      56.640  26.368  50.442  1.00  0.00     0.000 C 
BRANCH   3   4
ATOM      4  C   UNL     1      56.964  26.855  51.869  1.00  0.00     0.000 C 
BRANCH   4   5
ATOM      5  C   UNL     1      58.035  27.958  51.950  1.00  0.00     0.006 C 
BRANCH   5   6
ATOM      6  C   UNL     1      58.255  28.672  50.610  1.00  0.00     0.053 C 
BRANCH   6   7
ATOM      7  C   UNL     1      59.680  28.538  50.175  1.00  0.00     0.041 C 
ATOM      8  O   UNL     1      60.053  27.523  49.530  1.00  0.00    -0.550 OA
ATOM      9  O   UNL     1      60.586  29.558  50.437  1.00  0.00    -0.550 OA
ENDBRANCH   6   7
ENDBRANCH   5   6
ENDBRANCH   4   5
ENDBRANCH   3   4
ENDBRANCH   2   3
ENDBRANCH   1   2
BRANCH   1  10
ATOM     10  C   UNL     1      53.348  27.758  50.042  1.00  0.00     0.027 C 
BRANCH  10  11
ATOM     11  C   UNL     1      53.586  29.191  50.429  1.00  0.00    -0.031 C 
ATOM     12  C   UNL     1      54.812  29.649  50.722  1.00  0.00    -0.031 C 
BRANCH  12  13
ATOM     13  C   UNL     1      55.036  31.068  51.163  1.00  0.00     0.027 C 
BRANCH  13  14
ATOM     14  C   UNL     1      55.974  31.124  52.379  1.00  0.00     0.004 C 
BRANCH  14  15
ATOM     15  C   UNL     1      55.249  30.819  53.698  1.00  0.00     0.000 C 
BRANCH  15  16
ATOM     16  C   UNL     1      55.713  29.496  54.335  1.00  0.00    -0.000 C 
BRANCH  16  17
ATOM     17  C   UNL     1      54.634  28.405  54.274  1.00  0.00    -0.003 C 
ATOM     18  C   UNL     1      53.225  28.975  54.124  1.00  0.00     0.004 C 
ENDBRANCH  16  17
ENDBRANCH  15  16
ENDBRANCH  14  15
ENDBRANCH  13  14
ENDBRANCH  12  13
ENDBRANCH  10  11
ENDBRANCH   1  10
TORSDOF 13
ENDMDL
MODEL 3
REMARK VINA RESULT:    -3.301      1.239      2.064
REMARK INTER + INTRA:          -8.007
REMARK INTER:                  -5.670
REMARK INTRA:                  -2.337
REMARK UNBOUND:                -2.197
REMARK SMILES CCCCCCC=CCCCCCCCC(=O)[O-]
REMARK SMILES IDX 10 1 11 2 12 3 13 4 14 5 15 6 16 7 17 8 18 9 9 10 8 11 7 12
REMARK SMILES IDX 6 13 5 14 4 15 3 16 2 17 1 18
REMARK H PARENT
REMARK Flexibility Score: inf
ROOT
ATOM      1  C   UNL     1      56.141  30.262  52.510  1.00  0.00     0.004 C 
ENDROOT
BRANCH   1   2
ATOM      2  C   UNL     1      57.609  30.383  52.053  1.00  0.00     0.000 C 
BRANCH   2   3
ATOM      3  C   UNL     1      58.244  29.070  51.554  1.00  0.00     0.000 C 
BRANCH   3   4
ATOM      4  C   UNL     1      58.666  29.068  50.071  1.00  0.00     0.000 C 
BRANCH   4   5
ATOM      5  C   UNL     1      59.522  27.862  49.643  1.00  0.00     0.006 C 
BRANCH   5   6
ATOM      6  C   UNL     1      60.166  27.138  50.832  1.00  0.00     0.053 C 
BRANCH   6   7
ATOM      7  C   UNL     1      61.634  27.421  50.884  1.00  0.00     0.041 C 
ATOM      8  O   UNL     1      62.247  27.390  51.984  1.00  0.00    -0.550 OA
ATOM      9  O   UNL     1      62.336  27.671  49.712  1.00  0.00    -0.550 OA
ENDBRANCH   6   7
ENDBRANCH   5   6
ENDBRANCH   4   5
ENDBRANCH   3   4
ENDBRANCH   2   3
ENDBRANCH   1   2
BRANCH   1  10
ATOM     10  C   UNL     1      55.113  30.409  51.378  1.00  0.00     0.027 C 
BRANCH  10  11
ATOM     11  C   UNL     1      54.354  29.129  51.153  1.00  0.00    -0.031 C 
ATOM     12  C   UNL     1      54.860  28.128  50.419  1.00  0.00    -0.031 C 
BRANCH  12  13
ATOM     13  C   UNL     1      54.074  26.875  50.151  1.00  0.00     0.027 C 
BRANCH  13  14
ATOM     14  C   UNL     1      54.963  25.629  50.290  1.00  0.00     0.004 C 
BRANCH  14  15
ATOM     15  C   UNL     1      56.440  25.981  50.522  1.00  0.00     0.000 C 
BRANCH  15  16
ATOM     16  C   UNL     1      57.011  25.324  51.792  1.00  0.00    -0.000 C 
BRANCH  16  17
ATOM     17  C   UNL     1      56.079  25.478  53.003  1.00  0.00    -0.003 C 
ATOM     18  C   UNL     1      56.252  26.820  53.713  1.00  0.00     0.004 C 
ENDBRANCH  16  17
ENDBRANCH  15  16
ENDBRANCH  14  15
ENDBRANCH  13  14
ENDBRANCH  12  13
ENDBRANCH  10  11
ENDBRANCH   1  10
TORSDOF 13
ENDMDL
MODEL 4
REMARK VINA RESULT:    -3.221      1.814      4.455
REMARK INTER + INTRA:          -7.866
REMARK INTER:                  -6.369
REMARK INTRA:                  -1.496
REMARK UNBOUND:                -2.197
REMARK SMILES CCCCCCC=CCCCCCCCC(=O)[O-]
REMARK SMILES IDX 10 1 11 2 12 3 13 4 14 5 15 6 16 7 17 8 18 9 9 10 8 11 7 12
REMARK SMILES IDX 6 13 5 14 4 15 3 16 2 17 1 18
REMARK H PARENT
REMARK Flexibility Score: inf
ROOT
ATOM      1  C   UNL     1      53.308  26.348  50.430  1.00  0.00     0.004 C 
ENDROOT
BRANCH   1   2
ATOM      2  C   UNL     1      54.645  25.746  49.952  1.00  0.00     0.000 C 
BRANCH   2   3
ATOM      3  C   UNL     1      55.713  25.578  51.051  1.00  0.00     0.000 C 
BRANCH   3   4
ATOM      4  C   UNL     1      57.159  25.882  50.613  1.00  0.00     0.000 C 
BRANCH   4   5
ATOM      5  C   UNL     1      58.216  25.744  51.724  1.00  0.00     0.006 C 
BRANCH   5   6
ATOM      6  C   UNL     1      58.559  24.282  52.039  1.00  0.00     0.053 C 
BRANCH   6   7
ATOM      7  C   UNL     1      60.032  24.052  51.911  1.00  0.00     0.041 C 
ATOM      8  O   UNL     1      60.786  24.980  51.519  1.00  0.00    -0.550 OA
ATOM      9  O   UNL     1      60.578  22.827  52.273  1.00  0.00    -0.550 OA
ENDBRANCH   6   7
ENDBRANCH   5   6
ENDBRANCH   4   5
ENDBRANCH   3   4
ENDBRANCH   2   3
ENDBRANCH   1   2
BRANCH   1  10
ATOM     10  C   UNL     1      53.087  27.809  50.009  1.00  0.00     0.027 C 
BRANCH  10  11
ATOM     11  C   UNL     1      54.269  28.670  50.365  1.00  0.00    -0.031 C 
ATOM     12  C   UNL     1      54.117  29.920  50.828  1.00  0.00    -0.031 C 
BRANCH  12  13
ATOM     13  C   UNL     1      55.302  30.795  51.128  1.00  0.00     0.027 C 
BRANCH  13  14
ATOM     14  C   UNL     1      56.609  30.120  50.682  1.00  0.00     0.004 C 
BRANCH  14  15
ATOM     15  C   UNL     1      57.593  29.914  51.843  1.00  0.00     0.000 C 
BRANCH  15  16
ATOM     16  C   UNL     1      58.938  29.326  51.380  1.00  0.00    -0.000 C 
BRANCH  16  17
ATOM     17  C   UNL     1      58.941  28.971  49.885  1.00  0.00    -0.003 C 
ATOM     18  C   UNL     1      60.059  27.999  49.512  1.00  0.00     0.004 C 
ENDBRANCH  16  17
ENDBRANCH  15  16
ENDBRANCH  14  15
ENDBRANCH  13  14
ENDBRANCH  12  13
ENDBRANCH  10  11
ENDBRANCH   1  10
TORSDOF 13
ENDMDL
MODEL 5
REMARK VINA RESULT:    -3.185      2.350      3.859
REMARK INTER + INTRA:          -7.803
REMARK INTER:                  -5.626
REMARK INTRA:                  -2.177
REMARK UNBOUND:                -2.197
REMARK SMILES CCCCCCC=CCCCCCCCC(=O)[O-]
REMARK SMILES IDX 10 1 11 2 12 3 13 4 14 5 15 6 16 7 17 8 18 9 9 10 8 11 7 12
REMARK SMILES IDX 6 13 5 14 4 15 3 16 2 17 1 18
REMARK H PARENT
REMARK Flexibility Score: inf
ROOT
ATOM      1  C   UNL     1      58.704  29.180  49.960  1.00  0.00     0.004 C 
ENDROOT
BRANCH   1   2
ATOM      2  C   UNL     1      59.686  28.000  49.808  1.00  0.00     0.000 C 
BRANCH   2   3
ATOM      3  C   UNL     1      59.564  26.909  50.889  1.00  0.00     0.000 C 
BRANCH   3   4
ATOM      4  C   UNL     1      58.919  25.589  50.419  1.00  0.00     0.000 C 
BRANCH   4   5
ATOM      5  C   UNL     1      59.492  24.319  51.075  1.00  0.00     0.006 C 
BRANCH   5   6
ATOM      6  C   UNL     1      60.329  24.621  52.324  1.00  0.00     0.053 C 
BRANCH   6   7
ATOM      7  C   UNL     1      61.729  24.122  52.148  1.00  0.00     0.041 C 
ATOM      8  O   UNL     1      62.024  22.938  52.459  1.00  0.00    -0.550 OA
ATOM      9  O   UNL     1      62.697  24.949  51.592  1.00  0.00    -0.550 OA
ENDBRANCH   6   7
ENDBRANCH   5   6
ENDBRANCH   4   5
ENDBRANCH   3   4
ENDBRANCH   2   3
ENDBRANCH   1   2
BRANCH   1  10
ATOM     10  C   UNL     1      58.116  29.334  51.371  1.00  0.00     0.027 C 
BRANCH  10  11
ATOM     11  C   UNL     1      56.617  29.199  51.361  1.00  0.00    -0.031 C 
ATOM     12  C   UNL     1      55.990  28.352  50.533  1.00  0.00    -0.031 C 
BRANCH  12  13
ATOM     13  C   UNL     1      54.490  28.263  50.488  1.00  0.00     0.027 C 
BRANCH  13  14
ATOM     14  C   UNL     1      54.034  26.823  50.210  1.00  0.00     0.004 C 
BRANCH  14  15
ATOM     15  C   UNL     1      55.086  25.780  50.618  1.00  0.00     0.000 C 
BRANCH  15  16
ATOM     16  C   UNL     1      54.847  25.224  52.033  1.00  0.00    -0.000 C 
BRANCH  16  17
ATOM     17  C   UNL     1      56.157  24.914  52.772  1.00  0.00    -0.003 C 
ATOM     18  C   UNL     1      56.733  26.134  53.490  1.00  0.00     0.004 C 
ENDBRANCH  16  17
ENDBRANCH  15  16
ENDBRANCH  14  15
ENDBRANCH  13  14
ENDBRANCH  12  13
ENDBRANCH  10  11
ENDBRANCH   1  10
TORSDOF 13
ENDMDL
MODEL 6
REMARK VINA RESULT:    -3.168      1.354      3.726
REMARK INTER + INTRA:          -7.773
REMARK INTER:                  -5.540
REMARK INTRA:                  -2.232
REMARK UNBOUND:                -2.197
REMARK SMILES CCCCCCC=CCCCCCCCC(=O)[O-]
REMARK SMILES IDX 10 1 11 2 12 3 13 4 14 5 15 6 16 7 17 8 18 9 9 10 8 11 7 12
REMARK SMILES IDX 6 13 5 14 4 15 3 16 2 17 1 18
REMARK H PARENT
REMARK Flexibility Score: inf
ROOT
ATOM      1  C   UNL     1      54.811  25.804  50.106  1.00  0.00     0.004 C 
ENDROOT
BRANCH   1   2
ATOM      2  C   UNL     1      55.338  25.691  51.551  1.00  0.00     0.000 C 
BRANCH   2   3
ATOM      3  C   UNL     1      56.869  25.798  51.695  1.00  0.00     0.000 C 
BRANCH   3   4
ATOM      4  C   UNL     1      57.626  26.162  50.402  1.00  0.00     0.000 C 
BRANCH   4   5
ATOM      5  C   UNL     1      59.151  25.963  50.466  1.00  0.00     0.006 C 
BRANCH   5   6
ATOM      6  C   UNL     1      59.927  27.082  49.759  1.00  0.00     0.053 C 
BRANCH   6   7
ATOM      7  C   UNL     1      61.155  27.438  50.537  1.00  0.00     0.041 C 
ATOM      8  O   UNL     1      61.558  28.630  50.574  1.00  0.00    -0.550 OA
ATOM      9  O   UNL     1      61.825  26.462  51.263  1.00  0.00    -0.550 OA
ENDBRANCH   6   7
ENDBRANCH   5   6
ENDBRANCH   4   5
ENDBRANCH   3   4
ENDBRANCH   2   3
ENDBRANCH   1   2
BRANCH   1  10
ATOM     10  C   UNL     1      53.540  26.656  49.963  1.00  0.00     0.027 C 
BRANCH  10  11
ATOM     11  C   UNL     1      53.608  27.895  50.813  1.00  0.00    -0.031 C 
ATOM     12  C   UNL     1      54.286  28.984  50.421  1.00  0.00    -0.031 C 
BRANCH  12  13
ATOM     13  C   UNL     1      54.397  30.198  51.300  1.00  0.00     0.027 C 
BRANCH  13  14
ATOM     14  C   UNL     1      55.814  30.328  51.881  1.00  0.00     0.004 C 
BRANCH  14  15
ATOM     15  C   UNL     1      56.892  29.771  50.938  1.00  0.00     0.000 C 
BRANCH  15  16
ATOM     16  C   UNL     1      58.264  29.639  51.623  1.00  0.00    -0.000 C 
BRANCH  16  17
ATOM     17  C   UNL     1      58.146  29.286  53.113  1.00  0.00    -0.003 C 
ATOM     18  C   UNL     1      59.069  28.139  53.522  1.00  0.00     0.004 C 
ENDBRANCH  16  17
ENDBRANCH  15  16
ENDBRANCH  14  15
ENDBRANCH  13  14
ENDBRANCH  12  13
ENDBRANCH  10  11
ENDBRANCH   1  10
TORSDOF 13
ENDMDL
MODEL 7
REMARK VINA RESULT:    -3.166      1.800      3.944
REMARK INTER + INTRA:          -7.768
REMARK INTER:                  -6.262
REMARK INTRA:                  -1.507
REMARK UNBOUND:                -2.197
REMARK SMILES CCCCCCC=CCCCCCCCC(=O)[O-]
REMARK SMILES IDX 10 1 11 2 12 3 13 4 14 5 15 6 16 7 17 8 18 9 9 10 8 11 7 12
REMARK SMILES IDX 6 13 5 14 4 15 3 16 2 17 1 18
REMARK H PARENT
REMARK Flexibility Score: inf
ROOT
ATOM      1  C   UNL     1      56.364  25.612  51.111  1.00  0.00     0.004 C 
ENDROOT
BRANCH   1   2
ATOM      2  C   UNL     1      57.558  26.548  50.838  1.00  0.00     0.000 C 
BRANCH   2   3
ATOM      3  C   UNL     1      58.828  25.847  50.318  1.00  0.00     0.000 C 
BRANCH   3   4
ATOM      4  C   UNL     1      60.103  26.714  50.319  1.00  0.00     0.000 C 
BRANCH   4   5
ATOM      5  C   UNL     1      59.950  28.093  49.651  1.00  0.00     0.006 C 
BRANCH   5   6
ATOM      6  C   UNL     1      60.114  29.254  50.641  1.00  0.00     0.053 C 
BRANCH   6   7
ATOM      7  C   UNL     1      61.551  29.410  51.029  1.00  0.00     0.041 C 
ATOM      8  O   UNL     1      61.856  29.774  52.195  1.00  0.00    -0.550 OA
ATOM      9  O   UNL     1      62.554  29.105  50.119  1.00  0.00    -0.550 OA
ENDBRANCH   6   7
ENDBRANCH   5   6
ENDBRANCH   4   5
ENDBRANCH   3   4
ENDBRANCH   2   3
ENDBRANCH   1   2
BRANCH   1  10
ATOM     10  C   UNL     1      55.110  25.929  50.281  1.00  0.00     0.027 C 
BRANCH  10  11
ATOM     11  C   UNL     1      54.797  27.400  50.295  1.00  0.00    -0.031 C 
ATOM     12  C   UNL     1      53.538  27.854  50.377  1.00  0.00    -0.031 C 
BRANCH  12  13
ATOM     13  C   UNL     1      53.228  29.324  50.333  1.00  0.00     0.027 C 
BRANCH  13  14
ATOM     14  C   UNL     1      53.961  30.073  51.457  1.00  0.00     0.004 C 
BRANCH  14  15
ATOM     15  C   UNL     1      55.054  31.012  50.926  1.00  0.00     0.000 C 
BRANCH  15  16
ATOM     16  C   UNL     1      56.453  30.373  50.967  1.00  0.00    -0.000 C 
BRANCH  16  17
ATOM     17  C   UNL     1      57.151  30.571  52.321  1.00  0.00    -0.003 C 
ATOM     18  C   UNL     1      57.148  29.306  53.178  1.00  0.00     0.004 C 
ENDBRANCH  16  17
ENDBRANCH  15  16
ENDBRANCH  14  15
ENDBRANCH  13  14
ENDBRANCH  12  13
ENDBRANCH  10  11
ENDBRANCH   1  10
TORSDOF 13
ENDMDL
MODEL 8
REMARK VINA RESULT:    -3.143      2.275      4.757
REMARK INTER + INTRA:          -7.729
REMARK INTER:                  -5.738
REMARK INTRA:                  -1.991
REMARK UNBOUND:                -2.197
REMARK SMILES CCCCCCC=CCCCCCCCC(=O)[O-]
REMARK SMILES IDX 10 1 11 2 12 3 13 4 14 5 15 6 16 7 17 8 18 9 9 10 8 11 7 12
REMARK SMILES IDX 6 13 5 14 4 15 3 16 2 17 1 18
REMARK H PARENT
REMARK Flexibility Score: inf
ROOT
ATOM      1  C   UNL     1      52.885  27.199  50.031  1.00  0.00     0.004 C 
ENDROOT
BRANCH   1   2
ATOM      2  C   UNL     1      53.827  26.428  50.978  1.00  0.00     0.000 C 
BRANCH   2   3
ATOM      3  C   UNL     1      54.923  25.603  50.275  1.00  0.00     0.000 C 
BRANCH   3   4
ATOM      4  C   UNL     1      56.338  26.213  50.328  1.00  0.00     0.000 C 
BRANCH   4   5
ATOM      5  C   UNL     1      57.324  25.481  51.258  1.00  0.00     0.006 C 
BRANCH   5   6
ATOM      6  C   UNL     1      57.450  26.149  52.633  1.00  0.00     0.053 C 
BRANCH   6   7
ATOM      7  C   UNL     1      57.006  25.210  53.712  1.00  0.00     0.041 C 
ATOM      8  O   UNL     1      57.820  24.828  54.593  1.00  0.00    -0.550 OA
ATOM      9  O   UNL     1      55.681  24.799  53.772  1.00  0.00    -0.550 OA
ENDBRANCH   6   7
ENDBRANCH   5   6
ENDBRANCH   4   5
ENDBRANCH   3   4
ENDBRANCH   2   3
ENDBRANCH   1   2
BRANCH   1  10
ATOM     10  C   UNL     1      53.002  28.728  50.132  1.00  0.00     0.027 C 
BRANCH  10  11
ATOM     11  C   UNL     1      54.312  29.142  50.744  1.00  0.00    -0.031 C 
ATOM     12  C   UNL     1      54.628  30.431  50.930  1.00  0.00    -0.031 C 
BRANCH  12  13
ATOM     13  C   UNL     1      55.962  30.840  51.490  1.00  0.00     0.027 C 
BRANCH  13  14
ATOM     14  C   UNL     1      56.966  29.679  51.419  1.00  0.00     0.004 C 
BRANCH  14  15
ATOM     15  C   UNL     1      58.309  30.018  52.085  1.00  0.00     0.000 C 
BRANCH  15  16
ATOM     16  C   UNL     1      59.481  29.217  51.490  1.00  0.00    -0.000 C 
BRANCH  16  17
ATOM     17  C   UNL     1      59.187  28.710  50.071  1.00  0.00    -0.003 C 
ATOM     18  C   UNL     1      60.051  27.511  49.681  1.00  0.00     0.004 C 
ENDBRANCH  16  17
ENDBRANCH  15  16
ENDBRANCH  14  15
ENDBRANCH  13  14
ENDBRANCH  12  13
ENDBRANCH  10  11
ENDBRANCH   1  10
TORSDOF 13
ENDMDL
MODEL 9
REMARK VINA RESULT:    -3.099      2.089      4.854
REMARK INTER + INTRA:          -7.652
REMARK INTER:                  -5.518
REMARK INTRA:                  -2.134
REMARK UNBOUND:                -2.197
REMARK SMILES CCCCCCC=CCCCCCCCC(=O)[O-]
REMARK SMILES IDX 10 1 11 2 12 3 13 4 14 5 15 6 16 7 17 8 18 9 9 10 8 11 7 12
REMARK SMILES IDX 6 13 5 14 4 15 3 16 2 17 1 18
REMARK H PARENT
REMARK Flexibility Score: inf
ROOT
ATOM      1  C   UNL     1      54.313  28.076  51.401  1.00  0.00     0.004 C 
ENDROOT
BRANCH   1   2
ATOM      2  C   UNL     1      54.258  27.287  50.077  1.00  0.00     0.000 C 
BRANCH   2   3
ATOM      3  C   UNL     1      55.007  25.940  50.092  1.00  0.00     0.000 C 
BRANCH   3   4
ATOM      4  C   UNL     1      55.699  25.589  51.424  1.00  0.00     0.000 C 
BRANCH   4   5
ATOM      5  C   UNL     1      57.237  25.551  51.364  1.00  0.00     0.006 C 
BRANCH   5   6
ATOM      6  C   UNL     1      57.891  25.805  52.729  1.00  0.00     0.053 C 
BRANCH   6   7
ATOM      7  C   UNL     1      58.306  24.511  53.358  1.00  0.00     0.041 C 
ATOM      8  O   UNL     1      58.485  23.489  52.645  1.00  0.00    -0.550 OA
ATOM      9  O   UNL     1      58.544  24.448  54.725  1.00  0.00    -0.550 OA
ENDBRANCH   6   7
ENDBRANCH   5   6
ENDBRANCH   4   5
ENDBRANCH   3   4
ENDBRANCH   2   3
ENDBRANCH   1   2
BRANCH   1  10
ATOM     10  C   UNL     1      54.869  29.502  51.264  1.00  0.00     0.027 C 
BRANCH  10  11
ATOM     11  C   UNL     1      56.298  29.493  50.793  1.00  0.00    -0.031 C 
ATOM     12  C   UNL     1      57.315  29.235  51.628  1.00  0.00    -0.031 C 
BRANCH  12  13
ATOM     13  C   UNL     1      58.744  29.283  51.163  1.00  0.00     0.027 C 
BRANCH  13  14
ATOM     14  C   UNL     1      58.889  28.657  49.768  1.00  0.00     0.004 C 
BRANCH  14  15
ATOM     15  C   UNL     1      59.961  27.558  49.723  1.00  0.00     0.000 C 
BRANCH  15  16
ATOM     16  C   UNL     1      61.343  28.062  50.174  1.00  0.00    -0.000 C 
BRANCH  16  17
ATOM     17  C   UNL     1      62.137  26.995  50.942  1.00  0.00    -0.003 C 
ATOM     18  C   UNL     1      61.247  25.889  51.505  1.00  0.00     0.004 C 
ENDBRANCH  16  17
ENDBRANCH  15  16
ENDBRANCH  14  15
ENDBRANCH  13  14
ENDBRANCH  12  13
ENDBRANCH  10  11
ENDBRANCH   1  10
TORSDOF 13
ENDMDL
