MODEL 1
REMARK VINA RESULT:    -2.279      0.000      0.000
REMARK INTER + INTRA:          -3.104
REMARK INTER:                  -3.078
REMARK INTRA:                  -0.026
REMARK UNBOUND:                -0.026
REMARK SMILES [NH3+]CCCC[C@@H]([NH3+])C(=O)[O-]
REMARK SMILES IDX 4 1 3 2 2 3 1 4 5 8 6 9 7 10 8 14 9 15 10 16
REMARK H PARENT 1 5 1 6 1 7 7 11 7 12 7 13
REMARK Flexibility Score: inf
ROOT
ATOM      1  C   UNL     1       3.390   2.051 -37.957  1.00  0.00     0.012 C 
ENDROOT
BRANCH   1   2
ATOM      2  C   UNL     1       2.918   0.842 -37.121  1.00  0.00     0.061 C 
BRANCH   2   3
ATOM      3  C   UNL     1       2.980  -0.495 -37.880  1.00  0.00     0.258 C 
BRANCH   3   4
ATOM      4  N   UNL     1       1.751  -0.770 -38.625  1.00  0.00    -0.358 N 
ATOM      5  H   UNL     1       1.838  -1.668 -39.155  1.00  0.00     0.344 HD
ATOM      6  H   UNL     1       1.586   0.006 -39.307  1.00  0.00     0.344 HD
ATOM      7  H   UNL     1       0.936  -0.811 -37.974  1.00  0.00     0.344 HD
ENDBRANCH   3   4
ENDBRANCH   2   3
ENDBRANCH   1   2
BRANCH   1   8
ATOM      8  C   UNL     1       2.238   3.018 -38.283  1.00  0.00     0.072 C 
BRANCH   8   9
ATOM      9  C   UNL     1       0.899   2.288 -38.535  1.00  0.00     0.227 C 
BRANCH   9  10
ATOM     10  N   UNL     1      -0.228   2.978 -37.892  1.00  0.00    -0.350 N 
ATOM     11  H   UNL     1      -0.456   3.854 -38.417  1.00  0.00     0.345 HD
ATOM     12  H   UNL     1      -1.079   2.372 -37.909  1.00  0.00     0.345 HD
ATOM     13  H   UNL     1       0.002   3.224 -36.901  1.00  0.00     0.345 HD
ENDBRANCH   9  10
BRANCH   9  14
ATOM     14  C   UNL     1       0.656   2.170 -40.017  1.00  0.00     0.099 C 
ATOM     15  O   UNL     1      -0.463   2.478 -40.507  1.00  0.00    -0.544 OA
ATOM     16  O   UNL     1       1.676   1.741 -40.856  1.00  0.00    -0.544 OA
ENDBRANCH   9  14
ENDBRANCH   8   9
ENDBRANCH   1   8
TORSDOF 7
ENDMDL
MODEL 2
REMARK VINA RESULT:    -2.273      2.076      3.039
REMARK INTER + INTRA:          -3.096
REMARK INTER:                  -3.073
REMARK INTRA:                  -0.024
REMARK UNBOUND:                -0.026
REMARK SMILES [NH3+]CCCC[C@@H]([NH3+])C(=O)[O-]
REMARK SMILES IDX 4 1 3 2 2 3 1 4 5 8 6 9 7 10 8 14 9 15 10 16
REMARK H PARENT 1 5 1 6 1 7 7 11 7 12 7 13
REMARK Flexibility Score: inf
ROOT
ATOM      1  C   UNL     1       3.245   1.329 -37.902  1.00  0.00     0.012 C 
ENDROOT
BRANCH   1   2
ATOM      2  C   UNL     1       4.041   2.448 -38.605  1.00  0.00     0.061 C 
BRANCH   2   3
ATOM      3  C   UNL     1       3.937   3.814 -37.903  1.00  0.00     0.258 C 
BRANCH   3   4
ATOM      4  N   UNL     1       2.772   4.581 -38.345  1.00  0.00    -0.358 N 
ATOM      5  H   UNL     1       2.924   4.953 -39.310  1.00  0.00     0.344 HD
ATOM      6  H   UNL     1       2.630   5.388 -37.693  1.00  0.00     0.344 HD
ATOM      7  H   UNL     1       1.916   3.984 -38.316  1.00  0.00     0.344 HD
ENDBRANCH   3   4
ENDBRANCH   2   3
ENDBRANCH   1   2
BRANCH   1   8
ATOM      8  C   UNL     1       2.044   0.853 -38.738  1.00  0.00     0.072 C 
BRANCH   8   9
ATOM      9  C   UNL     1       1.411   1.989 -39.572  1.00  0.00     0.227 C 
BRANCH   9  10
ATOM     10  N   UNL     1       1.145   1.568 -40.955  1.00  0.00    -0.350 N 
ATOM     11  H   UNL     1       0.185   1.160 -41.025  1.00  0.00     0.345 HD
ATOM     12  H   UNL     1       1.183   2.392 -41.596  1.00  0.00     0.345 HD
ATOM     13  H   UNL     1       1.843   0.854 -41.268  1.00  0.00     0.345 HD
ENDBRANCH   9  10
BRANCH   9  14
ATOM     14  C   UNL     1       0.135   2.448 -38.917  1.00  0.00     0.099 C 
ATOM     15  O   UNL     1      -0.909   2.621 -39.602  1.00  0.00    -0.544 OA
ATOM     16  O   UNL     1       0.097   2.665 -37.546  1.00  0.00    -0.544 OA
ENDBRANCH   9  14
ENDBRANCH   8   9
ENDBRANCH   1   8
TORSDOF 7
ENDMDL
MODEL 3
REMARK VINA RESULT:    -2.099      2.192      3.392
REMARK INTER + INTRA:          -2.861
REMARK INTER:                  -2.715
REMARK INTRA:                  -0.146
REMARK UNBOUND:                -0.026
REMARK SMILES [NH3+]CCCC[C@@H]([NH3+])C(=O)[O-]
REMARK SMILES IDX 4 1 3 2 2 3 1 4 5 8 6 9 7 10 8 14 9 15 10 16
REMARK H PARENT 1 5 1 6 1 7 7 11 7 12 7 13
REMARK Flexibility Score: inf
ROOT
ATOM      1  C   UNL     1       2.564   2.507 -39.812  1.00  0.00     0.012 C 
ENDROOT
BRANCH   1   2
ATOM      2  C   UNL     1       3.878   2.622 -39.012  1.00  0.00     0.061 C 
BRANCH   2   3
ATOM      3  C   UNL     1       3.913   3.823 -38.050  1.00  0.00     0.258 C 
BRANCH   3   4
ATOM      4  N   UNL     1       2.796   4.743 -38.266  1.00  0.00    -0.358 N 
ATOM      5  H   UNL     1       2.035   4.273 -38.809  1.00  0.00     0.344 HD
ATOM      6  H   UNL     1       3.136   5.569 -38.811  1.00  0.00     0.344 HD
ATOM      7  H   UNL     1       2.429   5.085 -37.350  1.00  0.00     0.344 HD
ENDBRANCH   3   4
ENDBRANCH   2   3
ENDBRANCH   1   2
BRANCH   1   8
ATOM      8  C   UNL     1       1.958   1.094 -39.739  1.00  0.00     0.072 C 
BRANCH   8   9
ATOM      9  C   UNL     1       1.287   0.802 -38.378  1.00  0.00     0.227 C 
BRANCH   9  10
ATOM     10  N   UNL     1       2.266   0.381 -37.366  1.00  0.00    -0.350 N 
ATOM     11  H   UNL     1       3.231   0.409 -37.770  1.00  0.00     0.345 HD
ATOM     12  H   UNL     1       2.248   1.037 -36.553  1.00  0.00     0.345 HD
ATOM     13  H   UNL     1       2.063  -0.590 -37.033  1.00  0.00     0.345 HD
ENDBRANCH   9  10
BRANCH   9  14
ATOM     14  C   UNL     1       0.548   2.026 -37.905  1.00  0.00     0.099 C 
ATOM     15  O   UNL     1       0.974   2.690 -36.923  1.00  0.00    -0.544 OA
ATOM     16  O   UNL     1      -0.602   2.442 -38.565  1.00  0.00    -0.544 OA
ENDBRANCH   9  14
ENDBRANCH   8   9
ENDBRANCH   1   8
TORSDOF 7
ENDMDL
MODEL 4
REMARK VINA RESULT:    -2.031      1.562      1.974
REMARK INTER + INTRA:          -2.770
REMARK INTER:                  -2.744
REMARK INTRA:                  -0.026
REMARK UNBOUND:                -0.026
REMARK SMILES [NH3+]CCCC[C@@H]([NH3+])C(=O)[O-]
REMARK SMILES IDX 4 1 3 2 2 3 1 4 5 8 6 9 7 10 8 14 9 15 10 16
REMARK H PARENT 1 5 1 6 1 7 7 11 7 12 7 13
REMARK Flexibility Score: inf
ROOT
ATOM      1  C   UNL     1       1.223   1.577 -37.534  1.00  0.00     0.012 C 
ENDROOT
BRANCH   1   2
ATOM      2  C   UNL     1       2.561   0.938 -37.108  1.00  0.00     0.061 C 
BRANCH   2   3
ATOM      3  C   UNL     1       2.822  -0.436 -37.752  1.00  0.00     0.258 C 
BRANCH   3   4
ATOM      4  N   UNL     1       1.750  -0.837 -38.664  1.00  0.00    -0.358 N 
ATOM      5  H   UNL     1       1.466  -1.827 -38.481  1.00  0.00     0.344 HD
ATOM      6  H   UNL     1       2.097  -0.764 -39.649  1.00  0.00     0.344 HD
ATOM      7  H   UNL     1       0.930  -0.199 -38.559  1.00  0.00     0.344 HD
ENDBRANCH   3   4
ENDBRANCH   2   3
ENDBRANCH   1   2
BRANCH   1   8
ATOM      8  C   UNL     1       1.380   3.061 -37.913  1.00  0.00     0.072 C 
BRANCH   8   9
ATOM      9  C   UNL     1       2.219   3.263 -39.195  1.00  0.00     0.227 C 
BRANCH   9  10
ATOM     10  N   UNL     1       3.658   3.109 -38.936  1.00  0.00    -0.350 N 
ATOM     11  H   UNL     1       4.205   3.694 -39.608  1.00  0.00     0.345 HD
ATOM     12  H   UNL     1       3.888   3.439 -37.972  1.00  0.00     0.345 HD
ATOM     13  H   UNL     1       3.949   2.109 -39.038  1.00  0.00     0.345 HD
ENDBRANCH   9  10
BRANCH   9  14
ATOM     14  C   UNL     1       1.776   2.284 -40.251  1.00  0.00     0.099 C 
ATOM     15  O   UNL     1       2.561   1.386 -40.658  1.00  0.00    -0.544 OA
ATOM     16  O   UNL     1       0.489   2.354 -40.767  1.00  0.00    -0.544 OA
ENDBRANCH   9  14
ENDBRANCH   8   9
ENDBRANCH   1   8
TORSDOF 7
ENDMDL
MODEL 5
REMARK VINA RESULT:    -1.887      2.590      3.700
REMARK INTER + INTRA:          -2.575
REMARK INTER:                  -3.013
REMARK INTRA:                   0.438
REMARK UNBOUND:                -0.026
REMARK SMILES [NH3+]CCCC[C@@H]([NH3+])C(=O)[O-]
REMARK SMILES IDX 4 1 3 2 2 3 1 4 5 8 6 9 7 10 8 14 9 15 10 16
REMARK H PARENT 1 5 1 6 1 7 7 11 7 12 7 13
REMARK Flexibility Score: inf
ROOT
ATOM      1  C   UNL     1       2.473   3.012 -39.635  1.00  0.00     0.012 C 
ENDROOT
BRANCH   1   2
ATOM      2  C   UNL     1       2.067   1.876 -40.596  1.00  0.00     0.061 C 
BRANCH   2   3
ATOM      3  C   UNL     1       0.954   2.270 -41.584  1.00  0.00     0.258 C 
BRANCH   3   4
ATOM      4  N   UNL     1       1.468   3.003 -42.740  1.00  0.00    -0.358 N 
ATOM      5  H   UNL     1       0.899   2.790 -43.592  1.00  0.00     0.344 HD
ATOM      6  H   UNL     1       2.457   2.709 -42.917  1.00  0.00     0.344 HD
ATOM      7  H   UNL     1       1.463   4.030 -42.548  1.00  0.00     0.344 HD
ENDBRANCH   3   4
ENDBRANCH   2   3
ENDBRANCH   1   2
BRANCH   1   8
ATOM      8  C   UNL     1       3.233   2.490 -38.403  1.00  0.00     0.072 C 
BRANCH   8   9
ATOM      9  C   UNL     1       2.337   1.655 -37.460  1.00  0.00     0.227 C 
BRANCH   9  10
ATOM     10  N   UNL     1       0.938   2.104 -37.497  1.00  0.00    -0.350 N 
ATOM     11  H   UNL     1       0.831   2.881 -38.190  1.00  0.00     0.345 HD
ATOM     12  H   UNL     1       0.316   1.323 -37.803  1.00  0.00     0.345 HD
ATOM     13  H   UNL     1       0.630   2.443 -36.555  1.00  0.00     0.345 HD
ENDBRANCH   9  10
BRANCH   9  14
ATOM     14  C   UNL     1       2.422   0.199 -37.836  1.00  0.00     0.099 C 
ATOM     15  O   UNL     1       3.390  -0.505 -37.444  1.00  0.00    -0.544 OA
ATOM     16  O   UNL     1       1.420  -0.380 -38.603  1.00  0.00    -0.544 OA
ENDBRANCH   9  14
ENDBRANCH   8   9
ENDBRANCH   1   8
TORSDOF 7
ENDMDL
MODEL 6
REMARK VINA RESULT:    -1.742      2.304      3.419
REMARK INTER + INTRA:          -2.380
REMARK INTER:                  -3.234
REMARK INTRA:                   0.855
REMARK UNBOUND:                -0.026
REMARK SMILES [NH3+]CCCC[C@@H]([NH3+])C(=O)[O-]
REMARK SMILES IDX 4 1 3 2 2 3 1 4 5 8 6 9 7 10 8 14 9 15 10 16
REMARK H PARENT 1 5 1 6 1 7 7 11 7 12 7 13
REMARK Flexibility Score: inf
ROOT
ATOM      1  C   UNL     1       1.486   1.502 -37.313  1.00  0.00     0.012 C 
ENDROOT
BRANCH   1   2
ATOM      2  C   UNL     1       0.522   2.687 -37.534  1.00  0.00     0.061 C 
BRANCH   2   3
ATOM      3  C   UNL     1      -0.890   2.260 -37.974  1.00  0.00     0.258 C 
BRANCH   3   4
ATOM      4  N   UNL     1      -1.777   2.012 -36.838  1.00  0.00    -0.358 N 
ATOM      5  H   UNL     1      -1.236   1.637 -36.025  1.00  0.00     0.344 HD
ATOM      6  H   UNL     1      -2.497   1.305 -37.116  1.00  0.00     0.344 HD
ATOM      7  H   UNL     1      -2.272   2.892 -36.568  1.00  0.00     0.344 HD
ENDBRANCH   3   4
ENDBRANCH   2   3
ENDBRANCH   1   2
BRANCH   1   8
ATOM      8  C   UNL     1       1.673   0.658 -38.586  1.00  0.00     0.072 C 
BRANCH   8   9
ATOM      9  C   UNL     1       2.445   1.411 -39.693  1.00  0.00     0.227 C 
BRANCH   9  10
ATOM     10  N   UNL     1       1.561   1.818 -40.794  1.00  0.00    -0.350 N 
ATOM     11  H   UNL     1       1.936   2.681 -41.251  1.00  0.00     0.345 HD
ATOM     12  H   UNL     1       1.524   1.069 -41.522  1.00  0.00     0.345 HD
ATOM     13  H   UNL     1       0.594   2.010 -40.444  1.00  0.00     0.345 HD
ENDBRANCH   9  10
BRANCH   9  14
ATOM     14  C   UNL     1       3.127   2.619 -39.103  1.00  0.00     0.099 C 
ATOM     15  O   UNL     1       2.689   3.777 -39.338  1.00  0.00    -0.544 OA
ATOM     16  O   UNL     1       4.232   2.459 -38.278  1.00  0.00    -0.544 OA
ENDBRANCH   9  14
ENDBRANCH   8   9
ENDBRANCH   1   8
TORSDOF 7
ENDMDL
MODEL 7
REMARK VINA RESULT:    -1.658      1.676      2.641
REMARK INTER + INTRA:          -2.265
REMARK INTER:                  -2.325
REMARK INTRA:                   0.060
REMARK UNBOUND:                -0.026
REMARK SMILES [NH3+]CCCC[C@@H]([NH3+])C(=O)[O-]
REMARK SMILES IDX 4 1 3 2 2 3 1 4 5 8 6 9 7 10 8 14 9 15 10 16
REMARK H PARENT 1 5 1 6 1 7 7 11 7 12 7 13
REMARK Flexibility Score: inf
ROOT
ATOM      1  C   UNL     1       2.847   1.538 -37.526  1.00  0.00     0.012 C 
ENDROOT
BRANCH   1   2
ATOM      2  C   UNL     1       3.987   2.284 -38.251  1.00  0.00     0.061 C 
BRANCH   2   3
ATOM      3  C   UNL     1       4.080   3.776 -37.885  1.00  0.00     0.258 C 
BRANCH   3   4
ATOM      4  N   UNL     1       2.890   4.524 -38.290  1.00  0.00    -0.358 N 
ATOM      5  H   UNL     1       2.067   3.885 -38.377  1.00  0.00     0.344 HD
ATOM      6  H   UNL     1       3.068   4.969 -39.220  1.00  0.00     0.344 HD
ATOM      7  H   UNL     1       2.689   5.282 -37.600  1.00  0.00     0.344 HD
ENDBRANCH   3   4
ENDBRANCH   2   3
ENDBRANCH   1   2
BRANCH   1   8
ATOM      8  C   UNL     1       1.974   0.722 -38.496  1.00  0.00     0.072 C 
BRANCH   8   9
ATOM      9  C   UNL     1       0.829   1.556 -39.112  1.00  0.00     0.227 C 
BRANCH   9  10
ATOM     10  N   UNL     1       0.424   2.662 -38.233  1.00  0.00    -0.350 N 
ATOM     11  H   UNL     1      -0.435   3.123 -38.612  1.00  0.00     0.345 HD
ATOM     12  H   UNL     1       0.192   2.299 -37.281  1.00  0.00     0.345 HD
ATOM     13  H   UNL     1       1.188   3.374 -38.155  1.00  0.00     0.345 HD
ENDBRANCH   9  10
BRANCH   9  14
ATOM     14  C   UNL     1       1.256   2.092 -40.454  1.00  0.00     0.099 C 
ATOM     15  O   UNL     1       2.063   3.058 -40.528  1.00  0.00    -0.544 OA
ATOM     16  O   UNL     1       0.778   1.509 -41.620  1.00  0.00    -0.544 OA
ENDBRANCH   9  14
ENDBRANCH   8   9
ENDBRANCH   1   8
TORSDOF 7
ENDMDL
MODEL 8
REMARK VINA RESULT:    -1.526      2.620      3.541
REMARK INTER + INTRA:          -2.088
REMARK INTER:                  -1.882
REMARK INTRA:                  -0.206
REMARK UNBOUND:                -0.026
REMARK SMILES [NH3+]CCCC[C@@H]([NH3+])C(=O)[O-]
REMARK SMILES IDX 4 1 3 2 2 3 1 4 5 8 6 9 7 10 8 14 9 15 10 16
REMARK H PARENT 1 5 1 6 1 7 7 11 7 12 7 13
REMARK Flexibility Score: inf
ROOT
ATOM      1  C   UNL     1       1.949   3.529 -39.024  1.00  0.00     0.012 C 
ENDROOT
BRANCH   1   2
ATOM      2  C   UNL     1       2.970   4.386 -38.248  1.00  0.00     0.061 C 
BRANCH   2   3
ATOM      3  C   UNL     1       4.299   3.661 -37.968  1.00  0.00     0.258 C 
BRANCH   3   4
ATOM      4  N   UNL     1       4.514   2.525 -38.864  1.00  0.00    -0.358 N 
ATOM      5  H   UNL     1       5.261   1.898 -38.486  1.00  0.00     0.344 HD
ATOM      6  H   UNL     1       4.818   2.882 -39.799  1.00  0.00     0.344 HD
ATOM      7  H   UNL     1       3.624   1.993 -38.991  1.00  0.00     0.344 HD
ENDBRANCH   3   4
ENDBRANCH   2   3
ENDBRANCH   1   2
BRANCH   1   8
ATOM      8  C   UNL     1       1.298   2.452 -38.137  1.00  0.00     0.072 C 
BRANCH   8   9
ATOM      9  C   UNL     1       1.308   1.053 -38.793  1.00  0.00     0.227 C 
BRANCH   9  10
ATOM     10  N   UNL     1       1.658   1.121 -40.219  1.00  0.00    -0.350 N 
ATOM     11  H   UNL     1       2.647   0.811 -40.358  1.00  0.00     0.345 HD
ATOM     12  H   UNL     1       1.047   0.479 -40.771  1.00  0.00     0.345 HD
ATOM     13  H   UNL     1       1.552   2.097 -40.581  1.00  0.00     0.345 HD
ENDBRANCH   9  10
BRANCH   9  14
ATOM     14  C   UNL     1       2.278   0.158 -38.065  1.00  0.00     0.099 C 
ATOM     15  O   UNL     1       2.389  -1.055 -38.384  1.00  0.00    -0.544 OA
ATOM     16  O   UNL     1       3.071   0.675 -37.048  1.00  0.00    -0.544 OA
ENDBRANCH   9  14
ENDBRANCH   8   9
ENDBRANCH   1   8
TORSDOF 7
ENDMDL
MODEL 9
REMARK VINA RESULT:    -1.404      2.396      3.772
REMARK INTER + INTRA:          -1.922
REMARK INTER:                  -1.903
REMARK INTRA:                  -0.019
REMARK UNBOUND:                -0.026
REMARK SMILES [NH3+]CCCC[C@@H]([NH3+])C(=O)[O-]
REMARK SMILES IDX 4 1 3 2 2 3 1 4 5 8 6 9 7 10 8 14 9 15 10 16
REMARK H PARENT 1 5 1 6 1 7 7 11 7 12 7 13
REMARK Flexibility Score: inf
ROOT
ATOM      1  C   UNL     1       0.116   1.857 -38.762  1.00  0.00     0.012 C 
ENDROOT
BRANCH   1   2
ATOM      2  C   UNL     1       0.302   2.611 -40.096  1.00  0.00     0.061 C 
BRANCH   2   3
ATOM      3  C   UNL     1       1.265   1.910 -41.072  1.00  0.00     0.258 C 
BRANCH   3   4
ATOM      4  N   UNL     1       1.272   2.535 -42.394  1.00  0.00    -0.358 N 
ATOM      5  H   UNL     1       0.466   2.190 -42.966  1.00  0.00     0.344 HD
ATOM      6  H   UNL     1       2.162   2.284 -42.884  1.00  0.00     0.344 HD
ATOM      7  H   UNL     1       1.232   3.574 -42.302  1.00  0.00     0.344 HD
ENDBRANCH   3   4
ENDBRANCH   2   3
ENDBRANCH   1   2
BRANCH   1   8
ATOM      8  C   UNL     1       0.971   2.455 -37.631  1.00  0.00     0.072 C 
BRANCH   8   9
ATOM      9  C   UNL     1       2.417   1.912 -37.625  1.00  0.00     0.227 C 
BRANCH   9  10
ATOM     10  N   UNL     1       2.494   0.559 -38.194  1.00  0.00    -0.350 N 
ATOM     11  H   UNL     1       2.073  -0.131 -37.530  1.00  0.00     0.345 HD
ATOM     12  H   UNL     1       1.950   0.510 -39.084  1.00  0.00     0.345 HD
ATOM     13  H   UNL     1       3.488   0.290 -38.381  1.00  0.00     0.345 HD
ENDBRANCH   9  10
BRANCH   9  14
ATOM     14  C   UNL     1       3.313   2.848 -38.394  1.00  0.00     0.099 C 
ATOM     15  O   UNL     1       4.248   2.395 -39.108  1.00  0.00    -0.544 OA
ATOM     16  O   UNL     1       3.099   4.219 -38.337  1.00  0.00    -0.544 OA
ENDBRANCH   9  14
ENDBRANCH   8   9
ENDBRANCH   1   8
TORSDOF 7
ENDMDL
