MODEL 1
REMARK VINA RESULT:    -6.593      0.000      0.000
REMARK INTER + INTRA:          -7.364
REMARK INTER:                  -7.364
REMARK INTRA:                   0.000
REMARK UNBOUND:                 0.000
REMARK SMILES Oc1cc(O)c2c(ccc3ccc(O)c(O)c32)c1
REMARK SMILES IDX 9 1 8 2 7 3 18 4 2 5 3 6 4 7 6 8 17 9 10 10 11 11 12 12
REMARK SMILES IDX 13 13 15 14 16 15 1 17 5 19 14 21
REMARK H PARENT 16 16 1 18 5 20 14 22
REMARK Flexibility Score: inf
ROOT
ATOM      1  C   UNL     1       8.879  -2.598  29.444  1.00  0.00     0.009 A 
ATOM      2  C   UNL     1       8.590  -3.526  28.453  1.00  0.00     0.009 A 
ATOM      3  C   UNL     1       9.564  -3.888  27.516  1.00  0.00    -0.010 A 
ATOM      4  C   UNL     1       9.268  -4.882  26.571  1.00  0.00     0.055 A 
ATOM      5  C   UNL     1      10.257  -5.359  25.715  1.00  0.00     0.119 A 
ATOM      6  C   UNL     1      11.564  -4.886  25.839  1.00  0.00     0.093 A 
ATOM      7  C   UNL     1      11.885  -3.910  26.792  1.00  0.00     0.127 A 
ATOM      8  C   UNL     1      10.856  -3.289  27.554  1.00  0.00     0.035 A 
ATOM      9  C   UNL     1      11.066  -2.171  28.426  1.00  0.00     0.039 A 
ATOM     10  C   UNL     1      10.098  -1.910  29.439  1.00  0.00    -0.014 A 
ATOM     11  C   UNL     1      10.337  -0.933  30.413  1.00  0.00     0.013 A 
ATOM     12  C   UNL     1      11.486  -0.152  30.358  1.00  0.00     0.051 A 
ATOM     13  C   UNL     1      12.366  -0.274  29.281  1.00  0.00     0.158 A 
ATOM     14  C   UNL     1      12.132  -1.238  28.282  1.00  0.00     0.166 A 
ENDROOT
BRANCH  14  15
ATOM     15  O   UNL     1      12.889  -1.191  27.110  1.00  0.00    -0.504 OA
ATOM     16  H   UNL     1      13.855  -1.495  27.071  1.00  0.00     0.293 HD
ENDBRANCH  14  15
BRANCH   5  17
ATOM     17  O   UNL     1       9.937  -6.329  24.768  1.00  0.00    -0.508 OA
ATOM     18  H   UNL     1      10.328  -7.263  24.813  1.00  0.00     0.293 HD
ENDBRANCH   5  17
BRANCH   7  19
ATOM     19  O   UNL     1      13.233  -3.645  27.038  1.00  0.00    -0.507 OA
ATOM     20  H   UNL     1      13.883  -3.431  26.291  1.00  0.00     0.293 HD
ENDBRANCH   7  19
BRANCH  13  21
ATOM     21  O   UNL     1      13.464   0.579  29.184  1.00  0.00    -0.504 OA
ATOM     22  H   UNL     1      14.376   0.244  28.898  1.00  0.00     0.293 HD
ENDBRANCH  13  21
TORSDOF 4
ENDMDL
MODEL 2
REMARK VINA RESULT:    -6.488      0.928      4.961
REMARK INTER + INTRA:          -7.246
REMARK INTER:                  -7.246
REMARK INTRA:                   0.000
REMARK UNBOUND:                 0.000
REMARK SMILES Oc1cc(O)c2c(ccc3ccc(O)c(O)c32)c1
REMARK SMILES IDX 9 1 8 2 7 3 18 4 2 5 3 6 4 7 6 8 17 9 10 10 11 11 12 12
REMARK SMILES IDX 13 13 15 14 16 15 1 17 5 19 14 21
REMARK H PARENT 16 16 1 18 5 20 14 22
REMARK Flexibility Score: inf
ROOT
ATOM      1  C   UNL     1       8.653  -3.048  28.747  1.00  0.00     0.009 A 
ATOM      2  C   UNL     1       9.050  -2.039  29.616  1.00  0.00     0.009 A 
ATOM      3  C   UNL     1      10.290  -1.413  29.453  1.00  0.00    -0.010 A 
ATOM      4  C   UNL     1      10.634  -0.347  30.298  1.00  0.00     0.055 A 
ATOM      5  C   UNL     1      11.799   0.382  30.077  1.00  0.00     0.119 A 
ATOM      6  C   UNL     1      12.598   0.088  28.971  1.00  0.00     0.093 A 
ATOM      7  C   UNL     1      12.259  -0.958  28.101  1.00  0.00     0.127 A 
ATOM      8  C   UNL     1      11.170  -1.820  28.410  1.00  0.00     0.035 A 
ATOM      9  C   UNL     1      10.854  -3.009  27.674  1.00  0.00     0.039 A 
ATOM     10  C   UNL     1       9.540  -3.546  27.787  1.00  0.00    -0.014 A 
ATOM     11  C   UNL     1       9.135  -4.608  26.968  1.00  0.00     0.013 A 
ATOM     12  C   UNL     1      10.035  -5.202  26.090  1.00  0.00     0.051 A 
ATOM     13  C   UNL     1      11.374  -4.803  26.083  1.00  0.00     0.158 A 
ATOM     14  C   UNL     1      11.803  -3.751  26.914  1.00  0.00     0.166 A 
ENDROOT
BRANCH  14  15
ATOM     15  O   UNL     1      13.173  -3.523  27.058  1.00  0.00    -0.504 OA
ATOM     16  H   UNL     1      13.620  -3.437  27.963  1.00  0.00     0.293 HD
ENDBRANCH  14  15
BRANCH   5  17
ATOM     17  O   UNL     1      12.135   1.421  30.942  1.00  0.00    -0.508 OA
ATOM     18  H   UNL     1      11.659   2.315  30.906  1.00  0.00     0.293 HD
ENDBRANCH   5  17
BRANCH   7  19
ATOM     19  O   UNL     1      12.947  -1.059  26.892  1.00  0.00    -0.507 OA
ATOM     20  H   UNL     1      12.605  -1.628  26.126  1.00  0.00     0.293 HD
ENDBRANCH   7  19
BRANCH  13  21
ATOM     21  O   UNL     1      12.290  -5.469  25.270  1.00  0.00    -0.504 OA
ATOM     22  H   UNL     1      13.246  -5.629  25.563  1.00  0.00     0.293 HD
ENDBRANCH  13  21
TORSDOF 4
ENDMDL
MODEL 3
REMARK VINA RESULT:    -6.385      2.769      4.021
REMARK INTER + INTRA:          -7.131
REMARK INTER:                  -7.131
REMARK INTRA:                   0.000
REMARK UNBOUND:                 0.000
REMARK SMILES Oc1cc(O)c2c(ccc3ccc(O)c(O)c32)c1
REMARK SMILES IDX 9 1 8 2 7 3 18 4 2 5 3 6 4 7 6 8 17 9 10 10 11 11 12 12
REMARK SMILES IDX 13 13 15 14 16 15 1 17 5 19 14 21
REMARK H PARENT 16 16 1 18 5 20 14 22
REMARK Flexibility Score: inf
ROOT
ATOM      1  C   UNL     1      10.486  -4.382  27.099  1.00  0.00     0.009 A 
ATOM      2  C   UNL     1      10.760  -5.287  28.116  1.00  0.00     0.009 A 
ATOM      3  C   UNL     1      11.381  -4.859  29.294  1.00  0.00    -0.010 A 
ATOM      4  C   UNL     1      11.579  -5.779  30.335  1.00  0.00     0.055 A 
ATOM      5  C   UNL     1      12.069  -5.356  31.568  1.00  0.00     0.119 A 
ATOM      6  C   UNL     1      12.309  -3.999  31.786  1.00  0.00     0.093 A 
ATOM      7  C   UNL     1      12.095  -3.061  30.767  1.00  0.00     0.127 A 
ATOM      8  C   UNL     1      11.761  -3.496  29.454  1.00  0.00     0.035 A 
ATOM      9  C   UNL     1      11.688  -2.628  28.315  1.00  0.00     0.039 A 
ATOM     10  C   UNL     1      10.948  -3.064  27.178  1.00  0.00    -0.014 A 
ATOM     11  C   UNL     1      10.713  -2.191  26.108  1.00  0.00     0.013 A 
ATOM     12  C   UNL     1      11.265  -0.915  26.108  1.00  0.00     0.051 A 
ATOM     13  C   UNL     1      12.132  -0.525  27.132  1.00  0.00     0.158 A 
ATOM     14  C   UNL     1      12.395  -1.397  28.205  1.00  0.00     0.166 A 
ENDROOT
BRANCH  14  15
ATOM     15  O   UNL     1      13.428  -1.083  29.090  1.00  0.00    -0.504 OA
ATOM     16  H   UNL     1      14.315  -0.704  28.782  1.00  0.00     0.293 HD
ENDBRANCH  14  15
BRANCH   5  17
ATOM     17  O   UNL     1      12.282  -6.289  32.580  1.00  0.00    -0.508 OA
ATOM     18  H   UNL     1      12.750  -6.037  33.443  1.00  0.00     0.293 HD
ENDBRANCH   5  17
BRANCH   7  19
ATOM     19  O   UNL     1      12.118  -1.706  31.101  1.00  0.00    -0.507 OA
ATOM     20  H   UNL     1      12.412  -0.996  30.440  1.00  0.00     0.293 HD
ENDBRANCH   7  19
BRANCH  13  21
ATOM     21  O   UNL     1      12.756   0.720  27.074  1.00  0.00    -0.504 OA
ATOM     22  H   UNL     1      12.522   1.464  27.720  1.00  0.00     0.293 HD
ENDBRANCH  13  21
TORSDOF 4
ENDMDL
MODEL 4
REMARK VINA RESULT:    -6.370      2.810      4.064
REMARK INTER + INTRA:          -7.115
REMARK INTER:                  -7.115
REMARK INTRA:                   0.000
REMARK UNBOUND:                 0.000
REMARK SMILES Oc1cc(O)c2c(ccc3ccc(O)c(O)c32)c1
REMARK SMILES IDX 9 1 8 2 7 3 18 4 2 5 3 6 4 7 6 8 17 9 10 10 11 11 12 12
REMARK SMILES IDX 13 13 15 14 16 15 1 17 5 19 14 21
REMARK H PARENT 16 16 1 18 5 20 14 22
REMARK Flexibility Score: inf
ROOT
ATOM      1  C   UNL     1      10.736  -5.267  28.047  1.00  0.00     0.009 A 
ATOM      2  C   UNL     1      10.502  -4.307  27.072  1.00  0.00     0.009 A 
ATOM      3  C   UNL     1      11.002  -3.009  27.222  1.00  0.00    -0.010 A 
ATOM      4  C   UNL     1      10.815  -2.080  26.187  1.00  0.00     0.055 A 
ATOM      5  C   UNL     1      11.415  -0.825  26.248  1.00  0.00     0.119 A 
ATOM      6  C   UNL     1      12.255  -0.512  27.317  1.00  0.00     0.093 A 
ATOM      7  C   UNL     1      12.474  -1.435  28.350  1.00  0.00     0.127 A 
ATOM      8  C   UNL     1      11.735  -2.651  28.389  1.00  0.00     0.035 A 
ATOM      9  C   UNL     1      11.767  -3.574  29.486  1.00  0.00     0.039 A 
ATOM     10  C   UNL     1      11.352  -4.917  29.254  1.00  0.00    -0.014 A 
ATOM     11  C   UNL     1      11.516  -5.891  30.246  1.00  0.00     0.013 A 
ATOM     12  C   UNL     1      12.014  -5.544  31.497  1.00  0.00     0.051 A 
ATOM     13  C   UNL     1      12.269  -4.205  31.803  1.00  0.00     0.158 A 
ATOM     14  C   UNL     1      12.090  -3.210  30.825  1.00  0.00     0.166 A 
ENDROOT
BRANCH  14  15
ATOM     15  O   UNL     1      12.131  -1.869  31.212  1.00  0.00    -0.504 OA
ATOM     16  H   UNL     1      12.010  -1.574  32.173  1.00  0.00     0.293 HD
ENDBRANCH  14  15
BRANCH   5  17
ATOM     17  O   UNL     1      11.197   0.092  25.222  1.00  0.00    -0.508 OA
ATOM     18  H   UNL     1      11.207   1.091  25.393  1.00  0.00     0.293 HD
ENDBRANCH   5  17
BRANCH   7  19
ATOM     19  O   UNL     1      13.496  -1.175  29.263  1.00  0.00    -0.507 OA
ATOM     20  H   UNL     1      13.914  -1.908  29.824  1.00  0.00     0.293 HD
ENDBRANCH   7  19
BRANCH  13  21
ATOM     21  O   UNL     1      12.675  -3.855  33.090  1.00  0.00    -0.504 OA
ATOM     22  H   UNL     1      12.021  -3.505  33.779  1.00  0.00     0.293 HD
ENDBRANCH  13  21
TORSDOF 4
ENDMDL
MODEL 5
REMARK VINA RESULT:    -6.349      3.030      3.755
REMARK INTER + INTRA:          -7.091
REMARK INTER:                  -7.091
REMARK INTRA:                   0.000
REMARK UNBOUND:                 0.000
REMARK SMILES Oc1cc(O)c2c(ccc3ccc(O)c(O)c32)c1
REMARK SMILES IDX 9 1 8 2 7 3 18 4 2 5 3 6 4 7 6 8 17 9 10 10 11 11 12 12
REMARK SMILES IDX 13 13 15 14 16 15 1 17 5 19 14 21
REMARK H PARENT 16 16 1 18 5 20 14 22
REMARK Flexibility Score: inf
ROOT
ATOM      1  C   UNL     1      11.046  -5.197  32.002  1.00  0.00     0.009 A 
ATOM      2  C   UNL     1      11.084  -5.482  30.644  1.00  0.00     0.009 A 
ATOM      3  C   UNL     1      11.405  -4.482  29.720  1.00  0.00    -0.010 A 
ATOM      4  C   UNL     1      11.508  -4.815  28.361  1.00  0.00     0.055 A 
ATOM      5  C   UNL     1      11.956  -3.875  27.436  1.00  0.00     0.119 A 
ATOM      6  C   UNL     1      12.360  -2.614  27.874  1.00  0.00     0.093 A 
ATOM      7  C   UNL     1      12.286  -2.269  29.231  1.00  0.00     0.127 A 
ATOM      8  C   UNL     1      11.671  -3.154  30.160  1.00  0.00     0.035 A 
ATOM      9  C   UNL     1      11.400  -2.820  31.527  1.00  0.00     0.039 A 
ATOM     10  C   UNL     1      11.191  -3.881  32.455  1.00  0.00    -0.014 A 
ATOM     11  C   UNL     1      11.082  -3.613  33.826  1.00  0.00     0.013 A 
ATOM     12  C   UNL     1      11.101  -2.302  34.290  1.00  0.00     0.051 A 
ATOM     13  C   UNL     1      11.136  -1.239  33.385  1.00  0.00     0.158 A 
ATOM     14  C   UNL     1      11.224  -1.489  32.003  1.00  0.00     0.166 A 
ENDROOT
BRANCH  14  15
ATOM     15  O   UNL     1      11.031  -0.431  31.113  1.00  0.00    -0.504 OA
ATOM     16  H   UNL     1      10.394   0.333  31.302  1.00  0.00     0.293 HD
ENDBRANCH  14  15
BRANCH   5  17
ATOM     17  O   UNL     1      12.029  -4.218  26.088  1.00  0.00    -0.508 OA
ATOM     18  H   UNL     1      11.236  -4.101  25.467  1.00  0.00     0.293 HD
ENDBRANCH   5  17
BRANCH   7  19
ATOM     19  O   UNL     1      12.917  -1.098  29.650  1.00  0.00    -0.507 OA
ATOM     20  H   UNL     1      13.500  -1.069  30.478  1.00  0.00     0.293 HD
ENDBRANCH   7  19
BRANCH  13  21
ATOM     21  O   UNL     1      11.057   0.072  33.854  1.00  0.00    -0.504 OA
ATOM     22  H   UNL     1      10.168   0.511  34.059  1.00  0.00     0.293 HD
ENDBRANCH  13  21
TORSDOF 4
ENDMDL
MODEL 6
REMARK VINA RESULT:    -6.337      5.006      6.476
REMARK INTER + INTRA:          -7.078
REMARK INTER:                  -7.078
REMARK INTRA:                   0.000
REMARK UNBOUND:                 0.000
REMARK SMILES Oc1cc(O)c2c(ccc3ccc(O)c(O)c32)c1
REMARK SMILES IDX 9 1 8 2 7 3 18 4 2 5 3 6 4 7 6 8 17 9 10 10 11 11 12 12
REMARK SMILES IDX 13 13 15 14 16 15 1 17 5 19 14 21
REMARK H PARENT 16 16 1 18 5 20 14 22
REMARK Flexibility Score: inf
ROOT
ATOM      1  C   UNL     1       9.626   3.240  29.828  1.00  0.00     0.009 A 
ATOM      2  C   UNL     1      10.953   2.849  29.709  1.00  0.00     0.009 A 
ATOM      3  C   UNL     1      11.414   2.263  28.525  1.00  0.00    -0.010 A 
ATOM      4  C   UNL     1      12.776   1.946  28.405  1.00  0.00     0.055 A 
ATOM      5  C   UNL     1      13.290   1.488  27.195  1.00  0.00     0.119 A 
ATOM      6  C   UNL     1      12.456   1.402  26.079  1.00  0.00     0.093 A 
ATOM      7  C   UNL     1      11.098   1.736  26.172  1.00  0.00     0.127 A 
ATOM      8  C   UNL     1      10.522   2.039  27.438  1.00  0.00     0.035 A 
ATOM      9  C   UNL     1       9.118   2.227  27.656  1.00  0.00     0.039 A 
ATOM     10  C   UNL     1       8.702   2.930  28.824  1.00  0.00    -0.014 A 
ATOM     11  C   UNL     1       7.357   3.278  29.000  1.00  0.00     0.013 A 
ATOM     12  C   UNL     1       6.399   2.876  28.076  1.00  0.00     0.051 A 
ATOM     13  C   UNL     1       6.757   2.044  27.012  1.00  0.00     0.158 A 
ATOM     14  C   UNL     1       8.101   1.667  26.831  1.00  0.00     0.166 A 
ENDROOT
BRANCH  14  15
ATOM     15  O   UNL     1       8.400   0.663  25.908  1.00  0.00    -0.504 OA
ATOM     16  H   UNL     1       8.081   0.691  24.947  1.00  0.00     0.293 HD
ENDBRANCH  14  15
BRANCH   5  17
ATOM     17  O   UNL     1      14.639   1.156  27.103  1.00  0.00    -0.508 OA
ATOM     18  H   UNL     1      15.012   0.326  27.550  1.00  0.00     0.293 HD
ENDBRANCH   5  17
BRANCH   7  19
ATOM     19  O   UNL     1      10.366   1.863  24.991  1.00  0.00    -0.507 OA
ATOM     20  H   UNL     1      10.817   1.944  24.087  1.00  0.00     0.293 HD
ENDBRANCH   7  19
BRANCH  13  21
ATOM     21  O   UNL     1       5.775   1.567  26.146  1.00  0.00    -0.504 OA
ATOM     22  H   UNL     1       5.358   0.651  26.265  1.00  0.00     0.293 HD
ENDBRANCH  13  21
TORSDOF 4
ENDMDL
MODEL 7
REMARK VINA RESULT:    -6.328      6.115      6.741
REMARK INTER + INTRA:          -7.068
REMARK INTER:                  -7.068
REMARK INTRA:                   0.000
REMARK UNBOUND:                 0.000
REMARK SMILES Oc1cc(O)c2c(ccc3ccc(O)c(O)c32)c1
REMARK SMILES IDX 9 1 8 2 7 3 18 4 2 5 3 6 4 7 6 8 17 9 10 10 11 11 12 12
REMARK SMILES IDX 13 13 15 14 16 15 1 17 5 19 14 21
REMARK H PARENT 16 16 1 18 5 20 14 22
REMARK Flexibility Score: inf
ROOT
ATOM      1  C   UNL     1      11.118   2.624  28.074  1.00  0.00     0.009 A 
ATOM      2  C   UNL     1      10.138   2.360  27.126  1.00  0.00     0.009 A 
ATOM      3  C   UNL     1       8.799   2.229  27.510  1.00  0.00    -0.010 A 
ATOM      4  C   UNL     1       7.820   2.037  26.524  1.00  0.00     0.055 A 
ATOM      5  C   UNL     1       6.469   2.037  26.860  1.00  0.00     0.119 A 
ATOM      6  C   UNL     1       6.086   2.291  28.177  1.00  0.00     0.093 A 
ATOM      7  C   UNL     1       7.047   2.509  29.174  1.00  0.00     0.127 A 
ATOM      8  C   UNL     1       8.430   2.340  28.881  1.00  0.00     0.035 A 
ATOM      9  C   UNL     1       9.469   2.376  29.868  1.00  0.00     0.039 A 
ATOM     10  C   UNL     1      10.804   2.625  29.437  1.00  0.00    -0.014 A 
ATOM     11  C   UNL     1      11.825   2.829  30.374  1.00  0.00     0.013 A 
ATOM     12  C   UNL     1      11.564   2.715  31.735  1.00  0.00     0.051 A 
ATOM     13  C   UNL     1      10.302   2.307  32.175  1.00  0.00     0.158 A 
ATOM     14  C   UNL     1       9.270   2.078  31.247  1.00  0.00     0.166 A 
ENDROOT
BRANCH  14  15
ATOM     15  O   UNL     1       8.097   1.458  31.683  1.00  0.00    -0.504 OA
ATOM     16  H   UNL     1       7.965   1.149  32.638  1.00  0.00     0.293 HD
ENDBRANCH  14  15
BRANCH   5  17
ATOM     17  O   UNL     1       5.514   1.820  25.870  1.00  0.00    -0.508 OA
ATOM     18  H   UNL     1       5.472   2.399  25.038  1.00  0.00     0.293 HD
ENDBRANCH   5  17
BRANCH   7  19
ATOM     19  O   UNL     1       6.619   2.989  30.411  1.00  0.00    -0.507 OA
ATOM     20  H   UNL     1       7.230   3.012  31.219  1.00  0.00     0.293 HD
ENDBRANCH   7  19
BRANCH  13  21
ATOM     21  O   UNL     1      10.077   2.102  33.535  1.00  0.00    -0.504 OA
ATOM     22  H   UNL     1      10.226   1.199  33.970  1.00  0.00     0.293 HD
ENDBRANCH  13  21
TORSDOF 4
ENDMDL
MODEL 8
REMARK VINA RESULT:    -6.326      3.332      5.891
REMARK INTER + INTRA:          -7.066
REMARK INTER:                  -7.066
REMARK INTRA:                   0.000
REMARK UNBOUND:                 0.000
REMARK SMILES Oc1cc(O)c2c(ccc3ccc(O)c(O)c32)c1
REMARK SMILES IDX 9 1 8 2 7 3 18 4 2 5 3 6 4 7 6 8 17 9 10 10 11 11 12 12
REMARK SMILES IDX 13 13 15 14 16 15 1 17 5 19 14 21
REMARK H PARENT 16 16 1 18 5 20 14 22
REMARK Flexibility Score: inf
ROOT
ATOM      1  C   UNL     1      10.837  -5.494  31.386  1.00  0.00     0.009 A 
ATOM      2  C   UNL     1      10.850  -4.974  32.674  1.00  0.00     0.009 A 
ATOM      3  C   UNL     1      11.054  -3.606  32.881  1.00  0.00    -0.010 A 
ATOM      4  C   UNL     1      10.988  -3.095  34.186  1.00  0.00     0.055 A 
ATOM      5  C   UNL     1      11.053  -1.723  34.412  1.00  0.00     0.119 A 
ATOM      6  C   UNL     1      11.124  -0.848  33.328  1.00  0.00     0.093 A 
ATOM      7  C   UNL     1      11.168  -1.337  32.014  1.00  0.00     0.127 A 
ATOM      8  C   UNL     1      11.277  -2.736  31.776  1.00  0.00     0.035 A 
ATOM      9  C   UNL     1      11.495  -3.315  30.483  1.00  0.00     0.039 A 
ATOM     10  C   UNL     1      11.165  -4.687  30.291  1.00  0.00    -0.014 A 
ATOM     11  C   UNL     1      11.208  -5.255  29.012  1.00  0.00     0.013 A 
ATOM     12  C   UNL     1      11.647  -4.507  27.925  1.00  0.00     0.051 A 
ATOM     13  C   UNL     1      12.135  -3.212  28.117  1.00  0.00     0.158 A 
ATOM     14  C   UNL     1      12.118  -2.633  29.399  1.00  0.00     0.166 A 
ENDROOT
BRANCH  14  15
ATOM     15  O   UNL     1      12.811  -1.439  29.608  1.00  0.00    -0.504 OA
ATOM     16  H   UNL     1      13.794  -1.412  29.851  1.00  0.00     0.293 HD
ENDBRANCH  14  15
BRANCH   5  17
ATOM     17  O   UNL     1      11.011  -1.237  35.717  1.00  0.00    -0.508 OA
ATOM     18  H   UNL     1      11.783  -0.713  36.113  1.00  0.00     0.293 HD
ENDBRANCH   5  17
BRANCH   7  19
ATOM     19  O   UNL     1      10.998  -0.431  30.967  1.00  0.00    -0.507 OA
ATOM     20  H   UNL     1      10.738   0.535  31.129  1.00  0.00     0.293 HD
ENDBRANCH   7  19
BRANCH  13  21
ATOM     21  O   UNL     1      12.663  -2.505  27.038  1.00  0.00    -0.504 OA
ATOM     22  H   UNL     1      13.413  -1.834  27.155  1.00  0.00     0.293 HD
ENDBRANCH  13  21
TORSDOF 4
ENDMDL
MODEL 9
REMARK VINA RESULT:    -6.277      2.606      3.486
REMARK INTER + INTRA:          -7.010
REMARK INTER:                  -7.010
REMARK INTRA:                   0.000
REMARK UNBOUND:                 0.000
REMARK SMILES Oc1cc(O)c2c(ccc3ccc(O)c(O)c32)c1
REMARK SMILES IDX 9 1 8 2 7 3 18 4 2 5 3 6 4 7 6 8 17 9 10 10 11 11 12 12
REMARK SMILES IDX 13 13 15 14 16 15 1 17 5 19 14 21
REMARK H PARENT 16 16 1 18 5 20 14 22
REMARK Flexibility Score: inf
ROOT
ATOM      1  C   UNL     1      12.159  -0.582  28.820  1.00  0.00     0.009 A 
ATOM      2  C   UNL     1      12.539  -1.600  27.955  1.00  0.00     0.009 A 
ATOM      3  C   UNL     1      11.792  -2.781  27.880  1.00  0.00    -0.010 A 
ATOM      4  C   UNL     1      12.155  -3.761  26.945  1.00  0.00     0.055 A 
ATOM      5  C   UNL     1      11.355  -4.885  26.753  1.00  0.00     0.119 A 
ATOM      6  C   UNL     1      10.155  -5.005  27.453  1.00  0.00     0.093 A 
ATOM      7  C   UNL     1       9.762  -4.025  28.376  1.00  0.00     0.127 A 
ATOM      8  C   UNL     1      10.648  -2.962  28.709  1.00  0.00     0.035 A 
ATOM      9  C   UNL     1      10.405  -2.013  29.756  1.00  0.00     0.039 A 
ATOM     10  C   UNL     1      11.110  -0.776  29.725  1.00  0.00    -0.014 A 
ATOM     11  C   UNL     1      10.791   0.245  30.631  1.00  0.00     0.013 A 
ATOM     12  C   UNL     1       9.837   0.034  31.620  1.00  0.00     0.051 A 
ATOM     13  C   UNL     1       9.254  -1.226  31.774  1.00  0.00     0.158 A 
ATOM     14  C   UNL     1       9.577  -2.268  30.886  1.00  0.00     0.166 A 
ENDROOT
BRANCH  14  15
ATOM     15  O   UNL     1       9.163  -3.567  31.192  1.00  0.00    -0.504 OA
ATOM     16  H   UNL     1       9.790  -4.362  31.162  1.00  0.00     0.293 HD
ENDBRANCH  14  15
BRANCH   5  17
ATOM     17  O   UNL     1      11.746  -5.859  25.837  1.00  0.00    -0.508 OA
ATOM     18  H   UNL     1      12.379  -6.607  26.096  1.00  0.00     0.293 HD
ENDBRANCH   5  17
BRANCH   7  19
ATOM     19  O   UNL     1       8.458  -4.066  28.868  1.00  0.00    -0.507 OA
ATOM     20  H   UNL     1       8.238  -4.468  29.772  1.00  0.00     0.293 HD
ENDBRANCH   7  19
BRANCH  13  21
ATOM     21  O   UNL     1       8.370  -1.455  32.828  1.00  0.00    -0.504 OA
ATOM     22  H   UNL     1       7.445  -1.043  32.847  1.00  0.00     0.293 HD
ENDBRANCH  13  21
TORSDOF 4
ENDMDL
