MODEL 1
REMARK VINA RESULT:    -6.175      0.000      0.000
REMARK INTER + INTRA:          -8.864
REMARK INTER:                  -7.619
REMARK INTRA:                  -1.245
REMARK UNBOUND:                -1.245
REMARK SMILES CC(C)=CCC[C@H](C)c1ccc(C)cc1
REMARK SMILES IDX 6 1 7 2 8 3 9 4 13 5 12 6 11 7 14 8 10 9 15 10 5 11 4 12
REMARK SMILES IDX 2 13 1 14 3 15
REMARK H PARENT
REMARK Flexibility Score: inf
ROOT
ATOM      1  C   UNL     1      -7.596  -4.312  16.212  1.00  0.00     0.012 C 
ENDROOT
BRANCH   1   2
ATOM      2  C   UNL     1      -7.395  -4.448  17.740  1.00  0.00     0.016 C 
ATOM      3  C   UNL     1      -8.061  -3.310  18.528  1.00  0.00     0.013 C 
BRANCH   2   4
ATOM      4  C   UNL     1      -5.913  -4.521  18.067  1.00  0.00    -0.045 A 
ATOM      5  C   UNL     1      -1.687  -4.740  18.930  1.00  0.00     0.044 C 
ATOM      6  C   UNL     1      -3.161  -4.675  18.658  1.00  0.00    -0.051 A 
ATOM      7  C   UNL     1      -3.819  -5.764  18.070  1.00  0.00     0.004 A 
ATOM      8  C   UNL     1      -3.877  -3.499  18.924  1.00  0.00     0.004 A 
ATOM      9  C   UNL     1      -5.185  -5.690  17.781  1.00  0.00     0.004 A 
ATOM     10  C   UNL     1      -5.242  -3.423  18.637  1.00  0.00     0.004 A 
ENDBRANCH   2   4
ENDBRANCH   1   2
BRANCH   1  11
ATOM     11  C   UNL     1      -6.898  -3.081  15.599  1.00  0.00     0.028 C 
BRANCH  11  12
ATOM     12  C   UNL     1      -6.311  -3.370  14.237  1.00  0.00    -0.028 C 
ATOM     13  C   UNL     1      -4.994  -3.557  13.997  1.00  0.00    -0.080 C 
ATOM     14  C   UNL     1      -4.554  -3.821  12.580  1.00  0.00     0.039 C 
ATOM     15  C   UNL     1      -3.965  -3.544  15.104  1.00  0.00     0.039 C 
ENDBRANCH  11  12
ENDBRANCH   1  11
TORSDOF 4
ENDMDL
MODEL 2
REMARK VINA RESULT:    -5.817      1.011      4.615
REMARK INTER + INTRA:          -8.422
REMARK INTER:                  -7.391
REMARK INTRA:                  -1.030
REMARK UNBOUND:                -1.245
REMARK SMILES CC(C)=CCC[C@H](C)c1ccc(C)cc1
REMARK SMILES IDX 6 1 7 2 8 3 9 4 13 5 12 6 11 7 14 8 10 9 15 10 5 11 4 12
REMARK SMILES IDX 2 13 1 14 3 15
REMARK H PARENT
REMARK Flexibility Score: inf
ROOT
ATOM      1  C   UNL     1      -6.221  -5.118  18.727  1.00  0.00     0.012 C 
ENDROOT
BRANCH   1   2
ATOM      2  C   UNL     1      -6.599  -3.770  18.065  1.00  0.00     0.016 C 
ATOM      3  C   UNL     1      -8.114  -3.515  18.069  1.00  0.00     0.013 C 
BRANCH   2   4
ATOM      4  C   UNL     1      -6.056  -3.714  16.648  1.00  0.00    -0.045 A 
ATOM      5  C   UNL     1      -4.491  -3.619  12.623  1.00  0.00     0.044 C 
ATOM      6  C   UNL     1      -5.031  -3.622  14.023  1.00  0.00    -0.051 A 
ATOM      7  C   UNL     1      -4.175  -3.858  15.109  1.00  0.00     0.004 A 
ATOM      8  C   UNL     1      -6.404  -3.460  14.252  1.00  0.00     0.004 A 
ATOM      9  C   UNL     1      -4.683  -3.899  16.411  1.00  0.00     0.004 A 
ATOM     10  C   UNL     1      -6.914  -3.500  15.552  1.00  0.00     0.004 A 
ENDBRANCH   2   4
ENDBRANCH   1   2
BRANCH   1  11
ATOM     11  C   UNL     1      -5.324  -4.970  19.973  1.00  0.00     0.028 C 
BRANCH  11  12
ATOM     12  C   UNL     1      -3.871  -5.257  19.674  1.00  0.00    -0.028 C 
ATOM     13  C   UNL     1      -2.932  -4.308  19.463  1.00  0.00    -0.080 C 
ATOM     14  C   UNL     1      -1.524  -4.749  19.156  1.00  0.00     0.039 C 
ATOM     15  C   UNL     1      -3.245  -2.832  19.559  1.00  0.00     0.039 C 
ENDBRANCH  11  12
ENDBRANCH   1  11
TORSDOF 4
ENDMDL
MODEL 3
REMARK VINA RESULT:    -5.605      1.262      3.570
REMARK INTER + INTRA:          -8.160
REMARK INTER:                  -6.967
REMARK INTRA:                  -1.193
REMARK UNBOUND:                -1.245
REMARK SMILES CC(C)=CCC[C@H](C)c1ccc(C)cc1
REMARK SMILES IDX 6 1 7 2 8 3 9 4 13 5 12 6 11 7 14 8 10 9 15 10 5 11 4 12
REMARK SMILES IDX 2 13 1 14 3 15
REMARK H PARENT
REMARK Flexibility Score: inf
ROOT
ATOM      1  C   UNL     1      -6.699  -4.154  15.106  1.00  0.00     0.012 C 
ENDROOT
BRANCH   1   2
ATOM      2  C   UNL     1      -5.325  -3.566  15.510  1.00  0.00     0.016 C 
ATOM      3  C   UNL     1      -4.281  -3.682  14.389  1.00  0.00     0.013 C 
BRANCH   2   4
ATOM      4  C   UNL     1      -4.820  -4.238  16.774  1.00  0.00    -0.045 A 
ATOM      5  C   UNL     1      -3.348  -6.193  20.334  1.00  0.00     0.044 C 
ATOM      6  C   UNL     1      -3.885  -5.507  19.112  1.00  0.00    -0.051 A 
ATOM      7  C   UNL     1      -4.589  -6.238  18.144  1.00  0.00     0.004 A 
ATOM      8  C   UNL     1      -3.626  -4.147  18.894  1.00  0.00     0.004 A 
ATOM      9  C   UNL     1      -5.057  -5.608  16.987  1.00  0.00     0.004 A 
ATOM     10  C   UNL     1      -4.094  -3.515  17.739  1.00  0.00     0.004 A 
ENDBRANCH   2   4
ENDBRANCH   1   2
BRANCH   1  11
ATOM     11  C   UNL     1      -7.902  -3.349  15.639  1.00  0.00     0.028 C 
BRANCH  11  12
ATOM     12  C   UNL     1      -7.775  -3.031  17.111  1.00  0.00    -0.028 C 
ATOM     13  C   UNL     1      -8.171  -3.853  18.108  1.00  0.00    -0.080 C 
ATOM     14  C   UNL     1      -7.997  -3.391  19.531  1.00  0.00     0.039 C 
ATOM     15  C   UNL     1      -8.746  -5.225  17.837  1.00  0.00     0.039 C 
ENDBRANCH  11  12
ENDBRANCH   1  11
TORSDOF 4
ENDMDL
MODEL 4
REMARK VINA RESULT:    -5.566      1.155      4.672
REMARK INTER + INTRA:          -8.113
REMARK INTER:                  -7.063
REMARK INTRA:                  -1.049
REMARK UNBOUND:                -1.245
REMARK SMILES CC(C)=CCC[C@H](C)c1ccc(C)cc1
REMARK SMILES IDX 6 1 7 2 8 3 9 4 13 5 12 6 11 7 14 8 10 9 15 10 5 11 4 12
REMARK SMILES IDX 2 13 1 14 3 15
REMARK H PARENT
REMARK Flexibility Score: inf
ROOT
ATOM      1  C   UNL     1      -5.889  -2.520  19.234  1.00  0.00     0.012 C 
ENDROOT
BRANCH   1   2
ATOM      2  C   UNL     1      -6.730  -3.467  18.345  1.00  0.00     0.016 C 
ATOM      3  C   UNL     1      -6.858  -4.877  18.940  1.00  0.00     0.013 C 
BRANCH   2   4
ATOM      4  C   UNL     1      -6.138  -3.533  16.947  1.00  0.00    -0.045 A 
ATOM      5  C   UNL     1      -4.448  -3.654  12.974  1.00  0.00     0.044 C 
ATOM      6  C   UNL     1      -5.051  -3.637  14.348  1.00  0.00    -0.051 A 
ATOM      7  C   UNL     1      -6.212  -2.891  14.600  1.00  0.00     0.004 A 
ATOM      8  C   UNL     1      -4.422  -4.308  15.405  1.00  0.00     0.004 A 
ATOM      9  C   UNL     1      -6.753  -2.843  15.888  1.00  0.00     0.004 A 
ATOM     10  C   UNL     1      -4.961  -4.262  16.693  1.00  0.00     0.004 A 
ENDBRANCH   2   4
ENDBRANCH   1   2
BRANCH   1  11
ATOM     11  C   UNL     1      -4.952  -3.254  20.215  1.00  0.00     0.028 C 
BRANCH  11  12
ATOM     12  C   UNL     1      -3.543  -3.374  19.684  1.00  0.00    -0.028 C 
ATOM     13  C   UNL     1      -2.874  -4.540  19.545  1.00  0.00    -0.080 C 
ATOM     14  C   UNL     1      -1.463  -4.500  19.018  1.00  0.00     0.039 C 
ATOM     15  C   UNL     1      -3.509  -5.874  19.869  1.00  0.00     0.039 C 
ENDBRANCH  11  12
ENDBRANCH   1  11
TORSDOF 4
ENDMDL
MODEL 5
REMARK VINA RESULT:    -5.532      1.027      1.357
REMARK INTER + INTRA:          -8.070
REMARK INTER:                  -6.761
REMARK INTRA:                  -1.310
REMARK UNBOUND:                -1.245
REMARK SMILES CC(C)=CCC[C@H](C)c1ccc(C)cc1
REMARK SMILES IDX 6 1 7 2 8 3 9 4 13 5 12 6 11 7 14 8 10 9 15 10 5 11 4 12
REMARK SMILES IDX 2 13 1 14 3 15
REMARK H PARENT
REMARK Flexibility Score: inf
ROOT
ATOM      1  C   UNL     1      -7.964  -3.600  17.766  1.00  0.00     0.012 C 
ENDROOT
BRANCH   1   2
ATOM      2  C   UNL     1      -7.434  -3.971  19.172  1.00  0.00     0.016 C 
ATOM      3  C   UNL     1      -7.893  -2.983  20.256  1.00  0.00     0.013 C 
BRANCH   2   4
ATOM      4  C   UNL     1      -5.918  -4.066  19.150  1.00  0.00    -0.045 A 
ATOM      5  C   UNL     1      -1.611  -4.377  19.033  1.00  0.00     0.044 C 
ATOM      6  C   UNL     1      -3.106  -4.265  19.104  1.00  0.00    -0.051 A 
ATOM      7  C   UNL     1      -3.894  -5.416  19.243  1.00  0.00     0.004 A 
ATOM      8  C   UNL     1      -3.729  -3.018  18.961  1.00  0.00     0.004 A 
ATOM      9  C   UNL     1      -5.288  -5.318  19.271  1.00  0.00     0.004 A 
ATOM     10  C   UNL     1      -5.122  -2.916  18.989  1.00  0.00     0.004 A 
ENDBRANCH   2   4
ENDBRANCH   1   2
BRANCH   1  11
ATOM     11  C   UNL     1      -7.584  -4.616  16.669  1.00  0.00     0.028 C 
BRANCH  11  12
ATOM     12  C   UNL     1      -7.149  -3.943  15.388  1.00  0.00    -0.028 C 
ATOM     13  C   UNL     1      -5.872  -3.883  14.951  1.00  0.00    -0.080 C 
ATOM     14  C   UNL     1      -5.589  -3.160  13.659  1.00  0.00     0.039 C 
ATOM     15  C   UNL     1      -4.735  -4.545  15.697  1.00  0.00     0.039 C 
ENDBRANCH  11  12
ENDBRANCH   1  11
TORSDOF 4
ENDMDL
MODEL 6
REMARK VINA RESULT:    -5.503      1.938      4.921
REMARK INTER + INTRA:          -8.035
REMARK INTER:                  -6.505
REMARK INTRA:                  -1.530
REMARK UNBOUND:                -1.245
REMARK SMILES CC(C)=CCC[C@H](C)c1ccc(C)cc1
REMARK SMILES IDX 6 1 7 2 8 3 9 4 13 5 12 6 11 7 14 8 10 9 15 10 5 11 4 12
REMARK SMILES IDX 2 13 1 14 3 15
REMARK H PARENT
REMARK Flexibility Score: inf
ROOT
ATOM      1  C   UNL     1      -5.191  -6.555  21.032  1.00  0.00     0.012 C 
ENDROOT
BRANCH   1   2
ATOM      2  C   UNL     1      -3.806  -6.500  20.343  1.00  0.00     0.016 C 
ATOM      3  C   UNL     1      -2.719  -5.901  21.249  1.00  0.00     0.013 C 
BRANCH   2   4
ATOM      4  C   UNL     1      -3.900  -5.720  19.043  1.00  0.00    -0.045 A 
ATOM      5  C   UNL     1      -4.104  -3.518  15.333  1.00  0.00     0.044 C 
ATOM      6  C   UNL     1      -4.054  -4.265  16.633  1.00  0.00    -0.051 A 
ATOM      7  C   UNL     1      -3.135  -3.895  17.626  1.00  0.00     0.004 A 
ATOM      8  C   UNL     1      -4.876  -5.382  16.839  1.00  0.00     0.004 A 
ATOM      9  C   UNL     1      -3.062  -4.613  18.823  1.00  0.00     0.004 A 
ATOM     10  C   UNL     1      -4.805  -6.101  18.034  1.00  0.00     0.004 A 
ENDBRANCH   2   4
ENDBRANCH   1   2
BRANCH   1  11
ATOM     11  C   UNL     1      -5.743  -5.171  21.433  1.00  0.00     0.028 C 
BRANCH  11  12
ATOM     12  C   UNL     1      -6.892  -4.734  20.554  1.00  0.00    -0.028 C 
ATOM     13  C   UNL     1      -6.943  -3.558  19.891  1.00  0.00    -0.080 C 
ATOM     14  C   UNL     1      -8.166  -3.252  19.066  1.00  0.00     0.039 C 
ATOM     15  C   UNL     1      -5.802  -2.565  19.926  1.00  0.00     0.039 C 
ENDBRANCH  11  12
ENDBRANCH   1  11
TORSDOF 4
ENDMDL
MODEL 7
REMARK VINA RESULT:    -5.320      1.849      3.954
REMARK INTER + INTRA:          -7.809
REMARK INTER:                  -6.334
REMARK INTRA:                  -1.476
REMARK UNBOUND:                -1.245
REMARK SMILES CC(C)=CCC[C@H](C)c1ccc(C)cc1
REMARK SMILES IDX 6 1 7 2 8 3 9 4 13 5 12 6 11 7 14 8 10 9 15 10 5 11 4 12
REMARK SMILES IDX 2 13 1 14 3 15
REMARK H PARENT
REMARK Flexibility Score: inf
ROOT
ATOM      1  C   UNL     1      -7.654  -3.312  16.921  1.00  0.00     0.012 C 
ENDROOT
BRANCH   1   2
ATOM      2  C   UNL     1      -6.913  -4.622  16.559  1.00  0.00     0.016 C 
ATOM      3  C   UNL     1      -7.716  -5.877  16.930  1.00  0.00     0.013 C 
BRANCH   2   4
ATOM      4  C   UNL     1      -5.548  -4.651  17.226  1.00  0.00    -0.045 A 
ATOM      5  C   UNL     1      -1.655  -4.793  19.092  1.00  0.00     0.044 C 
ATOM      6  C   UNL     1      -3.018  -4.727  18.467  1.00  0.00    -0.051 A 
ATOM      7  C   UNL     1      -3.951  -5.748  18.700  1.00  0.00     0.004 A 
ATOM      8  C   UNL     1      -3.344  -3.683  17.590  1.00  0.00     0.004 A 
ATOM      9  C   UNL     1      -5.207  -5.708  18.089  1.00  0.00     0.004 A 
ATOM     10  C   UNL     1      -4.599  -3.641  16.978  1.00  0.00     0.004 A 
ENDBRANCH   2   4
ENDBRANCH   1   2
BRANCH   1  11
ATOM     11  C   UNL     1      -8.323  -3.339  18.311  1.00  0.00     0.028 C 
BRANCH  11  12
ATOM     12  C   UNL     1      -7.389  -2.881  19.407  1.00  0.00    -0.028 C 
ATOM     13  C   UNL     1      -7.099  -3.601  20.514  1.00  0.00    -0.080 C 
ATOM     14  C   UNL     1      -6.162  -3.005  21.532  1.00  0.00     0.039 C 
ATOM     15  C   UNL     1      -7.655  -4.989  20.739  1.00  0.00     0.039 C 
ENDBRANCH  11  12
ENDBRANCH   1  11
TORSDOF 4
ENDMDL
MODEL 8
REMARK VINA RESULT:    -5.175      1.675      5.264
REMARK INTER + INTRA:          -7.630
REMARK INTER:                  -6.151
REMARK INTRA:                  -1.479
REMARK UNBOUND:                -1.245
REMARK SMILES CC(C)=CCC[C@H](C)c1ccc(C)cc1
REMARK SMILES IDX 6 1 7 2 8 3 9 4 13 5 12 6 11 7 14 8 10 9 15 10 5 11 4 12
REMARK SMILES IDX 2 13 1 14 3 15
REMARK H PARENT
REMARK Flexibility Score: inf
ROOT
ATOM      1  C   UNL     1      -4.551  -6.398  18.985  1.00  0.00     0.012 C 
ENDROOT
BRANCH   1   2
ATOM      2  C   UNL     1      -4.168  -5.749  17.633  1.00  0.00     0.016 C 
ATOM      3  C   UNL     1      -3.002  -4.758  17.762  1.00  0.00     0.013 C 
BRANCH   2   4
ATOM      4  C   UNL     1      -5.379  -5.066  17.021  1.00  0.00    -0.045 A 
ATOM      5  C   UNL     1      -8.846  -3.111  15.343  1.00  0.00     0.044 C 
ATOM      6  C   UNL     1      -7.640  -3.807  15.901  1.00  0.00    -0.051 A 
ATOM      7  C   UNL     1      -7.791  -4.941  16.711  1.00  0.00     0.004 A 
ATOM      8  C   UNL     1      -6.357  -3.289  15.675  1.00  0.00     0.004 A 
ATOM      9  C   UNL     1      -6.670  -5.568  17.263  1.00  0.00     0.004 A 
ATOM     10  C   UNL     1      -5.235  -3.914  16.224  1.00  0.00     0.004 A 
ENDBRANCH   2   4
ENDBRANCH   1   2
BRANCH   1  11
ATOM     11  C   UNL     1      -4.483  -5.428  20.182  1.00  0.00     0.028 C 
BRANCH  11  12
ATOM     12  C   UNL     1      -5.825  -4.812  20.501  1.00  0.00    -0.028 C 
ATOM     13  C   UNL     1      -6.137  -3.513  20.303  1.00  0.00    -0.080 C 
ATOM     14  C   UNL     1      -7.514  -3.039  20.688  1.00  0.00     0.039 C 
ATOM     15  C   UNL     1      -5.163  -2.539  19.679  1.00  0.00     0.039 C 
ENDBRANCH  11  12
ENDBRANCH   1  11
TORSDOF 4
ENDMDL
MODEL 9
REMARK VINA RESULT:    -5.169      1.801      4.075
REMARK INTER + INTRA:          -7.623
REMARK INTER:                  -6.095
REMARK INTRA:                  -1.527
REMARK UNBOUND:                -1.245
REMARK SMILES CC(C)=CCC[C@H](C)c1ccc(C)cc1
REMARK SMILES IDX 6 1 7 2 8 3 9 4 13 5 12 6 11 7 14 8 10 9 15 10 5 11 4 12
REMARK SMILES IDX 2 13 1 14 3 15
REMARK H PARENT
REMARK Flexibility Score: inf
ROOT
ATOM      1  C   UNL     1      -8.427  -3.877  18.323  1.00  0.00     0.012 C 
ENDROOT
BRANCH   1   2
ATOM      2  C   UNL     1      -7.585  -3.154  17.244  1.00  0.00     0.016 C 
ATOM      3  C   UNL     1      -7.901  -3.644  15.822  1.00  0.00     0.013 C 
BRANCH   2   4
ATOM      4  C   UNL     1      -6.105  -3.314  17.543  1.00  0.00    -0.045 A 
ATOM      5  C   UNL     1      -1.880  -3.730  18.339  1.00  0.00     0.044 C 
ATOM      6  C   UNL     1      -3.352  -3.613  18.074  1.00  0.00    -0.051 A 
ATOM      7  C   UNL     1      -3.885  -4.035  16.848  1.00  0.00     0.004 A 
ATOM      8  C   UNL     1      -4.195  -3.017  19.023  1.00  0.00     0.004 A 
ATOM      9  C   UNL     1      -5.251  -3.891  16.586  1.00  0.00     0.004 A 
ATOM     10  C   UNL     1      -5.560  -2.872  18.763  1.00  0.00     0.004 A 
ENDBRANCH   2   4
ENDBRANCH   1   2
BRANCH   1  11
ATOM     11  C   UNL     1      -8.092  -5.375  18.474  1.00  0.00     0.028 C 
BRANCH  11  12
ATOM     12  C   UNL     1      -7.616  -5.721  19.865  1.00  0.00    -0.028 C 
ATOM     13  C   UNL     1      -6.428  -6.303  20.144  1.00  0.00    -0.080 C 
ATOM     14  C   UNL     1      -6.099  -6.605  21.583  1.00  0.00     0.039 C 
ATOM     15  C   UNL     1      -5.418  -6.626  19.067  1.00  0.00     0.039 C 
ENDBRANCH  11  12
ENDBRANCH   1  11
TORSDOF 4
ENDMDL
