MODEL 1
REMARK VINA RESULT:    -6.959      0.000      0.000
REMARK INTER + INTRA:         -14.291
REMARK INTER:                 -11.434
REMARK INTRA:                  -2.857
REMARK UNBOUND:                -2.857
REMARK SMILES C[C@H]1O[C@H](OC[C@@H]2O[C@@H](Oc3c(-c4ccc(O)c(O)c4)oc4cc(O)cc(O)c4c3=O)[C@@H](O)[C@@H](O)[C@@H]2O)[C@@H](O)[C@H](O)[C@H]1O
REMARK SMILES IDX 7 1 36 2 34 3 32 4 9 5 8 6 6 7 5 8 4 9 1 10 2 11 42 12 3 13
REMARK SMILES IDX 40 14 38 15 43 16 41 18 39 20 37 22 35 24 10 26 11 27 12 28
REMARK SMILES IDX 30 29 21 30 29 31 31 32 22 33 27 34 23 35 26 36 24 37 13 38
REMARK SMILES IDX 20 39 14 40 18 41 15 42 16 43 19 44 17 46 28 48 25 50 33 52
REMARK H PARENT 43 17 41 19 39 21 37 23 35 25 19 45 17 47 28 49 25 51 33 53
REMARK Flexibility Score: inf
ROOT
ATOM      1  C   UNL     1      70.427  47.194   9.027  1.00  0.00     0.180 C 
ATOM      2  C   UNL     1      70.152  48.717   8.887  1.00  0.00     0.177 C 
ATOM      3  C   UNL     1      68.671  48.968   8.528  1.00  0.00     0.180 C 
ATOM      4  C   UNL     1      68.234  48.046   7.370  1.00  0.00     0.214 C 
ATOM      5  C   UNL     1      68.665  46.581   7.608  1.00  0.00     0.339 C 
ATOM      6  O   UNL     1      70.061  46.496   7.846  1.00  0.00    -0.332 OA
ENDROOT
BRANCH   1   7
ATOM      7  C   UNL     1      71.902  46.915   9.336  1.00  0.00     0.198 C 
BRANCH   7   8
ATOM      8  O   UNL     1      72.417  46.011   8.381  1.00  0.00    -0.347 OA
BRANCH   8   9
ATOM      9  C   UNL     1      73.570  46.550   7.752  1.00  0.00     0.281 C 
ATOM     10  C   UNL     1      75.124  43.393   6.661  1.00  0.00     0.041 C 
ATOM     11  C   UNL     1      74.082  44.510   6.705  1.00  0.00     0.150 C 
ATOM     12  C   UNL     1      73.772  45.040   5.288  1.00  0.00     0.174 C 
ATOM     13  O   UNL     1      74.560  45.550   7.545  1.00  0.00    -0.344 OA
ATOM     14  C   UNL     1      72.738  46.178   5.375  1.00  0.00     0.179 C 
ATOM     15  C   UNL     1      73.170  47.227   6.421  1.00  0.00     0.202 C 
BRANCH  12  16
ATOM     16  O   UNL     1      74.952  45.500   4.677  1.00  0.00    -0.388 OA
ATOM     17  H   UNL     1      74.940  46.492   4.742  1.00  0.00     0.211 HD
ENDBRANCH  12  16
BRANCH  14  18
ATOM     18  O   UNL     1      71.485  45.638   5.710  1.00  0.00    -0.387 OA
ATOM     19  H   UNL     1      71.639  44.691   5.972  1.00  0.00     0.211 HD
ENDBRANCH  14  18
BRANCH  15  20
ATOM     20  O   UNL     1      74.254  47.965   5.916  1.00  0.00    -0.385 OA
ATOM     21  H   UNL     1      73.882  48.606   5.256  1.00  0.00     0.211 HD
ENDBRANCH  15  20
ENDBRANCH   8   9
ENDBRANCH   7   8
ENDBRANCH   1   7
BRANCH   2  22
ATOM     22  O   UNL     1      71.000  49.327   7.943  1.00  0.00    -0.387 OA
ATOM     23  H   UNL     1      71.791  48.740   7.815  1.00  0.00     0.211 HD
ENDBRANCH   2  22
BRANCH   3  24
ATOM     24  O   UNL     1      67.864  48.744   9.657  1.00  0.00    -0.387 OA
ATOM     25  H   UNL     1      67.693  47.769   9.705  1.00  0.00     0.211 HD
ENDBRANCH   3  24
BRANCH   5  26
ATOM     26  O   UNL     1      67.932  45.994   8.692  1.00  0.00    -0.454 OA
BRANCH  26  27
ATOM     27  C   UNL     1      66.784  45.196   8.569  1.00  0.00     0.214 A 
ATOM     28  C   UNL     1      66.935  43.844   8.212  1.00  0.00     0.180 A 
ATOM     29  C   UNL     1      65.486  45.695   8.780  1.00  0.00     0.239 A 
ATOM     30  O   UNL     1      65.879  43.037   8.190  1.00  0.00    -0.452 OA
ATOM     31  C   UNL     1      64.389  44.809   8.749  1.00  0.00     0.111 A 
ATOM     32  O   UNL     1      65.310  46.931   8.957  1.00  0.00    -0.285 OA
ATOM     33  C   UNL     1      64.644  43.451   8.451  1.00  0.00     0.146 A 
ATOM     34  C   UNL     1      63.057  45.221   9.002  1.00  0.00     0.134 A 
ATOM     35  C   UNL     1      63.595  42.527   8.414  1.00  0.00     0.094 A 
ATOM     36  C   UNL     1      62.017  44.277   8.959  1.00  0.00     0.093 A 
ATOM     37  C   UNL     1      62.284  42.935   8.667  1.00  0.00     0.123 A 
BRANCH  28  38
ATOM     38  C   UNL     1      68.258  43.280   7.875  1.00  0.00     0.025 A 
ATOM     39  C   UNL     1      68.745  43.377   6.564  1.00  0.00     0.062 A 
ATOM     40  C   UNL     1      69.054  42.675   8.860  1.00  0.00     0.016 A 
ATOM     41  C   UNL     1      69.987  42.834   6.218  1.00  0.00     0.158 A 
ATOM     42  C   UNL     1      70.298  42.138   8.525  1.00  0.00     0.051 A 
ATOM     43  C   UNL     1      70.774  42.200   7.210  1.00  0.00     0.157 A 
BRANCH  41  44
ATOM     44  O   UNL     1      70.399  42.942   4.889  1.00  0.00    -0.504 OA
ATOM     45  H   UNL     1      71.339  42.753   4.572  1.00  0.00     0.293 HD
ENDBRANCH  41  44
BRANCH  43  46
ATOM     46  O   UNL     1      72.016  41.626   6.937  1.00  0.00    -0.504 OA
ATOM     47  H   UNL     1      72.608  41.200   7.634  1.00  0.00     0.293 HD
ENDBRANCH  43  46
ENDBRANCH  28  38
BRANCH  34  48
ATOM     48  O   UNL     1      62.761  46.551   9.304  1.00  0.00    -0.507 OA
ATOM     49  H   UNL     1      62.144  47.107   8.722  1.00  0.00     0.293 HD
ENDBRANCH  34  48
BRANCH  37  50
ATOM     50  O   UNL     1      61.251  42.001   8.618  1.00  0.00    -0.508 OA
ATOM     51  H   UNL     1      60.285  42.284   8.519  1.00  0.00     0.293 HD
ENDBRANCH  37  50
ENDBRANCH  26  27
ENDBRANCH   5  26
BRANCH   4  52
ATOM     52  O   UNL     1      66.852  48.147   7.115  1.00  0.00    -0.384 OA
ATOM     53  H   UNL     1      66.718  48.777   6.361  1.00  0.00     0.211 HD
ENDBRANCH   4  52
TORSDOF 16
ENDMDL
MODEL 2
REMARK VINA RESULT:    -6.157      2.240      6.251
REMARK INTER + INTRA:         -12.973
REMARK INTER:                 -10.107
REMARK INTRA:                  -2.866
REMARK UNBOUND:                -2.857
REMARK SMILES C[C@H]1O[C@H](OC[C@@H]2O[C@@H](Oc3c(-c4ccc(O)c(O)c4)oc4cc(O)cc(O)c4c3=O)[C@@H](O)[C@@H](O)[C@@H]2O)[C@@H](O)[C@H](O)[C@H]1O
REMARK SMILES IDX 7 1 36 2 34 3 32 4 9 5 8 6 6 7 5 8 4 9 1 10 2 11 42 12 3 13
REMARK SMILES IDX 40 14 38 15 43 16 41 18 39 20 37 22 35 24 10 26 11 27 12 28
REMARK SMILES IDX 30 29 21 30 29 31 31 32 22 33 27 34 23 35 26 36 24 37 13 38
REMARK SMILES IDX 20 39 14 40 18 41 15 42 16 43 19 44 17 46 28 48 25 50 33 52
REMARK H PARENT 43 17 41 19 39 21 37 23 35 25 19 45 17 47 28 49 25 51 33 53
REMARK Flexibility Score: inf
ROOT
ATOM      1  C   UNL     1      73.264  43.075   6.517  1.00  0.00     0.180 C 
ATOM      2  C   UNL     1      74.573  43.843   6.184  1.00  0.00     0.177 C 
ATOM      3  C   UNL     1      74.325  45.368   6.200  1.00  0.00     0.180 C 
ATOM      4  C   UNL     1      73.058  45.716   5.391  1.00  0.00     0.214 C 
ATOM      5  C   UNL     1      71.868  44.801   5.764  1.00  0.00     0.339 C 
ATOM      6  O   UNL     1      72.218  43.434   5.626  1.00  0.00    -0.332 OA
ENDROOT
BRANCH   1   7
ATOM      7  C   UNL     1      73.472  41.558   6.460  1.00  0.00     0.198 C 
BRANCH   7   8
ATOM      8  O   UNL     1      72.258  40.907   6.771  1.00  0.00    -0.347 OA
BRANCH   8   9
ATOM      9  C   UNL     1      72.209  39.624   6.166  1.00  0.00     0.281 C 
ATOM     10  C   UNL     1      69.073  38.424   7.682  1.00  0.00     0.041 C 
ATOM     11  C   UNL     1      69.972  39.293   6.803  1.00  0.00     0.150 C 
ATOM     12  C   UNL     1      69.441  39.357   5.354  1.00  0.00     0.174 C 
ATOM     13  O   UNL     1      71.291  38.771   6.840  1.00  0.00    -0.344 OA
ATOM     14  C   UNL     1      70.384  40.220   4.494  1.00  0.00     0.179 C 
ATOM     15  C   UNL     1      71.848  39.765   4.670  1.00  0.00     0.202 C 
BRANCH  12  16
ATOM     16  O   UNL     1      69.344  38.060   4.819  1.00  0.00    -0.388 OA
ATOM     17  H   UNL     1      69.006  38.159   3.890  1.00  0.00     0.211 HD
ENDBRANCH  12  16
BRANCH  14  18
ATOM     18  O   UNL     1      70.241  41.568   4.864  1.00  0.00    -0.387 OA
ATOM     19  H   UNL     1      69.268  41.733   4.986  1.00  0.00     0.211 HD
ENDBRANCH  14  18
BRANCH  15  20
ATOM     20  O   UNL     1      72.032  38.535   4.015  1.00  0.00    -0.385 OA
ATOM     21  H   UNL     1      71.163  38.299   3.598  1.00  0.00     0.211 HD
ENDBRANCH  15  20
ENDBRANCH   8   9
ENDBRANCH   7   8
ENDBRANCH   1   7
BRANCH   2  22
ATOM     22  O   UNL     1      75.125  43.445   4.951  1.00  0.00    -0.387 OA
ATOM     23  H   UNL     1      75.820  44.106   4.696  1.00  0.00     0.211 HD
ENDBRANCH   2  22
BRANCH   3  24
ATOM     24  O   UNL     1      74.190  45.812   7.527  1.00  0.00    -0.387 OA
ATOM     25  H   UNL     1      74.737  46.634   7.617  1.00  0.00     0.211 HD
ENDBRANCH   3  24
BRANCH   5  26
ATOM     26  O   UNL     1      71.404  45.072   7.093  1.00  0.00    -0.454 OA
BRANCH  26  27
ATOM     27  C   UNL     1      70.061  45.127   7.498  1.00  0.00     0.214 A 
ATOM     28  C   UNL     1      69.504  46.375   7.827  1.00  0.00     0.180 A 
ATOM     29  C   UNL     1      69.250  43.981   7.595  1.00  0.00     0.239 A 
ATOM     30  O   UNL     1      68.209  46.475   8.111  1.00  0.00    -0.452 OA
ATOM     31  C   UNL     1      67.880  44.125   7.898  1.00  0.00     0.111 A 
ATOM     32  O   UNL     1      69.759  42.837   7.448  1.00  0.00    -0.285 OA
ATOM     33  C   UNL     1      67.392  45.429   8.146  1.00  0.00     0.146 A 
ATOM     34  C   UNL     1      66.984  43.029   7.964  1.00  0.00     0.134 A 
ATOM     35  C   UNL     1      66.040  45.632   8.444  1.00  0.00     0.094 A 
ATOM     36  C   UNL     1      65.631  43.255   8.266  1.00  0.00     0.093 A 
ATOM     37  C   UNL     1      65.159  44.550   8.505  1.00  0.00     0.123 A 
BRANCH  28  38
ATOM     38  C   UNL     1      70.325  47.603   7.846  1.00  0.00     0.025 A 
ATOM     39  C   UNL     1      71.433  47.688   8.701  1.00  0.00     0.062 A 
ATOM     40  C   UNL     1      70.031  48.678   6.994  1.00  0.00     0.016 A 
ATOM     41  C   UNL     1      72.214  48.848   8.750  1.00  0.00     0.158 A 
ATOM     42  C   UNL     1      70.810  49.836   7.030  1.00  0.00     0.051 A 
ATOM     43  C   UNL     1      71.896  49.941   7.907  1.00  0.00     0.157 A 
BRANCH  41  44
ATOM     44  O   UNL     1      73.286  48.876   9.643  1.00  0.00    -0.504 OA
ATOM     45  H   UNL     1      74.035  48.199   9.647  1.00  0.00     0.293 HD
ENDBRANCH  41  44
BRANCH  43  46
ATOM     46  O   UNL     1      72.622  51.133   7.909  1.00  0.00    -0.504 OA
ATOM     47  H   UNL     1      73.627  51.182   7.852  1.00  0.00     0.293 HD
ENDBRANCH  43  46
ENDBRANCH  28  38
BRANCH  34  48
ATOM     48  O   UNL     1      67.424  41.727   7.723  1.00  0.00    -0.507 OA
ATOM     49  H   UNL     1      68.007  41.228   8.386  1.00  0.00     0.293 HD
ENDBRANCH  34  48
BRANCH  37  50
ATOM     50  O   UNL     1      63.818  44.771   8.811  1.00  0.00    -0.508 OA
ATOM     51  H   UNL     1      63.372  45.660   8.624  1.00  0.00     0.293 HD
ENDBRANCH  37  50
ENDBRANCH  26  27
ENDBRANCH   5  26
BRANCH   4  52
ATOM     52  O   UNL     1      72.723  47.079   5.506  1.00  0.00    -0.384 OA
ATOM     53  H   UNL     1      71.817  47.212   5.126  1.00  0.00     0.211 HD
ENDBRANCH   4  52
TORSDOF 16
ENDMDL
MODEL 3
REMARK VINA RESULT:    -6.124      1.644      5.155
REMARK INTER + INTRA:         -12.919
REMARK INTER:                 -11.032
REMARK INTRA:                  -1.888
REMARK UNBOUND:                -2.857
REMARK SMILES C[C@H]1O[C@H](OC[C@@H]2O[C@@H](Oc3c(-c4ccc(O)c(O)c4)oc4cc(O)cc(O)c4c3=O)[C@@H](O)[C@@H](O)[C@@H]2O)[C@@H](O)[C@H](O)[C@H]1O
REMARK SMILES IDX 7 1 36 2 34 3 32 4 9 5 8 6 6 7 5 8 4 9 1 10 2 11 42 12 3 13
REMARK SMILES IDX 40 14 38 15 43 16 41 18 39 20 37 22 35 24 10 26 11 27 12 28
REMARK SMILES IDX 30 29 21 30 29 31 31 32 22 33 27 34 23 35 26 36 24 37 13 38
REMARK SMILES IDX 20 39 14 40 18 41 15 42 16 43 19 44 17 46 28 48 25 50 33 52
REMARK H PARENT 43 17 41 19 39 21 37 23 35 25 19 45 17 47 28 49 25 51 33 53
REMARK Flexibility Score: inf
ROOT
ATOM      1  C   UNL     1      68.318  47.973   9.363  1.00  0.00     0.180 C 
ATOM      2  C   UNL     1      67.160  48.975   9.629  1.00  0.00     0.177 C 
ATOM      3  C   UNL     1      65.808  48.365   9.197  1.00  0.00     0.180 C 
ATOM      4  C   UNL     1      65.921  47.751   7.786  1.00  0.00     0.214 C 
ATOM      5  C   UNL     1      67.175  46.859   7.646  1.00  0.00     0.339 C 
ATOM      6  O   UNL     1      68.348  47.574   8.000  1.00  0.00    -0.332 OA
ENDROOT
BRANCH   1   7
ATOM      7  C   UNL     1      69.678  48.573   9.738  1.00  0.00     0.198 C 
BRANCH   7   8
ATOM      8  O   UNL     1      70.708  47.740   9.247  1.00  0.00    -0.347 OA
BRANCH   8   9
ATOM      9  C   UNL     1      71.883  48.495   8.993  1.00  0.00     0.281 C 
ATOM     10  C   UNL     1      74.123  45.722   8.063  1.00  0.00     0.041 C 
ATOM     11  C   UNL     1      72.943  46.685   7.935  1.00  0.00     0.150 C 
ATOM     12  C   UNL     1      72.913  47.348   6.540  1.00  0.00     0.174 C 
ATOM     13  O   UNL     1      73.035  47.661   8.961  1.00  0.00    -0.344 OA
ATOM     14  C   UNL     1      71.727  48.328   6.458  1.00  0.00     0.179 C 
ATOM     15  C   UNL     1      71.723  49.280   7.671  1.00  0.00     0.202 C 
BRANCH  12  16
ATOM     16  O   UNL     1      74.122  48.026   6.304  1.00  0.00    -0.388 OA
ATOM     17  H   UNL     1      74.780  47.674   6.961  1.00  0.00     0.211 HD
ENDBRANCH  12  16
BRANCH  14  18
ATOM     18  O   UNL     1      70.528  47.597   6.404  1.00  0.00    -0.387 OA
ATOM     19  H   UNL     1      69.970  48.009   5.692  1.00  0.00     0.211 HD
ENDBRANCH  14  18
BRANCH  15  20
ATOM     20  O   UNL     1      72.772  50.207   7.536  1.00  0.00    -0.385 OA
ATOM     21  H   UNL     1      72.571  50.959   8.152  1.00  0.00     0.211 HD
ENDBRANCH  15  20
ENDBRANCH   8   9
ENDBRANCH   7   8
ENDBRANCH   1   7
BRANCH   2  22
ATOM     22  O   UNL     1      67.371  50.214   8.994  1.00  0.00    -0.387 OA
ATOM     23  H   UNL     1      66.501  50.690   8.949  1.00  0.00     0.211 HD
ENDBRANCH   2  22
BRANCH   3  24
ATOM     24  O   UNL     1      65.413  47.385  10.123  1.00  0.00    -0.387 OA
ATOM     25  H   UNL     1      65.014  47.857  10.897  1.00  0.00     0.211 HD
ENDBRANCH   3  24
BRANCH   5  26
ATOM     26  O   UNL     1      67.054  45.668   8.434  1.00  0.00    -0.454 OA
BRANCH  26  27
ATOM     27  C   UNL     1      67.478  44.385   8.052  1.00  0.00     0.214 A 
ATOM     28  C   UNL     1      66.546  43.333   8.063  1.00  0.00     0.180 A 
ATOM     29  C   UNL     1      68.802  44.107   7.664  1.00  0.00     0.239 A 
ATOM     30  O   UNL     1      66.888  42.132   7.607  1.00  0.00    -0.452 OA
ATOM     31  C   UNL     1      69.129  42.822   7.184  1.00  0.00     0.111 A 
ATOM     32  O   UNL     1      69.690  44.994   7.781  1.00  0.00    -0.285 OA
ATOM     33  C   UNL     1      68.107  41.844   7.166  1.00  0.00     0.146 A 
ATOM     34  C   UNL     1      70.424  42.475   6.726  1.00  0.00     0.134 A 
ATOM     35  C   UNL     1      68.373  40.554   6.694  1.00  0.00     0.094 A 
ATOM     36  C   UNL     1      70.670  41.173   6.257  1.00  0.00     0.093 A 
ATOM     37  C   UNL     1      69.650  40.216   6.240  1.00  0.00     0.123 A 
BRANCH  28  38
ATOM     38  C   UNL     1      65.168  43.531   8.557  1.00  0.00     0.025 A 
ATOM     39  C   UNL     1      64.100  42.879   7.924  1.00  0.00     0.062 A 
ATOM     40  C   UNL     1      64.914  44.339   9.675  1.00  0.00     0.016 A 
ATOM     41  C   UNL     1      62.784  43.067   8.363  1.00  0.00     0.158 A 
ATOM     42  C   UNL     1      63.605  44.525  10.125  1.00  0.00     0.051 A 
ATOM     43  C   UNL     1      62.531  43.906   9.476  1.00  0.00     0.157 A 
BRANCH  41  44
ATOM     44  O   UNL     1      61.766  42.409   7.671  1.00  0.00    -0.504 OA
ATOM     45  H   UNL     1      61.847  41.473   7.303  1.00  0.00     0.293 HD
ENDBRANCH  41  44
BRANCH  43  46
ATOM     46  O   UNL     1      61.246  44.149   9.962  1.00  0.00    -0.504 OA
ATOM     47  H   UNL     1      60.831  45.066  10.029  1.00  0.00     0.293 HD
ENDBRANCH  43  46
ENDBRANCH  28  38
BRANCH  34  48
ATOM     48  O   UNL     1      71.460  43.410   6.723  1.00  0.00    -0.507 OA
ATOM     49  H   UNL     1      71.717  43.926   7.557  1.00  0.00     0.293 HD
ENDBRANCH  34  48
BRANCH  37  50
ATOM     50  O   UNL     1      69.896  38.925   5.781  1.00  0.00    -0.508 OA
ATOM     51  H   UNL     1      70.495  38.751   4.984  1.00  0.00     0.293 HD
ENDBRANCH  37  50
ENDBRANCH  26  27
ENDBRANCH   5  26
BRANCH   4  52
ATOM     52  O   UNL     1      64.748  47.062   7.422  1.00  0.00    -0.384 OA
ATOM     53  H   UNL     1      64.319  47.548   6.672  1.00  0.00     0.211 HD
ENDBRANCH   4  52
TORSDOF 16
ENDMDL
MODEL 4
REMARK VINA RESULT:    -6.060      1.482      2.380
REMARK INTER + INTRA:         -12.814
REMARK INTER:                 -10.578
REMARK INTRA:                  -2.236
REMARK UNBOUND:                -2.857
REMARK SMILES C[C@H]1O[C@H](OC[C@@H]2O[C@@H](Oc3c(-c4ccc(O)c(O)c4)oc4cc(O)cc(O)c4c3=O)[C@@H](O)[C@@H](O)[C@@H]2O)[C@@H](O)[C@H](O)[C@H]1O
REMARK SMILES IDX 7 1 36 2 34 3 32 4 9 5 8 6 6 7 5 8 4 9 1 10 2 11 42 12 3 13
REMARK SMILES IDX 40 14 38 15 43 16 41 18 39 20 37 22 35 24 10 26 11 27 12 28
REMARK SMILES IDX 30 29 21 30 29 31 31 32 22 33 27 34 23 35 26 36 24 37 13 38
REMARK SMILES IDX 20 39 14 40 18 41 15 42 16 43 19 44 17 46 28 48 25 50 33 52
REMARK H PARENT 43 17 41 19 39 21 37 23 35 25 19 45 17 47 28 49 25 51 33 53
REMARK Flexibility Score: inf
ROOT
ATOM      1  C   UNL     1      70.728  48.016   6.903  1.00  0.00     0.180 C 
ATOM      2  C   UNL     1      71.091  49.057   7.999  1.00  0.00     0.177 C 
ATOM      3  C   UNL     1      70.103  48.962   9.182  1.00  0.00     0.180 C 
ATOM      4  C   UNL     1      68.648  48.934   8.668  1.00  0.00     0.214 C 
ATOM      5  C   UNL     1      68.467  47.923   7.513  1.00  0.00     0.339 C 
ATOM      6  O   UNL     1      69.387  48.180   6.465  1.00  0.00    -0.332 OA
ENDROOT
BRANCH   1   7
ATOM      7  C   UNL     1      71.665  48.122   5.695  1.00  0.00     0.198 C 
BRANCH   7   8
ATOM      8  O   UNL     1      72.014  46.826   5.257  1.00  0.00    -0.347 OA
BRANCH   8   9
ATOM      9  C   UNL     1      72.311  45.988   6.363  1.00  0.00     0.281 C 
ATOM     10  C   UNL     1      71.321  42.761   4.887  1.00  0.00     0.041 C 
ATOM     11  C   UNL     1      72.143  44.037   5.065  1.00  0.00     0.150 C 
ATOM     12  C   UNL     1      73.652  43.719   5.160  1.00  0.00     0.174 C 
ATOM     13  O   UNL     1      71.691  44.714   6.227  1.00  0.00    -0.344 OA
ATOM     14  C   UNL     1      74.445  45.025   5.363  1.00  0.00     0.179 C 
ATOM     15  C   UNL     1      73.843  45.851   6.518  1.00  0.00     0.202 C 
BRANCH  12  16
ATOM     16  O   UNL     1      73.891  42.833   6.225  1.00  0.00    -0.388 OA
ATOM     17  H   UNL     1      73.626  41.929   5.909  1.00  0.00     0.211 HD
ENDBRANCH  12  16
BRANCH  14  18
ATOM     18  O   UNL     1      74.428  45.764   4.168  1.00  0.00    -0.387 OA
ATOM     19  H   UNL     1      73.521  46.165   4.089  1.00  0.00     0.211 HD
ENDBRANCH  14  18
BRANCH  15  20
ATOM     20  O   UNL     1      74.147  45.228   7.741  1.00  0.00    -0.385 OA
ATOM     21  H   UNL     1      75.017  45.597   8.043  1.00  0.00     0.211 HD
ENDBRANCH  15  20
ENDBRANCH   8   9
ENDBRANCH   7   8
ENDBRANCH   1   7
BRANCH   2  22
ATOM     22  O   UNL     1      71.135  50.370   7.494  1.00  0.00    -0.387 OA
ATOM     23  H   UNL     1      70.243  50.585   7.114  1.00  0.00     0.211 HD
ENDBRANCH   2  22
BRANCH   3  24
ATOM     24  O   UNL     1      70.373  47.807   9.936  1.00  0.00    -0.387 OA
ATOM     25  H   UNL     1      71.359  47.715   9.986  1.00  0.00     0.211 HD
ENDBRANCH   3  24
BRANCH   5  26
ATOM     26  O   UNL     1      68.599  46.574   7.980  1.00  0.00    -0.454 OA
BRANCH  26  27
ATOM     27  C   UNL     1      67.543  45.677   8.204  1.00  0.00     0.214 A 
ATOM     28  C   UNL     1      67.841  44.380   8.661  1.00  0.00     0.180 A 
ATOM     29  C   UNL     1      66.196  46.019   7.983  1.00  0.00     0.239 A 
ATOM     30  O   UNL     1      66.860  43.543   8.982  1.00  0.00    -0.452 OA
ATOM     31  C   UNL     1      65.181  45.105   8.336  1.00  0.00     0.111 A 
ATOM     32  O   UNL     1      65.909  47.119   7.438  1.00  0.00    -0.285 OA
ATOM     33  C   UNL     1      65.574  43.849   8.855  1.00  0.00     0.146 A 
ATOM     34  C   UNL     1      63.801  45.391   8.195  1.00  0.00     0.134 A 
ATOM     35  C   UNL     1      64.611  42.907   9.230  1.00  0.00     0.094 A 
ATOM     36  C   UNL     1      62.849  44.431   8.576  1.00  0.00     0.093 A 
ATOM     37  C   UNL     1      63.250  43.194   9.092  1.00  0.00     0.123 A 
BRANCH  28  38
ATOM     38  C   UNL     1      69.237  43.921   8.815  1.00  0.00     0.025 A 
ATOM     39  C   UNL     1      70.187  44.764   9.409  1.00  0.00     0.062 A 
ATOM     40  C   UNL     1      69.621  42.636   8.404  1.00  0.00     0.016 A 
ATOM     41  C   UNL     1      71.518  44.357   9.549  1.00  0.00     0.158 A 
ATOM     42  C   UNL     1      70.945  42.219   8.548  1.00  0.00     0.051 A 
ATOM     43  C   UNL     1      71.906  43.069   9.108  1.00  0.00     0.157 A 
BRANCH  41  44
ATOM     44  O   UNL     1      72.418  45.256  10.125  1.00  0.00    -0.504 OA
ATOM     45  H   UNL     1      72.701  46.125   9.695  1.00  0.00     0.293 HD
ENDBRANCH  41  44
BRANCH  43  46
ATOM     46  O   UNL     1      73.217  42.600   9.204  1.00  0.00    -0.504 OA
ATOM     47  H   UNL     1      73.484  41.637   9.066  1.00  0.00     0.293 HD
ENDBRANCH  43  46
ENDBRANCH  28  38
BRANCH  34  48
ATOM     48  O   UNL     1      63.370  46.619   7.691  1.00  0.00    -0.507 OA
ATOM     49  H   UNL     1      63.544  46.894   6.730  1.00  0.00     0.293 HD
ENDBRANCH  34  48
BRANCH  37  50
ATOM     50  O   UNL     1      62.306  42.240   9.463  1.00  0.00    -0.508 OA
ATOM     51  H   UNL     1      62.328  41.299   9.090  1.00  0.00     0.293 HD
ENDBRANCH  37  50
ENDBRANCH  26  27
ENDBRANCH   5  26
BRANCH   4  52
ATOM     52  O   UNL     1      67.730  48.704   9.711  1.00  0.00    -0.384 OA
ATOM     53  H   UNL     1      67.098  49.467   9.745  1.00  0.00     0.211 HD
ENDBRANCH   4  52
TORSDOF 16
ENDMDL
MODEL 5
REMARK VINA RESULT:    -5.933      1.782      5.033
REMARK INTER + INTRA:         -12.605
REMARK INTER:                 -10.018
REMARK INTRA:                  -2.587
REMARK UNBOUND:                -2.857
REMARK SMILES C[C@H]1O[C@H](OC[C@@H]2O[C@@H](Oc3c(-c4ccc(O)c(O)c4)oc4cc(O)cc(O)c4c3=O)[C@@H](O)[C@@H](O)[C@@H]2O)[C@@H](O)[C@H](O)[C@H]1O
REMARK SMILES IDX 7 1 36 2 34 3 32 4 9 5 8 6 6 7 5 8 4 9 1 10 2 11 42 12 3 13
REMARK SMILES IDX 40 14 38 15 43 16 41 18 39 20 37 22 35 24 10 26 11 27 12 28
REMARK SMILES IDX 30 29 21 30 29 31 31 32 22 33 27 34 23 35 26 36 24 37 13 38
REMARK SMILES IDX 20 39 14 40 18 41 15 42 16 43 19 44 17 46 28 48 25 50 33 52
REMARK H PARENT 43 17 41 19 39 21 37 23 35 25 19 45 17 47 28 49 25 51 33 53
REMARK Flexibility Score: inf
ROOT
ATOM      1  C   UNL     1      69.925  47.480   8.205  1.00  0.00     0.180 C 
ATOM      2  C   UNL     1      68.972  48.706   8.266  1.00  0.00     0.177 C 
ATOM      3  C   UNL     1      67.505  48.244   8.398  1.00  0.00     0.180 C 
ATOM      4  C   UNL     1      67.193  47.138   7.367  1.00  0.00     0.214 C 
ATOM      5  C   UNL     1      68.282  46.040   7.355  1.00  0.00     0.339 C 
ATOM      6  O   UNL     1      69.567  46.603   7.147  1.00  0.00    -0.332 OA
ENDROOT
BRANCH   1   7
ATOM      7  C   UNL     1      71.385  47.910   8.025  1.00  0.00     0.198 C 
BRANCH   7   8
ATOM      8  O   UNL     1      71.669  48.038   6.648  1.00  0.00    -0.347 OA
BRANCH   8   9
ATOM      9  C   UNL     1      73.008  47.654   6.375  1.00  0.00     0.281 C 
ATOM     10  C   UNL     1      72.419  44.086   5.672  1.00  0.00     0.041 C 
ATOM     11  C   UNL     1      72.341  45.597   5.457  1.00  0.00     0.150 C 
ATOM     12  C   UNL     1      72.772  45.978   4.023  1.00  0.00     0.174 C 
ATOM     13  O   UNL     1      73.158  46.240   6.422  1.00  0.00    -0.344 OA
ATOM     14  C   UNL     1      72.703  47.508   3.852  1.00  0.00     0.179 C 
ATOM     15  C   UNL     1      73.444  48.217   5.004  1.00  0.00     0.202 C 
BRANCH  12  16
ATOM     16  O   UNL     1      74.076  45.518   3.774  1.00  0.00    -0.388 OA
ATOM     17  H   UNL     1      74.076  45.142   2.854  1.00  0.00     0.211 HD
ENDBRANCH  12  16
BRANCH  14  18
ATOM     18  O   UNL     1      71.356  47.908   3.815  1.00  0.00    -0.387 OA
ATOM     19  H   UNL     1      70.877  47.256   3.238  1.00  0.00     0.211 HD
ENDBRANCH  14  18
BRANCH  15  20
ATOM     20  O   UNL     1      74.830  48.049   4.836  1.00  0.00    -0.385 OA
ATOM     21  H   UNL     1      75.076  48.513   3.994  1.00  0.00     0.211 HD
ENDBRANCH  15  20
ENDBRANCH   8   9
ENDBRANCH   7   8
ENDBRANCH   1   7
BRANCH   2  22
ATOM     22  O   UNL     1      69.126  49.555   7.153  1.00  0.00    -0.387 OA
ATOM     23  H   UNL     1      68.237  49.670   6.728  1.00  0.00     0.211 HD
ENDBRANCH   2  22
BRANCH   3  24
ATOM     24  O   UNL     1      67.271  47.771   9.701  1.00  0.00    -0.387 OA
ATOM     25  H   UNL     1      66.478  47.179   9.659  1.00  0.00     0.211 HD
ENDBRANCH   3  24
BRANCH   5  26
ATOM     26  O   UNL     1      68.258  45.274   8.567  1.00  0.00    -0.454 OA
BRANCH  26  27
ATOM     27  C   UNL     1      68.569  43.910   8.681  1.00  0.00     0.214 A 
ATOM     28  C   UNL     1      67.517  42.980   8.763  1.00  0.00     0.180 A 
ATOM     29  C   UNL     1      69.892  43.434   8.724  1.00  0.00     0.239 A 
ATOM     30  O   UNL     1      67.776  41.677   8.765  1.00  0.00    -0.452 OA
ATOM     31  C   UNL     1      70.130  42.043   8.725  1.00  0.00     0.111 A 
ATOM     32  O   UNL     1      70.851  44.249   8.799  1.00  0.00    -0.285 OA
ATOM     33  C   UNL     1      69.008  41.182   8.736  1.00  0.00     0.146 A 
ATOM     34  C   UNL     1      71.430  41.482   8.715  1.00  0.00     0.134 A 
ATOM     35  C   UNL     1      69.184  39.794   8.730  1.00  0.00     0.094 A 
ATOM     36  C   UNL     1      71.585  40.085   8.710  1.00  0.00     0.093 A 
ATOM     37  C   UNL     1      70.468  39.244   8.717  1.00  0.00     0.123 A 
BRANCH  28  38
ATOM     38  C   UNL     1      66.107  43.417   8.827  1.00  0.00     0.025 A 
ATOM     39  C   UNL     1      65.293  43.315   7.690  1.00  0.00     0.062 A 
ATOM     40  C   UNL     1      65.559  43.905  10.022  1.00  0.00     0.016 A 
ATOM     41  C   UNL     1      63.960  43.740   7.723  1.00  0.00     0.158 A 
ATOM     42  C   UNL     1      64.228  44.323  10.066  1.00  0.00     0.051 A 
ATOM     43  C   UNL     1      63.420  44.257   8.925  1.00  0.00     0.157 A 
BRANCH  41  44
ATOM     44  O   UNL     1      63.213  43.636   6.548  1.00  0.00    -0.504 OA
ATOM     45  H   UNL     1      62.579  44.348   6.217  1.00  0.00     0.293 HD
ENDBRANCH  41  44
BRANCH  43  46
ATOM     46  O   UNL     1      62.104  44.710   9.030  1.00  0.00    -0.504 OA
ATOM     47  H   UNL     1      61.426  44.333   9.673  1.00  0.00     0.293 HD
ENDBRANCH  43  46
ENDBRANCH  28  38
BRANCH  34  48
ATOM     48  O   UNL     1      72.564  42.296   8.700  1.00  0.00    -0.507 OA
ATOM     49  H   UNL     1      72.497  43.307   8.735  1.00  0.00     0.293 HD
ENDBRANCH  34  48
BRANCH  37  50
ATOM     50  O   UNL     1      70.622  37.860   8.719  1.00  0.00    -0.508 OA
ATOM     51  H   UNL     1      71.460  37.420   8.360  1.00  0.00     0.293 HD
ENDBRANCH  37  50
ENDBRANCH  26  27
ENDBRANCH   5  26
BRANCH   4  52
ATOM     52  O   UNL     1      65.908  46.594   7.557  1.00  0.00    -0.384 OA
ATOM     53  H   UNL     1      65.240  47.248   7.225  1.00  0.00     0.211 HD
ENDBRANCH   4  52
TORSDOF 16
ENDMDL
MODEL 6
REMARK VINA RESULT:    -5.925      2.314      8.120
REMARK INTER + INTRA:         -12.592
REMARK INTER:                 -10.457
REMARK INTRA:                  -2.135
REMARK UNBOUND:                -2.857
REMARK SMILES C[C@H]1O[C@H](OC[C@@H]2O[C@@H](Oc3c(-c4ccc(O)c(O)c4)oc4cc(O)cc(O)c4c3=O)[C@@H](O)[C@@H](O)[C@@H]2O)[C@@H](O)[C@H](O)[C@H]1O
REMARK SMILES IDX 7 1 36 2 34 3 32 4 9 5 8 6 6 7 5 8 4 9 1 10 2 11 42 12 3 13
REMARK SMILES IDX 40 14 38 15 43 16 41 18 39 20 37 22 35 24 10 26 11 27 12 28
REMARK SMILES IDX 30 29 21 30 29 31 31 32 22 33 27 34 23 35 26 36 24 37 13 38
REMARK SMILES IDX 20 39 14 40 18 41 15 42 16 43 19 44 17 46 28 48 25 50 33 52
REMARK H PARENT 43 17 41 19 39 21 37 23 35 25 19 45 17 47 28 49 25 51 33 53
REMARK Flexibility Score: inf
ROOT
ATOM      1  C   UNL     1      68.199  44.224   8.564  1.00  0.00     0.180 C 
ATOM      2  C   UNL     1      67.913  45.738   8.765  1.00  0.00     0.177 C 
ATOM      3  C   UNL     1      68.922  46.589   7.963  1.00  0.00     0.180 C 
ATOM      4  C   UNL     1      70.361  46.089   8.206  1.00  0.00     0.214 C 
ATOM      5  C   UNL     1      70.466  44.553   8.068  1.00  0.00     0.339 C 
ATOM      6  O   UNL     1      69.536  43.903   8.919  1.00  0.00    -0.332 OA
ENDROOT
BRANCH   1   7
ATOM      7  C   UNL     1      67.241  43.356   9.388  1.00  0.00     0.198 C 
BRANCH   7   8
ATOM      8  O   UNL     1      66.021  43.213   8.691  1.00  0.00    -0.347 OA
BRANCH   8   9
ATOM      9  C   UNL     1      64.931  43.158   9.598  1.00  0.00     0.281 C 
ATOM     10  C   UNL     1      64.103  46.748   9.672  1.00  0.00     0.041 C 
ATOM     11  C   UNL     1      64.254  45.347   9.078  1.00  0.00     0.150 C 
ATOM     12  C   UNL     1      62.950  44.892   8.387  1.00  0.00     0.174 C 
ATOM     13  O   UNL     1      64.624  44.449  10.113  1.00  0.00    -0.344 OA
ATOM     14  C   UNL     1      63.133  43.469   7.823  1.00  0.00     0.179 C 
ATOM     15  C   UNL     1      63.704  42.526   8.902  1.00  0.00     0.202 C 
BRANCH  12  16
ATOM     16  O   UNL     1      61.884  44.919   9.304  1.00  0.00    -0.388 OA
ATOM     17  H   UNL     1      61.491  45.831   9.258  1.00  0.00     0.211 HD
ENDBRANCH  12  16
BRANCH  14  18
ATOM     18  O   UNL     1      63.990  43.521   6.712  1.00  0.00    -0.387 OA
ATOM     19  H   UNL     1      64.040  42.600   6.342  1.00  0.00     0.211 HD
ENDBRANCH  14  18
BRANCH  15  20
ATOM     20  O   UNL     1      62.705  42.250   9.852  1.00  0.00    -0.385 OA
ATOM     21  H   UNL     1      63.069  41.551  10.455  1.00  0.00     0.211 HD
ENDBRANCH  15  20
ENDBRANCH   8   9
ENDBRANCH   7   8
ENDBRANCH   1   7
BRANCH   2  22
ATOM     22  O   UNL     1      67.923  46.106  10.124  1.00  0.00    -0.387 OA
ATOM     23  H   UNL     1      68.702  45.670  10.556  1.00  0.00     0.211 HD
ENDBRANCH   2  22
BRANCH   3  24
ATOM     24  O   UNL     1      68.612  46.529   6.594  1.00  0.00    -0.387 OA
ATOM     25  H   UNL     1      69.043  45.713   6.232  1.00  0.00     0.211 HD
ENDBRANCH   3  24
BRANCH   5  26
ATOM     26  O   UNL     1      70.278  44.140   6.708  1.00  0.00    -0.454 OA
BRANCH  26  27
ATOM     27  C   UNL     1      70.832  42.995   6.115  1.00  0.00     0.214 A 
ATOM     28  C   UNL     1      72.039  43.117   5.404  1.00  0.00     0.180 A 
ATOM     29  C   UNL     1      70.223  41.729   6.195  1.00  0.00     0.239 A 
ATOM     30  O   UNL     1      72.642  42.035   4.921  1.00  0.00    -0.452 OA
ATOM     31  C   UNL     1      70.893  40.603   5.671  1.00  0.00     0.111 A 
ATOM     32  O   UNL     1      69.073  41.616   6.698  1.00  0.00    -0.285 OA
ATOM     33  C   UNL     1      72.138  40.812   5.034  1.00  0.00     0.146 A 
ATOM     34  C   UNL     1      70.374  39.287   5.757  1.00  0.00     0.134 A 
ATOM     35  C   UNL     1      72.850  39.731   4.504  1.00  0.00     0.094 A 
ATOM     36  C   UNL     1      71.104  38.215   5.217  1.00  0.00     0.093 A 
ATOM     37  C   UNL     1      72.337  38.435   4.593  1.00  0.00     0.123 A 
BRANCH  28  38
ATOM     38  C   UNL     1      72.678  44.432   5.193  1.00  0.00     0.025 A 
ATOM     39  C   UNL     1      72.162  45.311   4.230  1.00  0.00     0.062 A 
ATOM     40  C   UNL     1      73.778  44.830   5.966  1.00  0.00     0.016 A 
ATOM     41  C   UNL     1      72.762  46.555   4.000  1.00  0.00     0.158 A 
ATOM     42  C   UNL     1      74.378  46.072   5.749  1.00  0.00     0.051 A 
ATOM     43  C   UNL     1      73.890  46.939   4.765  1.00  0.00     0.157 A 
BRANCH  41  44
ATOM     44  O   UNL     1      72.215  47.369   3.008  1.00  0.00    -0.504 OA
ATOM     45  H   UNL     1      71.762  48.253   3.190  1.00  0.00     0.293 HD
ENDBRANCH  41  44
BRANCH  43  46
ATOM     46  O   UNL     1      74.547  48.157   4.584  1.00  0.00    -0.504 OA
ATOM     47  H   UNL     1      75.415  48.403   5.034  1.00  0.00     0.293 HD
ENDBRANCH  43  46
ENDBRANCH  28  38
BRANCH  34  48
ATOM     48  O   UNL     1      69.151  39.036   6.380  1.00  0.00    -0.507 OA
ATOM     49  H   UNL     1      68.868  38.100   6.647  1.00  0.00     0.293 HD
ENDBRANCH  34  48
BRANCH  37  50
ATOM     50  O   UNL     1      73.057  37.372   4.052  1.00  0.00    -0.508 OA
ATOM     51  H   UNL     1      73.467  37.426   3.128  1.00  0.00     0.293 HD
ENDBRANCH  37  50
ENDBRANCH  26  27
ENDBRANCH   5  26
BRANCH   4  52
ATOM     52  O   UNL     1      71.290  46.750   7.380  1.00  0.00    -0.384 OA
ATOM     53  H   UNL     1      70.790  47.284   6.711  1.00  0.00     0.211 HD
ENDBRANCH   4  52
TORSDOF 16
ENDMDL
MODEL 7
REMARK VINA RESULT:    -5.862      2.157      4.782
REMARK INTER + INTRA:         -12.489
REMARK INTER:                 -10.838
REMARK INTRA:                  -1.651
REMARK UNBOUND:                -2.857
REMARK SMILES C[C@H]1O[C@H](OC[C@@H]2O[C@@H](Oc3c(-c4ccc(O)c(O)c4)oc4cc(O)cc(O)c4c3=O)[C@@H](O)[C@@H](O)[C@@H]2O)[C@@H](O)[C@H](O)[C@H]1O
REMARK SMILES IDX 7 1 36 2 34 3 32 4 9 5 8 6 6 7 5 8 4 9 1 10 2 11 42 12 3 13
REMARK SMILES IDX 40 14 38 15 43 16 41 18 39 20 37 22 35 24 10 26 11 27 12 28
REMARK SMILES IDX 30 29 21 30 29 31 31 32 22 33 27 34 23 35 26 36 24 37 13 38
REMARK SMILES IDX 20 39 14 40 18 41 15 42 16 43 19 44 17 46 28 48 25 50 33 52
REMARK H PARENT 43 17 41 19 39 21 37 23 35 25 19 45 17 47 28 49 25 51 33 53
REMARK Flexibility Score: inf
ROOT
ATOM      1  C   UNL     1      72.450  44.797   5.874  1.00  0.00     0.180 C 
ATOM      2  C   UNL     1      73.558  43.902   5.253  1.00  0.00     0.177 C 
ATOM      3  C   UNL     1      73.161  42.412   5.340  1.00  0.00     0.180 C 
ATOM      4  C   UNL     1      72.667  42.068   6.761  1.00  0.00     0.214 C 
ATOM      5  C   UNL     1      71.644  43.104   7.280  1.00  0.00     0.339 C 
ATOM      6  O   UNL     1      72.175  44.418   7.214  1.00  0.00    -0.332 OA
ENDROOT
BRANCH   1   7
ATOM      7  C   UNL     1      72.842  46.279   5.845  1.00  0.00     0.198 C 
BRANCH   7   8
ATOM      8  O   UNL     1      73.513  46.610   7.042  1.00  0.00    -0.347 OA
BRANCH   8   9
ATOM      9  C   UNL     1      73.493  48.013   7.255  1.00  0.00     0.281 C 
ATOM     10  C   UNL     1      70.058  48.690   6.109  1.00  0.00     0.041 C 
ATOM     11  C   UNL     1      71.160  48.123   7.003  1.00  0.00     0.150 C 
ATOM     12  C   UNL     1      70.912  48.480   8.486  1.00  0.00     0.174 C 
ATOM     13  O   UNL     1      72.412  48.624   6.561  1.00  0.00    -0.344 OA
ATOM     14  C   UNL     1      72.053  47.913   9.352  1.00  0.00     0.179 C 
ATOM     15  C   UNL     1      73.426  48.310   8.771  1.00  0.00     0.202 C 
BRANCH  12  16
ATOM     16  O   UNL     1      70.831  49.875   8.639  1.00  0.00    -0.388 OA
ATOM     17  H   UNL     1      71.646  50.257   8.217  1.00  0.00     0.211 HD
ENDBRANCH  12  16
BRANCH  14  18
ATOM     18  O   UNL     1      71.933  46.515   9.416  1.00  0.00    -0.387 OA
ATOM     19  H   UNL     1      72.643  46.191  10.031  1.00  0.00     0.211 HD
ENDBRANCH  14  18
BRANCH  15  20
ATOM     20  O   UNL     1      73.647  49.680   8.999  1.00  0.00    -0.385 OA
ATOM     21  H   UNL     1      72.873  50.012   9.524  1.00  0.00     0.211 HD
ENDBRANCH  15  20
ENDBRANCH   8   9
ENDBRANCH   7   8
ENDBRANCH   1   7
BRANCH   2  22
ATOM     22  O   UNL     1      74.814  44.115   5.854  1.00  0.00    -0.387 OA
ATOM     23  H   UNL     1      74.750  43.847   6.807  1.00  0.00     0.211 HD
ENDBRANCH   2  22
BRANCH   3  24
ATOM     24  O   UNL     1      72.157  42.133   4.397  1.00  0.00    -0.387 OA
ATOM     25  H   UNL     1      72.134  42.893   3.761  1.00  0.00     0.211 HD
ENDBRANCH   3  24
BRANCH   5  26
ATOM     26  O   UNL     1      70.410  43.023   6.554  1.00  0.00    -0.454 OA
BRANCH  26  27
ATOM     27  C   UNL     1      69.128  43.210   7.093  1.00  0.00     0.214 A 
ATOM     28  C   UNL     1      68.306  42.086   7.293  1.00  0.00     0.180 A 
ATOM     29  C   UNL     1      68.626  44.479   7.436  1.00  0.00     0.239 A 
ATOM     30  O   UNL     1      67.130  42.217   7.898  1.00  0.00    -0.452 OA
ATOM     31  C   UNL     1      67.374  44.580   8.077  1.00  0.00     0.111 A 
ATOM     32  O   UNL     1      69.279  45.515   7.135  1.00  0.00    -0.285 OA
ATOM     33  C   UNL     1      66.648  43.387   8.301  1.00  0.00     0.146 A 
ATOM     34  C   UNL     1      66.820  45.813   8.502  1.00  0.00     0.134 A 
ATOM     35  C   UNL     1      65.404  43.426   8.939  1.00  0.00     0.094 A 
ATOM     36  C   UNL     1      65.569  45.831   9.140  1.00  0.00     0.093 A 
ATOM     37  C   UNL     1      64.863  44.644   9.359  1.00  0.00     0.123 A 
BRANCH  28  38
ATOM     38  C   UNL     1      68.729  40.738   6.861  1.00  0.00     0.025 A 
ATOM     39  C   UNL     1      69.150  40.529   5.540  1.00  0.00     0.062 A 
ATOM     40  C   UNL     1      68.747  39.666   7.765  1.00  0.00     0.016 A 
ATOM     41  C   UNL     1      69.537  39.257   5.103  1.00  0.00     0.158 A 
ATOM     42  C   UNL     1      69.139  38.395   7.340  1.00  0.00     0.051 A 
ATOM     43  C   UNL     1      69.527  38.172   6.013  1.00  0.00     0.157 A 
BRANCH  41  44
ATOM     44  O   UNL     1      69.919  39.114   3.769  1.00  0.00    -0.504 OA
ATOM     45  H   UNL     1      70.865  39.232   3.436  1.00  0.00     0.293 HD
ENDBRANCH  41  44
BRANCH  43  46
ATOM     46  O   UNL     1      69.888  36.875   5.647  1.00  0.00    -0.504 OA
ATOM     47  H   UNL     1      70.299  36.204   6.278  1.00  0.00     0.293 HD
ENDBRANCH  43  46
ENDBRANCH  28  38
BRANCH  34  48
ATOM     48  O   UNL     1      67.505  47.014   8.304  1.00  0.00    -0.507 OA
ATOM     49  H   UNL     1      68.514  47.045   8.214  1.00  0.00     0.293 HD
ENDBRANCH  34  48
BRANCH  37  50
ATOM     50  O   UNL     1      63.619  44.663   9.986  1.00  0.00    -0.508 OA
ATOM     51  H   UNL     1      62.934  43.936   9.826  1.00  0.00     0.293 HD
ENDBRANCH  37  50
ENDBRANCH  26  27
ENDBRANCH   5  26
BRANCH   4  52
ATOM     52  O   UNL     1      72.162  40.755   6.835  1.00  0.00    -0.384 OA
ATOM     53  H   UNL     1      71.288  40.783   7.302  1.00  0.00     0.211 HD
ENDBRANCH   4  52
TORSDOF 16
ENDMDL
MODEL 8
REMARK VINA RESULT:    -5.848      2.066      4.316
REMARK INTER + INTRA:         -12.465
REMARK INTER:                 -10.131
REMARK INTRA:                  -2.334
REMARK UNBOUND:                -2.857
REMARK SMILES C[C@H]1O[C@H](OC[C@@H]2O[C@@H](Oc3c(-c4ccc(O)c(O)c4)oc4cc(O)cc(O)c4c3=O)[C@@H](O)[C@@H](O)[C@@H]2O)[C@@H](O)[C@H](O)[C@H]1O
REMARK SMILES IDX 7 1 36 2 34 3 32 4 9 5 8 6 6 7 5 8 4 9 1 10 2 11 42 12 3 13
REMARK SMILES IDX 40 14 38 15 43 16 41 18 39 20 37 22 35 24 10 26 11 27 12 28
REMARK SMILES IDX 30 29 21 30 29 31 31 32 22 33 27 34 23 35 26 36 24 37 13 38
REMARK SMILES IDX 20 39 14 40 18 41 15 42 16 43 19 44 17 46 28 48 25 50 33 52
REMARK H PARENT 43 17 41 19 39 21 37 23 35 25 19 45 17 47 28 49 25 51 33 53
REMARK Flexibility Score: inf
ROOT
ATOM      1  C   UNL     1      73.421  44.774   8.455  1.00  0.00     0.180 C 
ATOM      2  C   UNL     1      74.147  43.421   8.696  1.00  0.00     0.177 C 
ATOM      3  C   UNL     1      73.121  42.294   8.946  1.00  0.00     0.180 C 
ATOM      4  C   UNL     1      72.069  42.743   9.982  1.00  0.00     0.214 C 
ATOM      5  C   UNL     1      71.511  44.149   9.662  1.00  0.00     0.339 C 
ATOM      6  O   UNL     1      72.561  45.095   9.538  1.00  0.00    -0.332 OA
ENDROOT
BRANCH   1   7
ATOM      7  C   UNL     1      74.419  45.920   8.252  1.00  0.00     0.198 C 
BRANCH   7   8
ATOM      8  O   UNL     1      73.975  46.746   7.196  1.00  0.00    -0.347 OA
BRANCH   8   9
ATOM      9  C   UNL     1      73.176  46.007   6.286  1.00  0.00     0.281 C 
ATOM     10  C   UNL     1      70.567  48.536   5.674  1.00  0.00     0.041 C 
ATOM     11  C   UNL     1      71.963  47.913   5.642  1.00  0.00     0.150 C 
ATOM     12  C   UNL     1      72.548  47.932   4.212  1.00  0.00     0.174 C 
ATOM     13  O   UNL     1      71.885  46.589   6.144  1.00  0.00    -0.344 OA
ATOM     14  C   UNL     1      73.942  47.276   4.216  1.00  0.00     0.179 C 
ATOM     15  C   UNL     1      73.896  45.905   4.922  1.00  0.00     0.202 C 
BRANCH  12  16
ATOM     16  O   UNL     1      71.690  47.249   3.332  1.00  0.00    -0.388 OA
ATOM     17  H   UNL     1      71.271  47.937   2.751  1.00  0.00     0.211 HD
ENDBRANCH  12  16
BRANCH  14  18
ATOM     18  O   UNL     1      74.852  48.131   4.861  1.00  0.00    -0.387 OA
ATOM     19  H   UNL     1      75.763  47.776   4.678  1.00  0.00     0.211 HD
ENDBRANCH  14  18
BRANCH  15  20
ATOM     20  O   UNL     1      73.231  44.981   4.098  1.00  0.00    -0.385 OA
ATOM     21  H   UNL     1      73.336  44.090   4.522  1.00  0.00     0.211 HD
ENDBRANCH  15  20
ENDBRANCH   8   9
ENDBRANCH   7   8
ENDBRANCH   1   7
BRANCH   2  22
ATOM     22  O   UNL     1      75.071  43.495   9.756  1.00  0.00    -0.387 OA
ATOM     23  H   UNL     1      74.626  43.941  10.523  1.00  0.00     0.211 HD
ENDBRANCH   2  22
BRANCH   3  24
ATOM     24  O   UNL     1      72.494  41.947   7.737  1.00  0.00    -0.387 OA
ATOM     25  H   UNL     1      72.088  42.774   7.371  1.00  0.00     0.211 HD
ENDBRANCH   3  24
BRANCH   5  26
ATOM     26  O   UNL     1      70.708  44.130   8.475  1.00  0.00    -0.454 OA
BRANCH  26  27
ATOM     27  C   UNL     1      69.366  44.529   8.386  1.00  0.00     0.214 A 
ATOM     28  C   UNL     1      68.425  43.630   7.852  1.00  0.00     0.180 A 
ATOM     29  C   UNL     1      68.922  45.797   8.804  1.00  0.00     0.239 A 
ATOM     30  O   UNL     1      67.132  43.937   7.853  1.00  0.00    -0.452 OA
ATOM     31  C   UNL     1      67.541  46.088   8.791  1.00  0.00     0.111 A 
ATOM     32  O   UNL     1      69.760  46.673   9.151  1.00  0.00    -0.285 OA
ATOM     33  C   UNL     1      66.662  45.095   8.301  1.00  0.00     0.146 A 
ATOM     34  C   UNL     1      67.007  47.320   9.243  1.00  0.00     0.134 A 
ATOM     35  C   UNL     1      65.283  45.326   8.272  1.00  0.00     0.094 A 
ATOM     36  C   UNL     1      65.619  47.533   9.204  1.00  0.00     0.093 A 
ATOM     37  C   UNL     1      64.759  46.541   8.721  1.00  0.00     0.123 A 
BRANCH  28  38
ATOM     38  C   UNL     1      68.838  42.323   7.300  1.00  0.00     0.025 A 
ATOM     39  C   UNL     1      69.522  42.268   6.077  1.00  0.00     0.062 A 
ATOM     40  C   UNL     1      68.583  41.134   7.999  1.00  0.00     0.016 A 
ATOM     41  C   UNL     1      69.906  41.040   5.526  1.00  0.00     0.158 A 
ATOM     42  C   UNL     1      68.970  39.906   7.461  1.00  0.00     0.051 A 
ATOM     43  C   UNL     1      69.622  39.841   6.224  1.00  0.00     0.157 A 
BRANCH  41  44
ATOM     44  O   UNL     1      70.560  41.054   4.293  1.00  0.00    -0.504 OA
ATOM     45  H   UNL     1      70.498  41.814   3.630  1.00  0.00     0.293 HD
ENDBRANCH  41  44
BRANCH  43  46
ATOM     46  O   UNL     1      69.964  38.581   5.731  1.00  0.00    -0.504 OA
ATOM     47  H   UNL     1      69.451  37.736   5.934  1.00  0.00     0.293 HD
ENDBRANCH  43  46
ENDBRANCH  28  38
BRANCH  34  48
ATOM     48  O   UNL     1      67.840  48.326   9.738  1.00  0.00    -0.507 OA
ATOM     49  H   UNL     1      68.198  48.306  10.686  1.00  0.00     0.293 HD
ENDBRANCH  34  48
BRANCH  37  50
ATOM     50  O   UNL     1      63.383  46.755   8.677  1.00  0.00    -0.508 OA
ATOM     51  H   UNL     1      62.743  46.205   9.235  1.00  0.00     0.293 HD
ENDBRANCH  37  50
ENDBRANCH  26  27
ENDBRANCH   5  26
BRANCH   4  52
ATOM     52  O   UNL     1      71.039  41.794  10.125  1.00  0.00    -0.384 OA
ATOM     53  H   UNL     1      70.283  42.222  10.602  1.00  0.00     0.211 HD
ENDBRANCH   4  52
TORSDOF 16
ENDMDL
MODEL 9
REMARK VINA RESULT:    -5.823      2.582      5.387
REMARK INTER + INTRA:         -12.425
REMARK INTER:                  -9.264
REMARK INTRA:                  -3.161
REMARK UNBOUND:                -2.857
REMARK SMILES C[C@H]1O[C@H](OC[C@@H]2O[C@@H](Oc3c(-c4ccc(O)c(O)c4)oc4cc(O)cc(O)c4c3=O)[C@@H](O)[C@@H](O)[C@@H]2O)[C@@H](O)[C@H](O)[C@H]1O
REMARK SMILES IDX 7 1 36 2 34 3 32 4 9 5 8 6 6 7 5 8 4 9 1 10 2 11 42 12 3 13
REMARK SMILES IDX 40 14 38 15 43 16 41 18 39 20 37 22 35 24 10 26 11 27 12 28
REMARK SMILES IDX 30 29 21 30 29 31 31 32 22 33 27 34 23 35 26 36 24 37 13 38
REMARK SMILES IDX 20 39 14 40 18 41 15 42 16 43 19 44 17 46 28 48 25 50 33 52
REMARK H PARENT 43 17 41 19 39 21 37 23 35 25 19 45 17 47 28 49 25 51 33 53
REMARK Flexibility Score: inf
ROOT
ATOM      1  C   UNL     1      73.313  43.561   7.029  1.00  0.00     0.180 C 
ATOM      2  C   UNL     1      74.415  44.501   6.467  1.00  0.00     0.177 C 
ATOM      3  C   UNL     1      73.868  45.936   6.301  1.00  0.00     0.180 C 
ATOM      4  C   UNL     1      72.503  45.912   5.581  1.00  0.00     0.214 C 
ATOM      5  C   UNL     1      71.550  44.859   6.190  1.00  0.00     0.339 C 
ATOM      6  O   UNL     1      72.156  43.576   6.205  1.00  0.00    -0.332 OA
ENDROOT
BRANCH   1   7
ATOM      7  C   UNL     1      73.816  42.118   7.157  1.00  0.00     0.198 C 
BRANCH   7   8
ATOM      8  O   UNL     1      73.844  41.517   5.880  1.00  0.00    -0.347 OA
BRANCH   8   9
ATOM      9  C   UNL     1      73.844  40.103   5.993  1.00  0.00     0.281 C 
ATOM     10  C   UNL     1      70.770  39.403   4.086  1.00  0.00     0.041 C 
ATOM     11  C   UNL     1      72.208  39.865   4.324  1.00  0.00     0.150 C 
ATOM     12  C   UNL     1      73.179  39.204   3.320  1.00  0.00     0.174 C 
ATOM     13  O   UNL     1      72.572  39.559   5.661  1.00  0.00    -0.344 OA
ATOM     14  C   UNL     1      74.618  39.675   3.606  1.00  0.00     0.179 C 
ATOM     15  C   UNL     1      74.957  39.507   5.101  1.00  0.00     0.202 C 
BRANCH  12  16
ATOM     16  O   UNL     1      73.094  37.804   3.419  1.00  0.00    -0.388 OA
ATOM     17  H   UNL     1      72.785  37.601   4.341  1.00  0.00     0.211 HD
ENDBRANCH  12  16
BRANCH  14  18
ATOM     18  O   UNL     1      74.748  41.019   3.220  1.00  0.00    -0.387 OA
ATOM     19  H   UNL     1      73.850  41.323   2.919  1.00  0.00     0.211 HD
ENDBRANCH  14  18
BRANCH  15  20
ATOM     20  O   UNL     1      75.121  38.141   5.389  1.00  0.00    -0.385 OA
ATOM     21  H   UNL     1      74.659  37.972   6.251  1.00  0.00     0.211 HD
ENDBRANCH  15  20
ENDBRANCH   8   9
ENDBRANCH   7   8
ENDBRANCH   1   7
BRANCH   2  22
ATOM     22  O   UNL     1      74.947  44.031   5.251  1.00  0.00    -0.387 OA
ATOM     23  H   UNL     1      74.818  43.047   5.217  1.00  0.00     0.211 HD
ENDBRANCH   2  22
BRANCH   3  24
ATOM     24  O   UNL     1      73.740  46.544   7.562  1.00  0.00    -0.387 OA
ATOM     25  H   UNL     1      73.656  47.520   7.409  1.00  0.00     0.211 HD
ENDBRANCH   3  24
BRANCH   5  26
ATOM     26  O   UNL     1      71.136  45.236   7.510  1.00  0.00    -0.454 OA
BRANCH  26  27
ATOM     27  C   UNL     1      69.828  45.568   7.895  1.00  0.00     0.214 A 
ATOM     28  C   UNL     1      68.935  44.532   8.221  1.00  0.00     0.180 A 
ATOM     29  C   UNL     1      69.370  46.896   7.963  1.00  0.00     0.239 A 
ATOM     30  O   UNL     1      67.724  44.816   8.690  1.00  0.00    -0.452 OA
ATOM     31  C   UNL     1      68.079  47.161   8.466  1.00  0.00     0.111 A 
ATOM     32  O   UNL     1      70.100  47.834   7.540  1.00  0.00    -0.285 OA
ATOM     33  C   UNL     1      67.275  46.057   8.835  1.00  0.00     0.146 A 
ATOM     34  C   UNL     1      67.562  48.471   8.616  1.00  0.00     0.134 A 
ATOM     35  C   UNL     1      65.990  46.260   9.348  1.00  0.00     0.094 A 
ATOM     36  C   UNL     1      66.268  48.653   9.131  1.00  0.00     0.093 A 
ATOM     37  C   UNL     1      65.484  47.554   9.496  1.00  0.00     0.123 A 
BRANCH  28  38
ATOM     38  C   UNL     1      69.316  43.112   8.073  1.00  0.00     0.025 A 
ATOM     39  C   UNL     1      70.150  42.511   9.026  1.00  0.00     0.062 A 
ATOM     40  C   UNL     1      68.829  42.344   7.005  1.00  0.00     0.016 A 
ATOM     41  C   UNL     1      70.539  41.172   8.897  1.00  0.00     0.158 A 
ATOM     42  C   UNL     1      69.205  41.006   6.872  1.00  0.00     0.051 A 
ATOM     43  C   UNL     1      70.066  40.410   7.802  1.00  0.00     0.157 A 
BRANCH  41  44
ATOM     44  O   UNL     1      71.392  40.645   9.867  1.00  0.00    -0.504 OA
ATOM     45  H   UNL     1      72.159  40.020   9.664  1.00  0.00     0.293 HD
ENDBRANCH  41  44
BRANCH  43  46
ATOM     46  O   UNL     1      70.420  39.075   7.601  1.00  0.00    -0.504 OA
ATOM     47  H   UNL     1      71.271  38.658   7.947  1.00  0.00     0.293 HD
ENDBRANCH  43  46
ENDBRANCH  28  38
BRANCH  34  48
ATOM     48  O   UNL     1      68.323  49.588   8.267  1.00  0.00    -0.507 OA
ATOM     49  H   UNL     1      68.177  50.492   8.703  1.00  0.00     0.293 HD
ENDBRANCH  34  48
BRANCH  37  50
ATOM     50  O   UNL     1      64.199  47.735  10.001  1.00  0.00    -0.508 OA
ATOM     51  H   UNL     1      63.387  47.730   9.398  1.00  0.00     0.293 HD
ENDBRANCH  37  50
ENDBRANCH  26  27
ENDBRANCH   5  26
BRANCH   4  52
ATOM     52  O   UNL     1      71.911  47.190   5.543  1.00  0.00    -0.384 OA
ATOM     53  H   UNL     1      72.454  47.803   6.101  1.00  0.00     0.211 HD
ENDBRANCH   4  52
TORSDOF 16
ENDMDL
