MODEL 1
REMARK VINA RESULT:    -7.801      0.000      0.000
REMARK INTER + INTRA:         -17.407
REMARK INTER:                 -14.870
REMARK INTRA:                  -2.537
REMARK UNBOUND:                -2.537
REMARK SMILES C[C@@H]1O[C@@H](O[C@@H]2[C@@H](O)[C@@H](OCCc3ccc(O)c(O)c3)O[C@@H](CO)[C@@H]2OC(=O)C=Cc2ccc(O)c(O)c2)[C@H](O)[C@@H](O)[C@H]1O
REMARK SMILES IDX 6 1 7 2 9 3 21 4 22 5 25 6 5 7 4 8 1 9 2 10 43 11 3 12 41 13
REMARK SMILES IDX 39 14 44 15 42 17 40 19 8 21 26 23 27 24 28 25 29 26 30 27
REMARK SMILES IDX 31 28 38 29 32 30 36 31 33 32 34 33 37 34 35 36 10 38 11 39
REMARK SMILES IDX 12 40 13 41 20 42 14 43 18 44 15 45 16 46 19 47 17 49 23 51
REMARK SMILES IDX 24 52
REMARK H PARENT 44 16 42 18 40 20 8 22 37 35 35 37 19 48 17 50 24 53
REMARK Flexibility Score: inf
ROOT
ATOM      1  C   UNL     1      15.622  24.904  43.720  1.00  0.00     0.199 C 
ATOM      2  C   UNL     1      16.805  25.891  43.483  1.00  0.00     0.203 C 
ATOM      3  C   UNL     1      16.885  26.552  42.060  1.00  0.00     0.282 C 
ATOM      4  O   UNL     1      16.142  25.958  41.015  1.00  0.00    -0.340 OA
ATOM      5  C   UNL     1      14.877  25.462  41.369  1.00  0.00     0.190 C 
ATOM      6  C   UNL     1      15.034  24.340  42.426  1.00  0.00     0.240 C 
ENDROOT
BRANCH   1   7
ATOM      7  O   UNL     1      14.712  25.273  44.776  1.00  0.00    -0.340 OA
BRANCH   7   8
ATOM      8  C   UNL     1      14.823  24.553  45.986  1.00  0.00     0.282 C 
ATOM      9  C   UNL     1      12.942  26.853  48.162  1.00  0.00     0.041 C 
ATOM     10  C   UNL     1      14.129  26.368  47.311  1.00  0.00     0.150 C 
ATOM     11  C   UNL     1      15.465  26.508  48.088  1.00  0.00     0.174 C 
ATOM     12  O   UNL     1      13.895  25.017  46.951  1.00  0.00    -0.344 OA
ATOM     13  C   UNL     1      16.641  25.883  47.319  1.00  0.00     0.179 C 
ATOM     14  C   UNL     1      16.257  24.583  46.568  1.00  0.00     0.202 C 
BRANCH  11  15
ATOM     15  O   UNL     1      15.740  27.881  48.308  1.00  0.00    -0.388 OA
ATOM     16  H   UNL     1      16.016  28.014  49.251  1.00  0.00     0.211 HD
ENDBRANCH  11  15
BRANCH  13  17
ATOM     17  O   UNL     1      17.322  26.802  46.463  1.00  0.00    -0.387 OA
ATOM     18  H   UNL     1      17.924  27.389  47.012  1.00  0.00     0.211 HD
ENDBRANCH  13  17
BRANCH  14  19
ATOM     19  O   UNL     1      16.381  23.490  47.452  1.00  0.00    -0.385 OA
ATOM     20  H   UNL     1      15.636  23.569  48.096  1.00  0.00     0.211 HD
ENDBRANCH  14  19
ENDBRANCH   7   8
ENDBRANCH   1   7
BRANCH   2  21
ATOM     21  O   UNL     1      18.029  25.244  43.797  1.00  0.00    -0.385 OA
ATOM     22  H   UNL     1      18.027  24.336  43.382  1.00  0.00     0.211 HD
ENDBRANCH   2  21
BRANCH   6  23
ATOM     23  O   UNL     1      13.826  23.631  42.699  1.00  0.00    -0.453 OA
BRANCH  23  24
ATOM     24  C   UNL     1      13.797  22.230  42.757  1.00  0.00     0.331 C 
ATOM     25  O   UNL     1      12.956  21.582  42.064  1.00  0.00    -0.247 OA
BRANCH  24  26
ATOM     26  C   UNL     1      14.805  21.469  43.503  1.00  0.00     0.094 C 
ATOM     27  C   UNL     1      14.621  20.206  43.895  1.00  0.00     0.016 C 
BRANCH  27  28
ATOM     28  C   UNL     1      15.504  19.558  44.910  1.00  0.00    -0.021 A 
ATOM     29  C   UNL     1      15.910  20.310  46.027  1.00  0.00     0.058 A 
ATOM     30  C   UNL     1      16.079  18.294  44.689  1.00  0.00     0.012 A 
ATOM     31  C   UNL     1      16.820  19.787  46.951  1.00  0.00     0.157 A 
ATOM     32  C   UNL     1      17.004  17.777  45.590  1.00  0.00     0.051 A 
ATOM     33  C   UNL     1      17.366  18.494  46.731  1.00  0.00     0.157 A 
BRANCH  31  34
ATOM     34  O   UNL     1      17.141  20.555  48.064  1.00  0.00    -0.504 OA
ATOM     35  H   UNL     1      17.584  20.153  48.913  1.00  0.00     0.293 HD
ENDBRANCH  31  34
BRANCH  33  36
ATOM     36  O   UNL     1      18.317  17.913  47.587  1.00  0.00    -0.504 OA
ATOM     37  H   UNL     1      18.619  16.953  47.513  1.00  0.00     0.293 HD
ENDBRANCH  33  36
ENDBRANCH  27  28
ENDBRANCH  24  26
ENDBRANCH  23  24
ENDBRANCH   6  23
BRANCH   3  38
ATOM     38  O   UNL     1      18.227  26.814  41.626  1.00  0.00    -0.350 OA
BRANCH  38  39
ATOM     39  C   UNL     1      18.733  26.105  40.489  1.00  0.00     0.168 C 
BRANCH  39  40
ATOM     40  C   UNL     1      19.974  25.210  40.729  1.00  0.00     0.064 C 
BRANCH  40  41
ATOM     41  C   UNL     1      19.997  23.871  40.004  1.00  0.00    -0.042 A 
ATOM     42  C   UNL     1      19.598  23.852  38.645  1.00  0.00     0.054 A 
ATOM     43  C   UNL     1      20.586  22.723  40.536  1.00  0.00     0.008 A 
ATOM     44  C   UNL     1      19.767  22.722  37.859  1.00  0.00     0.157 A 
ATOM     45  C   UNL     1      20.699  21.551  39.745  1.00  0.00     0.050 A 
ATOM     46  C   UNL     1      20.307  21.553  38.407  1.00  0.00     0.157 A 
BRANCH  44  47
ATOM     47  O   UNL     1      19.453  22.752  36.498  1.00  0.00    -0.504 OA
ATOM     48  H   UNL     1      20.171  22.947  35.811  1.00  0.00     0.293 HD
ENDBRANCH  44  47
BRANCH  46  49
ATOM     49  O   UNL     1      20.460  20.414  37.595  1.00  0.00    -0.504 OA
ATOM     50  H   UNL     1      19.637  19.989  37.158  1.00  0.00     0.293 HD
ENDBRANCH  46  49
ENDBRANCH  40  41
ENDBRANCH  39  40
ENDBRANCH  38  39
ENDBRANCH   3  38
BRANCH   5  51
ATOM     51  C   UNL     1      14.234  24.911  40.083  1.00  0.00     0.192 C 
BRANCH  51  52
ATOM     52  O   UNL     1      15.159  24.104  39.393  1.00  0.00    -0.394 OA
ATOM     53  H   UNL     1      15.014  24.239  38.412  1.00  0.00     0.210 HD
ENDBRANCH  51  52
ENDBRANCH   5  51
TORSDOF 20
ENDMDL
MODEL 2
REMARK VINA RESULT:    -7.553      2.754      9.323
REMARK INTER + INTRA:         -16.933
REMARK INTER:                 -14.159
REMARK INTRA:                  -2.774
REMARK UNBOUND:                -2.537
REMARK SMILES C[C@@H]1O[C@@H](O[C@@H]2[C@@H](O)[C@@H](OCCc3ccc(O)c(O)c3)O[C@@H](CO)[C@@H]2OC(=O)C=Cc2ccc(O)c(O)c2)[C@H](O)[C@@H](O)[C@H]1O
REMARK SMILES IDX 6 1 7 2 9 3 21 4 22 5 25 6 5 7 4 8 1 9 2 10 43 11 3 12 41 13
REMARK SMILES IDX 39 14 44 15 42 17 40 19 8 21 26 23 27 24 28 25 29 26 30 27
REMARK SMILES IDX 31 28 38 29 32 30 36 31 33 32 34 33 37 34 35 36 10 38 11 39
REMARK SMILES IDX 12 40 13 41 20 42 14 43 18 44 15 45 16 46 19 47 17 49 23 51
REMARK SMILES IDX 24 52
REMARK H PARENT 44 16 42 18 40 20 8 22 37 35 35 37 19 48 17 50 24 53
REMARK Flexibility Score: inf
ROOT
ATOM      1  C   UNL     1      16.705  25.152  44.070  1.00  0.00     0.199 C 
ATOM      2  C   UNL     1      16.106  24.626  45.410  1.00  0.00     0.203 C 
ATOM      3  C   UNL     1      16.130  25.626  46.622  1.00  0.00     0.282 C 
ATOM      4  O   UNL     1      16.989  26.745  46.536  1.00  0.00    -0.340 OA
ATOM      5  C   UNL     1      17.087  27.344  45.270  1.00  0.00     0.190 C 
ATOM      6  C   UNL     1      17.666  26.327  44.255  1.00  0.00     0.240 C 
ENDROOT
BRANCH   1   7
ATOM      7  O   UNL     1      15.789  25.191  42.958  1.00  0.00    -0.340 OA
BRANCH   7   8
ATOM      8  C   UNL     1      15.549  23.969  42.292  1.00  0.00     0.282 C 
ATOM      9  C   UNL     1      15.910  25.158  38.824  1.00  0.00     0.041 C 
ATOM     10  C   UNL     1      15.234  24.993  40.197  1.00  0.00     0.150 C 
ATOM     11  C   UNL     1      13.751  24.562  40.039  1.00  0.00     0.174 C 
ATOM     12  O   UNL     1      15.963  24.028  40.938  1.00  0.00    -0.344 OA
ATOM     13  C   UNL     1      13.104  24.236  41.395  1.00  0.00     0.179 C 
ATOM     14  C   UNL     1      14.069  23.525  42.378  1.00  0.00     0.202 C 
BRANCH  11  15
ATOM     15  O   UNL     1      13.021  25.607  39.422  1.00  0.00    -0.388 OA
ATOM     16  H   UNL     1      12.928  26.362  40.056  1.00  0.00     0.211 HD
ENDBRANCH  11  15
BRANCH  13  17
ATOM     17  O   UNL     1      12.462  25.355  42.010  1.00  0.00    -0.387 OA
ATOM     18  H   UNL     1      12.597  25.315  43.004  1.00  0.00     0.211 HD
ENDBRANCH  13  17
BRANCH  14  19
ATOM     19  O   UNL     1      14.027  22.135  42.134  1.00  0.00    -0.385 OA
ATOM     20  H   UNL     1      13.236  21.794  42.616  1.00  0.00     0.211 HD
ENDBRANCH  14  19
ENDBRANCH   7   8
ENDBRANCH   1   7
BRANCH   2  21
ATOM     21  O   UNL     1      16.738  23.406  45.762  1.00  0.00    -0.385 OA
ATOM     22  H   UNL     1      16.357  22.674  45.200  1.00  0.00     0.211 HD
ENDBRANCH   2  21
BRANCH   6  23
ATOM     23  O   UNL     1      17.997  26.898  42.990  1.00  0.00    -0.453 OA
BRANCH  23  24
ATOM     24  C   UNL     1      19.230  26.643  42.372  1.00  0.00     0.331 C 
ATOM     25  O   UNL     1      20.294  27.149  42.842  1.00  0.00    -0.247 OA
BRANCH  24  26
ATOM     26  C   UNL     1      19.353  25.692  41.262  1.00  0.00     0.094 C 
ATOM     27  C   UNL     1      19.264  24.370  41.422  1.00  0.00     0.016 C 
BRANCH  27  28
ATOM     28  C   UNL     1      19.700  23.415  40.360  1.00  0.00    -0.021 A 
ATOM     29  C   UNL     1      19.116  23.514  39.085  1.00  0.00     0.058 A 
ATOM     30  C   UNL     1      20.533  22.320  40.649  1.00  0.00     0.012 A 
ATOM     31  C   UNL     1      19.410  22.579  38.087  1.00  0.00     0.157 A 
ATOM     32  C   UNL     1      20.811  21.373  39.670  1.00  0.00     0.051 A 
ATOM     33  C   UNL     1      20.282  21.497  38.385  1.00  0.00     0.157 A 
BRANCH  31  34
ATOM     34  O   UNL     1      18.845  22.760  36.830  1.00  0.00    -0.504 OA
ATOM     35  H   UNL     1      18.891  23.663  36.320  1.00  0.00     0.293 HD
ENDBRANCH  31  34
BRANCH  33  36
ATOM     36  O   UNL     1      20.595  20.492  37.454  1.00  0.00    -0.504 OA
ATOM     37  H   UNL     1      20.385  20.562  36.470  1.00  0.00     0.293 HD
ENDBRANCH  33  36
ENDBRANCH  27  28
ENDBRANCH  24  26
ENDBRANCH  23  24
ENDBRANCH   6  23
BRANCH   3  38
ATOM     38  O   UNL     1      16.287  24.978  47.893  1.00  0.00    -0.350 OA
BRANCH  38  39
ATOM     39  C   UNL     1      15.149  24.875  48.757  1.00  0.00     0.168 C 
BRANCH  39  40
ATOM     40  C   UNL     1      14.776  26.144  49.562  1.00  0.00     0.064 C 
BRANCH  40  41
ATOM     41  C   UNL     1      15.464  26.322  50.909  1.00  0.00    -0.042 A 
ATOM     42  C   UNL     1      15.949  27.614  51.233  1.00  0.00     0.054 A 
ATOM     43  C   UNL     1      15.447  25.352  51.911  1.00  0.00     0.008 A 
ATOM     44  C   UNL     1      16.415  27.911  52.505  1.00  0.00     0.157 A 
ATOM     45  C   UNL     1      15.983  25.645  53.192  1.00  0.00     0.050 A 
ATOM     46  C   UNL     1      16.450  26.923  53.495  1.00  0.00     0.157 A 
BRANCH  44  47
ATOM     47  O   UNL     1      16.804  29.213  52.831  1.00  0.00    -0.504 OA
ATOM     48  H   UNL     1      16.240  30.002  52.543  1.00  0.00     0.293 HD
ENDBRANCH  44  47
BRANCH  46  49
ATOM     49  O   UNL     1      16.937  27.243  54.776  1.00  0.00    -0.504 OA
ATOM     50  H   UNL     1      17.784  27.811  54.869  1.00  0.00     0.293 HD
ENDBRANCH  46  49
ENDBRANCH  40  41
ENDBRANCH  39  40
ENDBRANCH  38  39
ENDBRANCH   3  38
BRANCH   5  51
ATOM     51  C   UNL     1      18.024  28.557  45.419  1.00  0.00     0.192 C 
BRANCH  51  52
ATOM     52  O   UNL     1      19.366  28.131  45.392  1.00  0.00    -0.394 OA
ATOM     53  H   UNL     1      19.721  28.170  46.327  1.00  0.00     0.210 HD
ENDBRANCH  51  52
ENDBRANCH   5  51
TORSDOF 20
ENDMDL
MODEL 3
REMARK VINA RESULT:    -7.522      2.459      6.058
REMARK INTER + INTRA:         -16.874
REMARK INTER:                 -14.614
REMARK INTRA:                  -2.261
REMARK UNBOUND:                -2.537
REMARK SMILES C[C@@H]1O[C@@H](O[C@@H]2[C@@H](O)[C@@H](OCCc3ccc(O)c(O)c3)O[C@@H](CO)[C@@H]2OC(=O)C=Cc2ccc(O)c(O)c2)[C@H](O)[C@@H](O)[C@H]1O
REMARK SMILES IDX 6 1 7 2 9 3 21 4 22 5 25 6 5 7 4 8 1 9 2 10 43 11 3 12 41 13
REMARK SMILES IDX 39 14 44 15 42 17 40 19 8 21 26 23 27 24 28 25 29 26 30 27
REMARK SMILES IDX 31 28 38 29 32 30 36 31 33 32 34 33 37 34 35 36 10 38 11 39
REMARK SMILES IDX 12 40 13 41 20 42 14 43 18 44 15 45 16 46 19 47 17 49 23 51
REMARK SMILES IDX 24 52
REMARK H PARENT 44 16 42 18 40 20 8 22 37 35 35 37 19 48 17 50 24 53
REMARK Flexibility Score: inf
ROOT
ATOM      1  C   UNL     1      16.062  23.304  44.385  1.00  0.00     0.199 C 
ATOM      2  C   UNL     1      16.246  22.995  42.869  1.00  0.00     0.203 C 
ATOM      3  C   UNL     1      17.240  23.926  42.086  1.00  0.00     0.282 C 
ATOM      4  O   UNL     1      17.598  25.157  42.681  1.00  0.00    -0.340 OA
ATOM      5  C   UNL     1      17.781  25.132  44.073  1.00  0.00     0.190 C 
ATOM      6  C   UNL     1      16.454  24.733  44.765  1.00  0.00     0.240 C 
ENDROOT
BRANCH   1   7
ATOM      7  O   UNL     1      16.429  22.237  45.283  1.00  0.00    -0.340 OA
BRANCH   7   8
ATOM      8  C   UNL     1      15.370  21.550  45.915  1.00  0.00     0.282 C 
ATOM      9  C   UNL     1      16.777  21.388  49.315  1.00  0.00     0.041 C 
ATOM     10  C   UNL     1      16.641  21.028  47.824  1.00  0.00     0.150 C 
ATOM     11  C   UNL     1      16.589  19.490  47.626  1.00  0.00     0.174 C 
ATOM     12  O   UNL     1      15.463  21.640  47.326  1.00  0.00    -0.344 OA
ATOM     13  C   UNL     1      16.292  19.112  46.165  1.00  0.00     0.179 C 
ATOM     14  C   UNL     1      15.280  20.066  45.481  1.00  0.00     0.202 C 
BRANCH  11  15
ATOM     15  O   UNL     1      17.833  18.925  48.002  1.00  0.00    -0.388 OA
ATOM     16  H   UNL     1      18.564  19.396  47.528  1.00  0.00     0.211 HD
ENDBRANCH  11  15
BRANCH  13  17
ATOM     17  O   UNL     1      17.465  18.934  45.368  1.00  0.00    -0.387 OA
ATOM     18  H   UNL     1      17.249  19.127  44.406  1.00  0.00     0.211 HD
ENDBRANCH  13  17
BRANCH  14  19
ATOM     19  O   UNL     1      13.971  19.620  45.760  1.00  0.00    -0.385 OA
ATOM     20  H   UNL     1      13.839  19.738  46.731  1.00  0.00     0.211 HD
ENDBRANCH  14  19
ENDBRANCH   7   8
ENDBRANCH   1   7
BRANCH   2  21
ATOM     21  O   UNL     1      14.977  22.979  42.233  1.00  0.00    -0.385 OA
ATOM     22  H   UNL     1      14.471  22.178  42.549  1.00  0.00     0.211 HD
ENDBRANCH   2  21
BRANCH   6  23
ATOM     23  O   UNL     1      16.477  24.878  46.185  1.00  0.00    -0.453 OA
BRANCH  23  24
ATOM     24  C   UNL     1      15.342  25.297  46.896  1.00  0.00     0.331 C 
ATOM     25  O   UNL     1      14.264  25.554  46.279  1.00  0.00    -0.247 OA
BRANCH  24  26
ATOM     26  C   UNL     1      15.319  25.325  48.362  1.00  0.00     0.094 C 
ATOM     27  C   UNL     1      15.113  26.441  49.066  1.00  0.00     0.016 C 
BRANCH  27  28
ATOM     28  C   UNL     1      15.404  26.516  50.528  1.00  0.00    -0.021 A 
ATOM     29  C   UNL     1      15.973  27.696  51.041  1.00  0.00     0.058 A 
ATOM     30  C   UNL     1      15.295  25.390  51.362  1.00  0.00     0.012 A 
ATOM     31  C   UNL     1      16.362  27.780  52.381  1.00  0.00     0.157 A 
ATOM     32  C   UNL     1      15.703  25.457  52.690  1.00  0.00     0.051 A 
ATOM     33  C   UNL     1      16.214  26.642  53.220  1.00  0.00     0.157 A 
BRANCH  31  34
ATOM     34  O   UNL     1      16.868  28.990  52.845  1.00  0.00    -0.504 OA
ATOM     35  H   UNL     1      16.674  29.894  52.374  1.00  0.00     0.293 HD
ENDBRANCH  31  34
BRANCH  33  36
ATOM     36  O   UNL     1      16.619  26.629  54.566  1.00  0.00    -0.504 OA
ATOM     37  H   UNL     1      17.197  27.345  54.979  1.00  0.00     0.293 HD
ENDBRANCH  33  36
ENDBRANCH  27  28
ENDBRANCH  24  26
ENDBRANCH  23  24
ENDBRANCH   6  23
BRANCH   3  38
ATOM     38  O   UNL     1      16.871  24.129  40.714  1.00  0.00    -0.350 OA
BRANCH  38  39
ATOM     39  C   UNL     1      17.254  25.351  40.072  1.00  0.00     0.168 C 
BRANCH  39  40
ATOM     40  C   UNL     1      18.714  25.435  39.564  1.00  0.00     0.064 C 
BRANCH  40  41
ATOM     41  C   UNL     1      19.288  24.175  38.929  1.00  0.00    -0.042 A 
ATOM     42  C   UNL     1      20.113  23.351  39.734  1.00  0.00     0.054 A 
ATOM     43  C   UNL     1      18.877  23.688  37.688  1.00  0.00     0.008 A 
ATOM     44  C   UNL     1      20.521  22.098  39.302  1.00  0.00     0.157 A 
ATOM     45  C   UNL     1      19.349  22.432  37.226  1.00  0.00     0.050 A 
ATOM     46  C   UNL     1      20.154  21.631  38.035  1.00  0.00     0.157 A 
BRANCH  44  47
ATOM     47  O   UNL     1      21.257  21.263  40.147  1.00  0.00    -0.504 OA
ATOM     48  H   UNL     1      21.903  20.586  39.761  1.00  0.00     0.293 HD
ENDBRANCH  44  47
BRANCH  46  49
ATOM     49  O   UNL     1      20.589  20.361  37.612  1.00  0.00    -0.504 OA
ATOM     50  H   UNL     1      21.583  20.203  37.424  1.00  0.00     0.293 HD
ENDBRANCH  46  49
ENDBRANCH  40  41
ENDBRANCH  39  40
ENDBRANCH  38  39
ENDBRANCH   3  38
BRANCH   5  51
ATOM     51  C   UNL     1      18.210  26.549  44.495  1.00  0.00     0.192 C 
BRANCH  51  52
ATOM     52  O   UNL     1      18.803  26.510  45.771  1.00  0.00    -0.394 OA
ATOM     53  H   UNL     1      18.276  27.110  46.374  1.00  0.00     0.210 HD
ENDBRANCH  51  52
ENDBRANCH   5  51
TORSDOF 20
ENDMDL
MODEL 4
REMARK VINA RESULT:    -7.509      0.907      1.908
REMARK INTER + INTRA:         -16.850
REMARK INTER:                 -14.211
REMARK INTRA:                  -2.639
REMARK UNBOUND:                -2.537
REMARK SMILES C[C@@H]1O[C@@H](O[C@@H]2[C@@H](O)[C@@H](OCCc3ccc(O)c(O)c3)O[C@@H](CO)[C@@H]2OC(=O)C=Cc2ccc(O)c(O)c2)[C@H](O)[C@@H](O)[C@H]1O
REMARK SMILES IDX 6 1 7 2 9 3 21 4 22 5 25 6 5 7 4 8 1 9 2 10 43 11 3 12 41 13
REMARK SMILES IDX 39 14 44 15 42 17 40 19 8 21 26 23 27 24 28 25 29 26 30 27
REMARK SMILES IDX 31 28 38 29 32 30 36 31 33 32 34 33 37 34 35 36 10 38 11 39
REMARK SMILES IDX 12 40 13 41 20 42 14 43 18 44 15 45 16 46 19 47 17 49 23 51
REMARK SMILES IDX 24 52
REMARK H PARENT 44 16 42 18 40 20 8 22 37 35 35 37 19 48 17 50 24 53
REMARK Flexibility Score: inf
ROOT
ATOM      1  C   UNL     1      15.655  24.729  43.849  1.00  0.00     0.199 C 
ATOM      2  C   UNL     1      16.839  25.725  43.665  1.00  0.00     0.203 C 
ATOM      3  C   UNL     1      16.899  26.487  42.292  1.00  0.00     0.282 C 
ATOM      4  O   UNL     1      16.137  25.972  41.219  1.00  0.00    -0.340 OA
ATOM      5  C   UNL     1      14.875  25.457  41.557  1.00  0.00     0.190 C 
ATOM      6  C   UNL     1      15.044  24.262  42.528  1.00  0.00     0.240 C 
ENDROOT
BRANCH   1   7
ATOM      7  O   UNL     1      14.763  25.024  44.944  1.00  0.00    -0.340 OA
BRANCH   7   8
ATOM      8  C   UNL     1      15.338  25.628  46.083  1.00  0.00     0.282 C 
ATOM      9  C   UNL     1      17.173  22.711  47.382  1.00  0.00     0.041 C 
ATOM     10  C   UNL     1      15.940  23.576  47.061  1.00  0.00     0.150 C 
ATOM     11  C   UNL     1      15.028  23.728  48.307  1.00  0.00     0.174 C 
ATOM     12  O   UNL     1      16.392  24.842  46.610  1.00  0.00    -0.344 OA
ATOM     13  C   UNL     1      13.878  24.717  48.056  1.00  0.00     0.179 C 
ATOM     14  C   UNL     1      14.295  25.931  47.187  1.00  0.00     0.202 C 
BRANCH  11  15
ATOM     15  O   UNL     1      14.481  22.466  48.647  1.00  0.00    -0.388 OA
ATOM     16  H   UNL     1      15.201  21.876  48.987  1.00  0.00     0.211 HD
ENDBRANCH  11  15
BRANCH  13  17
ATOM     17  O   UNL     1      12.688  24.101  47.559  1.00  0.00    -0.387 OA
ATOM     18  H   UNL     1      12.114  23.811  48.330  1.00  0.00     0.211 HD
ENDBRANCH  13  17
BRANCH  14  19
ATOM     19  O   UNL     1      14.839  26.927  48.024  1.00  0.00    -0.385 OA
ATOM     20  H   UNL     1      15.140  26.466  48.844  1.00  0.00     0.211 HD
ENDBRANCH  14  19
ENDBRANCH   7   8
ENDBRANCH   1   7
BRANCH   2  21
ATOM     21  O   UNL     1      18.064  25.053  43.913  1.00  0.00    -0.385 OA
ATOM     22  H   UNL     1      18.695  25.254  43.166  1.00  0.00     0.211 HD
ENDBRANCH   2  21
BRANCH   6  23
ATOM     23  O   UNL     1      13.837  23.539  42.769  1.00  0.00    -0.453 OA
BRANCH  23  24
ATOM     24  C   UNL     1      13.812  22.137  42.774  1.00  0.00     0.331 C 
ATOM     25  O   UNL     1      13.011  21.512  42.015  1.00  0.00    -0.247 OA
BRANCH  24  26
ATOM     26  C   UNL     1      14.784  21.352  43.543  1.00  0.00     0.094 C 
ATOM     27  C   UNL     1      14.543  20.110  43.968  1.00  0.00     0.016 C 
BRANCH  27  28
ATOM     28  C   UNL     1      15.394  19.451  45.002  1.00  0.00    -0.021 A 
ATOM     29  C   UNL     1      15.214  19.809  46.350  1.00  0.00     0.058 A 
ATOM     30  C   UNL     1      16.480  18.629  44.652  1.00  0.00     0.012 A 
ATOM     31  C   UNL     1      16.055  19.302  47.346  1.00  0.00     0.157 A 
ATOM     32  C   UNL     1      17.336  18.140  45.633  1.00  0.00     0.051 A 
ATOM     33  C   UNL     1      17.127  18.445  46.978  1.00  0.00     0.157 A 
BRANCH  31  34
ATOM     34  O   UNL     1      15.794  19.649  48.667  1.00  0.00    -0.504 OA
ATOM     35  H   UNL     1      15.253  20.496  48.927  1.00  0.00     0.293 HD
ENDBRANCH  31  34
BRANCH  33  36
ATOM     36  O   UNL     1      18.043  17.927  47.910  1.00  0.00    -0.504 OA
ATOM     37  H   UNL     1      18.881  17.430  47.649  1.00  0.00     0.293 HD
ENDBRANCH  33  36
ENDBRANCH  27  28
ENDBRANCH  24  26
ENDBRANCH  23  24
ENDBRANCH   6  23
BRANCH   3  38
ATOM     38  O   UNL     1      18.236  26.775  41.857  1.00  0.00    -0.350 OA
BRANCH  38  39
ATOM     39  C   UNL     1      18.708  26.177  40.644  1.00  0.00     0.168 C 
BRANCH  39  40
ATOM     40  C   UNL     1      20.009  25.344  40.745  1.00  0.00     0.064 C 
BRANCH  40  41
ATOM     41  C   UNL     1      20.015  24.001  40.026  1.00  0.00    -0.042 A 
ATOM     42  C   UNL     1      19.616  23.982  38.667  1.00  0.00     0.054 A 
ATOM     43  C   UNL     1      20.588  22.849  40.563  1.00  0.00     0.008 A 
ATOM     44  C   UNL     1      19.771  22.847  37.886  1.00  0.00     0.157 A 
ATOM     45  C   UNL     1      20.686  21.672  39.777  1.00  0.00     0.050 A 
ATOM     46  C   UNL     1      20.295  21.673  38.438  1.00  0.00     0.157 A 
BRANCH  44  47
ATOM     47  O   UNL     1      19.457  22.875  36.525  1.00  0.00    -0.504 OA
ATOM     48  H   UNL     1      18.585  23.281  36.209  1.00  0.00     0.293 HD
ENDBRANCH  44  47
BRANCH  46  49
ATOM     49  O   UNL     1      20.434  20.529  37.631  1.00  0.00    -0.504 OA
ATOM     50  H   UNL     1      21.247  19.919  37.753  1.00  0.00     0.293 HD
ENDBRANCH  46  49
ENDBRANCH  40  41
ENDBRANCH  39  40
ENDBRANCH  38  39
ENDBRANCH   3  38
BRANCH   5  51
ATOM     51  C   UNL     1      14.210  25.003  40.245  1.00  0.00     0.192 C 
BRANCH  51  52
ATOM     52  O   UNL     1      15.065  24.124  39.554  1.00  0.00    -0.394 OA
ATOM     53  H   UNL     1      14.496  23.471  39.053  1.00  0.00     0.210 HD
ENDBRANCH  51  52
ENDBRANCH   5  51
TORSDOF 20
ENDMDL
MODEL 5
REMARK VINA RESULT:    -7.500      1.881      7.024
REMARK INTER + INTRA:         -16.834
REMARK INTER:                 -14.273
REMARK INTRA:                  -2.561
REMARK UNBOUND:                -2.537
REMARK SMILES C[C@@H]1O[C@@H](O[C@@H]2[C@@H](O)[C@@H](OCCc3ccc(O)c(O)c3)O[C@@H](CO)[C@@H]2OC(=O)C=Cc2ccc(O)c(O)c2)[C@H](O)[C@@H](O)[C@H]1O
REMARK SMILES IDX 6 1 7 2 9 3 21 4 22 5 25 6 5 7 4 8 1 9 2 10 43 11 3 12 41 13
REMARK SMILES IDX 39 14 44 15 42 17 40 19 8 21 26 23 27 24 28 25 29 26 30 27
REMARK SMILES IDX 31 28 38 29 32 30 36 31 33 32 34 33 37 34 35 36 10 38 11 39
REMARK SMILES IDX 12 40 13 41 20 42 14 43 18 44 15 45 16 46 19 47 17 49 23 51
REMARK SMILES IDX 24 52
REMARK H PARENT 44 16 42 18 40 20 8 22 37 35 35 37 19 48 17 50 24 53
REMARK Flexibility Score: inf
ROOT
ATOM      1  C   UNL     1      14.098  24.172  44.611  1.00  0.00     0.199 C 
ATOM      2  C   UNL     1      13.160  22.946  44.824  1.00  0.00     0.203 C 
ATOM      3  C   UNL     1      13.866  21.570  45.105  1.00  0.00     0.282 C 
ATOM      4  O   UNL     1      15.239  21.458  44.788  1.00  0.00    -0.340 OA
ATOM      5  C   UNL     1      16.022  22.593  45.054  1.00  0.00     0.190 C 
ATOM      6  C   UNL     1      15.519  23.784  44.201  1.00  0.00     0.240 C 
ENDROOT
BRANCH   1   7
ATOM      7  O   UNL     1      13.933  25.248  45.556  1.00  0.00    -0.340 OA
BRANCH   7   8
ATOM      8  C   UNL     1      13.804  24.883  46.914  1.00  0.00     0.282 C 
ATOM      9  C   UNL     1      12.775  28.153  48.262  1.00  0.00     0.041 C 
ATOM     10  C   UNL     1      13.740  27.111  47.668  1.00  0.00     0.150 C 
ATOM     11  C   UNL     1      15.049  27.028  48.497  1.00  0.00     0.174 C 
ATOM     12  O   UNL     1      13.078  25.857  47.645  1.00  0.00    -0.344 OA
ATOM     13  C   UNL     1      15.957  25.883  48.019  1.00  0.00     0.179 C 
ATOM     14  C   UNL     1      15.170  24.618  47.592  1.00  0.00     0.202 C 
BRANCH  11  15
ATOM     15  O   UNL     1      15.755  28.251  48.384  1.00  0.00    -0.388 OA
ATOM     16  H   UNL     1      16.447  28.298  49.092  1.00  0.00     0.211 HD
ENDBRANCH  11  15
BRANCH  13  17
ATOM     17  O   UNL     1      16.899  26.276  47.019  1.00  0.00    -0.387 OA
ATOM     18  H   UNL     1      17.237  25.461  46.539  1.00  0.00     0.211 HD
ENDBRANCH  13  17
BRANCH  14  19
ATOM     19  O   UNL     1      14.932  23.822  48.732  1.00  0.00    -0.385 OA
ATOM     20  H   UNL     1      15.270  24.336  49.505  1.00  0.00     0.211 HD
ENDBRANCH  14  19
ENDBRANCH   7   8
ENDBRANCH   1   7
BRANCH   2  21
ATOM     21  O   UNL     1      12.275  22.832  43.721  1.00  0.00    -0.385 OA
ATOM     22  H   UNL     1      12.809  22.851  42.879  1.00  0.00     0.211 HD
ENDBRANCH   2  21
BRANCH   6  23
ATOM     23  O   UNL     1      16.375  24.926  44.243  1.00  0.00    -0.453 OA
BRANCH  23  24
ATOM     24  C   UNL     1      16.975  25.433  43.081  1.00  0.00     0.331 C 
ATOM     25  O   UNL     1      16.837  26.656  42.776  1.00  0.00    -0.247 OA
BRANCH  24  26
ATOM     26  C   UNL     1      17.878  24.617  42.261  1.00  0.00     0.094 C 
ATOM     27  C   UNL     1      17.989  24.761  40.939  1.00  0.00     0.016 C 
BRANCH  27  28
ATOM     28  C   UNL     1      18.658  23.733  40.087  1.00  0.00    -0.021 A 
ATOM     29  C   UNL     1      19.764  23.040  40.612  1.00  0.00     0.058 A 
ATOM     30  C   UNL     1      18.332  23.573  38.729  1.00  0.00     0.012 A 
ATOM     31  C   UNL     1      20.490  22.145  39.821  1.00  0.00     0.157 A 
ATOM     32  C   UNL     1      19.065  22.704  37.929  1.00  0.00     0.051 A 
ATOM     33  C   UNL     1      20.126  21.968  38.459  1.00  0.00     0.157 A 
BRANCH  31  34
ATOM     34  O   UNL     1      21.539  21.447  40.411  1.00  0.00    -0.504 OA
ATOM     35  H   UNL     1      21.595  21.281  41.434  1.00  0.00     0.293 HD
ENDBRANCH  31  34
BRANCH  33  36
ATOM     36  O   UNL     1      20.829  21.122  37.585  1.00  0.00    -0.504 OA
ATOM     37  H   UNL     1      20.940  21.309  36.600  1.00  0.00     0.293 HD
ENDBRANCH  33  36
ENDBRANCH  27  28
ENDBRANCH  24  26
ENDBRANCH  23  24
ENDBRANCH   6  23
BRANCH   3  38
ATOM     38  O   UNL     1      13.145  20.443  44.589  1.00  0.00    -0.350 OA
BRANCH  38  39
ATOM     39  C   UNL     1      12.340  19.670  45.487  1.00  0.00     0.168 C 
BRANCH  39  40
ATOM     40  C   UNL     1      12.889  18.278  45.883  1.00  0.00     0.064 C 
BRANCH  40  41
ATOM     41  C   UNL     1      14.251  18.251  46.564  1.00  0.00    -0.042 A 
ATOM     42  C   UNL     1      15.394  18.094  45.742  1.00  0.00     0.054 A 
ATOM     43  C   UNL     1      14.442  18.584  47.905  1.00  0.00     0.008 A 
ATOM     44  C   UNL     1      16.675  18.247  46.250  1.00  0.00     0.157 A 
ATOM     45  C   UNL     1      15.756  18.679  48.433  1.00  0.00     0.050 A 
ATOM     46  C   UNL     1      16.870  18.527  47.607  1.00  0.00     0.157 A 
BRANCH  44  47
ATOM     47  O   UNL     1      17.785  18.178  45.405  1.00  0.00    -0.504 OA
ATOM     48  H   UNL     1      17.711  17.736  44.498  1.00  0.00     0.293 HD
ENDBRANCH  44  47
BRANCH  46  49
ATOM     49  O   UNL     1      18.178  18.668  48.106  1.00  0.00    -0.504 OA
ATOM     50  H   UNL     1      18.973  18.627  47.460  1.00  0.00     0.293 HD
ENDBRANCH  46  49
ENDBRANCH  40  41
ENDBRANCH  39  40
ENDBRANCH  38  39
ENDBRANCH   3  38
BRANCH   5  51
ATOM     51  C   UNL     1      17.473  22.233  44.684  1.00  0.00     0.192 C 
BRANCH  51  52
ATOM     52  O   UNL     1      17.515  20.951  44.102  1.00  0.00    -0.394 OA
ATOM     53  H   UNL     1      16.946  20.968  43.279  1.00  0.00     0.210 HD
ENDBRANCH  51  52
ENDBRANCH   5  51
TORSDOF 20
ENDMDL
MODEL 6
REMARK VINA RESULT:    -7.500      2.225      6.094
REMARK INTER + INTRA:         -16.833
REMARK INTER:                 -14.709
REMARK INTRA:                  -2.123
REMARK UNBOUND:                -2.537
REMARK SMILES C[C@@H]1O[C@@H](O[C@@H]2[C@@H](O)[C@@H](OCCc3ccc(O)c(O)c3)O[C@@H](CO)[C@@H]2OC(=O)C=Cc2ccc(O)c(O)c2)[C@H](O)[C@@H](O)[C@H]1O
REMARK SMILES IDX 6 1 7 2 9 3 21 4 22 5 25 6 5 7 4 8 1 9 2 10 43 11 3 12 41 13
REMARK SMILES IDX 39 14 44 15 42 17 40 19 8 21 26 23 27 24 28 25 29 26 30 27
REMARK SMILES IDX 31 28 38 29 32 30 36 31 33 32 34 33 37 34 35 36 10 38 11 39
REMARK SMILES IDX 12 40 13 41 20 42 14 43 18 44 15 45 16 46 19 47 17 49 23 51
REMARK SMILES IDX 24 52
REMARK H PARENT 44 16 42 18 40 20 8 22 37 35 35 37 19 48 17 50 24 53
REMARK Flexibility Score: inf
ROOT
ATOM      1  C   UNL     1      16.147  24.394  43.943  1.00  0.00     0.199 C 
ATOM      2  C   UNL     1      16.812  24.584  42.546  1.00  0.00     0.203 C 
ATOM      3  C   UNL     1      17.831  25.774  42.418  1.00  0.00     0.282 C 
ATOM      4  O   UNL     1      17.800  26.778  43.412  1.00  0.00    -0.340 OA
ATOM      5  C   UNL     1      17.569  26.333  44.724  1.00  0.00     0.190 C 
ATOM      6  C   UNL     1      16.179  25.655  44.807  1.00  0.00     0.240 C 
ENDROOT
BRANCH   1   7
ATOM      7  O   UNL     1      16.401  23.126  44.581  1.00  0.00    -0.340 OA
BRANCH   7   8
ATOM      8  C   UNL     1      15.298  22.254  44.716  1.00  0.00     0.282 C 
ATOM      9  C   UNL     1      15.948  21.079  48.145  1.00  0.00     0.041 C 
ATOM     10  C   UNL     1      16.170  21.195  46.626  1.00  0.00     0.150 C 
ATOM     11  C   UNL     1      16.305  19.793  45.975  1.00  0.00     0.174 C 
ATOM     12  O   UNL     1      15.076  21.906  46.071  1.00  0.00    -0.344 OA
ATOM     13  C   UNL     1      16.366  19.879  44.441  1.00  0.00     0.179 C 
ATOM     14  C   UNL     1      15.441  20.976  43.854  1.00  0.00     0.202 C 
BRANCH  11  15
ATOM     15  O   UNL     1      17.485  19.166  46.446  1.00  0.00    -0.388 OA
ATOM     16  H   UNL     1      17.244  18.349  46.953  1.00  0.00     0.211 HD
ENDBRANCH  11  15
BRANCH  13  17
ATOM     17  O   UNL     1      17.695  19.981  43.924  1.00  0.00    -0.387 OA
ATOM     18  H   UNL     1      17.699  19.709  42.957  1.00  0.00     0.211 HD
ENDBRANCH  13  17
BRANCH  14  19
ATOM     19  O   UNL     1      14.150  20.437  43.674  1.00  0.00    -0.385 OA
ATOM     20  H   UNL     1      13.758  20.351  44.576  1.00  0.00     0.211 HD
ENDBRANCH  14  19
ENDBRANCH   7   8
ENDBRANCH   1   7
BRANCH   2  21
ATOM     21  O   UNL     1      15.804  24.687  41.553  1.00  0.00    -0.385 OA
ATOM     22  H   UNL     1      15.567  23.768  41.242  1.00  0.00     0.211 HD
ENDBRANCH   2  21
BRANCH   6  23
ATOM     23  O   UNL     1      15.763  25.353  46.138  1.00  0.00    -0.453 OA
BRANCH  23  24
ATOM     24  C   UNL     1      14.455  25.614  46.573  1.00  0.00     0.331 C 
ATOM     25  O   UNL     1      13.467  25.140  45.935  1.00  0.00    -0.247 OA
BRANCH  24  26
ATOM     26  C   UNL     1      14.188  26.317  47.832  1.00  0.00     0.094 C 
ATOM     27  C   UNL     1      15.142  26.919  48.547  1.00  0.00     0.016 C 
BRANCH  27  28
ATOM     28  C   UNL     1      14.918  27.348  49.959  1.00  0.00    -0.021 A 
ATOM     29  C   UNL     1      16.038  27.582  50.777  1.00  0.00     0.058 A 
ATOM     30  C   UNL     1      13.636  27.345  50.537  1.00  0.00     0.012 A 
ATOM     31  C   UNL     1      15.884  27.882  52.134  1.00  0.00     0.157 A 
ATOM     32  C   UNL     1      13.477  27.618  51.892  1.00  0.00     0.051 A 
ATOM     33  C   UNL     1      14.579  27.910  52.696  1.00  0.00     0.157 A 
BRANCH  31  34
ATOM     34  O   UNL     1      17.025  28.159  52.879  1.00  0.00    -0.504 OA
ATOM     35  H   UNL     1      17.182  27.768  53.828  1.00  0.00     0.293 HD
ENDBRANCH  31  34
BRANCH  33  36
ATOM     36  O   UNL     1      14.341  28.160  54.057  1.00  0.00    -0.504 OA
ATOM     37  H   UNL     1      15.000  27.936  54.788  1.00  0.00     0.293 HD
ENDBRANCH  33  36
ENDBRANCH  27  28
ENDBRANCH  24  26
ENDBRANCH  23  24
ENDBRANCH   6  23
BRANCH   3  38
ATOM     38  O   UNL     1      17.851  26.369  41.113  1.00  0.00    -0.350 OA
BRANCH  38  39
ATOM     39  C   UNL     1      19.081  26.375  40.378  1.00  0.00     0.168 C 
BRANCH  39  40
ATOM     40  C   UNL     1      20.132  25.313  40.782  1.00  0.00     0.064 C 
BRANCH  40  41
ATOM     41  C   UNL     1      20.091  23.992  40.025  1.00  0.00    -0.042 A 
ATOM     42  C   UNL     1      19.683  24.025  38.669  1.00  0.00     0.054 A 
ATOM     43  C   UNL     1      20.631  22.807  40.525  1.00  0.00     0.008 A 
ATOM     44  C   UNL     1      19.796  22.908  37.855  1.00  0.00     0.157 A 
ATOM     45  C   UNL     1      20.686  21.650  39.704  1.00  0.00     0.050 A 
ATOM     46  C   UNL     1      20.287  21.703  38.369  1.00  0.00     0.157 A 
BRANCH  44  47
ATOM     47  O   UNL     1      19.475  22.985  36.497  1.00  0.00    -0.504 OA
ATOM     48  H   UNL     1      19.823  23.749  35.932  1.00  0.00     0.293 HD
ENDBRANCH  44  47
BRANCH  46  49
ATOM     49  O   UNL     1      20.383  20.578  37.529  1.00  0.00    -0.504 OA
ATOM     50  H   UNL     1      19.608  19.911  37.485  1.00  0.00     0.293 HD
ENDBRANCH  46  49
ENDBRANCH  40  41
ENDBRANCH  39  40
ENDBRANCH  38  39
ENDBRANCH   3  38
BRANCH   5  51
ATOM     51  C   UNL     1      17.626  27.573  45.635  1.00  0.00     0.192 C 
BRANCH  51  52
ATOM     52  O   UNL     1      18.784  28.322  45.351  1.00  0.00    -0.394 OA
ATOM     53  H   UNL     1      19.188  28.606  46.221  1.00  0.00     0.210 HD
ENDBRANCH  51  52
ENDBRANCH   5  51
TORSDOF 20
ENDMDL
MODEL 7
REMARK VINA RESULT:    -7.498      1.825      7.581
REMARK INTER + INTRA:         -16.828
REMARK INTER:                 -13.664
REMARK INTRA:                  -3.164
REMARK UNBOUND:                -2.537
REMARK SMILES C[C@@H]1O[C@@H](O[C@@H]2[C@@H](O)[C@@H](OCCc3ccc(O)c(O)c3)O[C@@H](CO)[C@@H]2OC(=O)C=Cc2ccc(O)c(O)c2)[C@H](O)[C@@H](O)[C@H]1O
REMARK SMILES IDX 6 1 7 2 9 3 21 4 22 5 25 6 5 7 4 8 1 9 2 10 43 11 3 12 41 13
REMARK SMILES IDX 39 14 44 15 42 17 40 19 8 21 26 23 27 24 28 25 29 26 30 27
REMARK SMILES IDX 31 28 38 29 32 30 36 31 33 32 34 33 37 34 35 36 10 38 11 39
REMARK SMILES IDX 12 40 13 41 20 42 14 43 18 44 15 45 16 46 19 47 17 49 23 51
REMARK SMILES IDX 24 52
REMARK H PARENT 44 16 42 18 40 20 8 22 37 35 35 37 19 48 17 50 24 53
REMARK Flexibility Score: inf
ROOT
ATOM      1  C   UNL     1      17.131  24.793  43.777  1.00  0.00     0.199 C 
ATOM      2  C   UNL     1      16.617  23.979  45.003  1.00  0.00     0.203 C 
ATOM      3  C   UNL     1      16.525  24.758  46.365  1.00  0.00     0.282 C 
ATOM      4  O   UNL     1      17.233  25.976  46.477  1.00  0.00    -0.340 OA
ATOM      5  C   UNL     1      17.242  26.785  45.329  1.00  0.00     0.190 C 
ATOM      6  C   UNL     1      17.936  26.033  44.167  1.00  0.00     0.240 C 
ENDROOT
BRANCH   1   7
ATOM      7  O   UNL     1      16.207  24.900  42.676  1.00  0.00    -0.340 OA
BRANCH   7   8
ATOM      8  C   UNL     1      15.786  23.690  42.083  1.00  0.00     0.282 C 
ATOM      9  C   UNL     1      15.300  24.909  38.641  1.00  0.00     0.041 C 
ATOM     10  C   UNL     1      14.982  24.741  40.138  1.00  0.00     0.150 C 
ATOM     11  C   UNL     1      13.498  24.338  40.350  1.00  0.00     0.174 C 
ATOM     12  O   UNL     1      15.852  23.755  40.669  1.00  0.00    -0.344 OA
ATOM     13  C   UNL     1      13.200  24.009  41.822  1.00  0.00     0.179 C 
ATOM     14  C   UNL     1      14.364  23.270  42.530  1.00  0.00     0.202 C 
BRANCH  11  15
ATOM     15  O   UNL     1      12.658  25.402  39.939  1.00  0.00    -0.388 OA
ATOM     16  H   UNL     1      13.030  26.260  40.267  1.00  0.00     0.211 HD
ENDBRANCH  11  15
BRANCH  13  17
ATOM     17  O   UNL     1      12.752  25.133  42.583  1.00  0.00    -0.387 OA
ATOM     18  H   UNL     1      12.740  24.893  43.558  1.00  0.00     0.211 HD
ENDBRANCH  13  17
BRANCH  14  19
ATOM     19  O   UNL     1      14.236  21.885  42.296  1.00  0.00    -0.385 OA
ATOM     20  H   UNL     1      13.298  21.655  42.501  1.00  0.00     0.211 HD
ENDBRANCH  14  19
ENDBRANCH   7   8
ENDBRANCH   1   7
BRANCH   2  21
ATOM     21  O   UNL     1      17.403  22.808  45.155  1.00  0.00    -0.385 OA
ATOM     22  H   UNL     1      16.803  22.051  45.410  1.00  0.00     0.211 HD
ENDBRANCH   2  21
BRANCH   6  23
ATOM     23  O   UNL     1      18.180  26.845  43.018  1.00  0.00    -0.453 OA
BRANCH  23  24
ATOM     24  C   UNL     1      19.434  26.865  42.390  1.00  0.00     0.331 C 
ATOM     25  O   UNL     1      20.319  27.693  42.764  1.00  0.00    -0.247 OA
BRANCH  24  26
ATOM     26  C   UNL     1      19.809  25.863  41.387  1.00  0.00     0.094 C 
ATOM     27  C   UNL     1      18.915  25.198  40.652  1.00  0.00     0.016 C 
BRANCH  27  28
ATOM     28  C   UNL     1      19.282  23.975  39.878  1.00  0.00    -0.021 A 
ATOM     29  C   UNL     1      20.173  23.054  40.457  1.00  0.00     0.058 A 
ATOM     30  C   UNL     1      18.909  23.814  38.532  1.00  0.00     0.012 A 
ATOM     31  C   UNL     1      20.631  21.948  39.734  1.00  0.00     0.157 A 
ATOM     32  C   UNL     1      19.381  22.731  37.798  1.00  0.00     0.051 A 
ATOM     33  C   UNL     1      20.218  21.781  38.385  1.00  0.00     0.157 A 
BRANCH  31  34
ATOM     34  O   UNL     1      21.467  21.042  40.378  1.00  0.00    -0.504 OA
ATOM     35  H   UNL     1      22.403  21.305  40.740  1.00  0.00     0.293 HD
ENDBRANCH  31  34
BRANCH  33  36
ATOM     36  O   UNL     1      20.665  20.723  37.576  1.00  0.00    -0.504 OA
ATOM     37  H   UNL     1      20.793  20.801  36.578  1.00  0.00     0.293 HD
ENDBRANCH  33  36
ENDBRANCH  27  28
ENDBRANCH  24  26
ENDBRANCH  23  24
ENDBRANCH   6  23
BRANCH   3  38
ATOM     38  O   UNL     1      16.774  23.933  47.512  1.00  0.00    -0.350 OA
BRANCH  38  39
ATOM     39  C   UNL     1      15.706  23.132  48.029  1.00  0.00     0.168 C 
BRANCH  39  40
ATOM     40  C   UNL     1      16.105  21.787  48.685  1.00  0.00     0.064 C 
BRANCH  40  41
ATOM     41  C   UNL     1      16.169  20.574  47.767  1.00  0.00    -0.042 A 
ATOM     42  C   UNL     1      15.442  20.631  46.552  1.00  0.00     0.054 A 
ATOM     43  C   UNL     1      17.061  19.518  47.955  1.00  0.00     0.008 A 
ATOM     44  C   UNL     1      15.593  19.657  45.576  1.00  0.00     0.157 A 
ATOM     45  C   UNL     1      17.164  18.493  46.979  1.00  0.00     0.050 A 
ATOM     46  C   UNL     1      16.446  18.569  45.786  1.00  0.00     0.157 A 
BRANCH  44  47
ATOM     47  O   UNL     1      14.938  19.779  44.348  1.00  0.00    -0.504 OA
ATOM     48  H   UNL     1      14.662  20.690  44.003  1.00  0.00     0.293 HD
ENDBRANCH  44  47
BRANCH  46  49
ATOM     49  O   UNL     1      16.577  17.587  44.787  1.00  0.00    -0.504 OA
ATOM     50  H   UNL     1      16.220  16.642  44.957  1.00  0.00     0.293 HD
ENDBRANCH  46  49
ENDBRANCH  40  41
ENDBRANCH  39  40
ENDBRANCH  38  39
ENDBRANCH   3  38
BRANCH   5  51
ATOM     51  C   UNL     1      18.019  28.065  45.690  1.00  0.00     0.192 C 
BRANCH  51  52
ATOM     52  O   UNL     1      19.393  27.875  45.451  1.00  0.00    -0.394 OA
ATOM     53  H   UNL     1      19.858  28.746  45.612  1.00  0.00     0.210 HD
ENDBRANCH  51  52
ENDBRANCH   5  51
TORSDOF 20
ENDMDL
MODEL 8
REMARK VINA RESULT:    -7.420      2.445      7.881
REMARK INTER + INTRA:         -16.680
REMARK INTER:                 -14.257
REMARK INTRA:                  -2.423
REMARK UNBOUND:                -2.537
REMARK SMILES C[C@@H]1O[C@@H](O[C@@H]2[C@@H](O)[C@@H](OCCc3ccc(O)c(O)c3)O[C@@H](CO)[C@@H]2OC(=O)C=Cc2ccc(O)c(O)c2)[C@H](O)[C@@H](O)[C@H]1O
REMARK SMILES IDX 6 1 7 2 9 3 21 4 22 5 25 6 5 7 4 8 1 9 2 10 43 11 3 12 41 13
REMARK SMILES IDX 39 14 44 15 42 17 40 19 8 21 26 23 27 24 28 25 29 26 30 27
REMARK SMILES IDX 31 28 38 29 32 30 36 31 33 32 34 33 37 34 35 36 10 38 11 39
REMARK SMILES IDX 12 40 13 41 20 42 14 43 18 44 15 45 16 46 19 47 17 49 23 51
REMARK SMILES IDX 24 52
REMARK H PARENT 44 16 42 18 40 20 8 22 37 35 35 37 19 48 17 50 24 53
REMARK Flexibility Score: inf
ROOT
ATOM      1  C   UNL     1      16.102  22.277  45.313  1.00  0.00     0.199 C 
ATOM      2  C   UNL     1      15.211  22.780  46.489  1.00  0.00     0.203 C 
ATOM      3  C   UNL     1      14.093  23.820  46.118  1.00  0.00     0.282 C 
ATOM      4  O   UNL     1      14.200  24.488  44.877  1.00  0.00    -0.340 OA
ATOM      5  C   UNL     1      14.670  23.714  43.804  1.00  0.00     0.190 C 
ATOM      6  C   UNL     1      16.106  23.220  44.109  1.00  0.00     0.240 C 
ENDROOT
BRANCH   1   7
ATOM      7  O   UNL     1      16.056  20.858  45.065  1.00  0.00    -0.340 OA
BRANCH   7   8
ATOM      8  C   UNL     1      15.211  20.097  45.903  1.00  0.00     0.282 C 
ATOM      9  C   UNL     1      17.237  20.217  48.976  1.00  0.00     0.041 C 
ATOM     10  C   UNL     1      16.863  19.783  47.547  1.00  0.00     0.150 C 
ATOM     11  C   UNL     1      16.936  18.240  47.397  1.00  0.00     0.174 C 
ATOM     12  O   UNL     1      15.556  20.255  47.268  1.00  0.00    -0.344 OA
ATOM     13  C   UNL     1      16.413  17.774  46.028  1.00  0.00     0.179 C 
ATOM     14  C   UNL     1      15.197  18.595  45.528  1.00  0.00     0.202 C 
BRANCH  11  15
ATOM     15  O   UNL     1      18.280  17.816  47.542  1.00  0.00    -0.388 OA
ATOM     16  H   UNL     1      18.310  16.826  47.582  1.00  0.00     0.211 HD
ENDBRANCH  11  15
BRANCH  13  17
ATOM     17  O   UNL     1      17.428  17.678  45.027  1.00  0.00    -0.387 OA
ATOM     18  H   UNL     1      17.003  17.483  44.138  1.00  0.00     0.211 HD
ENDBRANCH  13  17
BRANCH  14  19
ATOM     19  O   UNL     1      14.017  18.034  46.060  1.00  0.00    -0.385 OA
ATOM     20  H   UNL     1      13.266  18.529  45.653  1.00  0.00     0.211 HD
ENDBRANCH  14  19
ENDBRANCH   7   8
ENDBRANCH   1   7
BRANCH   2  21
ATOM     21  O   UNL     1      16.038  23.290  47.523  1.00  0.00    -0.385 OA
ATOM     22  H   UNL     1      16.043  22.639  48.280  1.00  0.00     0.211 HD
ENDBRANCH   2  21
BRANCH   6  23
ATOM     23  O   UNL     1      16.750  22.599  42.997  1.00  0.00    -0.453 OA
BRANCH  23  24
ATOM     24  C   UNL     1      18.056  22.946  42.621  1.00  0.00     0.331 C 
ATOM     25  O   UNL     1      19.000  22.109  42.751  1.00  0.00    -0.247 OA
BRANCH  24  26
ATOM     26  C   UNL     1      18.352  24.218  41.951  1.00  0.00     0.094 C 
ATOM     27  C   UNL     1      19.157  24.312  40.891  1.00  0.00     0.016 C 
BRANCH  27  28
ATOM     28  C   UNL     1      19.696  25.623  40.422  1.00  0.00    -0.021 A 
ATOM     29  C   UNL     1      20.415  26.419  41.332  1.00  0.00     0.058 A 
ATOM     30  C   UNL     1      19.351  26.158  39.169  1.00  0.00     0.012 A 
ATOM     31  C   UNL     1      20.849  27.700  40.977  1.00  0.00     0.157 A 
ATOM     32  C   UNL     1      19.757  27.441  38.817  1.00  0.00     0.051 A 
ATOM     33  C   UNL     1      20.522  28.213  39.693  1.00  0.00     0.157 A 
BRANCH  31  34
ATOM     34  O   UNL     1      21.604  28.417  41.898  1.00  0.00    -0.504 OA
ATOM     35  H   UNL     1      21.409  28.396  42.918  1.00  0.00     0.293 HD
ENDBRANCH  31  34
BRANCH  33  36
ATOM     36  O   UNL     1      20.882  29.504  39.273  1.00  0.00    -0.504 OA
ATOM     37  H   UNL     1      21.263  29.707  38.361  1.00  0.00     0.293 HD
ENDBRANCH  33  36
ENDBRANCH  27  28
ENDBRANCH  24  26
ENDBRANCH  23  24
ENDBRANCH   6  23
BRANCH   3  38
ATOM     38  O   UNL     1      13.818  24.761  47.165  1.00  0.00    -0.350 OA
BRANCH  38  39
ATOM     39  C   UNL     1      14.220  26.124  46.988  1.00  0.00     0.168 C 
BRANCH  39  40
ATOM     40  C   UNL     1      15.591  26.524  47.586  1.00  0.00     0.064 C 
BRANCH  40  41
ATOM     41  C   UNL     1      16.689  26.880  46.592  1.00  0.00    -0.042 A 
ATOM     42  C   UNL     1      17.115  28.231  46.540  1.00  0.00     0.054 A 
ATOM     43  C   UNL     1      17.433  25.925  45.899  1.00  0.00     0.008 A 
ATOM     44  C   UNL     1      18.230  28.607  45.808  1.00  0.00     0.157 A 
ATOM     45  C   UNL     1      18.536  26.326  45.102  1.00  0.00     0.050 A 
ATOM     46  C   UNL     1      18.945  27.659  45.068  1.00  0.00     0.157 A 
BRANCH  44  47
ATOM     47  O   UNL     1      18.688  29.927  45.842  1.00  0.00    -0.504 OA
ATOM     48  H   UNL     1      19.680  30.124  45.883  1.00  0.00     0.293 HD
ENDBRANCH  44  47
BRANCH  46  49
ATOM     49  O   UNL     1      20.068  28.064  44.322  1.00  0.00    -0.504 OA
ATOM     50  H   UNL     1      20.681  27.357  43.905  1.00  0.00     0.293 HD
ENDBRANCH  46  49
ENDBRANCH  40  41
ENDBRANCH  39  40
ENDBRANCH  38  39
ENDBRANCH   3  38
BRANCH   5  51
ATOM     51  C   UNL     1      14.659  24.620  42.559  1.00  0.00     0.192 C 
BRANCH  51  52
ATOM     52  O   UNL     1      15.606  25.651  42.709  1.00  0.00    -0.394 OA
ATOM     53  H   UNL     1      15.904  25.930  41.795  1.00  0.00     0.210 HD
ENDBRANCH  51  52
ENDBRANCH   5  51
TORSDOF 20
ENDMDL
MODEL 9
REMARK VINA RESULT:    -7.348      2.271      6.306
REMARK INTER + INTRA:         -16.543
REMARK INTER:                 -14.433
REMARK INTRA:                  -2.111
REMARK UNBOUND:                -2.537
REMARK SMILES C[C@@H]1O[C@@H](O[C@@H]2[C@@H](O)[C@@H](OCCc3ccc(O)c(O)c3)O[C@@H](CO)[C@@H]2OC(=O)C=Cc2ccc(O)c(O)c2)[C@H](O)[C@@H](O)[C@H]1O
REMARK SMILES IDX 6 1 7 2 9 3 21 4 22 5 25 6 5 7 4 8 1 9 2 10 43 11 3 12 41 13
REMARK SMILES IDX 39 14 44 15 42 17 40 19 8 21 26 23 27 24 28 25 29 26 30 27
REMARK SMILES IDX 31 28 38 29 32 30 36 31 33 32 34 33 37 34 35 36 10 38 11 39
REMARK SMILES IDX 12 40 13 41 20 42 14 43 18 44 15 45 16 46 19 47 17 49 23 51
REMARK SMILES IDX 24 52
REMARK H PARENT 44 16 42 18 40 20 8 22 37 35 35 37 19 48 17 50 24 53
REMARK Flexibility Score: inf
ROOT
ATOM      1  C   UNL     1      15.195  23.315  44.473  1.00  0.00     0.199 C 
ATOM      2  C   UNL     1      15.787  23.005  43.065  1.00  0.00     0.203 C 
ATOM      3  C   UNL     1      16.970  23.924  42.591  1.00  0.00     0.282 C 
ATOM      4  O   UNL     1      17.164  25.149  43.267  1.00  0.00    -0.340 OA
ATOM      5  C   UNL     1      16.955  25.121  44.656  1.00  0.00     0.190 C 
ATOM      6  C   UNL     1      15.484  24.738  44.952  1.00  0.00     0.240 C 
ENDROOT
BRANCH   1   7
ATOM      7  O   UNL     1      15.287  22.243  45.433  1.00  0.00    -0.340 OA
BRANCH   7   8
ATOM      8  C   UNL     1      16.568  21.982  45.969  1.00  0.00     0.282 C 
ATOM      9  C   UNL     1      16.884  18.460  44.939  1.00  0.00     0.041 C 
ATOM     10  C   UNL     1      16.352  19.649  45.760  1.00  0.00     0.150 C 
ATOM     11  C   UNL     1      16.425  19.353  47.281  1.00  0.00     0.174 C 
ATOM     12  O   UNL     1      17.122  20.794  45.432  1.00  0.00    -0.344 OA
ATOM     13  C   UNL     1      16.051  20.585  48.121  1.00  0.00     0.179 C 
ATOM     14  C   UNL     1      16.563  21.916  47.516  1.00  0.00     0.202 C 
BRANCH  11  15
ATOM     15  O   UNL     1      15.538  18.295  47.598  1.00  0.00    -0.388 OA
ATOM     16  H   UNL     1      15.130  17.947  46.764  1.00  0.00     0.211 HD
ENDBRANCH  11  15
BRANCH  13  17
ATOM     17  O   UNL     1      14.661  20.658  48.448  1.00  0.00    -0.387 OA
ATOM     18  H   UNL     1      14.143  20.956  47.640  1.00  0.00     0.211 HD
ENDBRANCH  13  17
BRANCH  14  19
ATOM     19  O   UNL     1      17.885  22.140  47.955  1.00  0.00    -0.385 OA
ATOM     20  H   UNL     1      18.474  21.694  47.300  1.00  0.00     0.211 HD
ENDBRANCH  14  19
ENDBRANCH   7   8
ENDBRANCH   1   7
BRANCH   2  21
ATOM     21  O   UNL     1      14.743  23.005  42.104  1.00  0.00    -0.385 OA
ATOM     22  H   UNL     1      14.169  23.808  42.256  1.00  0.00     0.211 HD
ENDBRANCH   2  21
BRANCH   6  23
ATOM     23  O   UNL     1      15.115  24.882  46.324  1.00  0.00    -0.453 OA
BRANCH  23  24
ATOM     24  C   UNL     1      13.971  25.600  46.702  1.00  0.00     0.331 C 
ATOM     25  O   UNL     1      12.888  25.455  46.059  1.00  0.00    -0.247 OA
BRANCH  24  26
ATOM     26  C   UNL     1      13.947  26.429  47.913  1.00  0.00     0.094 C 
ATOM     27  C   UNL     1      14.978  26.515  48.756  1.00  0.00     0.016 C 
BRANCH  27  28
ATOM     28  C   UNL     1      14.832  27.095  50.124  1.00  0.00    -0.021 A 
ATOM     29  C   UNL     1      15.995  27.441  50.836  1.00  0.00     0.058 A 
ATOM     30  C   UNL     1      13.590  27.134  50.781  1.00  0.00     0.012 A 
ATOM     31  C   UNL     1      15.919  27.889  52.158  1.00  0.00     0.157 A 
ATOM     32  C   UNL     1      13.509  27.554  52.105  1.00  0.00     0.051 A 
ATOM     33  C   UNL     1      14.652  27.955  52.798  1.00  0.00     0.157 A 
BRANCH  31  34
ATOM     34  O   UNL     1      17.097  28.269  52.792  1.00  0.00    -0.504 OA
ATOM     35  H   UNL     1      17.181  29.150  53.335  1.00  0.00     0.293 HD
ENDBRANCH  31  34
BRANCH  33  36
ATOM     36  O   UNL     1      14.493  28.352  54.136  1.00  0.00    -0.504 OA
ATOM     37  H   UNL     1      15.246  28.361  54.807  1.00  0.00     0.293 HD
ENDBRANCH  33  36
ENDBRANCH  27  28
ENDBRANCH  24  26
ENDBRANCH  23  24
ENDBRANCH   6  23
BRANCH   3  38
ATOM     38  O   UNL     1      16.996  24.133  41.171  1.00  0.00    -0.350 OA
BRANCH  38  39
ATOM     39  C   UNL     1      17.409  25.410  40.671  1.00  0.00     0.168 C 
BRANCH  39  40
ATOM     40  C   UNL     1      18.863  25.509  40.148  1.00  0.00     0.064 C 
BRANCH  40  41
ATOM     41  C   UNL     1      19.405  24.294  39.408  1.00  0.00    -0.042 A 
ATOM     42  C   UNL     1      20.241  23.405  40.128  1.00  0.00     0.054 A 
ATOM     43  C   UNL     1      18.956  23.902  38.146  1.00  0.00     0.008 A 
ATOM     44  C   UNL     1      20.623  22.183  39.596  1.00  0.00     0.157 A 
ATOM     45  C   UNL     1      19.400  22.679  37.582  1.00  0.00     0.050 A 
ATOM     46  C   UNL     1      20.217  21.813  38.309  1.00  0.00     0.157 A 
BRANCH  44  47
ATOM     47  O   UNL     1      21.370  21.281  40.357  1.00  0.00    -0.504 OA
ATOM     48  H   UNL     1      21.861  20.517  39.909  1.00  0.00     0.293 HD
ENDBRANCH  44  47
BRANCH  46  49
ATOM     49  O   UNL     1      20.625  20.573  37.783  1.00  0.00    -0.504 OA
ATOM     50  H   UNL     1      19.924  19.926  37.411  1.00  0.00     0.293 HD
ENDBRANCH  46  49
ENDBRANCH  40  41
ENDBRANCH  39  40
ENDBRANCH  38  39
ENDBRANCH   3  38
BRANCH   5  51
ATOM     51  C   UNL     1      17.267  26.533  45.185  1.00  0.00     0.192 C 
BRANCH  51  52
ATOM     52  O   UNL     1      17.694  26.458  46.525  1.00  0.00    -0.394 OA
ATOM     53  H   UNL     1      16.888  26.547  47.111  1.00  0.00     0.210 HD
ENDBRANCH  51  52
ENDBRANCH   5  51
TORSDOF 20
ENDMDL
