MODEL 1
REMARK VINA RESULT:    -0.239      0.000      0.000
REMARK INTER + INTRA:          -0.220
REMARK INTER:                  -0.295
REMARK INTRA:                   0.075
REMARK UNBOUND:                 0.075
REMARK SMILES CCCCCC(=O)[O-]
REMARK SMILES IDX 4 1 5 2 6 3 7 4 8 5 3 6 2 7 1 8
REMARK H PARENT
REMARK Flexibility Score: inf
ROOT
ATOM      1  C   UNL     1       0.922 -49.803   9.142  1.00  0.00     0.006 C 
ENDROOT
BRANCH   1   2
ATOM      2  C   UNL     1       1.584 -50.779  10.120  1.00  0.00     0.053 C 
BRANCH   2   3
ATOM      3  C   UNL     1       2.830 -51.352   9.526  1.00  0.00     0.041 C 
ATOM      4  O   UNL     1       3.350 -50.823   8.508  1.00  0.00    -0.550 OA
ATOM      5  O   UNL     1       3.448 -52.443  10.125  1.00  0.00    -0.550 OA
ENDBRANCH   2   3
ENDBRANCH   1   2
BRANCH   1   6
ATOM      6  C   UNL     1      -0.608 -49.871   9.250  1.00  0.00     0.000 C 
BRANCH   6   7
ATOM      7  C   UNL     1      -1.092 -51.131   9.985  1.00  0.00    -0.003 C 
ATOM      8  C   UNL     1      -1.125 -52.365   9.085  1.00  0.00     0.004 C 
ENDBRANCH   6   7
ENDBRANCH   1   6
TORSDOF 4
ENDMDL
MODEL 2
REMARK VINA RESULT:     0.549     20.935     21.993
REMARK INTER + INTRA:           0.752
REMARK INTER:                   0.671
REMARK INTRA:                   0.081
REMARK UNBOUND:                 0.075
REMARK SMILES CCCCCC(=O)[O-]
REMARK SMILES IDX 4 1 5 2 6 3 7 4 8 5 3 6 2 7 1 8
REMARK H PARENT
REMARK Flexibility Score: inf
ROOT
ATOM      1  C   UNL     1      18.017 -57.164  -1.793  1.00  0.00     0.006 C 
ENDROOT
BRANCH   1   2
ATOM      2  C   UNL     1      18.920 -58.037  -2.669  1.00  0.00     0.053 C 
BRANCH   2   3
ATOM      3  C   UNL     1      18.364 -59.420  -2.780  1.00  0.00     0.041 C 
ATOM      4  O   UNL     1      19.124 -60.392  -3.034  1.00  0.00    -0.550 OA
ATOM      5  O   UNL     1      17.012 -59.646  -2.553  1.00  0.00    -0.550 OA
ENDBRANCH   2   3
ENDBRANCH   1   2
BRANCH   1   6
ATOM      6  C   UNL     1      16.891 -56.531  -2.624  1.00  0.00     0.000 C 
BRANCH   6   7
ATOM      7  C   UNL     1      17.235 -55.110  -3.098  1.00  0.00    -0.003 C 
ATOM      8  C   UNL     1      17.597 -55.053  -4.582  1.00  0.00     0.004 C 
ENDBRANCH   6   7
ENDBRANCH   1   6
TORSDOF 4
ENDMDL
MODEL 3
REMARK VINA RESULT:     1.404     20.707     21.925
REMARK INTER + INTRA:           1.806
REMARK INTER:                   1.927
REMARK INTRA:                  -0.121
REMARK UNBOUND:                 0.075
REMARK SMILES CCCCCC(=O)[O-]
REMARK SMILES IDX 4 1 5 2 6 3 7 4 8 5 3 6 2 7 1 8
REMARK H PARENT
REMARK Flexibility Score: inf
ROOT
ATOM      1  C   UNL     1      17.545 -57.737  -1.640  1.00  0.00     0.006 C 
ENDROOT
BRANCH   1   2
ATOM      2  C   UNL     1      18.225 -56.499  -2.232  1.00  0.00     0.053 C 
BRANCH   2   3
ATOM      3  C   UNL     1      17.246 -55.688  -3.019  1.00  0.00     0.041 C 
ATOM      4  O   UNL     1      16.097 -55.457  -2.558  1.00  0.00    -0.550 OA
ATOM      5  O   UNL     1      17.619 -55.144  -4.242  1.00  0.00    -0.550 OA
ENDBRANCH   2   3
ENDBRANCH   1   2
BRANCH   1   6
ATOM      6  C   UNL     1      17.589 -58.912  -2.627  1.00  0.00     0.000 C 
BRANCH   6   7
ATOM      7  C   UNL     1      19.022 -59.389  -2.911  1.00  0.00    -0.003 C 
ATOM      8  C   UNL     1      19.125 -60.909  -3.040  1.00  0.00     0.004 C 
ENDBRANCH   6   7
ENDBRANCH   1   6
TORSDOF 4
ENDMDL
MODEL 4
REMARK VINA RESULT:     1.405     20.814     21.945
REMARK INTER + INTRA:           1.809
REMARK INTER:                   1.922
REMARK INTRA:                  -0.113
REMARK UNBOUND:                 0.075
REMARK SMILES CCCCCC(=O)[O-]
REMARK SMILES IDX 4 1 5 2 6 3 7 4 8 5 3 6 2 7 1 8
REMARK H PARENT
REMARK Flexibility Score: inf
ROOT
ATOM      1  C   UNL     1      17.630 -56.515  -1.637  1.00  0.00     0.006 C 
ENDROOT
BRANCH   1   2
ATOM      2  C   UNL     1      17.011 -56.412  -3.035  1.00  0.00     0.053 C 
BRANCH   2   3
ATOM      3  C   UNL     1      17.460 -55.160  -3.717  1.00  0.00     0.041 C 
ATOM      4  O   UNL     1      17.756 -54.140  -3.041  1.00  0.00    -0.550 OA
ATOM      5  O   UNL     1      17.603 -55.134  -5.099  1.00  0.00    -0.550 OA
ENDBRANCH   2   3
ENDBRANCH   1   2
BRANCH   1   6
ATOM      6  C   UNL     1      18.463 -57.798  -1.500  1.00  0.00     0.000 C 
BRANCH   6   7
ATOM      7  C   UNL     1      19.101 -58.233  -2.828  1.00  0.00    -0.003 C 
ATOM      8  C   UNL     1      19.098 -59.749  -3.017  1.00  0.00     0.004 C 
ENDBRANCH   6   7
ENDBRANCH   1   6
TORSDOF 4
ENDMDL
MODEL 5
REMARK VINA RESULT:     1.888     20.346     21.272
REMARK INTER + INTRA:           2.404
REMARK INTER:                   2.544
REMARK INTRA:                  -0.140
REMARK UNBOUND:                 0.075
REMARK SMILES CCCCCC(=O)[O-]
REMARK SMILES IDX 4 1 5 2 6 3 7 4 8 5 3 6 2 7 1 8
REMARK H PARENT
REMARK Flexibility Score: inf
ROOT
ATOM      1  C   UNL     1      16.897 -56.947  -3.031  1.00  0.00     0.006 C 
ENDROOT
BRANCH   1   2
ATOM      2  C   UNL     1      16.867 -55.431  -2.816  1.00  0.00     0.053 C 
BRANCH   2   3
ATOM      3  C   UNL     1      17.530 -54.727  -3.957  1.00  0.00     0.041 C 
ATOM      4  O   UNL     1      18.039 -53.587  -3.789  1.00  0.00    -0.550 OA
ATOM      5  O   UNL     1      17.631 -55.350  -5.194  1.00  0.00    -0.550 OA
ENDBRANCH   2   3
ENDBRANCH   1   2
BRANCH   1   6
ATOM      6  C   UNL     1      18.000 -57.600  -2.185  1.00  0.00     0.000 C 
BRANCH   6   7
ATOM      7  C   UNL     1      18.345 -56.780  -0.932  1.00  0.00    -0.003 C 
ATOM      8  C   UNL     1      17.545 -57.213   0.297  1.00  0.00     0.004 C 
ENDBRANCH   6   7
ENDBRANCH   1   6
TORSDOF 4
ENDMDL
MODEL 6
REMARK VINA RESULT:     2.177     19.831     20.804
REMARK INTER + INTRA:           2.761
REMARK INTER:                   2.321
REMARK INTRA:                   0.440
REMARK UNBOUND:                 0.075
REMARK SMILES CCCCCC(=O)[O-]
REMARK SMILES IDX 4 1 5 2 6 3 7 4 8 5 3 6 2 7 1 8
REMARK H PARENT
REMARK Flexibility Score: inf
ROOT
ATOM      1  C   UNL     1      17.263 -56.926  -2.773  1.00  0.00     0.006 C 
ENDROOT
BRANCH   1   2
ATOM      2  C   UNL     1      18.267 -57.062  -1.624  1.00  0.00     0.053 C 
BRANCH   2   3
ATOM      3  C   UNL     1      17.575 -56.928  -0.305  1.00  0.00     0.041 C 
ATOM      4  O   UNL     1      18.124 -57.354   0.745  1.00  0.00    -0.550 OA
ATOM      5  O   UNL     1      16.345 -56.286  -0.227  1.00  0.00    -0.550 OA
ENDBRANCH   2   3
ENDBRANCH   1   2
BRANCH   1   6
ATOM      6  C   UNL     1      16.729 -55.489  -2.868  1.00  0.00     0.000 C 
BRANCH   6   7
ATOM      7  C   UNL     1      17.605 -54.591  -3.754  1.00  0.00    -0.003 C 
ATOM      8  C   UNL     1      17.628 -55.041  -5.214  1.00  0.00     0.004 C 
ENDBRANCH   6   7
ENDBRANCH   1   6
TORSDOF 4
ENDMDL
