MODEL 1
REMARK VINA RESULT:    -5.756      0.000      0.000
REMARK INTER + INTRA:          -5.925
REMARK INTER:                  -5.925
REMARK INTRA:                   0.000
REMARK UNBOUND:                 0.000
REMARK SMILES Oc1ccc2[nH]ccc2c1
REMARK SMILES IDX 3 1 4 2 5 3 9 4 8 5 7 6 6 7 10 8 2 9 1 11
REMARK H PARENT 6 10 1 12
REMARK Flexibility Score: inf
ROOT
ATOM      1  C   UNL     1      14.631  15.250 162.980  1.00  0.00     0.048 A 
ATOM      2  C   UNL     1      13.524  15.603 162.187  1.00  0.00     0.030 A 
ATOM      3  C   UNL     1      12.611  14.602 161.862  1.00  0.00     0.046 A 
ATOM      4  C   UNL     1      12.774  13.312 162.292  1.00  0.00     0.003 A 
ATOM      5  C   UNL     1      11.714  12.578 161.806  1.00  0.00     0.028 A 
ATOM      6  C   UNL     1      10.944  13.486 161.086  1.00  0.00     0.083 A 
ATOM      7  N   UNL     1      11.495  14.721 161.124  1.00  0.00    -0.361 N 
ATOM      8  C   UNL     1      13.859  12.929 163.078  1.00  0.00     0.056 A 
ATOM      9  C   UNL     1      14.802  13.919 163.426  1.00  0.00     0.116 A 
ATOM     10  H   UNL     1      11.127  15.586 160.670  1.00  0.00     0.166 HD
ENDROOT
BRANCH   9  11
ATOM     11  O   UNL     1      15.907  13.597 164.210  1.00  0.00    -0.508 OA
ATOM     12  H   UNL     1      16.544  12.854 163.945  1.00  0.00     0.293 HD
ENDBRANCH   9  11
TORSDOF 1
ENDMDL
MODEL 2
REMARK VINA RESULT:    -5.708      2.062      2.437
REMARK INTER + INTRA:          -5.875
REMARK INTER:                  -5.875
REMARK INTRA:                   0.000
REMARK UNBOUND:                 0.000
REMARK SMILES Oc1ccc2[nH]ccc2c1
REMARK SMILES IDX 3 1 4 2 5 3 9 4 8 5 7 6 6 7 10 8 2 9 1 11
REMARK H PARENT 6 10 1 12
REMARK Flexibility Score: inf
ROOT
ATOM      1  C   UNL     1      13.637  13.944 163.694  1.00  0.00     0.048 A 
ATOM      2  C   UNL     1      13.470  13.104 162.578  1.00  0.00     0.030 A 
ATOM      3  C   UNL     1      12.170  12.824 162.163  1.00  0.00     0.046 A 
ATOM      4  C   UNL     1      11.080  13.343 162.809  1.00  0.00     0.003 A 
ATOM      5  C   UNL     1       9.957  12.881 162.160  1.00  0.00     0.028 A 
ATOM      6  C   UNL     1      10.437  12.084 161.126  1.00  0.00     0.083 A 
ATOM      7  N   UNL     1      11.790  12.053 161.131  1.00  0.00    -0.361 N 
ATOM      8  C   UNL     1      11.210  14.178 163.917  1.00  0.00     0.056 A 
ATOM      9  C   UNL     1      12.513  14.482 164.364  1.00  0.00     0.116 A 
ATOM     10  H   UNL     1      12.407  11.534 160.469  1.00  0.00     0.166 HD
ENDROOT
BRANCH   9  11
ATOM     11  O   UNL     1      12.706  15.312 165.466  1.00  0.00    -0.508 OA
ATOM     12  H   UNL     1      12.882  16.304 165.357  1.00  0.00     0.293 HD
ENDBRANCH   9  11
TORSDOF 1
ENDMDL
MODEL 3
REMARK VINA RESULT:    -5.694      2.628      4.068
REMARK INTER + INTRA:          -5.860
REMARK INTER:                  -5.860
REMARK INTRA:                   0.000
REMARK UNBOUND:                 0.000
REMARK SMILES Oc1ccc2[nH]ccc2c1
REMARK SMILES IDX 3 1 4 2 5 3 9 4 8 5 7 6 6 7 10 8 2 9 1 11
REMARK H PARENT 6 10 1 12
REMARK Flexibility Score: inf
ROOT
ATOM      1  C   UNL     1      11.364  13.277 161.355  1.00  0.00     0.048 A 
ATOM      2  C   UNL     1      12.351  12.612 162.105  1.00  0.00     0.030 A 
ATOM      3  C   UNL     1      13.462  13.347 162.515  1.00  0.00     0.046 A 
ATOM      4  C   UNL     1      13.602  14.673 162.205  1.00  0.00     0.003 A 
ATOM      5  C   UNL     1      14.793  15.100 162.751  1.00  0.00     0.028 A 
ATOM      6  C   UNL     1      15.327  13.980 163.379  1.00  0.00     0.083 A 
ATOM      7  N   UNL     1      14.510  12.911 163.233  1.00  0.00    -0.361 N 
ATOM      8  C   UNL     1      12.644  15.361 161.464  1.00  0.00     0.056 A 
ATOM      9  C   UNL     1      11.506  14.647 161.033  1.00  0.00     0.116 A 
ATOM     10  H   UNL     1      14.667  11.948 163.603  1.00  0.00     0.166 HD
ENDROOT
BRANCH   9  11
ATOM     11  O   UNL     1      10.514  15.281 160.289  1.00  0.00    -0.508 OA
ATOM     12  H   UNL     1      10.739  16.005 159.616  1.00  0.00     0.293 HD
ENDBRANCH   9  11
TORSDOF 1
ENDMDL
MODEL 4
REMARK VINA RESULT:    -5.440      2.679      3.911
REMARK INTER + INTRA:          -5.599
REMARK INTER:                  -5.599
REMARK INTRA:                   0.000
REMARK UNBOUND:                 0.000
REMARK SMILES Oc1ccc2[nH]ccc2c1
REMARK SMILES IDX 3 1 4 2 5 3 9 4 8 5 7 6 6 7 10 8 2 9 1 11
REMARK H PARENT 6 10 1 12
REMARK Flexibility Score: inf
ROOT
ATOM      1  C   UNL     1       9.959  13.505 161.755  1.00  0.00     0.048 A 
ATOM      2  C   UNL     1      10.500  14.412 162.684  1.00  0.00     0.030 A 
ATOM      3  C   UNL     1      11.847  14.278 163.016  1.00  0.00     0.046 A 
ATOM      4  C   UNL     1      12.630  13.300 162.465  1.00  0.00     0.003 A 
ATOM      5  C   UNL     1      13.894  13.436 162.994  1.00  0.00     0.028 A 
ATOM      6  C   UNL     1      13.809  14.519 163.864  1.00  0.00     0.083 A 
ATOM      7  N   UNL     1      12.556  15.030 163.874  1.00  0.00    -0.361 N 
ATOM      8  C   UNL     1      12.126  12.386 161.541  1.00  0.00     0.056 A 
ATOM      9  C   UNL     1      10.766  12.494 161.183  1.00  0.00     0.116 A 
ATOM     10  H   UNL     1      12.215  15.842 164.434  1.00  0.00     0.166 HD
ENDROOT
BRANCH   9  11
ATOM     11  O   UNL     1      10.205  11.609 160.265  1.00  0.00    -0.508 OA
ATOM     12  H   UNL     1       9.208  11.430 160.245  1.00  0.00     0.293 HD
ENDBRANCH   9  11
TORSDOF 1
ENDMDL
MODEL 5
REMARK VINA RESULT:    -5.247      2.904      3.961
REMARK INTER + INTRA:          -5.400
REMARK INTER:                  -5.400
REMARK INTRA:                   0.000
REMARK UNBOUND:                 0.000
REMARK SMILES Oc1ccc2[nH]ccc2c1
REMARK SMILES IDX 3 1 4 2 5 3 9 4 8 5 7 6 6 7 10 8 2 9 1 11
REMARK H PARENT 6 10 1 12
REMARK Flexibility Score: inf
ROOT
ATOM      1  C   UNL     1      12.207  12.403 161.761  1.00  0.00     0.048 A 
ATOM      2  C   UNL     1      12.808  13.237 162.720  1.00  0.00     0.030 A 
ATOM      3  C   UNL     1      12.085  14.340 163.169  1.00  0.00     0.046 A 
ATOM      4  C   UNL     1      10.828  14.617 162.700  1.00  0.00     0.003 A 
ATOM      5  C   UNL     1      10.393  15.759 163.334  1.00  0.00     0.028 A 
ATOM      6  C   UNL     1      11.437  16.127 164.177  1.00  0.00     0.083 A 
ATOM      7  N   UNL     1      12.468  15.257 164.072  1.00  0.00    -0.361 N 
ATOM      8  C   UNL     1      10.203  13.811 161.750  1.00  0.00     0.056 A 
ATOM      9  C   UNL     1      10.909  12.685 161.274  1.00  0.00     0.116 A 
ATOM     10  H   UNL     1      13.374  15.294 164.590  1.00  0.00     0.166 HD
ENDROOT
BRANCH   9  11
ATOM     11  O   UNL     1      10.336  11.843 160.325  1.00  0.00    -0.508 OA
ATOM     12  H   UNL     1       9.797  11.028 160.596  1.00  0.00     0.293 HD
ENDBRANCH   9  11
TORSDOF 1
ENDMDL
MODEL 6
REMARK VINA RESULT:    -5.189      1.340      2.323
REMARK INTER + INTRA:          -5.341
REMARK INTER:                  -5.341
REMARK INTRA:                   0.000
REMARK UNBOUND:                 0.000
REMARK SMILES Oc1ccc2[nH]ccc2c1
REMARK SMILES IDX 3 1 4 2 5 3 9 4 8 5 7 6 6 7 10 8 2 9 1 11
REMARK H PARENT 6 10 1 12
REMARK Flexibility Score: inf
ROOT
ATOM      1  C   UNL     1      13.218  12.895 162.601  1.00  0.00     0.048 A 
ATOM      2  C   UNL     1      12.118  13.037 161.736  1.00  0.00     0.030 A 
ATOM      3  C   UNL     1      11.672  14.327 161.455  1.00  0.00     0.046 A 
ATOM      4  C   UNL     1      12.276  15.431 161.996  1.00  0.00     0.003 A 
ATOM      5  C   UNL     1      11.606  16.539 161.527  1.00  0.00     0.028 A 
ATOM      6  C   UNL     1      10.603  16.036 160.705  1.00  0.00     0.083 A 
ATOM      7  N   UNL     1      10.648  14.684 160.664  1.00  0.00    -0.361 N 
ATOM      8  C   UNL     1      13.368  15.325 162.856  1.00  0.00     0.056 A 
ATOM      9  C   UNL     1      13.844  14.033 163.161  1.00  0.00     0.116 A 
ATOM     10  H   UNL     1      10.014  14.052 160.126  1.00  0.00     0.166 HD
ENDROOT
BRANCH   9  11
ATOM     11  O   UNL     1      14.932  13.865 164.014  1.00  0.00    -0.508 OA
ATOM     12  H   UNL     1      14.966  13.105 164.684  1.00  0.00     0.293 HD
ENDBRANCH   9  11
TORSDOF 1
ENDMDL
MODEL 7
REMARK VINA RESULT:    -5.011      2.767      4.008
REMARK INTER + INTRA:          -5.157
REMARK INTER:                  -5.157
REMARK INTRA:                   0.000
REMARK UNBOUND:                 0.000
REMARK SMILES Oc1ccc2[nH]ccc2c1
REMARK SMILES IDX 3 1 4 2 5 3 9 4 8 5 7 6 6 7 10 8 2 9 1 11
REMARK H PARENT 6 10 1 12
REMARK Flexibility Score: inf
ROOT
ATOM      1  C   UNL     1      11.241  13.955 163.605  1.00  0.00     0.048 A 
ATOM      2  C   UNL     1      12.371  13.118 163.600  1.00  0.00     0.030 A 
ATOM      3  C   UNL     1      13.613  13.703 163.360  1.00  0.00     0.046 A 
ATOM      4  C   UNL     1      13.744  15.048 163.136  1.00  0.00     0.003 A 
ATOM      5  C   UNL     1      15.082  15.304 162.936  1.00  0.00     0.028 A 
ATOM      6  C   UNL     1      15.710  14.068 163.052  1.00  0.00     0.083 A 
ATOM      7  N   UNL     1      14.808  13.093 163.311  1.00  0.00    -0.361 N 
ATOM      8  C   UNL     1      12.645  15.905 163.135  1.00  0.00     0.056 A 
ATOM      9  C   UNL     1      11.373  15.344 163.374  1.00  0.00     0.116 A 
ATOM     10  H   UNL     1      15.005  12.077 163.445  1.00  0.00     0.166 HD
ENDROOT
BRANCH   9  11
ATOM     11  O   UNL     1      10.237  16.151 163.385  1.00  0.00    -0.508 OA
ATOM     12  H   UNL     1       9.970  16.699 162.575  1.00  0.00     0.293 HD
ENDBRANCH   9  11
TORSDOF 1
ENDMDL
MODEL 8
REMARK VINA RESULT:    -4.963      3.000      3.883
REMARK INTER + INTRA:          -5.108
REMARK INTER:                  -5.108
REMARK INTRA:                   0.000
REMARK UNBOUND:                 0.000
REMARK SMILES Oc1ccc2[nH]ccc2c1
REMARK SMILES IDX 3 1 4 2 5 3 9 4 8 5 7 6 6 7 10 8 2 9 1 11
REMARK H PARENT 6 10 1 12
REMARK Flexibility Score: inf
ROOT
ATOM      1  C   UNL     1      11.228  16.812 161.623  1.00  0.00     0.048 A 
ATOM      2  C   UNL     1      12.165  16.735 162.669  1.00  0.00     0.030 A 
ATOM      3  C   UNL     1      12.857  15.536 162.836  1.00  0.00     0.046 A 
ATOM      4  C   UNL     1      12.641  14.460 162.018  1.00  0.00     0.003 A 
ATOM      5  C   UNL     1      13.470  13.446 162.442  1.00  0.00     0.028 A 
ATOM      6  C   UNL     1      14.163  13.974 163.527  1.00  0.00     0.083 A 
ATOM      7  N   UNL     1      13.785  15.251 163.763  1.00  0.00    -0.361 N 
ATOM      8  C   UNL     1      11.720  14.503 160.972  1.00  0.00     0.056 A 
ATOM      9  C   UNL     1      11.003  15.702 160.775  1.00  0.00     0.116 A 
ATOM     10  H   UNL     1      14.144  15.882 164.514  1.00  0.00     0.166 HD
ENDROOT
BRANCH   9  11
ATOM     11  O   UNL     1      10.070  15.806 159.747  1.00  0.00    -0.508 OA
ATOM     12  H   UNL     1      10.328  15.643 158.780  1.00  0.00     0.293 HD
ENDBRANCH   9  11
TORSDOF 1
ENDMDL
MODEL 9
REMARK VINA RESULT:    -4.907      2.636      3.318
REMARK INTER + INTRA:          -5.050
REMARK INTER:                  -5.050
REMARK INTRA:                   0.000
REMARK UNBOUND:                 0.000
REMARK SMILES Oc1ccc2[nH]ccc2c1
REMARK SMILES IDX 3 1 4 2 5 3 9 4 8 5 7 6 6 7 10 8 2 9 1 11
REMARK H PARENT 6 10 1 12
REMARK Flexibility Score: inf
ROOT
ATOM      1  C   UNL     1      11.696  14.032 164.616  1.00  0.00     0.048 A 
ATOM      2  C   UNL     1      11.170  13.690 163.358  1.00  0.00     0.030 A 
ATOM      3  C   UNL     1      10.974  14.714 162.433  1.00  0.00     0.046 A 
ATOM      4  C   UNL     1      11.280  16.016 162.727  1.00  0.00     0.003 A 
ATOM      5  C   UNL     1      10.974  16.772 161.617  1.00  0.00     0.028 A 
ATOM      6  C   UNL     1      10.485  15.864 160.683  1.00  0.00     0.083 A 
ATOM      7  N   UNL     1      10.487  14.608 161.186  1.00  0.00    -0.361 N 
ATOM      8  C   UNL     1      11.803  16.389 163.963  1.00  0.00     0.056 A 
ATOM      9  C   UNL     1      12.013  15.376 164.922  1.00  0.00     0.116 A 
ATOM     10  H   UNL     1      10.174  13.738 160.702  1.00  0.00     0.166 HD
ENDROOT
BRANCH   9  11
ATOM     11  O   UNL     1      12.533  15.688 166.176  1.00  0.00    -0.508 OA
ATOM     12  H   UNL     1      12.470  16.625 166.557  1.00  0.00     0.293 HD
ENDBRANCH   9  11
TORSDOF 1
ENDMDL
