MODEL 1
REMARK VINA RESULT:     3.993      0.000      0.000
REMARK INTER + INTRA:           4.439
REMARK INTER:                   4.576
REMARK INTRA:                  -0.137
REMARK UNBOUND:                -0.137
REMARK SMILES O=C([O-])C=Cc1ccc(O)cc1
REMARK SMILES IDX 6 1 7 2 12 3 8 4 11 5 9 6 5 7 4 8 2 9 1 10 3 11 10 12
REMARK H PARENT 10 13
REMARK Flexibility Score: inf
ROOT
ATOM      1  C   UNL     1     -15.151 -14.066   4.684  1.00  0.00    -0.025 A 
ATOM      2  C   UNL     1     -16.212 -13.837   3.791  1.00  0.00     0.012 A 
ATOM      3  C   UNL     1     -15.448 -14.448   6.009  1.00  0.00     0.012 A 
ATOM      4  C   UNL     1     -17.538 -13.961   4.216  1.00  0.00     0.047 A 
ATOM      5  C   UNL     1     -16.775 -14.572   6.429  1.00  0.00     0.047 A 
ATOM      6  C   UNL     1     -17.823 -14.327   5.536  1.00  0.00     0.115 A 
ENDROOT
BRANCH   1   7
ATOM      7  C   UNL     1     -13.760 -13.931   4.183  1.00  0.00     0.010 C 
ATOM      8  C   UNL     1     -12.906 -14.958   4.069  1.00  0.00     0.025 C 
BRANCH   8   9
ATOM      9  C   UNL     1     -11.528 -14.783   3.579  1.00  0.00     0.064 C 
ATOM     10  O   UNL     1     -10.788 -15.774   3.346  1.00  0.00    -0.545 OA
ATOM     11  O   UNL     1     -11.036 -13.501   3.374  1.00  0.00    -0.545 OA
ENDBRANCH   8   9
ENDBRANCH   1   7
BRANCH   6  12
ATOM     12  O   UNL     1     -19.141 -14.454   5.971  1.00  0.00    -0.508 OA
ATOM     13  H   UNL     1     -19.595 -15.358   6.030  1.00  0.00     0.293 HD
ENDBRANCH   6  12
TORSDOF 3
ENDMDL
MODEL 2
REMARK VINA RESULT:     4.073      1.416      2.036
REMARK INTER + INTRA:           4.531
REMARK INTER:                   4.676
REMARK INTRA:                  -0.145
REMARK UNBOUND:                -0.137
REMARK SMILES O=C([O-])C=Cc1ccc(O)cc1
REMARK SMILES IDX 6 1 7 2 12 3 8 4 11 5 9 6 5 7 4 8 2 9 1 10 3 11 10 12
REMARK H PARENT 10 13
REMARK Flexibility Score: inf
ROOT
ATOM      1  C   UNL     1     -13.655 -14.496   4.476  1.00  0.00    -0.025 A 
ATOM      2  C   UNL     1     -14.273 -13.243   4.637  1.00  0.00     0.012 A 
ATOM      3  C   UNL     1     -14.395 -15.661   4.766  1.00  0.00     0.012 A 
ATOM      4  C   UNL     1     -15.588 -13.154   5.102  1.00  0.00     0.047 A 
ATOM      5  C   UNL     1     -15.711 -15.567   5.229  1.00  0.00     0.047 A 
ATOM      6  C   UNL     1     -16.310 -14.315   5.400  1.00  0.00     0.115 A 
ENDROOT
BRANCH   1   7
ATOM      7  C   UNL     1     -12.260 -14.539   3.971  1.00  0.00     0.010 C 
ATOM      8  C   UNL     1     -11.785 -13.721   3.021  1.00  0.00     0.025 C 
BRANCH   8   9
ATOM      9  C   UNL     1     -10.397 -13.802   2.537  1.00  0.00     0.064 C 
ATOM     10  O   UNL     1      -9.501 -13.045   2.996  1.00  0.00    -0.545 OA
ATOM     11  O   UNL     1     -10.070 -14.728   1.555  1.00  0.00    -0.545 OA
ENDBRANCH   8   9
ENDBRANCH   1   7
BRANCH   6  12
ATOM     12  O   UNL     1     -17.622 -14.238   5.864  1.00  0.00    -0.508 OA
ATOM     13  H   UNL     1     -18.123 -15.063   6.175  1.00  0.00     0.293 HD
ENDBRANCH   6  12
TORSDOF 3
ENDMDL
MODEL 3
REMARK VINA RESULT:     4.291      1.727      6.100
REMARK INTER + INTRA:           4.781
REMARK INTER:                   4.920
REMARK INTRA:                  -0.140
REMARK UNBOUND:                -0.137
REMARK SMILES O=C([O-])C=Cc1ccc(O)cc1
REMARK SMILES IDX 6 1 7 2 12 3 8 4 11 5 9 6 5 7 4 8 2 9 1 10 3 11 10 12
REMARK H PARENT 10 13
REMARK Flexibility Score: inf
ROOT
ATOM      1  C   UNL     1     -12.624 -14.454   3.956  1.00  0.00    -0.025 A 
ATOM      2  C   UNL     1     -12.145 -13.139   3.817  1.00  0.00     0.012 A 
ATOM      3  C   UNL     1     -11.897 -15.508   3.365  1.00  0.00     0.012 A 
ATOM      4  C   UNL     1     -10.984 -12.880   3.084  1.00  0.00     0.047 A 
ATOM      5  C   UNL     1     -10.735 -15.244   2.634  1.00  0.00     0.047 A 
ATOM      6  C   UNL     1     -10.276 -13.931   2.490  1.00  0.00     0.115 A 
ENDROOT
BRANCH   1   7
ATOM      7  C   UNL     1     -13.857 -14.680   4.751  1.00  0.00     0.010 C 
ATOM      8  C   UNL     1     -15.029 -14.082   4.494  1.00  0.00     0.025 C 
BRANCH   8   9
ATOM      9  C   UNL     1     -16.229 -14.322   5.313  1.00  0.00     0.064 C 
ATOM     10  O   UNL     1     -16.384 -13.754   6.426  1.00  0.00    -0.545 OA
ATOM     11  O   UNL     1     -17.206 -15.194   4.851  1.00  0.00    -0.545 OA
ENDBRANCH   8   9
ENDBRANCH   1   7
BRANCH   6  12
ATOM     12  O   UNL     1      -9.117 -13.684   1.757  1.00  0.00    -0.508 OA
ATOM     13  H   UNL     1      -8.207 -13.983   2.089  1.00  0.00     0.293 HD
ENDBRANCH   6  12
TORSDOF 3
ENDMDL
MODEL 4
REMARK VINA RESULT:     5.870      8.277     10.699
REMARK INTER + INTRA:           6.591
REMARK INTER:                   6.734
REMARK INTRA:                  -0.144
REMARK UNBOUND:                -0.137
REMARK SMILES O=C([O-])C=Cc1ccc(O)cc1
REMARK SMILES IDX 6 1 7 2 12 3 8 4 11 5 9 6 5 7 4 8 2 9 1 10 3 11 10 12
REMARK H PARENT 10 13
REMARK Flexibility Score: inf
ROOT
ATOM      1  C   UNL     1     -16.316 -20.073  11.888  1.00  0.00    -0.025 A 
ATOM      2  C   UNL     1     -16.330 -19.982  10.485  1.00  0.00     0.012 A 
ATOM      3  C   UNL     1     -15.128 -20.476  12.531  1.00  0.00     0.012 A 
ATOM      4  C   UNL     1     -15.194 -20.310   9.740  1.00  0.00     0.047 A 
ATOM      5  C   UNL     1     -13.993 -20.802  11.782  1.00  0.00     0.047 A 
ATOM      6  C   UNL     1     -14.023 -20.722  10.387  1.00  0.00     0.115 A 
ENDROOT
BRANCH   1   7
ATOM      7  C   UNL     1     -17.545 -19.705  12.635  1.00  0.00     0.010 C 
ATOM      8  C   UNL     1     -18.241 -18.580  12.417  1.00  0.00     0.025 C 
BRANCH   8   9
ATOM      9  C   UNL     1     -19.450 -18.243  13.188  1.00  0.00     0.064 C 
ATOM     10  O   UNL     1     -19.470 -18.336  14.444  1.00  0.00    -0.545 OA
ATOM     11  O   UNL     1     -20.589 -17.819  12.517  1.00  0.00    -0.545 OA
ENDBRANCH   8   9
ENDBRANCH   1   7
BRANCH   6  12
ATOM     12  O   UNL     1     -12.884 -21.052   9.654  1.00  0.00    -0.508 OA
ATOM     13  H   UNL     1     -12.942 -21.327   8.680  1.00  0.00     0.293 HD
ENDBRANCH   6  12
TORSDOF 3
ENDMDL
MODEL 5
REMARK VINA RESULT:     5.990      8.272     10.797
REMARK INTER + INTRA:           6.729
REMARK INTER:                   6.863
REMARK INTRA:                  -0.134
REMARK UNBOUND:                -0.137
REMARK SMILES O=C([O-])C=Cc1ccc(O)cc1
REMARK SMILES IDX 6 1 7 2 12 3 8 4 11 5 9 6 5 7 4 8 2 9 1 10 3 11 10 12
REMARK H PARENT 10 13
REMARK Flexibility Score: inf
ROOT
ATOM      1  C   UNL     1     -16.375 -20.004  11.828  1.00  0.00    -0.025 A 
ATOM      2  C   UNL     1     -15.218 -20.427  12.505  1.00  0.00     0.012 A 
ATOM      3  C   UNL     1     -16.359 -19.958  10.419  1.00  0.00     0.012 A 
ATOM      4  C   UNL     1     -14.065 -20.771  11.795  1.00  0.00     0.047 A 
ATOM      5  C   UNL     1     -15.203 -20.304   9.712  1.00  0.00     0.047 A 
ATOM      6  C   UNL     1     -14.054 -20.709  10.397  1.00  0.00     0.115 A 
ENDROOT
BRANCH   1   7
ATOM      7  C   UNL     1     -17.578 -19.658  12.626  1.00  0.00     0.010 C 
ATOM      8  C   UNL     1     -18.269 -18.518  12.476  1.00  0.00     0.025 C 
BRANCH   8   9
ATOM      9  C   UNL     1     -19.452 -18.204  13.295  1.00  0.00     0.064 C 
ATOM     10  O   UNL     1     -19.394 -18.207  14.553  1.00  0.00    -0.545 OA
ATOM     11  O   UNL     1     -20.654 -17.902  12.669  1.00  0.00    -0.545 OA
ENDBRANCH   8   9
ENDBRANCH   1   7
BRANCH   6  12
ATOM     12  O   UNL     1     -12.909 -21.050   9.679  1.00  0.00    -0.508 OA
ATOM     13  H   UNL     1     -12.125 -21.515  10.121  1.00  0.00     0.293 HD
ENDBRANCH   6  12
TORSDOF 3
ENDMDL
