MODEL 1
REMARK VINA RESULT:    -4.887      0.000      0.000
REMARK INTER + INTRA:          -5.712
REMARK INTER:                  -5.602
REMARK INTRA:                  -0.110
REMARK UNBOUND:                -0.110
REMARK SMILES COc1cc(C(C)=O)ccc1O
REMARK SMILES IDX 5 1 4 2 3 3 11 4 10 5 9 6 6 7 7 8 8 9 2 10 1 11 12 12
REMARK H PARENT 12 13
REMARK Flexibility Score: inf
ROOT
ATOM      1  C   UNL     1       2.868 -20.030  -6.935  1.00  0.00     0.021 A 
ATOM      2  C   UNL     1       2.092 -20.131  -5.764  1.00  0.00     0.062 A 
ATOM      3  C   UNL     1       1.032 -21.057  -5.674  1.00  0.00     0.161 A 
ATOM      4  C   UNL     1       0.752 -21.887  -6.772  1.00  0.00     0.157 A 
ATOM      5  C   UNL     1       1.518 -21.791  -7.935  1.00  0.00     0.051 A 
ATOM      6  C   UNL     1       2.565 -20.873  -8.020  1.00  0.00     0.016 A 
ENDROOT
BRANCH   1   7
ATOM      7  C   UNL     1       3.982 -19.046  -7.009  1.00  0.00     0.159 C 
ATOM      8  C   UNL     1       5.206 -19.295  -7.839  1.00  0.00     0.093 C 
ATOM      9  O   UNL     1       3.909 -17.966  -6.360  1.00  0.00    -0.295 OA
ENDBRANCH   1   7
BRANCH   3  10
ATOM     10  O   UNL     1       0.246 -21.176  -4.517  1.00  0.00    -0.493 OA
ATOM     11  C   UNL     1       0.446 -20.429  -3.321  1.00  0.00     0.278 C 
ENDBRANCH   3  10
BRANCH   4  12
ATOM     12  O   UNL     1      -0.288 -22.817  -6.725  1.00  0.00    -0.504 OA
ATOM     13  H   UNL     1      -1.091 -22.699  -6.119  1.00  0.00     0.293 HD
ENDBRANCH   4  12
TORSDOF 3
ENDMDL
MODEL 2
REMARK VINA RESULT:    -4.880      2.157      4.386
REMARK INTER + INTRA:          -5.703
REMARK INTER:                  -5.593
REMARK INTRA:                  -0.110
REMARK UNBOUND:                -0.110
REMARK SMILES COc1cc(C(C)=O)ccc1O
REMARK SMILES IDX 5 1 4 2 3 3 11 4 10 5 9 6 6 7 7 8 8 9 2 10 1 11 12 12
REMARK H PARENT 12 13
REMARK Flexibility Score: inf
ROOT
ATOM      1  C   UNL     1       1.393 -20.967  -5.546  1.00  0.00     0.021 A 
ATOM      2  C   UNL     1       2.751 -20.700  -5.281  1.00  0.00     0.062 A 
ATOM      3  C   UNL     1       3.161 -20.207  -4.025  1.00  0.00     0.161 A 
ATOM      4  C   UNL     1       2.197 -19.980  -3.029  1.00  0.00     0.157 A 
ATOM      5  C   UNL     1       0.850 -20.242  -3.287  1.00  0.00     0.051 A 
ATOM      6  C   UNL     1       0.448 -20.729  -4.531  1.00  0.00     0.016 A 
ENDROOT
BRANCH   1   7
ATOM      7  C   UNL     1       0.981 -21.487  -6.878  1.00  0.00     0.159 C 
ATOM      8  C   UNL     1       1.475 -20.877  -8.155  1.00  0.00     0.093 C 
ATOM      9  O   UNL     1       0.192 -22.469  -6.950  1.00  0.00    -0.295 OA
ENDBRANCH   1   7
BRANCH   3  10
ATOM     10  O   UNL     1       4.508 -19.935  -3.738  1.00  0.00    -0.493 OA
ATOM     11  C   UNL     1       5.524 -20.925  -3.604  1.00  0.00     0.278 C 
ENDBRANCH   3  10
BRANCH   4  12
ATOM     12  O   UNL     1       2.560 -19.492  -1.773  1.00  0.00    -0.504 OA
ATOM     13  H   UNL     1       3.050 -20.061  -1.094  1.00  0.00     0.293 HD
ENDBRANCH   4  12
TORSDOF 3
ENDMDL
MODEL 3
REMARK VINA RESULT:    -4.869      1.867      4.514
REMARK INTER + INTRA:          -5.690
REMARK INTER:                  -5.553
REMARK INTRA:                  -0.137
REMARK UNBOUND:                -0.110
REMARK SMILES COc1cc(C(C)=O)ccc1O
REMARK SMILES IDX 5 1 4 2 3 3 11 4 10 5 9 6 6 7 7 8 8 9 2 10 1 11 12 12
REMARK H PARENT 12 13
REMARK Flexibility Score: inf
ROOT
ATOM      1  C   UNL     1       0.962 -21.038  -5.995  1.00  0.00     0.021 A 
ATOM      2  C   UNL     1       1.661 -19.893  -6.426  1.00  0.00     0.062 A 
ATOM      3  C   UNL     1       1.815 -18.776  -5.581  1.00  0.00     0.161 A 
ATOM      4  C   UNL     1       1.261 -18.811  -4.290  1.00  0.00     0.157 A 
ATOM      5  C   UNL     1       0.568 -19.943  -3.858  1.00  0.00     0.051 A 
ATOM      6  C   UNL     1       0.416 -21.047  -4.697  1.00  0.00     0.016 A 
ENDROOT
BRANCH   1   7
ATOM      7  C   UNL     1       0.811 -22.207  -6.903  1.00  0.00     0.159 C 
ATOM      8  C   UNL     1       0.189 -23.492  -6.446  1.00  0.00     0.093 C 
ATOM      9  O   UNL     1       1.214 -22.129  -8.097  1.00  0.00    -0.295 OA
ENDBRANCH   1   7
BRANCH   3  10
ATOM     10  O   UNL     1       2.507 -17.625  -5.989  1.00  0.00    -0.493 OA
ATOM     11  C   UNL     1       3.926 -17.510  -6.044  1.00  0.00     0.278 C 
ENDBRANCH   3  10
BRANCH   4  12
ATOM     12  O   UNL     1       1.389 -17.727  -3.421  1.00  0.00    -0.504 OA
ATOM     13  H   UNL     1       1.615 -16.796  -3.749  1.00  0.00     0.293 HD
ENDBRANCH   4  12
TORSDOF 3
ENDMDL
MODEL 4
REMARK VINA RESULT:    -4.709     12.276     14.404
REMARK INTER + INTRA:          -5.507
REMARK INTER:                  -5.416
REMARK INTRA:                  -0.092
REMARK UNBOUND:                -0.110
REMARK SMILES COc1cc(C(C)=O)ccc1O
REMARK SMILES IDX 5 1 4 2 3 3 11 4 10 5 9 6 6 7 7 8 8 9 2 10 1 11 12 12
REMARK H PARENT 12 13
REMARK Flexibility Score: inf
ROOT
ATOM      1  C   UNL     1       4.944 -23.772   6.353  1.00  0.00     0.021 A 
ATOM      2  C   UNL     1       3.977 -24.796   6.410  1.00  0.00     0.062 A 
ATOM      3  C   UNL     1       4.044 -25.803   7.394  1.00  0.00     0.161 A 
ATOM      4  C   UNL     1       5.092 -25.780   8.329  1.00  0.00     0.157 A 
ATOM      5  C   UNL     1       6.052 -24.768   8.278  1.00  0.00     0.051 A 
ATOM      6  C   UNL     1       5.983 -23.773   7.302  1.00  0.00     0.016 A 
ENDROOT
BRANCH   1   7
ATOM      7  C   UNL     1       4.855 -22.719   5.306  1.00  0.00     0.159 C 
ATOM      8  C   UNL     1       3.936 -22.847   4.128  1.00  0.00     0.093 C 
ATOM      9  O   UNL     1       5.568 -21.682   5.399  1.00  0.00    -0.295 OA
ENDBRANCH   1   7
BRANCH   3  10
ATOM     10  O   UNL     1       3.092 -26.832   7.470  1.00  0.00    -0.493 OA
ATOM     11  C   UNL     1       1.860 -26.850   6.755  1.00  0.00     0.278 C 
ENDBRANCH   3  10
BRANCH   4  12
ATOM     12  O   UNL     1       5.196 -26.757   9.319  1.00  0.00    -0.504 OA
ATOM     13  H   UNL     1       4.684 -26.699  10.192  1.00  0.00     0.293 HD
ENDBRANCH   4  12
TORSDOF 3
ENDMDL
MODEL 5
REMARK VINA RESULT:    -4.597     11.961     14.358
REMARK INTER + INTRA:          -5.379
REMARK INTER:                  -5.266
REMARK INTRA:                  -0.113
REMARK UNBOUND:                -0.110
REMARK SMILES COc1cc(C(C)=O)ccc1O
REMARK SMILES IDX 5 1 4 2 3 3 11 4 10 5 9 6 6 7 7 8 8 9 2 10 1 11 12 12
REMARK H PARENT 12 13
REMARK Flexibility Score: inf
ROOT
ATOM      1  C   UNL     1       4.927 -24.356   7.524  1.00  0.00     0.021 A 
ATOM      2  C   UNL     1       5.667 -23.224   7.128  1.00  0.00     0.062 A 
ATOM      3  C   UNL     1       5.412 -22.585   5.897  1.00  0.00     0.161 A 
ATOM      4  C   UNL     1       4.405 -23.089   5.057  1.00  0.00     0.157 A 
ATOM      5  C   UNL     1       3.669 -24.211   5.445  1.00  0.00     0.051 A 
ATOM      6  C   UNL     1       3.924 -24.841   6.664  1.00  0.00     0.016 A 
ENDROOT
BRANCH   1   7
ATOM      7  C   UNL     1       5.212 -25.015   8.827  1.00  0.00     0.159 C 
ATOM      8  C   UNL     1       5.219 -24.251  10.117  1.00  0.00     0.093 C 
ATOM      9  O   UNL     1       5.456 -26.252   8.862  1.00  0.00    -0.295 OA
ENDBRANCH   1   7
BRANCH   3  10
ATOM     10  O   UNL     1       6.136 -21.456   5.482  1.00  0.00    -0.493 OA
ATOM     11  C   UNL     1       7.428 -21.497   4.883  1.00  0.00     0.278 C 
ENDBRANCH   3  10
BRANCH   4  12
ATOM     12  O   UNL     1       4.120 -22.489   3.831  1.00  0.00    -0.504 OA
ATOM     13  H   UNL     1       3.644 -22.982   3.085  1.00  0.00     0.293 HD
ENDBRANCH   4  12
TORSDOF 3
ENDMDL
MODEL 6
REMARK VINA RESULT:    -4.580      2.090      3.696
REMARK INTER + INTRA:          -5.359
REMARK INTER:                  -5.265
REMARK INTRA:                  -0.094
REMARK UNBOUND:                -0.110
REMARK SMILES COc1cc(C(C)=O)ccc1O
REMARK SMILES IDX 5 1 4 2 3 3 11 4 10 5 9 6 6 7 7 8 8 9 2 10 1 11 12 12
REMARK H PARENT 12 13
REMARK Flexibility Score: inf
ROOT
ATOM      1  C   UNL     1       1.469 -19.824  -4.325  1.00  0.00     0.021 A 
ATOM      2  C   UNL     1       2.430 -20.062  -5.328  1.00  0.00     0.062 A 
ATOM      3  C   UNL     1       2.241 -21.077  -6.287  1.00  0.00     0.161 A 
ATOM      4  C   UNL     1       1.076 -21.861  -6.237  1.00  0.00     0.157 A 
ATOM      5  C   UNL     1       0.121 -21.630  -5.244  1.00  0.00     0.051 A 
ATOM      6  C   UNL     1       0.312 -20.624  -4.296  1.00  0.00     0.016 A 
ENDROOT
BRANCH   1   7
ATOM      7  C   UNL     1       1.688 -18.747  -3.322  1.00  0.00     0.159 C 
ATOM      8  C   UNL     1       2.725 -18.865  -2.245  1.00  0.00     0.093 C 
ATOM      9  O   UNL     1       0.988 -17.699  -3.366  1.00  0.00    -0.295 OA
ENDBRANCH   1   7
BRANCH   3  10
ATOM     10  O   UNL     1       3.183 -21.331  -7.296  1.00  0.00    -0.493 OA
ATOM     11  C   UNL     1       4.594 -21.216  -7.134  1.00  0.00     0.278 C 
ENDBRANCH   3  10
BRANCH   4  12
ATOM     12  O   UNL     1       0.849 -22.876  -7.166  1.00  0.00    -0.504 OA
ATOM     13  H   UNL     1       1.546 -23.581  -7.377  1.00  0.00     0.293 HD
ENDBRANCH   4  12
TORSDOF 3
ENDMDL
MODEL 7
REMARK VINA RESULT:    -4.570     11.129     12.415
REMARK INTER + INTRA:          -5.348
REMARK INTER:                  -5.247
REMARK INTRA:                  -0.101
REMARK UNBOUND:                -0.110
REMARK SMILES COc1cc(C(C)=O)ccc1O
REMARK SMILES IDX 5 1 4 2 3 3 11 4 10 5 9 6 6 7 7 8 8 9 2 10 1 11 12 12
REMARK H PARENT 12 13
REMARK Flexibility Score: inf
ROOT
ATOM      1  C   UNL     1      -6.800 -27.283  -3.401  1.00  0.00     0.021 A 
ATOM      2  C   UNL     1      -8.047 -27.095  -4.031  1.00  0.00     0.062 A 
ATOM      3  C   UNL     1      -8.784 -25.908  -3.840  1.00  0.00     0.161 A 
ATOM      4  C   UNL     1      -8.262 -24.903  -3.009  1.00  0.00     0.157 A 
ATOM      5  C   UNL     1      -7.027 -25.084  -2.383  1.00  0.00     0.051 A 
ATOM      6  C   UNL     1      -6.301 -26.260  -2.574  1.00  0.00     0.016 A 
ENDROOT
BRANCH   1   7
ATOM      7  C   UNL     1      -6.039 -28.543  -3.616  1.00  0.00     0.159 C 
ATOM      8  C   UNL     1      -6.725 -29.850  -3.879  1.00  0.00     0.093 C 
ATOM      9  O   UNL     1      -4.777 -28.527  -3.578  1.00  0.00    -0.295 OA
ENDBRANCH   1   7
BRANCH   3  10
ATOM     10  O   UNL     1     -10.027 -25.698  -4.457  1.00  0.00    -0.493 OA
ATOM     11  C   UNL     1     -11.125 -26.604  -4.395  1.00  0.00     0.278 C 
ENDBRANCH   3  10
BRANCH   4  12
ATOM     12  O   UNL     1      -8.958 -23.713  -2.793  1.00  0.00    -0.504 OA
ATOM     13  H   UNL     1      -9.050 -23.003  -3.509  1.00  0.00     0.293 HD
ENDBRANCH   4  12
TORSDOF 3
ENDMDL
MODEL 8
REMARK VINA RESULT:    -4.548     11.497     14.122
REMARK INTER + INTRA:          -5.323
REMARK INTER:                  -5.189
REMARK INTRA:                  -0.134
REMARK UNBOUND:                -0.110
REMARK SMILES COc1cc(C(C)=O)ccc1O
REMARK SMILES IDX 5 1 4 2 3 3 11 4 10 5 9 6 6 7 7 8 8 9 2 10 1 11 12 12
REMARK H PARENT 12 13
REMARK Flexibility Score: inf
ROOT
ATOM      1  C   UNL     1       4.578 -24.623   7.111  1.00  0.00     0.021 A 
ATOM      2  C   UNL     1       4.115 -24.339   5.811  1.00  0.00     0.062 A 
ATOM      3  C   UNL     1       4.499 -23.156   5.146  1.00  0.00     0.161 A 
ATOM      4  C   UNL     1       5.356 -22.252   5.795  1.00  0.00     0.157 A 
ATOM      5  C   UNL     1       5.818 -22.529   7.084  1.00  0.00     0.051 A 
ATOM      6  C   UNL     1       5.435 -23.700   7.739  1.00  0.00     0.016 A 
ENDROOT
BRANCH   1   7
ATOM      7  C   UNL     1       4.161 -25.877   7.794  1.00  0.00     0.159 C 
ATOM      8  C   UNL     1       4.616 -26.213   9.183  1.00  0.00     0.093 C 
ATOM      9  O   UNL     1       3.401 -26.691   7.200  1.00  0.00    -0.295 OA
ENDBRANCH   1   7
BRANCH   3  10
ATOM     10  O   UNL     1       4.051 -22.852   3.851  1.00  0.00    -0.493 OA
ATOM     11  C   UNL     1       4.412 -23.576   2.679  1.00  0.00     0.278 C 
ENDBRANCH   3  10
BRANCH   4  12
ATOM     12  O   UNL     1       5.761 -21.070   5.175  1.00  0.00    -0.504 OA
ATOM     13  H   UNL     1       6.425 -21.061   4.411  1.00  0.00     0.293 HD
ENDBRANCH   4  12
TORSDOF 3
ENDMDL
MODEL 9
REMARK VINA RESULT:    -4.487     11.325     12.603
REMARK INTER + INTRA:          -5.253
REMARK INTER:                  -5.120
REMARK INTRA:                  -0.133
REMARK UNBOUND:                -0.110
REMARK SMILES COc1cc(C(C)=O)ccc1O
REMARK SMILES IDX 5 1 4 2 3 3 11 4 10 5 9 6 6 7 7 8 8 9 2 10 1 11 12 12
REMARK H PARENT 12 13
REMARK Flexibility Score: inf
ROOT
ATOM      1  C   UNL     1      -7.372 -26.300  -2.446  1.00  0.00     0.021 A 
ATOM      2  C   UNL     1      -8.225 -27.413  -2.579  1.00  0.00     0.062 A 
ATOM      3  C   UNL     1      -7.758 -28.625  -3.128  1.00  0.00     0.161 A 
ATOM      4  C   UNL     1      -6.420 -28.717  -3.546  1.00  0.00     0.157 A 
ATOM      5  C   UNL     1      -5.570 -27.617  -3.416  1.00  0.00     0.051 A 
ATOM      6  C   UNL     1      -6.036 -26.419  -2.873  1.00  0.00     0.016 A 
ENDROOT
BRANCH   1   7
ATOM      7  C   UNL     1      -7.885 -25.031  -1.864  1.00  0.00     0.159 C 
ATOM      8  C   UNL     1      -7.349 -23.694  -2.278  1.00  0.00     0.093 C 
ATOM      9  O   UNL     1      -8.799 -25.065  -0.994  1.00  0.00    -0.295 OA
ENDBRANCH   1   7
BRANCH   3  10
ATOM     10  O   UNL     1      -8.590 -29.746  -3.270  1.00  0.00    -0.493 OA
ATOM     11  C   UNL     1      -8.892 -30.667  -2.226  1.00  0.00     0.278 C 
ENDBRANCH   3  10
BRANCH   4  12
ATOM     12  O   UNL     1      -5.916 -29.896  -4.095  1.00  0.00    -0.504 OA
ATOM     13  H   UNL     1      -4.947 -30.172  -3.986  1.00  0.00     0.293 HD
ENDBRANCH   4  12
TORSDOF 3
ENDMDL
