MODEL 1
REMARK VINA RESULT:    -2.628      0.000      0.000
REMARK INTER + INTRA:          -4.556
REMARK INTER:                  -3.780
REMARK INTRA:                  -0.776
REMARK UNBOUND:                -0.776
REMARK SMILES CCCCCCCCCO
REMARK SMILES IDX 6 1 5 2 4 3 3 4 2 5 1 6 7 7 8 8 9 9 10 10
REMARK H PARENT 10 11
REMARK Flexibility Score: inf
ROOT
ATOM      1  C   UNL     1     152.084 142.485 139.362  1.00  0.00     0.000 C 
ENDROOT
BRANCH   1   2
ATOM      2  C   UNL     1     153.566 142.516 138.960  1.00  0.00     0.000 C 
BRANCH   2   3
ATOM      3  C   UNL     1     154.368 143.446 139.882  1.00  0.00    -0.000 C 
BRANCH   3   4
ATOM      4  C   UNL     1     155.000 144.627 139.115  1.00  0.00    -0.000 C 
BRANCH   4   5
ATOM      5  C   UNL     1     154.697 144.614 137.607  1.00  0.00    -0.003 C 
ATOM      6  C   UNL     1     153.880 145.821 137.150  1.00  0.00     0.004 C 
ENDBRANCH   4   5
ENDBRANCH   3   4
ENDBRANCH   2   3
ENDBRANCH   1   2
BRANCH   1   7
ATOM      7  C   UNL     1     151.258 143.601 138.696  1.00  0.00     0.002 C 
BRANCH   7   8
ATOM      8  C   UNL     1     150.617 144.606 139.671  1.00  0.00     0.028 C 
BRANCH   8   9
ATOM      9  C   UNL     1     151.567 145.721 140.131  1.00  0.00     0.156 C 
BRANCH   9  10
ATOM     10  O   UNL     1     151.702 145.726 141.526  1.00  0.00    -0.396 OA
ATOM     11  H   UNL     1     151.647 144.780 141.821  1.00  0.00     0.210 HD
ENDBRANCH   9  10
ENDBRANCH   8   9
ENDBRANCH   7   8
ENDBRANCH   1   7
TORSDOF 8
ENDMDL
MODEL 2
REMARK VINA RESULT:    -2.611      8.712     10.338
REMARK INTER + INTRA:          -4.531
REMARK INTER:                  -3.783
REMARK INTRA:                  -0.748
REMARK UNBOUND:                -0.776
REMARK SMILES CCCCCCCCCO
REMARK SMILES IDX 6 1 5 2 4 3 3 4 2 5 1 6 7 7 8 8 9 9 10 10
REMARK H PARENT 10 11
REMARK Flexibility Score: inf
ROOT
ATOM      1  C   UNL     1     142.915 149.939 137.946  1.00  0.00     0.000 C 
ENDROOT
BRANCH   1   2
ATOM      2  C   UNL     1     142.306 149.113 139.089  1.00  0.00     0.000 C 
BRANCH   2   3
ATOM      3  C   UNL     1     142.412 147.609 138.799  1.00  0.00    -0.000 C 
BRANCH   3   4
ATOM      4  C   UNL     1     143.356 146.888 139.784  1.00  0.00    -0.000 C 
BRANCH   4   5
ATOM      5  C   UNL     1     144.641 146.355 139.127  1.00  0.00    -0.003 C 
ATOM      6  C   UNL     1     144.624 146.463 137.604  1.00  0.00     0.004 C 
ENDBRANCH   4   5
ENDBRANCH   3   4
ENDBRANCH   2   3
ENDBRANCH   1   2
BRANCH   1   7
ATOM      7  C   UNL     1     144.381 150.334 138.206  1.00  0.00     0.002 C 
BRANCH   7   8
ATOM      8  C   UNL     1     144.737 150.574 139.685  1.00  0.00     0.028 C 
BRANCH   8   9
ATOM      9  C   UNL     1     145.798 149.610 140.235  1.00  0.00     0.156 C 
BRANCH   9  10
ATOM     10  O   UNL     1     145.798 149.607 141.637  1.00  0.00    -0.396 OA
ATOM     11  H   UNL     1     146.584 149.070 141.920  1.00  0.00     0.210 HD
ENDBRANCH   9  10
ENDBRANCH   8   9
ENDBRANCH   7   8
ENDBRANCH   1   7
TORSDOF 8
ENDMDL
MODEL 3
REMARK VINA RESULT:    -2.593     12.270     14.291
REMARK INTER + INTRA:          -4.506
REMARK INTER:                  -3.728
REMARK INTRA:                  -0.779
REMARK UNBOUND:                -0.776
REMARK SMILES CCCCCCCCCO
REMARK SMILES IDX 6 1 5 2 4 3 3 4 2 5 1 6 7 7 8 8 9 9 10 10
REMARK H PARENT 10 11
REMARK Flexibility Score: inf
ROOT
ATOM      1  C   UNL     1     150.062 158.758 138.379  1.00  0.00     0.000 C 
ENDROOT
BRANCH   1   2
ATOM      2  C   UNL     1     149.190 159.172 139.574  1.00  0.00     0.000 C 
BRANCH   2   3
ATOM      3  C   UNL     1     147.703 159.190 139.190  1.00  0.00    -0.000 C 
BRANCH   3   4
ATOM      4  C   UNL     1     146.875 158.178 140.010  1.00  0.00    -0.000 C 
BRANCH   4   5
ATOM      5  C   UNL     1     146.528 156.895 139.235  1.00  0.00    -0.003 C 
ATOM      6  C   UNL     1     146.494 157.100 137.722  1.00  0.00     0.004 C 
ENDBRANCH   4   5
ENDBRANCH   3   4
ENDBRANCH   2   3
ENDBRANCH   1   2
BRANCH   1   7
ATOM      7  C   UNL     1     150.186 157.230 138.227  1.00  0.00     0.002 C 
BRANCH   7   8
ATOM      8  C   UNL     1     150.716 156.494 139.472  1.00  0.00     0.028 C 
BRANCH   8   9
ATOM      9  C   UNL     1     149.736 155.462 140.049  1.00  0.00     0.156 C 
BRANCH   9  10
ATOM     10  O   UNL     1     149.548 155.658 141.424  1.00  0.00    -0.396 OA
ATOM     11  H   UNL     1     150.159 156.393 141.693  1.00  0.00     0.210 HD
ENDBRANCH   9  10
ENDBRANCH   8   9
ENDBRANCH   7   8
ENDBRANCH   1   7
TORSDOF 8
ENDMDL
MODEL 4
REMARK VINA RESULT:    -2.551      8.810     10.405
REMARK INTER + INTRA:          -4.445
REMARK INTER:                  -3.759
REMARK INTRA:                  -0.686
REMARK UNBOUND:                -0.776
REMARK SMILES CCCCCCCCCO
REMARK SMILES IDX 6 1 5 2 4 3 3 4 2 5 1 6 7 7 8 8 9 9 10 10
REMARK H PARENT 10 11
REMARK Flexibility Score: inf
ROOT
ATOM      1  C   UNL     1     157.909 151.281 138.880  1.00  0.00     0.000 C 
ENDROOT
BRANCH   1   2
ATOM      2  C   UNL     1     156.868 150.950 139.960  1.00  0.00     0.000 C 
BRANCH   2   3
ATOM      3  C   UNL     1     155.835 152.078 140.093  1.00  0.00    -0.000 C 
BRANCH   3   4
ATOM      4  C   UNL     1     155.608 152.825 138.761  1.00  0.00    -0.000 C 
BRANCH   4   5
ATOM      5  C   UNL     1     155.907 154.331 138.842  1.00  0.00    -0.003 C 
ATOM      6  C   UNL     1     156.614 154.869 137.600  1.00  0.00     0.004 C 
ENDBRANCH   4   5
ENDBRANCH   3   4
ENDBRANCH   2   3
ENDBRANCH   1   2
BRANCH   1   7
ATOM      7  C   UNL     1     159.225 151.827 139.462  1.00  0.00     0.002 C 
BRANCH   7   8
ATOM      8  C   UNL     1     159.453 153.336 139.251  1.00  0.00     0.028 C 
BRANCH   8   9
ATOM      9  C   UNL     1     159.820 154.096 140.534  1.00  0.00     0.156 C 
BRANCH   9  10
ATOM     10  O   UNL     1     158.723 154.817 141.025  1.00  0.00    -0.396 OA
ATOM     11  H   UNL     1     158.461 155.456 140.313  1.00  0.00     0.210 HD
ENDBRANCH   9  10
ENDBRANCH   8   9
ENDBRANCH   7   8
ENDBRANCH   1   7
TORSDOF 8
ENDMDL
MODEL 5
REMARK VINA RESULT:    -2.549      8.152      9.641
REMARK INTER + INTRA:          -4.442
REMARK INTER:                  -3.728
REMARK INTRA:                  -0.715
REMARK UNBOUND:                -0.776
REMARK SMILES CCCCCCCCCO
REMARK SMILES IDX 6 1 5 2 4 3 3 4 2 5 1 6 7 7 8 8 9 9 10 10
REMARK H PARENT 10 11
REMARK Flexibility Score: inf
ROOT
ATOM      1  C   UNL     1     158.642 151.130 138.328  1.00  0.00     0.000 C 
ENDROOT
BRANCH   1   2
ATOM      2  C   UNL     1     159.232 152.081 139.380  1.00  0.00     0.000 C 
BRANCH   2   3
ATOM      3  C   UNL     1     159.062 153.547 138.955  1.00  0.00    -0.000 C 
BRANCH   3   4
ATOM      4  C   UNL     1     158.145 154.332 139.916  1.00  0.00    -0.000 C 
BRANCH   4   5
ATOM      5  C   UNL     1     156.895 154.916 139.236  1.00  0.00    -0.003 C 
ATOM      6  C   UNL     1     156.904 154.744 137.718  1.00  0.00     0.004 C 
ENDBRANCH   4   5
ENDBRANCH   3   4
ENDBRANCH   2   3
ENDBRANCH   1   2
BRANCH   1   7
ATOM      7  C   UNL     1     157.113 150.988 138.438  1.00  0.00     0.002 C 
BRANCH   7   8
ATOM      8  C   UNL     1     156.591 150.648 139.846  1.00  0.00     0.028 C 
BRANCH   8   9
ATOM      9  C   UNL     1     155.661 151.716 140.440  1.00  0.00     0.156 C 
BRANCH   9  10
ATOM     10  O   UNL     1     154.315 151.395 140.217  1.00  0.00    -0.396 OA
ATOM     11  H   UNL     1     154.106 150.621 140.802  1.00  0.00     0.210 HD
ENDBRANCH   9  10
ENDBRANCH   8   9
ENDBRANCH   7   8
ENDBRANCH   1   7
TORSDOF 8
ENDMDL
MODEL 6
REMARK VINA RESULT:    -2.525      8.395      9.956
REMARK INTER + INTRA:          -4.408
REMARK INTER:                  -3.779
REMARK INTRA:                  -0.629
REMARK UNBOUND:                -0.776
REMARK SMILES CCCCCCCCCO
REMARK SMILES IDX 6 1 5 2 4 3 3 4 2 5 1 6 7 7 8 8 9 9 10 10
REMARK H PARENT 10 11
REMARK Flexibility Score: inf
ROOT
ATOM      1  C   UNL     1     156.023 153.789 138.639  1.00  0.00     0.000 C 
ENDROOT
BRANCH   1   2
ATOM      2  C   UNL     1     157.282 154.661 138.751  1.00  0.00     0.000 C 
BRANCH   2   3
ATOM      3  C   UNL     1     158.013 154.405 140.078  1.00  0.00    -0.000 C 
BRANCH   3   4
ATOM      4  C   UNL     1     159.484 153.987 139.864  1.00  0.00    -0.000 C 
BRANCH   4   5
ATOM      5  C   UNL     1     159.641 152.667 139.090  1.00  0.00    -0.003 C 
ATOM      6  C   UNL     1     160.207 151.535 139.945  1.00  0.00     0.004 C 
ENDBRANCH   4   5
ENDBRANCH   3   4
ENDBRANCH   2   3
ENDBRANCH   1   2
BRANCH   1   7
ATOM      7  C   UNL     1     155.952 152.695 139.720  1.00  0.00     0.002 C 
BRANCH   7   8
ATOM      8  C   UNL     1     155.731 151.267 139.186  1.00  0.00     0.028 C 
BRANCH   8   9
ATOM      9  C   UNL     1     156.748 150.242 139.708  1.00  0.00     0.156 C 
BRANCH   9  10
ATOM     10  O   UNL     1     156.891 150.335 141.099  1.00  0.00    -0.396 OA
ATOM     11  H   UNL     1     156.979 149.407 141.439  1.00  0.00     0.210 HD
ENDBRANCH   9  10
ENDBRANCH   8   9
ENDBRANCH   7   8
ENDBRANCH   1   7
TORSDOF 8
ENDMDL
MODEL 7
REMARK VINA RESULT:    -2.505      6.678      8.997
REMARK INTER + INTRA:          -4.379
REMARK INTER:                  -3.944
REMARK INTRA:                  -0.435
REMARK UNBOUND:                -0.776
REMARK SMILES CCCCCCCCCO
REMARK SMILES IDX 6 1 5 2 4 3 3 4 2 5 1 6 7 7 8 8 9 9 10 10
REMARK H PARENT 10 11
REMARK Flexibility Score: inf
ROOT
ATOM      1  C   UNL     1     150.691 151.105 143.684  1.00  0.00     0.000 C 
ENDROOT
BRANCH   1   2
ATOM      2  C   UNL     1     151.314 150.170 144.731  1.00  0.00     0.000 C 
BRANCH   2   3
ATOM      3  C   UNL     1     150.488 150.164 146.026  1.00  0.00    -0.000 C 
BRANCH   3   4
ATOM      4  C   UNL     1     149.233 151.058 145.924  1.00  0.00    -0.000 C 
BRANCH   4   5
ATOM      5  C   UNL     1     147.912 150.280 146.040  1.00  0.00    -0.003 C 
ATOM      6  C   UNL     1     147.950 148.925 145.337  1.00  0.00     0.004 C 
ENDBRANCH   4   5
ENDBRANCH   3   4
ENDBRANCH   2   3
ENDBRANCH   1   2
BRANCH   1   7
ATOM      7  C   UNL     1     150.335 150.384 142.371  1.00  0.00     0.002 C 
BRANCH   7   8
ATOM      8  C   UNL     1     151.022 150.947 141.113  1.00  0.00     0.028 C 
BRANCH   8   9
ATOM      9  C   UNL     1     150.615 150.241 139.812  1.00  0.00     0.156 C 
BRANCH   9  10
ATOM     10  O   UNL     1     150.975 148.886 139.838  1.00  0.00    -0.396 OA
ATOM     11  H   UNL     1     151.387 148.719 140.726  1.00  0.00     0.210 HD
ENDBRANCH   9  10
ENDBRANCH   8   9
ENDBRANCH   7   8
ENDBRANCH   1   7
TORSDOF 8
ENDMDL
MODEL 8
REMARK VINA RESULT:    -2.479      7.916      9.734
REMARK INTER + INTRA:          -4.342
REMARK INTER:                  -3.657
REMARK INTRA:                  -0.686
REMARK UNBOUND:                -0.776
REMARK SMILES CCCCCCCCCO
REMARK SMILES IDX 6 1 5 2 4 3 3 4 2 5 1 6 7 7 8 8 9 9 10 10
REMARK H PARENT 10 11
REMARK Flexibility Score: inf
ROOT
ATOM      1  C   UNL     1     145.892 148.292 137.675  1.00  0.00     0.000 C 
ENDROOT
BRANCH   1   2
ATOM      2  C   UNL     1     146.081 146.882 138.255  1.00  0.00     0.000 C 
BRANCH   2   3
ATOM      3  C   UNL     1     144.726 146.216 138.537  1.00  0.00    -0.000 C 
BRANCH   3   4
ATOM      4  C   UNL     1     143.563 146.924 137.809  1.00  0.00    -0.000 C 
BRANCH   4   5
ATOM      5  C   UNL     1     142.437 147.385 138.749  1.00  0.00    -0.003 C 
ATOM      6  C   UNL     1     142.672 146.988 140.205  1.00  0.00     0.004 C 
ENDBRANCH   4   5
ENDBRANCH   3   4
ENDBRANCH   2   3
ENDBRANCH   1   2
BRANCH   1   7
ATOM      7  C   UNL     1     146.394 149.401 138.617  1.00  0.00     0.002 C 
BRANCH   7   8
ATOM      8  C   UNL     1     145.649 149.498 139.962  1.00  0.00     0.028 C 
BRANCH   8   9
ATOM      9  C   UNL     1     144.548 150.568 139.987  1.00  0.00     0.156 C 
BRANCH   9  10
ATOM     10  O   UNL     1     144.361 151.069 141.283  1.00  0.00    -0.396 OA
ATOM     11  H   UNL     1     145.136 151.660 141.474  1.00  0.00     0.210 HD
ENDBRANCH   9  10
ENDBRANCH   8   9
ENDBRANCH   7   8
ENDBRANCH   1   7
TORSDOF 8
ENDMDL
MODEL 9
REMARK VINA RESULT:    -2.465     12.836     14.680
REMARK INTER + INTRA:          -4.322
REMARK INTER:                  -3.618
REMARK INTRA:                  -0.705
REMARK UNBOUND:                -0.776
REMARK SMILES CCCCCCCCCO
REMARK SMILES IDX 6 1 5 2 4 3 3 4 2 5 1 6 7 7 8 8 9 9 10 10
REMARK H PARENT 10 11
REMARK Flexibility Score: inf
ROOT
ATOM      1  C   UNL     1     146.820 157.145 138.944  1.00  0.00     0.000 C 
ENDROOT
BRANCH   1   2
ATOM      2  C   UNL     1     146.846 157.952 140.250  1.00  0.00     0.000 C 
BRANCH   2   3
ATOM      3  C   UNL     1     147.153 159.432 139.977  1.00  0.00    -0.000 C 
BRANCH   3   4
ATOM      4  C   UNL     1     147.808 159.649 138.596  1.00  0.00    -0.000 C 
BRANCH   4   5
ATOM      5  C   UNL     1     149.336 159.809 138.658  1.00  0.00    -0.003 C 
ATOM      6  C   UNL     1     149.831 160.319 140.010  1.00  0.00     0.004 C 
ENDBRANCH   4   5
ENDBRANCH   3   4
ENDBRANCH   2   3
ENDBRANCH   1   2
BRANCH   1   7
ATOM      7  C   UNL     1     147.953 156.106 138.857  1.00  0.00     0.002 C 
BRANCH   7   8
ATOM      8  C   UNL     1     148.851 156.018 140.106  1.00  0.00     0.028 C 
BRANCH   8   9
ATOM      9  C   UNL     1     150.310 156.425 139.854  1.00  0.00     0.156 C 
BRANCH   9  10
ATOM     10  O   UNL     1     150.860 157.056 140.979  1.00  0.00    -0.396 OA
ATOM     11  H   UNL     1     150.097 157.322 141.556  1.00  0.00     0.210 HD
ENDBRANCH   9  10
ENDBRANCH   8   9
ENDBRANCH   7   8
ENDBRANCH   1   7
TORSDOF 8
ENDMDL
