MODEL 1
REMARK VINA RESULT:    -3.026      0.000      0.000
REMARK INTER + INTRA:          -4.095
REMARK INTER:                  -3.734
REMARK INTRA:                  -0.362
REMARK UNBOUND:                -0.362
REMARK SMILES CCCCC(=O)CC
REMARK SMILES IDX 4 1 3 2 2 3 1 4 5 5 6 6 7 7 8 8
REMARK H PARENT
REMARK Flexibility Score: inf
ROOT
ATOM      1  C   UNL     1     105.931 108.210 101.886  1.00  0.00     0.075 C 
ENDROOT
BRANCH   1   2
ATOM      2  C   UNL     1     106.752 106.953 102.209  1.00  0.00     0.008 C 
BRANCH   2   3
ATOM      3  C   UNL     1     108.205 107.278 102.588  1.00  0.00    -0.003 C 
ATOM      4  C   UNL     1     108.469 107.138 104.087  1.00  0.00     0.004 C 
ENDBRANCH   2   3
ENDBRANCH   1   2
BRANCH   1   5
ATOM      5  C   UNL     1     104.841 108.405 102.907  1.00  0.00     0.132 C 
ATOM      6  O   UNL     1     103.987 109.259 102.717  1.00  0.00    -0.300 OA
BRANCH   5   7
ATOM      7  C   UNL     1     104.771 107.555 104.148  1.00  0.00     0.072 C 
ATOM      8  C   UNL     1     105.113 108.376 105.387  1.00  0.00     0.012 C 
ENDBRANCH   5   7
ENDBRANCH   1   5
TORSDOF 4
ENDMDL
MODEL 2
REMARK VINA RESULT:    -3.008      3.584      4.674
REMARK INTER + INTRA:          -4.073
REMARK INTER:                  -3.840
REMARK INTRA:                  -0.233
REMARK UNBOUND:                -0.362
REMARK SMILES CCCCC(=O)CC
REMARK SMILES IDX 4 1 3 2 2 3 1 4 5 5 6 6 7 7 8 8
REMARK H PARENT
REMARK Flexibility Score: inf
ROOT
ATOM      1  C   UNL     1     107.318 105.377 104.983  1.00  0.00     0.075 C 
ENDROOT
BRANCH   1   2
ATOM      2  C   UNL     1     107.260 106.426 103.864  1.00  0.00     0.008 C 
BRANCH   2   3
ATOM      3  C   UNL     1     108.554 107.248 103.757  1.00  0.00    -0.003 C 
ATOM      4  C   UNL     1     108.981 107.491 102.310  1.00  0.00     0.004 C 
ENDBRANCH   2   3
ENDBRANCH   1   2
BRANCH   1   5
ATOM      5  C   UNL     1     107.034 104.003 104.433  1.00  0.00     0.132 C 
ATOM      6  O   UNL     1     107.023 103.044 105.192  1.00  0.00    -0.300 OA
BRANCH   5   7
ATOM      7  C   UNL     1     106.743 103.791 102.971  1.00  0.00     0.072 C 
ATOM      8  C   UNL     1     107.745 102.820 102.355  1.00  0.00     0.012 C 
ENDBRANCH   5   7
ENDBRANCH   1   5
TORSDOF 4
ENDMDL
MODEL 3
REMARK VINA RESULT:    -2.938      1.662      2.255
REMARK INTER + INTRA:          -3.986
REMARK INTER:                  -3.731
REMARK INTRA:                  -0.255
REMARK UNBOUND:                -0.362
REMARK SMILES CCCCC(=O)CC
REMARK SMILES IDX 4 1 3 2 2 3 1 4 5 5 6 6 7 7 8 8
REMARK H PARENT
REMARK Flexibility Score: inf
ROOT
ATOM      1  C   UNL     1     105.932 106.320 103.540  1.00  0.00     0.075 C 
ENDROOT
BRANCH   1   2
ATOM      2  C   UNL     1     106.826 107.378 104.202  1.00  0.00     0.008 C 
BRANCH   2   3
ATOM      3  C   UNL     1     108.323 107.082 104.022  1.00  0.00    -0.003 C 
ATOM      4  C   UNL     1     108.884 107.648 102.718  1.00  0.00     0.004 C 
ENDBRANCH   2   3
ENDBRANCH   1   2
BRANCH   1   5
ATOM      5  C   UNL     1     105.004 106.963 102.542  1.00  0.00     0.132 C 
ATOM      6  O   UNL     1     104.034 106.339 102.137  1.00  0.00    -0.300 OA
BRANCH   5   7
ATOM      7  C   UNL     1     105.237 108.367 102.049  1.00  0.00     0.072 C 
ATOM      8  C   UNL     1     104.192 109.321 102.618  1.00  0.00     0.012 C 
ENDBRANCH   5   7
ENDBRANCH   1   5
TORSDOF 4
ENDMDL
MODEL 4
REMARK VINA RESULT:    -2.928      2.177      3.233
REMARK INTER + INTRA:          -3.975
REMARK INTER:                  -3.734
REMARK INTRA:                  -0.241
REMARK UNBOUND:                -0.362
REMARK SMILES CCCCC(=O)CC
REMARK SMILES IDX 4 1 3 2 2 3 1 4 5 5 6 6 7 7 8 8
REMARK H PARENT
REMARK Flexibility Score: inf
ROOT
ATOM      1  C   UNL     1     104.554 106.694 102.059  1.00  0.00     0.075 C 
ENDROOT
BRANCH   1   2
ATOM      2  C   UNL     1     104.886 105.444 102.887  1.00  0.00     0.008 C 
BRANCH   2   3
ATOM      3  C   UNL     1     103.660 104.879 103.621  1.00  0.00    -0.003 C 
ATOM      4  C   UNL     1     102.688 104.165 102.683  1.00  0.00     0.004 C 
ENDBRANCH   2   3
ENDBRANCH   1   2
BRANCH   1   5
ATOM      5  C   UNL     1     104.750 107.940 102.884  1.00  0.00     0.132 C 
ATOM      6  O   UNL     1     104.091 108.937 102.629  1.00  0.00    -0.300 OA
BRANCH   5   7
ATOM      7  C   UNL     1     105.728 107.974 104.029  1.00  0.00     0.072 C 
ATOM      8  C   UNL     1     105.026 108.346 105.330  1.00  0.00     0.012 C 
ENDBRANCH   5   7
ENDBRANCH   1   5
TORSDOF 4
ENDMDL
MODEL 5
REMARK VINA RESULT:    -2.927      2.921      4.062
REMARK INTER + INTRA:          -3.973
REMARK INTER:                  -3.708
REMARK INTRA:                  -0.265
REMARK UNBOUND:                -0.362
REMARK SMILES CCCCC(=O)CC
REMARK SMILES IDX 4 1 3 2 2 3 1 4 5 5 6 6 7 7 8 8
REMARK H PARENT
REMARK Flexibility Score: inf
ROOT
ATOM      1  C   UNL     1     105.733 106.299 103.102  1.00  0.00     0.075 C 
ENDROOT
BRANCH   1   2
ATOM      2  C   UNL     1     104.960 107.063 104.187  1.00  0.00     0.008 C 
BRANCH   2   3
ATOM      3  C   UNL     1     104.862 108.567 103.893  1.00  0.00    -0.003 C 
ATOM      4  C   UNL     1     104.331 108.862 102.491  1.00  0.00     0.004 C 
ENDBRANCH   2   3
ENDBRANCH   1   2
BRANCH   1   5
ATOM      5  C   UNL     1     105.053 104.991 102.792  1.00  0.00     0.132 C 
ATOM      6  O   UNL     1     105.664 104.128 102.179  1.00  0.00    -0.300 OA
BRANCH   5   7
ATOM      7  C   UNL     1     103.641 104.717 103.240  1.00  0.00     0.072 C 
ATOM      8  C   UNL     1     102.704 104.606 102.043  1.00  0.00     0.012 C 
ENDBRANCH   5   7
ENDBRANCH   1   5
TORSDOF 4
ENDMDL
MODEL 6
REMARK VINA RESULT:    -2.906      3.112      3.704
REMARK INTER + INTRA:          -3.947
REMARK INTER:                  -3.668
REMARK INTRA:                  -0.279
REMARK UNBOUND:                -0.362
REMARK SMILES CCCCC(=O)CC
REMARK SMILES IDX 4 1 3 2 2 3 1 4 5 5 6 6 7 7 8 8
REMARK H PARENT
REMARK Flexibility Score: inf
ROOT
ATOM      1  C   UNL     1     106.117 105.698 103.943  1.00  0.00     0.075 C 
ENDROOT
BRANCH   1   2
ATOM      2  C   UNL     1     106.651 104.282 103.685  1.00  0.00     0.008 C 
BRANCH   2   3
ATOM      3  C   UNL     1     107.021 104.049 102.213  1.00  0.00    -0.003 C 
ATOM      4  C   UNL     1     107.418 102.601 101.926  1.00  0.00     0.004 C 
ENDBRANCH   2   3
ENDBRANCH   1   2
BRANCH   1   5
ATOM      5  C   UNL     1     104.698 105.825 103.453  1.00  0.00     0.132 C 
ATOM      6  O   UNL     1     104.391 106.770 102.742  1.00  0.00    -0.300 OA
BRANCH   5   7
ATOM      7  C   UNL     1     103.654 104.797 103.806  1.00  0.00     0.072 C 
ATOM      8  C   UNL     1     102.906 104.334 102.560  1.00  0.00     0.012 C 
ENDBRANCH   5   7
ENDBRANCH   1   5
TORSDOF 4
ENDMDL
MODEL 7
REMARK VINA RESULT:    -2.900      2.848      3.813
REMARK INTER + INTRA:          -3.940
REMARK INTER:                  -3.665
REMARK INTRA:                  -0.275
REMARK UNBOUND:                -0.362
REMARK SMILES CCCCC(=O)CC
REMARK SMILES IDX 4 1 3 2 2 3 1 4 5 5 6 6 7 7 8 8
REMARK H PARENT
REMARK Flexibility Score: inf
ROOT
ATOM      1  C   UNL     1     106.129 106.142 102.530  1.00  0.00     0.075 C 
ENDROOT
BRANCH   1   2
ATOM      2  C   UNL     1     107.488 106.481 101.903  1.00  0.00     0.008 C 
BRANCH   2   3
ATOM      3  C   UNL     1     108.272 107.520 102.719  1.00  0.00    -0.003 C 
ATOM      4  C   UNL     1     108.476 107.097 104.173  1.00  0.00     0.004 C 
ENDBRANCH   2   3
ENDBRANCH   1   2
BRANCH   1   5
ATOM      5  C   UNL     1     105.967 104.650 102.666  1.00  0.00     0.132 C 
ATOM      6  O   UNL     1     104.928 104.123 102.297  1.00  0.00    -0.300 OA
BRANCH   5   7
ATOM      7  C   UNL     1     107.070 103.792 103.230  1.00  0.00     0.072 C 
ATOM      8  C   UNL     1     107.549 102.778 102.197  1.00  0.00     0.012 C 
ENDBRANCH   5   7
ENDBRANCH   1   5
TORSDOF 4
ENDMDL
MODEL 8
REMARK VINA RESULT:    -2.898      1.513      2.250
REMARK INTER + INTRA:          -3.937
REMARK INTER:                  -3.652
REMARK INTRA:                  -0.285
REMARK UNBOUND:                -0.362
REMARK SMILES CCCCC(=O)CC
REMARK SMILES IDX 4 1 3 2 2 3 1 4 5 5 6 6 7 7 8 8
REMARK H PARENT
REMARK Flexibility Score: inf
ROOT
ATOM      1  C   UNL     1     106.904 107.127 104.071  1.00  0.00     0.075 C 
ENDROOT
BRANCH   1   2
ATOM      2  C   UNL     1     107.787 107.491 102.869  1.00  0.00     0.008 C 
BRANCH   2   3
ATOM      3  C   UNL     1     108.038 106.296 101.937  1.00  0.00    -0.003 C 
ATOM      4  C   UNL     1     107.479 104.987 102.493  1.00  0.00     0.004 C 
ENDBRANCH   2   3
ENDBRANCH   1   2
BRANCH   1   5
ATOM      5  C   UNL     1     105.609 107.897 104.028  1.00  0.00     0.132 C 
ATOM      6  O   UNL     1     105.304 108.610 104.972  1.00  0.00    -0.300 OA
BRANCH   5   7
ATOM      7  C   UNL     1     104.694 107.821 102.834  1.00  0.00     0.072 C 
ATOM      8  C   UNL     1     104.484 109.202 102.224  1.00  0.00     0.012 C 
ENDBRANCH   5   7
ENDBRANCH   1   5
TORSDOF 4
ENDMDL
MODEL 9
REMARK VINA RESULT:    -2.816      2.301      3.848
REMARK INTER + INTRA:          -3.837
REMARK INTER:                  -3.473
REMARK INTRA:                  -0.363
REMARK UNBOUND:                -0.362
REMARK SMILES CCCCC(=O)CC
REMARK SMILES IDX 4 1 3 2 2 3 1 4 5 5 6 6 7 7 8 8
REMARK H PARENT
REMARK Flexibility Score: inf
ROOT
ATOM      1  C   UNL     1     105.748 106.025 102.894  1.00  0.00     0.075 C 
ENDROOT
BRANCH   1   2
ATOM      2  C   UNL     1     104.864 106.914 102.007  1.00  0.00     0.008 C 
BRANCH   2   3
ATOM      3  C   UNL     1     104.546 108.268 102.659  1.00  0.00    -0.003 C 
ATOM      4  C   UNL     1     104.886 108.300 104.148  1.00  0.00     0.004 C 
ENDBRANCH   2   3
ENDBRANCH   1   2
BRANCH   1   5
ATOM      5  C   UNL     1     107.071 105.761 102.225  1.00  0.00     0.132 C 
ATOM      6  O   UNL     1     107.383 104.613 101.945  1.00  0.00    -0.300 OA
BRANCH   5   7
ATOM      7  C   UNL     1     108.009 106.887 101.875  1.00  0.00     0.072 C 
ATOM      8  C   UNL     1     108.625 107.489 103.133  1.00  0.00     0.012 C 
ENDBRANCH   5   7
ENDBRANCH   1   5
TORSDOF 4
ENDMDL
