MODEL 1
REMARK VINA RESULT:    -2.661      0.000      0.000
REMARK INTER + INTRA:          -3.875
REMARK INTER:                  -3.672
REMARK INTRA:                  -0.203
REMARK UNBOUND:                -0.203
REMARK SMILES CCCCCCCCO
REMARK SMILES IDX 5 1 4 2 3 3 2 4 1 5 6 6 7 7 8 8 9 9
REMARK H PARENT 9 10
REMARK Flexibility Score: inf
ROOT
ATOM      1  C   UNL     1     128.322 127.096 116.967  1.00  0.00     0.000 C 
ENDROOT
BRANCH   1   2
ATOM      2  C   UNL     1     127.029 127.367 117.747  1.00  0.00    -0.000 C 
BRANCH   2   3
ATOM      3  C   UNL     1     127.033 128.778 118.348  1.00  0.00    -0.000 C 
BRANCH   3   4
ATOM      4  C   UNL     1     125.606 129.318 118.495  1.00  0.00    -0.003 C 
ATOM      5  C   UNL     1     124.603 128.183 118.680  1.00  0.00     0.004 C 
ENDBRANCH   3   4
ENDBRANCH   2   3
ENDBRANCH   1   2
BRANCH   1   6
ATOM      6  C   UNL     1     128.016 126.731 115.508  1.00  0.00     0.002 C 
BRANCH   6   7
ATOM      7  C   UNL     1     129.108 125.851 114.875  1.00  0.00     0.028 C 
BRANCH   7   8
ATOM      8  C   UNL     1     128.977 124.362 115.228  1.00  0.00     0.156 C 
BRANCH   8   9
ATOM      9  O   UNL     1     127.631 123.973 115.286  1.00  0.00    -0.396 OA
ATOM     10  H   UNL     1     127.516 123.250 114.615  1.00  0.00     0.210 HD
ENDBRANCH   8   9
ENDBRANCH   7   8
ENDBRANCH   6   7
ENDBRANCH   1   6
TORSDOF 7
ENDMDL
MODEL 2
REMARK VINA RESULT:    -2.584      0.901      1.407
REMARK INTER + INTRA:          -3.769
REMARK INTER:                  -3.549
REMARK INTRA:                  -0.220
REMARK UNBOUND:                -0.203
REMARK SMILES CCCCCCCCO
REMARK SMILES IDX 5 1 4 2 3 3 2 4 1 5 6 6 7 7 8 8 9 9
REMARK H PARENT 9 10
REMARK Flexibility Score: inf
ROOT
ATOM      1  C   UNL     1     127.838 126.713 115.535  1.00  0.00     0.000 C 
ENDROOT
BRANCH   1   2
ATOM      2  C   UNL     1     127.849 126.707 117.068  1.00  0.00    -0.000 C 
BRANCH   2   3
ATOM      3  C   UNL     1     127.043 127.886 117.630  1.00  0.00    -0.000 C 
BRANCH   3   4
ATOM      4  C   UNL     1     126.014 127.407 118.660  1.00  0.00    -0.003 C 
ATOM      5  C   UNL     1     124.741 128.247 118.598  1.00  0.00     0.004 C 
ENDBRANCH   3   4
ENDBRANCH   2   3
ENDBRANCH   1   2
BRANCH   1   6
ATOM      6  C   UNL     1     128.522 125.458 114.976  1.00  0.00     0.002 C 
BRANCH   6   7
ATOM      7  C   UNL     1     129.142 124.580 116.077  1.00  0.00     0.028 C 
BRANCH   7   8
ATOM      8  C   UNL     1     128.492 123.193 116.195  1.00  0.00     0.156 C 
BRANCH   8   9
ATOM      9  O   UNL     1     127.407 123.067 115.314  1.00  0.00    -0.396 OA
ATOM     10  H   UNL     1     126.762 123.782 115.556  1.00  0.00     0.210 HD
ENDBRANCH   8   9
ENDBRANCH   7   8
ENDBRANCH   6   7
ENDBRANCH   1   6
TORSDOF 7
ENDMDL
MODEL 3
REMARK VINA RESULT:    -2.551     12.641     14.983
REMARK INTER + INTRA:          -3.724
REMARK INTER:                  -3.410
REMARK INTRA:                  -0.314
REMARK UNBOUND:                -0.203
REMARK SMILES CCCCCCCCO
REMARK SMILES IDX 5 1 4 2 3 3 2 4 1 5 6 6 7 7 8 8 9 9
REMARK H PARENT 9 10
REMARK Flexibility Score: inf
ROOT
ATOM      1  C   UNL     1     111.733 129.720 115.805  1.00  0.00     0.000 C 
ENDROOT
BRANCH   1   2
ATOM      2  C   UNL     1     111.716 128.959 117.136  1.00  0.00    -0.000 C 
BRANCH   2   3
ATOM      3  C   UNL     1     111.783 127.444 116.906  1.00  0.00    -0.000 C 
BRANCH   3   4
ATOM      4  C   UNL     1     111.690 126.681 118.232  1.00  0.00    -0.003 C 
ATOM      5  C   UNL     1     110.458 125.780 118.264  1.00  0.00     0.004 C 
ENDBRANCH   3   4
ENDBRANCH   2   3
ENDBRANCH   1   2
BRANCH   1   6
ATOM      6  C   UNL     1     112.827 129.175 114.875  1.00  0.00     0.002 C 
BRANCH   6   7
ATOM      7  C   UNL     1     114.216 129.756 115.189  1.00  0.00     0.028 C 
BRANCH   7   8
ATOM      8  C   UNL     1     115.267 128.687 115.526  1.00  0.00     0.156 C 
BRANCH   8   9
ATOM      9  O   UNL     1     114.841 127.415 115.119  1.00  0.00    -0.396 OA
ATOM     10  H   UNL     1     113.882 127.501 114.876  1.00  0.00     0.210 HD
ENDBRANCH   8   9
ENDBRANCH   7   8
ENDBRANCH   6   7
ENDBRANCH   1   6
TORSDOF 7
ENDMDL
MODEL 4
REMARK VINA RESULT:    -2.550     13.956     15.874
REMARK INTER + INTRA:          -3.722
REMARK INTER:                  -3.509
REMARK INTRA:                  -0.213
REMARK UNBOUND:                -0.203
REMARK SMILES CCCCCCCCO
REMARK SMILES IDX 5 1 4 2 3 3 2 4 1 5 6 6 7 7 8 8 9 9
REMARK H PARENT 9 10
REMARK Flexibility Score: inf
ROOT
ATOM      1  C   UNL     1     111.658 127.516 117.342  1.00  0.00     0.000 C 
ENDROOT
BRANCH   1   2
ATOM      2  C   UNL     1     110.440 127.660 118.263  1.00  0.00    -0.000 C 
BRANCH   2   3
ATOM      3  C   UNL     1     110.258 126.412 119.135  1.00  0.00    -0.000 C 
BRANCH   3   4
ATOM      4  C   UNL     1     110.459 125.133 118.314  1.00  0.00    -0.003 C 
ATOM      5  C   UNL     1     111.372 124.150 119.041  1.00  0.00     0.004 C 
ENDBRANCH   3   4
ENDBRANCH   2   3
ENDBRANCH   1   2
BRANCH   1   6
ATOM      6  C   UNL     1     112.016 128.860 116.691  1.00  0.00     0.002 C 
BRANCH   6   7
ATOM      7  C   UNL     1     112.336 128.727 115.193  1.00  0.00     0.028 C 
BRANCH   7   8
ATOM      8  C   UNL     1     113.840 128.754 114.881  1.00  0.00     0.156 C 
BRANCH   8   9
ATOM      9  O   UNL     1     114.377 127.459 114.877  1.00  0.00    -0.396 OA
ATOM     10  H   UNL     1     114.444 127.176 115.827  1.00  0.00     0.210 HD
ENDBRANCH   8   9
ENDBRANCH   7   8
ENDBRANCH   6   7
ENDBRANCH   1   6
TORSDOF 7
ENDMDL
MODEL 5
REMARK VINA RESULT:    -2.531     20.578     21.738
REMARK INTER + INTRA:          -3.696
REMARK INTER:                  -3.444
REMARK INTRA:                  -0.252
REMARK UNBOUND:                -0.203
REMARK SMILES CCCCCCCCO
REMARK SMILES IDX 5 1 4 2 3 3 2 4 1 5 6 6 7 7 8 8 9 9
REMARK H PARENT 9 10
REMARK Flexibility Score: inf
ROOT
ATOM      1  C   UNL     1     111.236 112.332 117.131  1.00  0.00     0.000 C 
ENDROOT
BRANCH   1   2
ATOM      2  C   UNL     1     110.965 110.978 117.799  1.00  0.00    -0.000 C 
BRANCH   2   3
ATOM      3  C   UNL     1     112.056 110.642 118.823  1.00  0.00    -0.000 C 
BRANCH   3   4
ATOM      4  C   UNL     1     113.435 110.582 118.159  1.00  0.00    -0.003 C 
ATOM      5  C   UNL     1     114.523 111.094 119.099  1.00  0.00     0.004 C 
ENDBRANCH   3   4
ENDBRANCH   2   3
ENDBRANCH   1   2
BRANCH   1   6
ATOM      6  C   UNL     1     111.137 112.219 115.603  1.00  0.00     0.002 C 
BRANCH   6   7
ATOM      7  C   UNL     1     110.392 113.406 114.967  1.00  0.00     0.028 C 
BRANCH   7   8
ATOM      8  C   UNL     1     110.462 114.694 115.801  1.00  0.00     0.156 C 
BRANCH   8   9
ATOM      9  O   UNL     1     111.463 115.552 115.323  1.00  0.00    -0.396 OA
ATOM     10  H   UNL     1     112.332 115.148 115.585  1.00  0.00     0.210 HD
ENDBRANCH   8   9
ENDBRANCH   7   8
ENDBRANCH   6   7
ENDBRANCH   1   6
TORSDOF 7
ENDMDL
MODEL 6
REMARK VINA RESULT:    -2.428      1.961      3.705
REMARK INTER + INTRA:          -3.554
REMARK INTER:                  -3.330
REMARK INTRA:                  -0.224
REMARK UNBOUND:                -0.203
REMARK SMILES CCCCCCCCO
REMARK SMILES IDX 5 1 4 2 3 3 2 4 1 5 6 6 7 7 8 8 9 9
REMARK H PARENT 9 10
REMARK Flexibility Score: inf
ROOT
ATOM      1  C   UNL     1     128.594 124.098 115.866  1.00  0.00     0.000 C 
ENDROOT
BRANCH   1   2
ATOM      2  C   UNL     1     128.765 125.257 114.875  1.00  0.00    -0.000 C 
BRANCH   2   3
ATOM      3  C   UNL     1     128.184 126.557 115.443  1.00  0.00    -0.000 C 
BRANCH   3   4
ATOM      4  C   UNL     1     127.988 126.457 116.960  1.00  0.00    -0.003 C 
ATOM      5  C   UNL     1     127.126 127.602 117.482  1.00  0.00     0.004 C 
ENDBRANCH   3   4
ENDBRANCH   2   3
ENDBRANCH   1   2
BRANCH   1   6
ATOM      6  C   UNL     1     129.294 122.831 115.354  1.00  0.00     0.002 C 
BRANCH   6   7
ATOM      7  C   UNL     1     128.624 121.540 115.854  1.00  0.00     0.028 C 
BRANCH   7   8
ATOM      8  C   UNL     1     127.103 121.515 115.642  1.00  0.00     0.156 C 
BRANCH   8   9
ATOM      9  O   UNL     1     126.423 121.500 116.868  1.00  0.00    -0.396 OA
ATOM     10  H   UNL     1     127.082 121.215 117.555  1.00  0.00     0.210 HD
ENDBRANCH   8   9
ENDBRANCH   7   8
ENDBRANCH   6   7
ENDBRANCH   1   6
TORSDOF 7
ENDMDL
MODEL 7
REMARK VINA RESULT:    -2.422     10.786     12.919
REMARK INTER + INTRA:          -3.545
REMARK INTER:                  -3.335
REMARK INTRA:                  -0.210
REMARK UNBOUND:                -0.203
REMARK SMILES CCCCCCCCO
REMARK SMILES IDX 5 1 4 2 3 3 2 4 1 5 6 6 7 7 8 8 9 9
REMARK H PARENT 9 10
REMARK Flexibility Score: inf
ROOT
ATOM      1  C   UNL     1     114.894 128.532 115.943  1.00  0.00     0.000 C 
ENDROOT
BRANCH   1   2
ATOM      2  C   UNL     1     113.724 128.759 114.977  1.00  0.00    -0.000 C 
BRANCH   2   3
ATOM      3  C   UNL     1     112.540 127.849 115.323  1.00  0.00    -0.000 C 
BRANCH   3   4
ATOM      4  C   UNL     1     111.878 128.282 116.636  1.00  0.00    -0.003 C 
ATOM      5  C   UNL     1     111.491 127.073 117.484  1.00  0.00     0.004 C 
ENDBRANCH   3   4
ENDBRANCH   2   3
ENDBRANCH   1   2
BRANCH   1   6
ATOM      6  C   UNL     1     116.133 129.324 115.499  1.00  0.00     0.002 C 
BRANCH   6   7
ATOM      7  C   UNL     1     117.449 128.597 115.821  1.00  0.00     0.028 C 
BRANCH   7   8
ATOM      8  C   UNL     1     117.365 127.072 115.654  1.00  0.00     0.156 C 
BRANCH   8   9
ATOM      9  O   UNL     1     117.573 126.418 116.877  1.00  0.00    -0.396 OA
ATOM     10  H   UNL     1     117.738 127.127 117.553  1.00  0.00     0.210 HD
ENDBRANCH   8   9
ENDBRANCH   7   8
ENDBRANCH   6   7
ENDBRANCH   1   6
TORSDOF 7
ENDMDL
MODEL 8
REMARK VINA RESULT:    -2.349      2.093      4.877
REMARK INTER + INTRA:          -3.445
REMARK INTER:                  -3.222
REMARK INTRA:                  -0.223
REMARK UNBOUND:                -0.203
REMARK SMILES CCCCCCCCO
REMARK SMILES IDX 5 1 4 2 3 3 2 4 1 5 6 6 7 7 8 8 9 9
REMARK H PARENT 9 10
REMARK Flexibility Score: inf
ROOT
ATOM      1  C   UNL     1     126.766 127.468 117.884  1.00  0.00     0.000 C 
ENDROOT
BRANCH   1   2
ATOM      2  C   UNL     1     128.188 128.002 117.671  1.00  0.00    -0.000 C 
BRANCH   2   3
ATOM      3  C   UNL     1     128.872 127.295 116.494  1.00  0.00    -0.000 C 
BRANCH   3   4
ATOM      4  C   UNL     1     127.836 126.699 115.534  1.00  0.00    -0.003 C 
ATOM      5  C   UNL     1     128.311 125.362 114.970  1.00  0.00     0.004 C 
ENDBRANCH   3   4
ENDBRANCH   2   3
ENDBRANCH   1   2
BRANCH   1   6
ATOM      6  C   UNL     1     125.802 128.607 118.245  1.00  0.00     0.002 C 
BRANCH   6   7
ATOM      7  C   UNL     1     124.834 128.227 119.379  1.00  0.00     0.028 C 
BRANCH   7   8
ATOM      8  C   UNL     1     123.704 127.286 118.934  1.00  0.00     0.156 C 
BRANCH   8   9
ATOM      9  O   UNL     1     123.969 125.964 119.318  1.00  0.00    -0.396 OA
ATOM     10  H   UNL     1     124.454 125.540 118.561  1.00  0.00     0.210 HD
ENDBRANCH   8   9
ENDBRANCH   7   8
ENDBRANCH   6   7
ENDBRANCH   1   6
TORSDOF 7
ENDMDL
