MODEL 1
REMARK VINA RESULT:    -2.702      0.000      0.000
REMARK INTER + INTRA:          -3.018
REMARK INTER:                  -3.018
REMARK INTRA:                   0.000
REMARK UNBOUND:                 0.000
REMARK SMILES Oc1cc(O)c2c(ccc3ccc(O)c(O)c32)c1
REMARK SMILES IDX 9 1 8 2 7 3 18 4 2 5 3 6 4 7 6 8 17 9 10 10 11 11 12 12
REMARK SMILES IDX 13 13 15 14 16 15 1 17 5 19 14 21
REMARK H PARENT 16 16 1 18 5 20 14 22
REMARK Flexibility Score: inf
ROOT
ATOM      1  C   UNL     1      34.197  25.125  32.669  1.00  0.00     0.009 A 
ATOM      2  C   UNL     1      35.008  25.083  31.543  1.00  0.00     0.009 A 
ATOM      3  C   UNL     1      34.473  24.744  30.296  1.00  0.00    -0.010 A 
ATOM      4  C   UNL     1      35.329  24.637  29.190  1.00  0.00     0.055 A 
ATOM      5  C   UNL     1      34.849  24.175  27.967  1.00  0.00     0.119 A 
ATOM      6  C   UNL     1      33.520  23.757  27.860  1.00  0.00     0.093 A 
ATOM      7  C   UNL     1      32.654  23.836  28.960  1.00  0.00     0.127 A 
ATOM      8  C   UNL     1      33.083  24.463  30.163  1.00  0.00     0.035 A 
ATOM      9  C   UNL     1      32.221  24.729  31.278  1.00  0.00     0.039 A 
ATOM     10  C   UNL     1      32.812  24.959  32.552  1.00  0.00    -0.014 A 
ATOM     11  C   UNL     1      32.010  25.069  33.694  1.00  0.00     0.013 A 
ATOM     12  C   UNL     1      30.626  25.010  33.588  1.00  0.00     0.051 A 
ATOM     13  C   UNL     1      30.015  24.935  32.338  1.00  0.00     0.158 A 
ATOM     14  C   UNL     1      30.810  24.888  31.168  1.00  0.00     0.166 A 
ENDROOT
BRANCH  14  15
ATOM     15  O   UNL     1      30.230  25.122  29.918  1.00  0.00    -0.504 OA
ATOM     16  H   UNL     1      29.711  25.958  29.686  1.00  0.00     0.293 HD
ENDBRANCH  14  15
BRANCH   5  17
ATOM     17  O   UNL     1      35.708  24.096  26.875  1.00  0.00    -0.508 OA
ATOM     18  H   UNL     1      36.678  24.381  26.942  1.00  0.00     0.293 HD
ENDBRANCH   5  17
BRANCH   7  19
ATOM     19  O   UNL     1      31.415  23.201  28.872  1.00  0.00    -0.507 OA
ATOM     20  H   UNL     1      31.304  22.213  29.067  1.00  0.00     0.293 HD
ENDBRANCH   7  19
BRANCH  13  21
ATOM     21  O   UNL     1      28.620  24.917  32.292  1.00  0.00    -0.504 OA
ATOM     22  H   UNL     1      28.034  24.972  33.114  1.00  0.00     0.293 HD
ENDBRANCH  13  21
TORSDOF 4
ENDMDL
MODEL 2
REMARK VINA RESULT:    -2.573      1.850      4.735
REMARK INTER + INTRA:          -2.874
REMARK INTER:                  -2.874
REMARK INTRA:                   0.000
REMARK UNBOUND:                 0.000
REMARK SMILES Oc1cc(O)c2c(ccc3ccc(O)c(O)c32)c1
REMARK SMILES IDX 9 1 8 2 7 3 18 4 2 5 3 6 4 7 6 8 17 9 10 10 11 11 12 12
REMARK SMILES IDX 13 13 15 14 16 15 1 17 5 19 14 21
REMARK H PARENT 16 16 1 18 5 20 14 22
REMARK Flexibility Score: inf
ROOT
ATOM      1  C   UNL     1      34.130  25.123  29.709  1.00  0.00     0.009 A 
ATOM      2  C   UNL     1      34.173  25.123  31.097  1.00  0.00     0.009 A 
ATOM      3  C   UNL     1      33.001  24.967  31.843  1.00  0.00    -0.010 A 
ATOM      4  C   UNL     1      33.064  25.046  33.242  1.00  0.00     0.055 A 
ATOM      5  C   UNL     1      31.898  25.026  34.004  1.00  0.00     0.119 A 
ATOM      6  C   UNL     1      30.656  24.988  33.366  1.00  0.00     0.093 A 
ATOM      7  C   UNL     1      30.571  24.930  31.967  1.00  0.00     0.127 A 
ATOM      8  C   UNL     1      31.751  24.779  31.186  1.00  0.00     0.035 A 
ATOM      9  C   UNL     1      31.749  24.553  29.770  1.00  0.00     0.039 A 
ATOM     10  C   UNL     1      32.936  24.834  29.037  1.00  0.00    -0.014 A 
ATOM     11  C   UNL     1      32.935  24.777  27.638  1.00  0.00     0.013 A 
ATOM     12  C   UNL     1      31.789  24.393  26.953  1.00  0.00     0.051 A 
ATOM     13  C   UNL     1      30.658  23.970  27.649  1.00  0.00     0.158 A 
ATOM     14  C   UNL     1      30.664  23.959  29.063  1.00  0.00     0.166 A 
ENDROOT
BRANCH  14  15
ATOM     15  O   UNL     1      29.676  23.260  29.763  1.00  0.00    -0.504 OA
ATOM     16  H   UNL     1      29.799  22.326  30.127  1.00  0.00     0.293 HD
ENDBRANCH  14  15
BRANCH   5  17
ATOM     17  O   UNL     1      31.982  25.083  35.392  1.00  0.00    -0.508 OA
ATOM     18  H   UNL     1      32.009  24.242  35.957  1.00  0.00     0.293 HD
ENDBRANCH   5  17
BRANCH   7  19
ATOM     19  O   UNL     1      29.325  25.125  31.372  1.00  0.00    -0.507 OA
ATOM     20  H   UNL     1      29.038  24.610  30.547  1.00  0.00     0.293 HD
ENDBRANCH   7  19
BRANCH  13  21
ATOM     21  O   UNL     1      29.549  23.559  26.905  1.00  0.00    -0.504 OA
ATOM     22  H   UNL     1      29.578  23.387  25.910  1.00  0.00     0.293 HD
ENDBRANCH  13  21
TORSDOF 4
ENDMDL
MODEL 3
REMARK VINA RESULT:    -2.553      2.241      4.159
REMARK INTER + INTRA:          -2.851
REMARK INTER:                  -2.851
REMARK INTRA:                   0.000
REMARK UNBOUND:                 0.000
REMARK SMILES Oc1cc(O)c2c(ccc3ccc(O)c(O)c32)c1
REMARK SMILES IDX 9 1 8 2 7 3 18 4 2 5 3 6 4 7 6 8 17 9 10 10 11 11 12 12
REMARK SMILES IDX 13 13 15 14 16 15 1 17 5 19 14 21
REMARK H PARENT 16 16 1 18 5 20 14 22
REMARK Flexibility Score: inf
ROOT
ATOM      1  C   UNL     1      34.097  25.086  27.813  1.00  0.00     0.009 A 
ATOM      2  C   UNL     1      34.968  25.103  28.895  1.00  0.00     0.009 A 
ATOM      3  C   UNL     1      34.481  24.961  30.198  1.00  0.00    -0.010 A 
ATOM      4  C   UNL     1      35.373  25.057  31.276  1.00  0.00     0.055 A 
ATOM      5  C   UNL     1      34.901  25.050  32.586  1.00  0.00     0.119 A 
ATOM      6  C   UNL     1      33.526  25.008  32.826  1.00  0.00     0.093 A 
ATOM      7  C   UNL     1      32.616  24.934  31.761  1.00  0.00     0.127 A 
ATOM      8  C   UNL     1      33.089  24.769  30.428  1.00  0.00     0.035 A 
ATOM      9  C   UNL     1      32.236  24.525  29.302  1.00  0.00     0.039 A 
ATOM     10  C   UNL     1      32.741  24.793  27.999  1.00  0.00    -0.014 A 
ATOM     11  C   UNL     1      31.898  24.719  26.883  1.00  0.00     0.013 A 
ATOM     12  C   UNL     1      30.572  24.330  27.031  1.00  0.00     0.051 A 
ATOM     13  C   UNL     1      30.090  23.919  28.272  1.00  0.00     0.158 A 
ATOM     14  C   UNL     1      30.947  23.927  29.398  1.00  0.00     0.166 A 
ENDROOT
BRANCH  14  15
ATOM     15  O   UNL     1      30.583  23.240  30.560  1.00  0.00    -0.504 OA
ATOM     16  H   UNL     1      30.186  23.684  31.375  1.00  0.00     0.293 HD
ENDBRANCH  14  15
BRANCH   5  17
ATOM     17  O   UNL     1      35.804  25.124  33.644  1.00  0.00    -0.508 OA
ATOM     18  H   UNL     1      36.665  25.652  33.570  1.00  0.00     0.293 HD
ENDBRANCH   5  17
BRANCH   7  19
ATOM     19  O   UNL     1      31.262  25.125  32.034  1.00  0.00    -0.507 OA
ATOM     20  H   UNL     1      30.742  25.904  31.648  1.00  0.00     0.293 HD
ENDBRANCH   7  19
BRANCH  13  21
ATOM     21  O   UNL     1      28.759  23.503  28.351  1.00  0.00    -0.504 OA
ATOM     22  H   UNL     1      28.283  23.319  29.222  1.00  0.00     0.293 HD
ENDBRANCH  13  21
TORSDOF 4
ENDMDL
MODEL 4
REMARK VINA RESULT:    -0.895      0.958      4.953
REMARK INTER + INTRA:          -0.999
REMARK INTER:                  -0.999
REMARK INTRA:                   0.000
REMARK UNBOUND:                 0.000
REMARK SMILES Oc1cc(O)c2c(ccc3ccc(O)c(O)c32)c1
REMARK SMILES IDX 9 1 8 2 7 3 18 4 2 5 3 6 4 7 6 8 17 9 10 10 11 11 12 12
REMARK SMILES IDX 13 13 15 14 16 15 1 17 5 19 14 21
REMARK H PARENT 16 16 1 18 5 20 14 22
REMARK Flexibility Score: inf
ROOT
ATOM      1  C   UNL     1      34.969  25.061  31.893  1.00  0.00     0.009 A 
ATOM      2  C   UNL     1      34.125  25.098  32.995  1.00  0.00     0.009 A 
ATOM      3  C   UNL     1      32.745  24.937  32.835  1.00  0.00    -0.010 A 
ATOM      4  C   UNL     1      31.909  25.054  33.956  1.00  0.00     0.055 A 
ATOM      5  C   UNL     1      30.524  25.029  33.809  1.00  0.00     0.119 A 
ATOM      6  C   UNL     1      29.965  24.948  32.531  1.00  0.00     0.093 A 
ATOM      7  C   UNL     1      30.784  24.851  31.397  1.00  0.00     0.127 A 
ATOM      8  C   UNL     1      32.193  24.705  31.544  1.00  0.00     0.035 A 
ATOM      9  C   UNL     1      33.087  24.442  30.454  1.00  0.00     0.039 A 
ATOM     10  C   UNL     1      34.470  24.728  30.628  1.00  0.00    -0.014 A 
ATOM     11  C   UNL     1      35.354  24.634  29.546  1.00  0.00     0.013 A 
ATOM     12  C   UNL     1      34.900  24.208  28.305  1.00  0.00     0.051 A 
ATOM     13  C   UNL     1      33.583  23.779  28.142  1.00  0.00     0.158 A 
ATOM     14  C   UNL     1      32.694  23.806  29.242  1.00  0.00     0.166 A 
ENDROOT
BRANCH  14  15
ATOM     15  O   UNL     1      31.486  23.105  29.182  1.00  0.00    -0.504 OA
ATOM     16  H   UNL     1      31.016  22.724  29.991  1.00  0.00     0.293 HD
ENDBRANCH  14  15
BRANCH   5  17
ATOM     17  O   UNL     1      29.710  25.125  34.935  1.00  0.00    -0.508 OA
ATOM     18  H   UNL     1      28.780  25.524  34.885  1.00  0.00     0.293 HD
ENDBRANCH   5  17
BRANCH   7  19
ATOM     19  O   UNL     1      30.196  25.003  30.142  1.00  0.00    -0.507 OA
ATOM     20  H   UNL     1      30.052  25.915  29.723  1.00  0.00     0.293 HD
ENDBRANCH   7  19
BRANCH  13  21
ATOM     21  O   UNL     1      33.196  23.325  26.880  1.00  0.00    -0.504 OA
ATOM     22  H   UNL     1      32.426  22.689  26.728  1.00  0.00     0.293 HD
ENDBRANCH  13  21
TORSDOF 4
ENDMDL
MODEL 5
REMARK VINA RESULT:    -0.890      1.973      3.012
REMARK INTER + INTRA:          -0.994
REMARK INTER:                  -0.994
REMARK INTRA:                   0.000
REMARK UNBOUND:                 0.000
REMARK SMILES Oc1cc(O)c2c(ccc3ccc(O)c(O)c32)c1
REMARK SMILES IDX 9 1 8 2 7 3 18 4 2 5 3 6 4 7 6 8 17 9 10 10 11 11 12 12
REMARK SMILES IDX 13 13 15 14 16 15 1 17 5 19 14 21
REMARK H PARENT 16 16 1 18 5 20 14 22
REMARK Flexibility Score: inf
ROOT
ATOM      1  C   UNL     1      31.303  25.102  31.889  1.00  0.00     0.009 A 
ATOM      2  C   UNL     1      32.689  25.125  31.991  1.00  0.00     0.009 A 
ATOM      3  C   UNL     1      33.486  24.825  30.882  1.00  0.00    -0.010 A 
ATOM      4  C   UNL     1      34.880  24.782  31.034  1.00  0.00     0.055 A 
ATOM      5  C   UNL     1      35.692  24.359  29.984  1.00  0.00     0.119 A 
ATOM      6  C   UNL     1      35.109  23.918  28.794  1.00  0.00     0.093 A 
ATOM      7  C   UNL     1      33.716  23.933  28.631  1.00  0.00     0.127 A 
ATOM      8  C   UNL     1      32.887  24.519  29.628  1.00  0.00     0.035 A 
ATOM      9  C   UNL     1      31.475  24.721  29.476  1.00  0.00     0.039 A 
ATOM     10  C   UNL     1      30.688  24.911  30.646  1.00  0.00    -0.014 A 
ATOM     11  C   UNL     1      29.291  24.957  30.560  1.00  0.00     0.013 A 
ATOM     12  C   UNL     1      28.662  24.872  29.325  1.00  0.00     0.051 A 
ATOM     13  C   UNL     1      29.411  24.834  28.150  1.00  0.00     0.158 A 
ATOM     14  C   UNL     1      30.824  24.853  28.216  1.00  0.00     0.166 A 
ENDROOT
BRANCH  14  15
ATOM     15  O   UNL     1      31.575  25.125  27.069  1.00  0.00    -0.504 OA
ATOM     16  H   UNL     1      32.462  24.689  26.861  1.00  0.00     0.293 HD
ENDBRANCH  14  15
BRANCH   5  17
ATOM     17  O   UNL     1      37.074  24.345  30.146  1.00  0.00    -0.508 OA
ATOM     18  H   UNL     1      37.621  25.198  30.119  1.00  0.00     0.293 HD
ENDBRANCH   5  17
BRANCH   7  19
ATOM     19  O   UNL     1      33.173  23.275  27.528  1.00  0.00    -0.507 OA
ATOM     20  H   UNL     1      32.613  22.436  27.625  1.00  0.00     0.293 HD
ENDBRANCH   7  19
BRANCH  13  21
ATOM     21  O   UNL     1      28.721  24.788  26.937  1.00  0.00    -0.504 OA
ATOM     22  H   UNL     1      28.552  23.934  26.424  1.00  0.00     0.293 HD
ENDBRANCH  13  21
TORSDOF 4
ENDMDL
MODEL 6
REMARK VINA RESULT:    -0.526      1.860      3.220
REMARK INTER + INTRA:          -0.587
REMARK INTER:                  -0.587
REMARK INTRA:                   0.000
REMARK UNBOUND:                 0.000
REMARK SMILES Oc1cc(O)c2c(ccc3ccc(O)c(O)c32)c1
REMARK SMILES IDX 9 1 8 2 7 3 18 4 2 5 3 6 4 7 6 8 17 9 10 10 11 11 12 12
REMARK SMILES IDX 13 13 15 14 16 15 1 17 5 19 14 21
REMARK H PARENT 16 16 1 18 5 20 14 22
REMARK Flexibility Score: inf
ROOT
ATOM      1  C   UNL     1      29.712  24.641  28.073  1.00  0.00     0.009 A 
ATOM      2  C   UNL     1      30.821  24.268  27.324  1.00  0.00     0.009 A 
ATOM      3  C   UNL     1      32.076  24.148  27.928  1.00  0.00    -0.010 A 
ATOM      4  C   UNL     1      33.191  23.842  27.134  1.00  0.00     0.055 A 
ATOM      5  C   UNL     1      34.471  23.845  27.683  1.00  0.00     0.119 A 
ATOM      6  C   UNL     1      34.650  24.215  29.018  1.00  0.00     0.093 A 
ATOM      7  C   UNL     1      33.550  24.545  29.822  1.00  0.00     0.127 A 
ATOM      8  C   UNL     1      32.227  24.382  29.324  1.00  0.00     0.035 A 
ATOM      9  C   UNL     1      31.047  24.542  30.124  1.00  0.00     0.039 A 
ATOM     10  C   UNL     1      29.808  24.773  29.463  1.00  0.00    -0.014 A 
ATOM     11  C   UNL     1      28.660  25.089  30.201  1.00  0.00     0.013 A 
ATOM     12  C   UNL     1      28.707  25.125  31.589  1.00  0.00     0.051 A 
ATOM     13  C   UNL     1      29.868  24.758  32.267  1.00  0.00     0.158 A 
ATOM     14  C   UNL     1      31.018  24.374  31.538  1.00  0.00     0.166 A 
ENDROOT
BRANCH  14  15
ATOM     15  O   UNL     1      32.070  23.718  32.183  1.00  0.00    -0.504 OA
ATOM     16  H   UNL     1      32.188  23.695  33.186  1.00  0.00     0.293 HD
ENDBRANCH  14  15
BRANCH   5  17
ATOM     17  O   UNL     1      35.563  23.517  26.884  1.00  0.00    -0.508 OA
ATOM     18  H   UNL     1      35.617  22.631  26.396  1.00  0.00     0.293 HD
ENDBRANCH   5  17
BRANCH   7  19
ATOM     19  O   UNL     1      33.793  25.123  31.068  1.00  0.00    -0.507 OA
ATOM     20  H   UNL     1      33.263  25.921  31.401  1.00  0.00     0.293 HD
ENDBRANCH   7  19
BRANCH  13  21
ATOM     21  O   UNL     1      29.843  24.777  33.663  1.00  0.00    -0.504 OA
ATOM     22  H   UNL     1      30.169  24.013  34.238  1.00  0.00     0.293 HD
ENDBRANCH  13  21
TORSDOF 4
ENDMDL
