MODEL 1
REMARK VINA RESULT:    -5.622      0.000      0.000
REMARK INTER + INTRA:          -9.427
REMARK INTER:                  -8.909
REMARK INTRA:                  -0.518
REMARK UNBOUND:                -0.518
REMARK SMILES CCCCCCCCCCCC(=O)[O-]
REMARK SMILES IDX 7 1 8 2 9 3 10 4 11 5 12 6 13 7 14 8 6 9 5 10 4 11 3 12 2 13
REMARK SMILES IDX 1 14
REMARK H PARENT
REMARK Flexibility Score: inf
ROOT
ATOM      1  C   UNL     1     105.736 311.507 195.128  1.00  0.00     0.000 C 
ENDROOT
BRANCH   1   2
ATOM      2  C   UNL     1     104.466 312.104 195.756  1.00  0.00     0.000 C 
BRANCH   2   3
ATOM      3  C   UNL     1     103.992 311.315 196.988  1.00  0.00     0.000 C 
BRANCH   3   4
ATOM      4  C   UNL     1     103.800 312.209 198.227  1.00  0.00     0.006 C 
BRANCH   4   5
ATOM      5  C   UNL     1     103.181 311.440 199.402  1.00  0.00     0.053 C 
BRANCH   5   6
ATOM      6  C   UNL     1     103.861 311.765 200.696  1.00  0.00     0.041 C 
ATOM      7  O   UNL     1     103.581 311.119 201.740  1.00  0.00    -0.550 OA
ATOM      8  O   UNL     1     104.830 312.759 200.742  1.00  0.00    -0.550 OA
ENDBRANCH   5   6
ENDBRANCH   4   5
ENDBRANCH   3   4
ENDBRANCH   2   3
ENDBRANCH   1   2
BRANCH   1   9
ATOM      9  C   UNL     1     105.576 311.209 193.626  1.00  0.00     0.000 C 
BRANCH   9  10
ATOM     10  C   UNL     1     104.207 311.580 193.023  1.00  0.00    -0.000 C 
BRANCH  10  11
ATOM     11  C   UNL     1     104.192 312.858 192.164  1.00  0.00    -0.000 C 
BRANCH  11  12
ATOM     12  C   UNL     1     105.573 313.527 192.067  1.00  0.00    -0.000 C 
BRANCH  12  13
ATOM     13  C   UNL     1     105.724 314.383 190.800  1.00  0.00    -0.003 C 
ATOM     14  C   UNL     1     104.417 314.524 190.019  1.00  0.00     0.004 C 
ENDBRANCH  12  13
ENDBRANCH  11  12
ENDBRANCH  10  11
ENDBRANCH   9  10
ENDBRANCH   1   9
TORSDOF 10
ENDMDL
MODEL 2
REMARK VINA RESULT:    -5.558      1.527      2.824
REMARK INTER + INTRA:          -9.325
REMARK INTER:                  -8.675
REMARK INTRA:                  -0.650
REMARK UNBOUND:                -0.518
REMARK SMILES CCCCCCCCCCCC(=O)[O-]
REMARK SMILES IDX 7 1 8 2 9 3 10 4 11 5 12 6 13 7 14 8 6 9 5 10 4 11 3 12 2 13
REMARK SMILES IDX 1 14
REMARK H PARENT
REMARK Flexibility Score: inf
ROOT
ATOM      1  C   UNL     1     104.232 311.437 193.073  1.00  0.00     0.000 C 
ENDROOT
BRANCH   1   2
ATOM      2  C   UNL     1     105.634 311.196 193.656  1.00  0.00     0.000 C 
BRANCH   2   3
ATOM      3  C   UNL     1     105.737 311.610 195.133  1.00  0.00     0.000 C 
BRANCH   3   4
ATOM      4  C   UNL     1     104.377 311.582 195.853  1.00  0.00     0.006 C 
BRANCH   4   5
ATOM      5  C   UNL     1     104.037 312.934 196.496  1.00  0.00     0.053 C 
BRANCH   5   6
ATOM      6  C   UNL     1     103.798 312.801 197.969  1.00  0.00     0.041 C 
ATOM      7  O   UNL     1     103.841 313.816 198.713  1.00  0.00    -0.550 OA
ATOM      8  O   UNL     1     103.492 311.561 198.515  1.00  0.00    -0.550 OA
ENDBRANCH   5   6
ENDBRANCH   4   5
ENDBRANCH   3   4
ENDBRANCH   2   3
ENDBRANCH   1   2
BRANCH   1   9
ATOM      9  C   UNL     1     104.097 312.810 192.391  1.00  0.00     0.000 C 
BRANCH   9  10
ATOM     10  C   UNL     1     105.421 313.446 191.921  1.00  0.00    -0.000 C 
BRANCH  10  11
ATOM     11  C   UNL     1     105.306 314.378 190.700  1.00  0.00    -0.000 C 
BRANCH  11  12
ATOM     12  C   UNL     1     103.848 314.726 190.351  1.00  0.00    -0.000 C 
BRANCH  12  13
ATOM     13  C   UNL     1     103.636 314.920 188.842  1.00  0.00    -0.003 C 
ATOM     14  C   UNL     1     102.404 314.183 188.316  1.00  0.00     0.004 C 
ENDBRANCH  12  13
ENDBRANCH  11  12
ENDBRANCH  10  11
ENDBRANCH   9  10
ENDBRANCH   1   9
TORSDOF 10
ENDMDL
MODEL 3
REMARK VINA RESULT:    -5.528      5.292      7.632
REMARK INTER + INTRA:          -9.278
REMARK INTER:                  -8.163
REMARK INTRA:                  -1.115
REMARK UNBOUND:                -0.518
REMARK SMILES CCCCCCCCCCCC(=O)[O-]
REMARK SMILES IDX 7 1 8 2 9 3 10 4 11 5 12 6 13 7 14 8 6 9 5 10 4 11 3 12 2 13
REMARK SMILES IDX 1 14
REMARK H PARENT
REMARK Flexibility Score: inf
ROOT
ATOM      1  C   UNL     1     104.451 311.406 193.170  1.00  0.00     0.000 C 
ENDROOT
BRANCH   1   2
ATOM      2  C   UNL     1     104.163 312.724 192.433  1.00  0.00     0.000 C 
BRANCH   2   3
ATOM      3  C   UNL     1     105.444 313.408 191.928  1.00  0.00     0.000 C 
BRANCH   3   4
ATOM      4  C   UNL     1     105.189 314.329 190.722  1.00  0.00     0.006 C 
BRANCH   4   5
ATOM      5  C   UNL     1     103.707 314.361 190.324  1.00  0.00     0.053 C 
BRANCH   5   6
ATOM      6  C   UNL     1     103.528 314.737 188.885  1.00  0.00     0.041 C 
ATOM      7  O   UNL     1     102.539 314.308 188.235  1.00  0.00    -0.550 OA
ATOM      8  O   UNL     1     104.437 315.590 188.271  1.00  0.00    -0.550 OA
ENDBRANCH   5   6
ENDBRANCH   4   5
ENDBRANCH   3   4
ENDBRANCH   2   3
ENDBRANCH   1   2
BRANCH   1   9
ATOM      9  C   UNL     1     105.779 311.433 193.947  1.00  0.00     0.000 C 
BRANCH   9  10
ATOM     10  C   UNL     1     105.645 311.576 195.477  1.00  0.00    -0.000 C 
BRANCH  10  11
ATOM     11  C   UNL     1     104.205 311.734 195.999  1.00  0.00    -0.000 C 
BRANCH  11  12
ATOM     12  C   UNL     1     103.965 313.089 196.686  1.00  0.00    -0.000 C 
BRANCH  12  13
ATOM     13  C   UNL     1     103.319 314.118 195.745  1.00  0.00    -0.003 C 
ATOM     14  C   UNL     1     104.308 315.175 195.253  1.00  0.00     0.004 C 
ENDBRANCH  12  13
ENDBRANCH  11  12
ENDBRANCH  10  11
ENDBRANCH   9  10
ENDBRANCH   1   9
TORSDOF 10
ENDMDL
MODEL 4
REMARK VINA RESULT:    -5.522      1.470      2.350
REMARK INTER + INTRA:          -9.268
REMARK INTER:                  -8.608
REMARK INTRA:                  -0.660
REMARK UNBOUND:                -0.518
REMARK SMILES CCCCCCCCCCCC(=O)[O-]
REMARK SMILES IDX 7 1 8 2 9 3 10 4 11 5 12 6 13 7 14 8 6 9 5 10 4 11 3 12 2 13
REMARK SMILES IDX 1 14
REMARK H PARENT
REMARK Flexibility Score: inf
ROOT
ATOM      1  C   UNL     1     103.688 313.008 196.359  1.00  0.00     0.000 C 
ENDROOT
BRANCH   1   2
ATOM      2  C   UNL     1     103.784 313.003 197.893  1.00  0.00     0.000 C 
BRANCH   2   3
ATOM      3  C   UNL     1     103.771 311.581 198.479  1.00  0.00     0.000 C 
BRANCH   3   4
ATOM      4  C   UNL     1     103.071 311.510 199.848  1.00  0.00     0.006 C 
BRANCH   4   5
ATOM      5  C   UNL     1     104.070 311.586 201.011  1.00  0.00     0.053 C 
BRANCH   5   6
ATOM      6  C   UNL     1     103.488 311.038 202.277  1.00  0.00     0.041 C 
ATOM      7  O   UNL     1     102.266 310.740 202.338  1.00  0.00    -0.550 OA
ATOM      8  O   UNL     1     104.303 310.823 203.381  1.00  0.00    -0.550 OA
ENDBRANCH   5   6
ENDBRANCH   4   5
ENDBRANCH   3   4
ENDBRANCH   2   3
ENDBRANCH   1   2
BRANCH   1   9
ATOM      9  C   UNL     1     104.158 311.686 195.726  1.00  0.00     0.000 C 
BRANCH   9  10
ATOM     10  C   UNL     1     105.537 311.738 195.037  1.00  0.00    -0.000 C 
BRANCH  10  11
ATOM     11  C   UNL     1     105.531 311.428 193.529  1.00  0.00    -0.000 C 
BRANCH  11  12
ATOM     12  C   UNL     1     104.182 311.745 192.861  1.00  0.00    -0.000 C 
BRANCH  12  13
ATOM     13  C   UNL     1     104.229 313.029 192.020  1.00  0.00    -0.003 C 
ATOM     14  C   UNL     1     103.891 314.282 192.829  1.00  0.00     0.004 C 
ENDBRANCH  12  13
ENDBRANCH  11  12
ENDBRANCH  10  11
ENDBRANCH   9  10
ENDBRANCH   1   9
TORSDOF 10
ENDMDL
MODEL 5
REMARK VINA RESULT:    -5.511     20.557     21.959
REMARK INTER + INTRA:          -9.251
REMARK INTER:                  -8.088
REMARK INTRA:                  -1.164
REMARK UNBOUND:                -0.518
REMARK SMILES CCCCCCCCCCCC(=O)[O-]
REMARK SMILES IDX 7 1 8 2 9 3 10 4 11 5 12 6 13 7 14 8 6 9 5 10 4 11 3 12 2 13
REMARK SMILES IDX 1 14
REMARK H PARENT
REMARK Flexibility Score: inf
ROOT
ATOM      1  C   UNL     1      88.045 326.670 194.016  1.00  0.00     0.000 C 
ENDROOT
BRANCH   1   2
ATOM      2  C   UNL     1      88.136 325.353 193.228  1.00  0.00     0.000 C 
BRANCH   2   3
ATOM      3  C   UNL     1      86.766 324.680 193.045  1.00  0.00     0.000 C 
BRANCH   3   4
ATOM      4  C   UNL     1      86.788 323.569 191.980  1.00  0.00     0.006 C 
BRANCH   4   5
ATOM      5  C   UNL     1      87.943 323.747 190.985  1.00  0.00     0.053 C 
BRANCH   5   6
ATOM      6  C   UNL     1      87.797 322.845 189.798  1.00  0.00     0.041 C 
ATOM      7  O   UNL     1      86.707 322.252 189.583  1.00  0.00    -0.550 OA
ATOM      8  O   UNL     1      88.854 322.685 188.911  1.00  0.00    -0.550 OA
ENDBRANCH   5   6
ENDBRANCH   4   5
ENDBRANCH   3   4
ENDBRANCH   2   3
ENDBRANCH   1   2
BRANCH   1   9
ATOM      9  C   UNL     1      86.721 326.813 194.787  1.00  0.00     0.000 C 
BRANCH   9  10
ATOM     10  C   UNL     1      86.781 326.427 196.279  1.00  0.00    -0.000 C 
BRANCH  10  11
ATOM     11  C   UNL     1      88.198 326.288 196.866  1.00  0.00    -0.000 C 
BRANCH  11  12
ATOM     12  C   UNL     1      88.466 324.892 197.453  1.00  0.00    -0.000 C 
BRANCH  12  13
ATOM     13  C   UNL     1      89.187 323.966 196.462  1.00  0.00    -0.003 C 
ATOM     14  C   UNL     1      88.297 322.833 195.952  1.00  0.00     0.004 C 
ENDBRANCH  12  13
ENDBRANCH  11  12
ENDBRANCH  10  11
ENDBRANCH   9  10
ENDBRANCH   1   9
TORSDOF 10
ENDMDL
MODEL 6
REMARK VINA RESULT:    -5.485      2.533      3.924
REMARK INTER + INTRA:          -9.210
REMARK INTER:                  -8.496
REMARK INTRA:                  -0.715
REMARK UNBOUND:                -0.518
REMARK SMILES CCCCCCCCCCCC(=O)[O-]
REMARK SMILES IDX 7 1 8 2 9 3 10 4 11 5 12 6 13 7 14 8 6 9 5 10 4 11 3 12 2 13
REMARK SMILES IDX 1 14
REMARK H PARENT
REMARK Flexibility Score: inf
ROOT
ATOM      1  C   UNL     1     105.647 313.014 192.426  1.00  0.00     0.000 C 
ENDROOT
BRANCH   1   2
ATOM      2  C   UNL     1     105.567 311.785 193.346  1.00  0.00     0.000 C 
BRANCH   2   3
ATOM      3  C   UNL     1     104.126 311.283 193.534  1.00  0.00     0.000 C 
BRANCH   3   4
ATOM      4  C   UNL     1     103.613 311.479 194.972  1.00  0.00     0.006 C 
BRANCH   4   5
ATOM      5  C   UNL     1     104.624 312.231 195.848  1.00  0.00     0.053 C 
BRANCH   5   6
ATOM      6  C   UNL     1     104.079 313.544 196.320  1.00  0.00     0.041 C 
ATOM      7  O   UNL     1     104.190 313.879 197.529  1.00  0.00    -0.550 OA
ATOM      8  O   UNL     1     103.480 314.413 195.418  1.00  0.00    -0.550 OA
ENDBRANCH   5   6
ENDBRANCH   4   5
ENDBRANCH   3   4
ENDBRANCH   2   3
ENDBRANCH   1   2
BRANCH   1   9
ATOM      9  C   UNL     1     104.265 313.603 192.094  1.00  0.00     0.000 C 
BRANCH   9  10
ATOM     10  C   UNL     1     103.912 313.652 190.593  1.00  0.00    -0.000 C 
BRANCH  10  11
ATOM     11  C   UNL     1     104.461 314.871 189.829  1.00  0.00    -0.000 C 
BRANCH  11  12
ATOM     12  C   UNL     1     103.737 315.112 188.493  1.00  0.00    -0.000 C 
BRANCH  12  13
ATOM     13  C   UNL     1     102.460 314.268 188.357  1.00  0.00    -0.003 C 
ATOM     14  C   UNL     1     101.222 315.109 188.047  1.00  0.00     0.004 C 
ENDBRANCH  12  13
ENDBRANCH  11  12
ENDBRANCH  10  11
ENDBRANCH   9  10
ENDBRANCH   1   9
TORSDOF 10
ENDMDL
MODEL 7
REMARK VINA RESULT:    -5.476     19.732     20.687
REMARK INTER + INTRA:          -9.196
REMARK INTER:                  -8.344
REMARK INTRA:                  -0.852
REMARK UNBOUND:                -0.518
REMARK SMILES CCCCCCCCCCCC(=O)[O-]
REMARK SMILES IDX 7 1 8 2 9 3 10 4 11 5 12 6 13 7 14 8 6 9 5 10 4 11 3 12 2 13
REMARK SMILES IDX 1 14
REMARK H PARENT
REMARK Flexibility Score: inf
ROOT
ATOM      1  C   UNL     1      86.708 326.043 194.394  1.00  0.00     0.000 C 
ENDROOT
BRANCH   1   2
ATOM      2  C   UNL     1      88.104 326.683 194.317  1.00  0.00     0.000 C 
BRANCH   2   3
ATOM      3  C   UNL     1      88.868 326.591 195.649  1.00  0.00     0.000 C 
BRANCH   3   4
ATOM      4  C   UNL     1      87.971 326.150 196.818  1.00  0.00     0.006 C 
BRANCH   4   5
ATOM      5  C   UNL     1      88.673 325.139 197.735  1.00  0.00     0.053 C 
BRANCH   5   6
ATOM      6  C   UNL     1      89.067 323.899 196.994  1.00  0.00     0.041 C 
ATOM      7  O   UNL     1      90.257 323.488 197.031  1.00  0.00    -0.550 OA
ATOM      8  O   UNL     1      88.112 323.177 196.289  1.00  0.00    -0.550 OA
ENDBRANCH   5   6
ENDBRANCH   4   5
ENDBRANCH   3   4
ENDBRANCH   2   3
ENDBRANCH   1   2
BRANCH   1   9
ATOM      9  C   UNL     1      86.536 324.866 193.417  1.00  0.00     0.000 C 
BRANCH   9  10
ATOM     10  C   UNL     1      87.847 324.218 192.928  1.00  0.00    -0.000 C 
BRANCH  10  11
ATOM     11  C   UNL     1      88.110 324.325 191.414  1.00  0.00    -0.000 C 
BRANCH  11  12
ATOM     12  C   UNL     1      87.473 323.175 190.616  1.00  0.00    -0.000 C 
BRANCH  12  13
ATOM     13  C   UNL     1      88.268 322.830 189.348  1.00  0.00    -0.003 C 
ATOM     14  C   UNL     1      89.353 323.857 189.029  1.00  0.00     0.004 C 
ENDBRANCH  12  13
ENDBRANCH  11  12
ENDBRANCH  10  11
ENDBRANCH   9  10
ENDBRANCH   1   9
TORSDOF 10
ENDMDL
MODEL 8
REMARK VINA RESULT:    -5.453     20.380     21.139
REMARK INTER + INTRA:          -9.159
REMARK INTER:                  -8.326
REMARK INTRA:                  -0.833
REMARK UNBOUND:                -0.518
REMARK SMILES CCCCCCCCCCCC(=O)[O-]
REMARK SMILES IDX 7 1 8 2 9 3 10 4 11 5 12 6 13 7 14 8 6 9 5 10 4 11 3 12 2 13
REMARK SMILES IDX 1 14
REMARK H PARENT
REMARK Flexibility Score: inf
ROOT
ATOM      1  C   UNL     1      88.852 326.507 195.619  1.00  0.00     0.000 C 
ENDROOT
BRANCH   1   2
ATOM      2  C   UNL     1      87.985 326.141 196.834  1.00  0.00     0.000 C 
BRANCH   2   3
ATOM      3  C   UNL     1      88.814 325.582 198.002  1.00  0.00     0.000 C 
BRANCH   3   4
ATOM      4  C   UNL     1      89.089 326.634 199.091  1.00  0.00     0.006 C 
BRANCH   4   5
ATOM      5  C   UNL     1      89.843 326.040 200.289  1.00  0.00     0.053 C 
BRANCH   5   6
ATOM      6  C   UNL     1      88.968 325.939 201.500  1.00  0.00     0.041 C 
ATOM      7  O   UNL     1      88.134 325.001 201.604  1.00  0.00    -0.550 OA
ATOM      8  O   UNL     1      89.096 326.862 202.530  1.00  0.00    -0.550 OA
ENDBRANCH   5   6
ENDBRANCH   4   5
ENDBRANCH   3   4
ENDBRANCH   2   3
ENDBRANCH   1   2
BRANCH   1   9
ATOM      9  C   UNL     1      88.020 326.791 194.355  1.00  0.00     0.000 C 
BRANCH   9  10
ATOM     10  C   UNL     1      86.601 326.188 194.351  1.00  0.00    -0.000 C 
BRANCH  10  11
ATOM     11  C   UNL     1      86.414 324.953 193.451  1.00  0.00    -0.000 C 
BRANCH  11  12
ATOM     12  C   UNL     1      87.656 324.644 192.597  1.00  0.00    -0.000 C 
BRANCH  12  13
ATOM     13  C   UNL     1      88.254 323.264 192.908  1.00  0.00    -0.003 C 
ATOM     14  C   UNL     1      88.484 323.038 194.402  1.00  0.00     0.004 C 
ENDBRANCH  12  13
ENDBRANCH  11  12
ENDBRANCH  10  11
ENDBRANCH   9  10
ENDBRANCH   1   9
TORSDOF 10
ENDMDL
MODEL 9
REMARK VINA RESULT:    -5.431     20.520     21.234
REMARK INTER + INTRA:          -9.124
REMARK INTER:                  -8.437
REMARK INTRA:                  -0.687
REMARK UNBOUND:                -0.518
REMARK SMILES CCCCCCCCCCCC(=O)[O-]
REMARK SMILES IDX 7 1 8 2 9 3 10 4 11 5 12 6 13 7 14 8 6 9 5 10 4 11 3 12 2 13
REMARK SMILES IDX 1 14
REMARK H PARENT
REMARK Flexibility Score: inf
ROOT
ATOM      1  C   UNL     1      88.497 324.883 197.428  1.00  0.00     0.000 C 
ENDROOT
BRANCH   1   2
ATOM      2  C   UNL     1      89.280 324.961 198.749  1.00  0.00     0.000 C 
BRANCH   2   3
ATOM      3  C   UNL     1      89.328 326.388 199.322  1.00  0.00     0.000 C 
BRANCH   3   4
ATOM      4  C   UNL     1      89.899 326.434 200.750  1.00  0.00     0.006 C 
BRANCH   4   5
ATOM      5  C   UNL     1      88.842 326.081 201.805  1.00  0.00     0.053 C 
BRANCH   5   6
ATOM      6  C   UNL     1      89.335 326.349 203.194  1.00  0.00     0.041 C 
ATOM      7  O   UNL     1      89.319 327.519 203.659  1.00  0.00    -0.550 OA
ATOM      8  O   UNL     1      89.781 325.299 203.988  1.00  0.00    -0.550 OA
ENDBRANCH   5   6
ENDBRANCH   4   5
ENDBRANCH   3   4
ENDBRANCH   2   3
ENDBRANCH   1   2
BRANCH   1   9
ATOM      9  C   UNL     1      88.296 326.260 196.771  1.00  0.00     0.000 C 
BRANCH   9  10
ATOM     10  C   UNL     1      86.861 326.556 196.286  1.00  0.00    -0.000 C 
BRANCH  10  11
ATOM     11  C   UNL     1      86.688 326.641 194.759  1.00  0.00    -0.000 C 
BRANCH  11  12
ATOM     12  C   UNL     1      88.012 326.459 193.998  1.00  0.00    -0.000 C 
BRANCH  12  13
ATOM     13  C   UNL     1      87.990 325.239 193.065  1.00  0.00    -0.003 C 
ATOM     14  C   UNL     1      88.393 323.944 193.772  1.00  0.00     0.004 C 
ENDBRANCH  12  13
ENDBRANCH  11  12
ENDBRANCH  10  11
ENDBRANCH   9  10
ENDBRANCH   1   9
TORSDOF 10
ENDMDL
