MODEL 1
REMARK VINA RESULT:    -2.824      0.000      0.000
REMARK INTER + INTRA:          -8.556
REMARK INTER:                  -5.466
REMARK INTRA:                  -3.090
REMARK UNBOUND:                -3.090
REMARK SMILES CCCCCCCCCCCCCCCCCC(=O)[O-]
REMARK SMILES IDX 10 1 11 2 12 3 13 4 14 5 15 6 16 7 17 8 18 9 19 10 20 11
REMARK SMILES IDX 9 12 8 13 7 14 6 15 5 16 4 17 3 18 2 19 1 20
REMARK H PARENT
REMARK Flexibility Score: inf
ROOT
ATOM      1  C   UNL     1     146.310 164.266 156.112  1.00  0.00     0.000 C 
ENDROOT
BRANCH   1   2
ATOM      2  C   UNL     1     146.551 163.057 155.191  1.00  0.00     0.000 C 
BRANCH   2   3
ATOM      3  C   UNL     1     148.015 162.593 155.090  1.00  0.00     0.000 C 
BRANCH   3   4
ATOM      4  C   UNL     1     149.010 163.637 155.624  1.00  0.00     0.000 C 
BRANCH   4   5
ATOM      5  C   UNL     1     149.983 164.142 154.545  1.00  0.00     0.000 C 
BRANCH   5   6
ATOM      6  C   UNL     1     149.794 163.518 153.148  1.00  0.00     0.000 C 
BRANCH   6   7
ATOM      7  C   UNL     1     150.954 162.598 152.712  1.00  0.00     0.006 C 
BRANCH   7   8
ATOM      8  C   UNL     1     150.537 161.123 152.651  1.00  0.00     0.053 C 
BRANCH   8   9
ATOM      9  C   UNL     1     150.825 160.443 153.953  1.00  0.00     0.041 C 
ATOM     10  O   UNL     1     151.623 160.964 154.777  1.00  0.00    -0.550 OA
ATOM     11  O   UNL     1     150.251 159.210 154.234  1.00  0.00    -0.550 OA
ENDBRANCH   8   9
ENDBRANCH   7   8
ENDBRANCH   6   7
ENDBRANCH   5   6
ENDBRANCH   4   5
ENDBRANCH   3   4
ENDBRANCH   2   3
ENDBRANCH   1   2
BRANCH   1  12
ATOM     12  C   UNL     1     145.901 165.532 155.343  1.00  0.00     0.000 C 
BRANCH  12  13
ATOM     13  C   UNL     1     146.180 165.378 153.843  1.00  0.00    -0.000 C 
BRANCH  13  14
ATOM     14  C   UNL     1     147.266 166.355 153.380  1.00  0.00    -0.000 C 
BRANCH  14  15
ATOM     15  C   UNL     1     147.544 166.200 151.881  1.00  0.00    -0.000 C 
BRANCH  15  16
ATOM     16  C   UNL     1     146.268 165.809 151.121  1.00  0.00    -0.000 C 
BRANCH  16  17
ATOM     17  C   UNL     1     146.539 164.749 150.032  1.00  0.00    -0.000 C 
BRANCH  17  18
ATOM     18  C   UNL     1     147.232 163.482 150.562  1.00  0.00    -0.000 C 
BRANCH  18  19
ATOM     19  C   UNL     1     146.293 162.587 151.381  1.00  0.00    -0.003 C 
ATOM     20  C   UNL     1     147.007 161.322 151.848  1.00  0.00     0.004 C 
ENDBRANCH  18  19
ENDBRANCH  17  18
ENDBRANCH  16  17
ENDBRANCH  15  16
ENDBRANCH  14  15
ENDBRANCH  13  14
ENDBRANCH  12  13
ENDBRANCH   1  12
TORSDOF 16
ENDMDL
MODEL 2
REMARK VINA RESULT:    -2.721      7.650     10.104
REMARK INTER + INTRA:          -8.355
REMARK INTER:                  -5.844
REMARK INTRA:                  -2.511
REMARK UNBOUND:                -3.090
REMARK SMILES CCCCCCCCCCCCCCCCCC(=O)[O-]
REMARK SMILES IDX 10 1 11 2 12 3 13 4 14 5 15 6 16 7 17 8 18 9 19 10 20 11
REMARK SMILES IDX 9 12 8 13 7 14 6 15 5 16 4 17 3 18 2 19 1 20
REMARK H PARENT
REMARK Flexibility Score: inf
ROOT
ATOM      1  C   UNL     1     146.552 159.345 158.131  1.00  0.00     0.000 C 
ENDROOT
BRANCH   1   2
ATOM      2  C   UNL     1     146.501 159.004 159.631  1.00  0.00     0.000 C 
BRANCH   2   3
ATOM      3  C   UNL     1     146.021 160.146 160.546  1.00  0.00     0.000 C 
BRANCH   3   4
ATOM      4  C   UNL     1     146.143 159.804 162.041  1.00  0.00     0.000 C 
BRANCH   4   5
ATOM      5  C   UNL     1     146.704 158.394 162.287  1.00  0.00     0.000 C 
BRANCH   5   6
ATOM      6  C   UNL     1     148.074 158.347 162.993  1.00  0.00     0.000 C 
BRANCH   6   7
ATOM      7  C   UNL     1     149.196 159.081 162.228  1.00  0.00     0.006 C 
BRANCH   7   8
ATOM      8  C   UNL     1     150.411 159.376 163.117  1.00  0.00     0.053 C 
BRANCH   8   9
ATOM      9  C   UNL     1     150.672 160.848 163.176  1.00  0.00     0.041 C 
ATOM     10  O   UNL     1     150.731 161.525 162.114  1.00  0.00    -0.550 OA
ATOM     11  O   UNL     1     150.899 161.466 164.399  1.00  0.00    -0.550 OA
ENDBRANCH   8   9
ENDBRANCH   7   8
ENDBRANCH   6   7
ENDBRANCH   5   6
ENDBRANCH   4   5
ENDBRANCH   3   4
ENDBRANCH   2   3
ENDBRANCH   1   2
BRANCH   1  12
ATOM     12  C   UNL     1     147.965 159.227 157.539  1.00  0.00     0.000 C 
BRANCH  12  13
ATOM     13  C   UNL     1     149.013 159.066 158.646  1.00  0.00    -0.000 C 
BRANCH  13  14
ATOM     14  C   UNL     1     149.869 157.815 158.418  1.00  0.00    -0.000 C 
BRANCH  14  15
ATOM     15  C   UNL     1     149.054 156.538 158.656  1.00  0.00    -0.000 C 
BRANCH  15  16
ATOM     16  C   UNL     1     149.479 155.849 159.962  1.00  0.00    -0.000 C 
BRANCH  16  17
ATOM     17  C   UNL     1     148.268 155.347 160.778  1.00  0.00    -0.000 C 
BRANCH  17  18
ATOM     18  C   UNL     1     146.933 155.434 160.017  1.00  0.00    -0.000 C 
BRANCH  18  19
ATOM     19  C   UNL     1     146.295 154.060 159.774  1.00  0.00    -0.003 C 
ATOM     20  C   UNL     1     147.217 153.162 158.955  1.00  0.00     0.004 C 
ENDBRANCH  18  19
ENDBRANCH  17  18
ENDBRANCH  16  17
ENDBRANCH  15  16
ENDBRANCH  14  15
ENDBRANCH  13  14
ENDBRANCH  12  13
ENDBRANCH   1  12
TORSDOF 16
ENDMDL
MODEL 3
REMARK VINA RESULT:    -2.713      7.386      9.846
REMARK INTER + INTRA:          -8.340
REMARK INTER:                  -5.760
REMARK INTRA:                  -2.580
REMARK UNBOUND:                -3.090
REMARK SMILES CCCCCCCCCCCCCCCCCC(=O)[O-]
REMARK SMILES IDX 10 1 11 2 12 3 13 4 14 5 15 6 16 7 17 8 18 9 19 10 20 11
REMARK SMILES IDX 9 12 8 13 7 14 6 15 5 16 4 17 3 18 2 19 1 20
REMARK H PARENT
REMARK Flexibility Score: inf
ROOT
ATOM      1  C   UNL     1     149.044 158.909 161.543  1.00  0.00     0.000 C 
ENDROOT
BRANCH   1   2
ATOM      2  C   UNL     1     148.161 160.161 161.406  1.00  0.00     0.000 C 
BRANCH   2   3
ATOM      3  C   UNL     1     146.663 159.884 161.178  1.00  0.00     0.000 C 
BRANCH   3   4
ATOM      4  C   UNL     1     145.983 160.958 160.312  1.00  0.00     0.000 C 
BRANCH   4   5
ATOM      5  C   UNL     1     146.168 160.715 158.805  1.00  0.00     0.000 C 
BRANCH   5   6
ATOM      6  C   UNL     1     146.023 159.249 158.353  1.00  0.00     0.000 C 
BRANCH   6   7
ATOM      7  C   UNL     1     147.252 158.703 157.595  1.00  0.00     0.006 C 
BRANCH   7   8
ATOM      8  C   UNL     1     148.295 159.793 157.317  1.00  0.00     0.053 C 
BRANCH   8   9
ATOM      9  C   UNL     1     148.396 160.061 155.849  1.00  0.00     0.041 C 
ATOM     10  O   UNL     1     147.551 160.803 155.280  1.00  0.00    -0.550 OA
ATOM     11  O   UNL     1     149.393 159.451 155.098  1.00  0.00    -0.550 OA
ENDBRANCH   8   9
ENDBRANCH   7   8
ENDBRANCH   6   7
ENDBRANCH   5   6
ENDBRANCH   4   5
ENDBRANCH   3   4
ENDBRANCH   2   3
ENDBRANCH   1   2
BRANCH   1  12
ATOM     12  C   UNL     1     149.399 158.583 163.002  1.00  0.00     0.000 C 
BRANCH  12  13
ATOM     13  C   UNL     1     148.816 157.228 163.420  1.00  0.00    -0.000 C 
BRANCH  13  14
ATOM     14  C   UNL     1     147.571 157.408 164.296  1.00  0.00    -0.000 C 
BRANCH  14  15
ATOM     15  C   UNL     1     146.294 157.083 163.512  1.00  0.00    -0.000 C 
BRANCH  15  16
ATOM     16  C   UNL     1     146.553 155.990 162.464  1.00  0.00    -0.000 C 
BRANCH  16  17
ATOM     17  C   UNL     1     145.880 156.307 161.111  1.00  0.00    -0.000 C 
BRANCH  17  18
ATOM     18  C   UNL     1     146.741 155.936 159.891  1.00  0.00    -0.000 C 
BRANCH  18  19
ATOM     19  C   UNL     1     147.618 154.701 160.134  1.00  0.00    -0.003 C 
ATOM     20  C   UNL     1     147.094 153.494 159.363  1.00  0.00     0.004 C 
ENDBRANCH  18  19
ENDBRANCH  17  18
ENDBRANCH  16  17
ENDBRANCH  15  16
ENDBRANCH  14  15
ENDBRANCH  13  14
ENDBRANCH  12  13
ENDBRANCH   1  12
TORSDOF 16
ENDMDL
MODEL 4
REMARK VINA RESULT:    -2.652      1.610      3.299
REMARK INTER + INTRA:          -8.222
REMARK INTER:                  -5.239
REMARK INTRA:                  -2.983
REMARK UNBOUND:                -3.090
REMARK SMILES CCCCCCCCCCCCCCCCCC(=O)[O-]
REMARK SMILES IDX 10 1 11 2 12 3 13 4 14 5 15 6 16 7 17 8 18 9 19 10 20 11
REMARK SMILES IDX 9 12 8 13 7 14 6 15 5 16 4 17 3 18 2 19 1 20
REMARK H PARENT
REMARK Flexibility Score: inf
ROOT
ATOM      1  C   UNL     1     146.979 162.050 153.904  1.00  0.00     0.000 C 
ENDROOT
BRANCH   1   2
ATOM      2  C   UNL     1     146.810 163.441 154.542  1.00  0.00     0.000 C 
BRANCH   2   3
ATOM      3  C   UNL     1     147.801 163.766 155.675  1.00  0.00     0.000 C 
BRANCH   3   4
ATOM      4  C   UNL     1     149.112 164.384 155.162  1.00  0.00     0.000 C 
BRANCH   4   5
ATOM      5  C   UNL     1     150.358 163.607 155.621  1.00  0.00     0.000 C 
BRANCH   5   6
ATOM      6  C   UNL     1     150.553 162.229 154.959  1.00  0.00     0.000 C 
BRANCH   6   7
ATOM      7  C   UNL     1     150.282 161.038 155.904  1.00  0.00     0.006 C 
BRANCH   7   8
ATOM      8  C   UNL     1     149.618 159.860 155.180  1.00  0.00     0.053 C 
BRANCH   8   9
ATOM      9  C   UNL     1     150.655 158.935 154.626  1.00  0.00     0.041 C 
ATOM     10  O   UNL     1     151.428 158.311 155.401  1.00  0.00    -0.550 OA
ATOM     11  O   UNL     1     150.801 158.799 153.251  1.00  0.00    -0.550 OA
ENDBRANCH   8   9
ENDBRANCH   7   8
ENDBRANCH   6   7
ENDBRANCH   5   6
ENDBRANCH   4   5
ENDBRANCH   3   4
ENDBRANCH   2   3
ENDBRANCH   1   2
BRANCH   1  12
ATOM     12  C   UNL     1     146.394 161.967 152.487  1.00  0.00     0.000 C 
BRANCH  12  13
ATOM     13  C   UNL     1     147.341 161.214 151.545  1.00  0.00    -0.000 C 
BRANCH  13  14
ATOM     14  C   UNL     1     148.805 161.439 151.937  1.00  0.00    -0.000 C 
BRANCH  14  15
ATOM     15  C   UNL     1     149.618 161.971 150.751  1.00  0.00    -0.000 C 
BRANCH  15  16
ATOM     16  C   UNL     1     149.231 163.421 150.423  1.00  0.00    -0.000 C 
BRANCH  16  17
ATOM     17  C   UNL     1     149.224 164.321 151.677  1.00  0.00    -0.000 C 
BRANCH  17  18
ATOM     18  C   UNL     1     148.780 165.767 151.397  1.00  0.00    -0.000 C 
BRANCH  18  19
ATOM     19  C   UNL     1     147.498 166.153 152.146  1.00  0.00    -0.003 C 
ATOM     20  C   UNL     1     146.270 165.524 151.495  1.00  0.00     0.004 C 
ENDBRANCH  18  19
ENDBRANCH  17  18
ENDBRANCH  16  17
ENDBRANCH  15  16
ENDBRANCH  14  15
ENDBRANCH  13  14
ENDBRANCH  12  13
ENDBRANCH   1  12
TORSDOF 16
ENDMDL
MODEL 5
REMARK VINA RESULT:    -2.640      1.452      3.847
REMARK INTER + INTRA:          -8.200
REMARK INTER:                  -5.382
REMARK INTRA:                  -2.817
REMARK UNBOUND:                -3.090
REMARK SMILES CCCCCCCCCCCCCCCCCC(=O)[O-]
REMARK SMILES IDX 10 1 11 2 12 3 13 4 14 5 15 6 16 7 17 8 18 9 19 10 20 11
REMARK SMILES IDX 9 12 8 13 7 14 6 15 5 16 4 17 3 18 2 19 1 20
REMARK H PARENT
REMARK Flexibility Score: inf
ROOT
ATOM      1  C   UNL     1     147.380 165.007 152.776  1.00  0.00     0.000 C 
ENDROOT
BRANCH   1   2
ATOM      2  C   UNL     1     147.107 166.226 153.675  1.00  0.00     0.000 C 
BRANCH   2   3
ATOM      3  C   UNL     1     146.609 165.895 155.094  1.00  0.00     0.000 C 
BRANCH   3   4
ATOM      4  C   UNL     1     145.913 164.526 155.178  1.00  0.00     0.000 C 
BRANCH   4   5
ATOM      5  C   UNL     1     146.638 163.544 156.114  1.00  0.00     0.000 C 
BRANCH   5   6
ATOM      6  C   UNL     1     146.947 162.163 155.504  1.00  0.00     0.000 C 
BRANCH   6   7
ATOM      7  C   UNL     1     148.417 161.722 155.668  1.00  0.00     0.006 C 
BRANCH   7   8
ATOM      8  C   UNL     1     149.403 162.854 155.353  1.00  0.00     0.053 C 
BRANCH   8   9
ATOM      9  C   UNL     1     150.795 162.319 155.238  1.00  0.00     0.041 C 
ATOM     10  O   UNL     1     151.239 161.940 154.121  1.00  0.00    -0.550 OA
ATOM     11  O   UNL     1     151.587 162.192 156.372  1.00  0.00    -0.550 OA
ENDBRANCH   8   9
ENDBRANCH   7   8
ENDBRANCH   6   7
ENDBRANCH   5   6
ENDBRANCH   4   5
ENDBRANCH   3   4
ENDBRANCH   2   3
ENDBRANCH   1   2
BRANCH   1  12
ATOM     12  C   UNL     1     146.571 165.033 151.471  1.00  0.00     0.000 C 
BRANCH  12  13
ATOM     13  C   UNL     1     146.461 163.628 150.865  1.00  0.00    -0.000 C 
BRANCH  13  14
ATOM     14  C   UNL     1     146.088 162.593 151.932  1.00  0.00    -0.000 C 
BRANCH  14  15
ATOM     15  C   UNL     1     146.901 161.305 151.759  1.00  0.00    -0.000 C 
BRANCH  15  16
ATOM     16  C   UNL     1     148.370 161.524 152.153  1.00  0.00    -0.000 C 
BRANCH  16  17
ATOM     17  C   UNL     1     149.345 160.820 151.186  1.00  0.00    -0.000 C 
BRANCH  17  18
ATOM     18  C   UNL     1     150.410 161.758 150.591  1.00  0.00    -0.000 C 
BRANCH  18  19
ATOM     19  C   UNL     1     149.942 163.217 150.513  1.00  0.00    -0.003 C 
ATOM     20  C   UNL     1     150.790 164.116 151.408  1.00  0.00     0.004 C 
ENDBRANCH  18  19
ENDBRANCH  17  18
ENDBRANCH  16  17
ENDBRANCH  15  16
ENDBRANCH  14  15
ENDBRANCH  13  14
ENDBRANCH  12  13
ENDBRANCH   1  12
TORSDOF 16
ENDMDL
MODEL 6
REMARK VINA RESULT:    -2.564      1.434      3.107
REMARK INTER + INTRA:          -8.053
REMARK INTER:                  -5.360
REMARK INTRA:                  -2.693
REMARK UNBOUND:                -3.090
REMARK SMILES CCCCCCCCCCCCCCCCCC(=O)[O-]
REMARK SMILES IDX 10 1 11 2 12 3 13 4 14 5 15 6 16 7 17 8 18 9 19 10 20 11
REMARK SMILES IDX 9 12 8 13 7 14 6 15 5 16 4 17 3 18 2 19 1 20
REMARK H PARENT
REMARK Flexibility Score: inf
ROOT
ATOM      1  C   UNL     1     147.016 165.875 154.500  1.00  0.00     0.000 C 
ENDROOT
BRANCH   1   2
ATOM      2  C   UNL     1     146.079 164.655 154.546  1.00  0.00     0.000 C 
BRANCH   2   3
ATOM      3  C   UNL     1     146.288 163.716 155.748  1.00  0.00     0.000 C 
BRANCH   3   4
ATOM      4  C   UNL     1     147.620 162.951 155.684  1.00  0.00     0.000 C 
BRANCH   4   5
ATOM      5  C   UNL     1     147.453 161.498 155.207  1.00  0.00     0.000 C 
BRANCH   5   6
ATOM      6  C   UNL     1     147.772 160.421 156.263  1.00  0.00     0.000 C 
BRANCH   6   7
ATOM      7  C   UNL     1     149.080 159.647 155.990  1.00  0.00     0.006 C 
BRANCH   7   8
ATOM      8  C   UNL     1     149.612 159.885 154.571  1.00  0.00     0.053 C 
BRANCH   8   9
ATOM      9  C   UNL     1     150.700 158.909 154.250  1.00  0.00     0.041 C 
ATOM     10  O   UNL     1     151.338 158.342 155.176  1.00  0.00    -0.550 OA
ATOM     11  O   UNL     1     151.042 158.661 152.926  1.00  0.00    -0.550 OA
ENDBRANCH   8   9
ENDBRANCH   7   8
ENDBRANCH   6   7
ENDBRANCH   5   6
ENDBRANCH   4   5
ENDBRANCH   3   4
ENDBRANCH   2   3
ENDBRANCH   1   2
BRANCH   1  12
ATOM     12  C   UNL     1     148.005 165.827 153.325  1.00  0.00     0.000 C 
BRANCH  12  13
ATOM     13  C   UNL     1     149.422 165.501 153.813  1.00  0.00    -0.000 C 
BRANCH  13  14
ATOM     14  C   UNL     1     150.201 164.709 152.756  1.00  0.00    -0.000 C 
BRANCH  14  15
ATOM     15  C   UNL     1     150.262 163.220 153.118  1.00  0.00    -0.000 C 
BRANCH  15  16
ATOM     16  C   UNL     1     150.092 162.342 151.869  1.00  0.00    -0.000 C 
BRANCH  16  17
ATOM     17  C   UNL     1     148.747 162.595 151.156  1.00  0.00    -0.000 C 
BRANCH  17  18
ATOM     18  C   UNL     1     147.582 161.765 151.723  1.00  0.00    -0.000 C 
BRANCH  18  19
ATOM     19  C   UNL     1     146.228 162.476 151.603  1.00  0.00    -0.003 C 
ATOM     20  C   UNL     1     146.369 163.807 150.871  1.00  0.00     0.004 C 
ENDBRANCH  18  19
ENDBRANCH  17  18
ENDBRANCH  16  17
ENDBRANCH  15  16
ENDBRANCH  14  15
ENDBRANCH  13  14
ENDBRANCH  12  13
ENDBRANCH   1  12
TORSDOF 16
ENDMDL
MODEL 7
REMARK VINA RESULT:    -2.557      1.627      4.167
REMARK INTER + INTRA:          -8.038
REMARK INTER:                  -4.947
REMARK INTRA:                  -3.091
REMARK UNBOUND:                -3.090
REMARK SMILES CCCCCCCCCCCCCCCCCC(=O)[O-]
REMARK SMILES IDX 10 1 11 2 12 3 13 4 14 5 15 6 16 7 17 8 18 9 19 10 20 11
REMARK SMILES IDX 9 12 8 13 7 14 6 15 5 16 4 17 3 18 2 19 1 20
REMARK H PARENT
REMARK Flexibility Score: inf
ROOT
ATOM      1  C   UNL     1     147.525 166.565 151.600  1.00  0.00     0.000 C 
ENDROOT
BRANCH   1   2
ATOM      2  C   UNL     1     146.954 166.215 152.986  1.00  0.00     0.000 C 
BRANCH   2   3
ATOM      3  C   UNL     1     145.875 165.116 152.990  1.00  0.00     0.000 C 
BRANCH   3   4
ATOM      4  C   UNL     1     146.462 163.704 153.161  1.00  0.00     0.000 C 
BRANCH   4   5
ATOM      5  C   UNL     1     146.041 162.742 152.037  1.00  0.00     0.000 C 
BRANCH   5   6
ATOM      6  C   UNL     1     147.053 161.624 151.719  1.00  0.00     0.000 C 
BRANCH   6   7
ATOM      7  C   UNL     1     148.016 161.302 152.882  1.00  0.00     0.006 C 
BRANCH   7   8
ATOM      8  C   UNL     1     149.306 160.627 152.400  1.00  0.00     0.053 C 
BRANCH   8   9
ATOM      9  C   UNL     1     150.211 160.340 153.557  1.00  0.00     0.041 C 
ATOM     10  O   UNL     1     149.868 159.508 154.439  1.00  0.00    -0.550 OA
ATOM     11  O   UNL     1     151.411 161.028 153.689  1.00  0.00    -0.550 OA
ENDBRANCH   8   9
ENDBRANCH   7   8
ENDBRANCH   6   7
ENDBRANCH   5   6
ENDBRANCH   4   5
ENDBRANCH   3   4
ENDBRANCH   2   3
ENDBRANCH   1   2
BRANCH   1  12
ATOM     12  C   UNL     1     146.606 166.134 150.448  1.00  0.00     0.000 C 
BRANCH  12  13
ATOM     13  C   UNL     1     147.424 165.715 149.220  1.00  0.00    -0.000 C 
BRANCH  13  14
ATOM     14  C   UNL     1     148.108 164.361 149.447  1.00  0.00    -0.000 C 
BRANCH  14  15
ATOM     15  C   UNL     1     149.628 164.524 149.559  1.00  0.00    -0.000 C 
BRANCH  15  16
ATOM     16  C   UNL     1     150.236 163.429 150.449  1.00  0.00    -0.000 C 
BRANCH  16  17
ATOM     17  C   UNL     1     151.017 164.016 151.644  1.00  0.00    -0.000 C 
BRANCH  17  18
ATOM     18  C   UNL     1     150.143 164.284 152.881  1.00  0.00    -0.000 C 
BRANCH  18  19
ATOM     19  C   UNL     1     150.554 165.554 153.638  1.00  0.00    -0.003 C 
ATOM     20  C   UNL     1     151.058 166.628 152.679  1.00  0.00     0.004 C 
ENDBRANCH  18  19
ENDBRANCH  17  18
ENDBRANCH  16  17
ENDBRANCH  15  16
ENDBRANCH  14  15
ENDBRANCH  13  14
ENDBRANCH  12  13
ENDBRANCH   1  12
TORSDOF 16
ENDMDL
MODEL 8
REMARK VINA RESULT:    -2.550      2.322      4.159
REMARK INTER + INTRA:          -8.024
REMARK INTER:                  -5.014
REMARK INTRA:                  -3.010
REMARK UNBOUND:                -3.090
REMARK SMILES CCCCCCCCCCCCCCCCCC(=O)[O-]
REMARK SMILES IDX 10 1 11 2 12 3 13 4 14 5 15 6 16 7 17 8 18 9 19 10 20 11
REMARK SMILES IDX 9 12 8 13 7 14 6 15 5 16 4 17 3 18 2 19 1 20
REMARK H PARENT
REMARK Flexibility Score: inf
ROOT
ATOM      1  C   UNL     1     147.586 164.980 152.396  1.00  0.00     0.000 C 
ENDROOT
BRANCH   1   2
ATOM      2  C   UNL     1     148.634 165.342 153.463  1.00  0.00     0.000 C 
BRANCH   2   3
ATOM      3  C   UNL     1     148.199 165.091 154.919  1.00  0.00     0.000 C 
BRANCH   3   4
ATOM      4  C   UNL     1     149.057 164.026 155.623  1.00  0.00     0.000 C 
BRANCH   4   5
ATOM      5  C   UNL     1     148.805 162.606 155.088  1.00  0.00     0.000 C 
BRANCH   5   6
ATOM      6  C   UNL     1     147.593 161.879 155.704  1.00  0.00     0.000 C 
BRANCH   6   7
ATOM      7  C   UNL     1     147.760 160.347 155.788  1.00  0.00     0.006 C 
BRANCH   7   8
ATOM      8  C   UNL     1     147.081 159.754 157.030  1.00  0.00     0.053 C 
BRANCH   8   9
ATOM      9  C   UNL     1     148.066 158.976 157.844  1.00  0.00     0.041 C 
ATOM     10  O   UNL     1     149.295 159.247 157.782  1.00  0.00    -0.550 OA
ATOM     11  O   UNL     1     147.633 157.919 158.634  1.00  0.00    -0.550 OA
ENDBRANCH   8   9
ENDBRANCH   7   8
ENDBRANCH   6   7
ENDBRANCH   5   6
ENDBRANCH   4   5
ENDBRANCH   3   4
ENDBRANCH   2   3
ENDBRANCH   1   2
BRANCH   1  12
ATOM     12  C   UNL     1     146.221 164.612 152.997  1.00  0.00     0.000 C 
BRANCH  12  13
ATOM     13  C   UNL     1     145.875 163.145 152.715  1.00  0.00    -0.000 C 
BRANCH  13  14
ATOM     14  C   UNL     1     146.684 162.604 151.531  1.00  0.00    -0.000 C 
BRANCH  14  15
ATOM     15  C   UNL     1     147.300 161.239 151.862  1.00  0.00    -0.000 C 
BRANCH  15  16
ATOM     16  C   UNL     1     148.828 161.272 151.714  1.00  0.00    -0.000 C 
BRANCH  16  17
ATOM     17  C   UNL     1     149.296 162.379 150.744  1.00  0.00    -0.000 C 
BRANCH  17  18
ATOM     18  C   UNL     1     150.596 163.075 151.183  1.00  0.00    -0.000 C 
BRANCH  18  19
ATOM     19  C   UNL     1     151.152 162.523 152.503  1.00  0.00    -0.003 C 
ATOM     20  C   UNL     1     151.992 163.571 153.227  1.00  0.00     0.004 C 
ENDBRANCH  18  19
ENDBRANCH  17  18
ENDBRANCH  16  17
ENDBRANCH  15  16
ENDBRANCH  14  15
ENDBRANCH  13  14
ENDBRANCH  12  13
ENDBRANCH   1  12
TORSDOF 16
ENDMDL
MODEL 9
REMARK VINA RESULT:    -2.534      2.339      3.901
REMARK INTER + INTRA:          -7.994
REMARK INTER:                  -5.199
REMARK INTRA:                  -2.795
REMARK UNBOUND:                -3.090
REMARK SMILES CCCCCCCCCCCCCCCCCC(=O)[O-]
REMARK SMILES IDX 10 1 11 2 12 3 13 4 14 5 15 6 16 7 17 8 18 9 19 10 20 11
REMARK SMILES IDX 9 12 8 13 7 14 6 15 5 16 4 17 3 18 2 19 1 20
REMARK H PARENT
REMARK Flexibility Score: inf
ROOT
ATOM      1  C   UNL     1     148.503 164.504 154.994  1.00  0.00     0.000 C 
ENDROOT
BRANCH   1   2
ATOM      2  C   UNL     1     149.847 163.920 154.522  1.00  0.00     0.000 C 
BRANCH   2   3
ATOM      3  C   UNL     1     150.774 163.422 155.646  1.00  0.00     0.000 C 
BRANCH   3   4
ATOM      4  C   UNL     1     151.214 161.961 155.453  1.00  0.00     0.000 C 
BRANCH   4   5
ATOM      5  C   UNL     1     150.304 161.186 154.484  1.00  0.00     0.000 C 
BRANCH   5   6
ATOM      6  C   UNL     1     150.044 159.715 154.865  1.00  0.00     0.000 C 
BRANCH   6   7
ATOM      7  C   UNL     1     149.492 159.528 156.294  1.00  0.00     0.006 C 
BRANCH   7   8
ATOM      8  C   UNL     1     148.006 159.897 156.398  1.00  0.00     0.053 C 
BRANCH   8   9
ATOM      9  C   UNL     1     147.376 159.209 157.567  1.00  0.00     0.041 C 
ATOM     10  O   UNL     1     146.185 158.805 157.499  1.00  0.00    -0.550 OA
ATOM     11  O   UNL     1     148.087 159.058 158.751  1.00  0.00    -0.550 OA
ENDBRANCH   8   9
ENDBRANCH   7   8
ENDBRANCH   6   7
ENDBRANCH   5   6
ENDBRANCH   4   5
ENDBRANCH   3   4
ENDBRANCH   2   3
ENDBRANCH   1   2
BRANCH   1  12
ATOM     12  C   UNL     1     147.482 163.423 155.379  1.00  0.00     0.000 C 
BRANCH  12  13
ATOM     13  C   UNL     1     146.554 163.100 154.202  1.00  0.00    -0.000 C 
BRANCH  13  14
ATOM     14  C   UNL     1     146.958 161.786 153.524  1.00  0.00    -0.000 C 
BRANCH  14  15
ATOM     15  C   UNL     1     146.943 161.927 151.997  1.00  0.00    -0.000 C 
BRANCH  15  16
ATOM     16  C   UNL     1     148.262 162.526 151.486  1.00  0.00    -0.000 C 
BRANCH  16  17
ATOM     17  C   UNL     1     148.083 163.966 150.959  1.00  0.00    -0.000 C 
BRANCH  17  18
ATOM     18  C   UNL     1     146.654 164.275 150.480  1.00  0.00    -0.000 C 
BRANCH  18  19
ATOM     19  C   UNL     1     146.041 165.495 151.180  1.00  0.00    -0.003 C 
ATOM     20  C   UNL     1     147.060 166.181 152.084  1.00  0.00     0.004 C 
ENDBRANCH  18  19
ENDBRANCH  17  18
ENDBRANCH  16  17
ENDBRANCH  15  16
ENDBRANCH  14  15
ENDBRANCH  13  14
ENDBRANCH  12  13
ENDBRANCH   1  12
TORSDOF 16
ENDMDL
