MODEL 1
REMARK VINA RESULT:    -3.643      0.000      0.000
REMARK INTER + INTRA:         -13.311
REMARK INTER:                  -9.181
REMARK INTRA:                  -4.130
REMARK UNBOUND:                -4.130
REMARK SMILES CCCCCCCCCCCCCCCCCCCCCCCCCCCC(=O)[O-]
REMARK SMILES IDX 15 1 16 2 17 3 18 4 19 5 20 6 21 7 22 8 23 9 24 10 25 11
REMARK SMILES IDX 26 12 27 13 28 14 29 15 30 16 14 17 13 18 12 19 11 20 10 21
REMARK SMILES IDX 9 22 8 23 7 24 6 25 5 26 4 27 3 28 2 29 1 30
REMARK H PARENT
REMARK Flexibility Score: inf
ROOT
ATOM      1  C   UNL     1      19.742  11.760  36.299  1.00  0.00     0.000 C 
ENDROOT
BRANCH   1   2
ATOM      2  C   UNL     1      21.058  11.098  35.843  1.00  0.00     0.000 C 
BRANCH   2   3
ATOM      3  C   UNL     1      21.858  11.869  34.774  1.00  0.00     0.000 C 
BRANCH   3   4
ATOM      4  C   UNL     1      21.868  11.229  33.374  1.00  0.00     0.000 C 
BRANCH   4   5
ATOM      5  C   UNL     1      20.895  10.045  33.249  1.00  0.00     0.000 C 
BRANCH   5   6
ATOM      6  C   UNL     1      20.513   9.754  31.790  1.00  0.00     0.000 C 
BRANCH   6   7
ATOM      7  C   UNL     1      19.009   9.469  31.625  1.00  0.00     0.000 C 
BRANCH   7   8
ATOM      8  C   UNL     1      18.732   8.126  30.933  1.00  0.00     0.000 C 
BRANCH   8   9
ATOM      9  C   UNL     1      19.408   6.942  31.644  1.00  0.00     0.000 C 
BRANCH   9  10
ATOM     10  C   UNL     1      18.392   5.908  32.155  1.00  0.00     0.000 C 
BRANCH  10  11
ATOM     11  C   UNL     1      18.210   5.963  33.682  1.00  0.00     0.000 C 
BRANCH  11  12
ATOM     12  C   UNL     1      19.476   6.426  34.426  1.00  0.00     0.006 C 
BRANCH  12  13
ATOM     13  C   UNL     1      19.265   7.679  35.295  1.00  0.00     0.053 C 
BRANCH  13  14
ATOM     14  C   UNL     1      19.371   7.387  36.762  1.00  0.00     0.041 C 
ATOM     15  O   UNL     1      19.325   8.327  37.600  1.00  0.00    -0.550 OA
ATOM     16  O   UNL     1      19.559   6.083  37.204  1.00  0.00    -0.550 OA
ENDBRANCH  13  14
ENDBRANCH  12  13
ENDBRANCH  11  12
ENDBRANCH  10  11
ENDBRANCH   9  10
ENDBRANCH   8   9
ENDBRANCH   7   8
ENDBRANCH   6   7
ENDBRANCH   5   6
ENDBRANCH   4   5
ENDBRANCH   3   4
ENDBRANCH   2   3
ENDBRANCH   1   2
BRANCH   1  17
ATOM     17  C   UNL     1      19.466  13.136  35.655  1.00  0.00     0.000 C 
BRANCH  17  18
ATOM     18  C   UNL     1      18.046  13.254  35.068  1.00  0.00     0.000 C 
BRANCH  18  19
ATOM     19  C   UNL     1      17.902  12.538  33.717  1.00  0.00     0.000 C 
BRANCH  19  20
ATOM     20  C   UNL     1      18.937  13.007  32.680  1.00  0.00     0.000 C 
BRANCH  20  21
ATOM     21  C   UNL     1      18.340  13.146  31.271  1.00  0.00     0.000 C 
BRANCH  21  22
ATOM     22  C   UNL     1      19.332  13.756  30.265  1.00  0.00    -0.000 C 
BRANCH  22  23
ATOM     23  C   UNL     1      20.752  13.176  30.393  1.00  0.00    -0.000 C 
BRANCH  23  24
ATOM     24  C   UNL     1      21.819  14.165  30.897  1.00  0.00    -0.000 C 
BRANCH  24  25
ATOM     25  C   UNL     1      22.668  14.758  29.758  1.00  0.00    -0.000 C 
BRANCH  25  26
ATOM     26  C   UNL     1      23.675  15.812  30.252  1.00  0.00    -0.000 C 
BRANCH  26  27
ATOM     27  C   UNL     1      23.474  17.226  29.673  1.00  0.00    -0.000 C 
BRANCH  27  28
ATOM     28  C   UNL     1      23.036  18.271  30.723  1.00  0.00    -0.000 C 
BRANCH  28  29
ATOM     29  C   UNL     1      21.737  17.862  31.434  1.00  0.00    -0.003 C 
ATOM     30  C   UNL     1      20.516  18.153  30.565  1.00  0.00     0.004 C 
ENDBRANCH  28  29
ENDBRANCH  27  28
ENDBRANCH  26  27
ENDBRANCH  25  26
ENDBRANCH  24  25
ENDBRANCH  23  24
ENDBRANCH  22  23
ENDBRANCH  21  22
ENDBRANCH  20  21
ENDBRANCH  19  20
ENDBRANCH  18  19
ENDBRANCH  17  18
ENDBRANCH   1  17
TORSDOF 26
ENDMDL
MODEL 2
REMARK VINA RESULT:    -3.596      2.502      3.746
REMARK INTER + INTRA:         -13.191
REMARK INTER:                  -9.335
REMARK INTRA:                  -3.856
REMARK UNBOUND:                -4.130
REMARK SMILES CCCCCCCCCCCCCCCCCCCCCCCCCCCC(=O)[O-]
REMARK SMILES IDX 15 1 16 2 17 3 18 4 19 5 20 6 21 7 22 8 23 9 24 10 25 11
REMARK SMILES IDX 26 12 27 13 28 14 29 15 30 16 14 17 13 18 12 19 11 20 10 21
REMARK SMILES IDX 9 22 8 23 7 24 6 25 5 26 4 27 3 28 2 29 1 30
REMARK H PARENT
REMARK Flexibility Score: inf
ROOT
ATOM      1  C   UNL     1      22.091  11.643  35.413  1.00  0.00     0.000 C 
ENDROOT
BRANCH   1   2
ATOM      2  C   UNL     1      21.928  10.110  35.354  1.00  0.00     0.000 C 
BRANCH   2   3
ATOM      3  C   UNL     1      20.890   9.588  34.341  1.00  0.00     0.000 C 
BRANCH   3   4
ATOM      4  C   UNL     1      19.565   9.099  34.954  1.00  0.00     0.000 C 
BRANCH   4   5
ATOM      5  C   UNL     1      19.496   7.569  35.089  1.00  0.00     0.000 C 
BRANCH   5   6
ATOM      6  C   UNL     1      20.611   6.862  34.305  1.00  0.00     0.000 C 
BRANCH   6   7
ATOM      7  C   UNL     1      20.087   6.189  33.023  1.00  0.00     0.000 C 
BRANCH   7   8
ATOM      8  C   UNL     1      18.564   6.308  32.871  1.00  0.00     0.000 C 
BRANCH   8   9
ATOM      9  C   UNL     1      18.153   7.026  31.574  1.00  0.00     0.000 C 
BRANCH   9  10
ATOM     10  C   UNL     1      18.927   8.336  31.359  1.00  0.00     0.000 C 
BRANCH  10  11
ATOM     11  C   UNL     1      19.913   8.253  30.181  1.00  0.00     0.000 C 
BRANCH  11  12
ATOM     12  C   UNL     1      19.668   7.035  29.272  1.00  0.00     0.006 C 
BRANCH  12  13
ATOM     13  C   UNL     1      20.862   6.066  29.194  1.00  0.00     0.053 C 
BRANCH  13  14
ATOM     14  C   UNL     1      20.459   4.637  29.404  1.00  0.00     0.041 C 
ATOM     15  O   UNL     1      21.315   3.717  29.312  1.00  0.00    -0.550 OA
ATOM     16  O   UNL     1      19.132   4.316  29.663  1.00  0.00    -0.550 OA
ENDBRANCH  13  14
ENDBRANCH  12  13
ENDBRANCH  11  12
ENDBRANCH  10  11
ENDBRANCH   9  10
ENDBRANCH   8   9
ENDBRANCH   7   8
ENDBRANCH   6   7
ENDBRANCH   5   6
ENDBRANCH   4   5
ENDBRANCH   3   4
ENDBRANCH   2   3
ENDBRANCH   1   2
BRANCH   1  17
ATOM     17  C   UNL     1      20.866  12.390  35.982  1.00  0.00     0.000 C 
BRANCH  17  18
ATOM     18  C   UNL     1      20.334  13.484  35.036  1.00  0.00     0.000 C 
BRANCH  18  19
ATOM     19  C   UNL     1      19.122  13.019  34.216  1.00  0.00     0.000 C 
BRANCH  19  20
ATOM     20  C   UNL     1      19.487  12.647  32.768  1.00  0.00     0.000 C 
BRANCH  20  21
ATOM     21  C   UNL     1      20.789  13.312  32.298  1.00  0.00     0.000 C 
BRANCH  21  22
ATOM     22  C   UNL     1      21.754  12.318  31.627  1.00  0.00    -0.000 C 
BRANCH  22  23
ATOM     23  C   UNL     1      21.895  12.545  30.112  1.00  0.00    -0.000 C 
BRANCH  23  24
ATOM     24  C   UNL     1      21.535  13.962  29.627  1.00  0.00    -0.000 C 
BRANCH  24  25
ATOM     25  C   UNL     1      22.745  14.723  29.056  1.00  0.00    -0.000 C 
BRANCH  25  26
ATOM     26  C   UNL     1      23.511  15.515  30.130  1.00  0.00    -0.000 C 
BRANCH  26  27
ATOM     27  C   UNL     1      23.752  17.000  29.794  1.00  0.00    -0.000 C 
BRANCH  27  28
ATOM     28  C   UNL     1      23.275  17.972  30.896  1.00  0.00    -0.000 C 
BRANCH  28  29
ATOM     29  C   UNL     1      21.870  17.618  31.406  1.00  0.00    -0.003 C 
ATOM     30  C   UNL     1      20.793  18.094  30.433  1.00  0.00     0.004 C 
ENDBRANCH  28  29
ENDBRANCH  27  28
ENDBRANCH  26  27
ENDBRANCH  25  26
ENDBRANCH  24  25
ENDBRANCH  23  24
ENDBRANCH  22  23
ENDBRANCH  21  22
ENDBRANCH  20  21
ENDBRANCH  19  20
ENDBRANCH  18  19
ENDBRANCH  17  18
ENDBRANCH   1  17
TORSDOF 26
ENDMDL
MODEL 3
REMARK VINA RESULT:    -3.545      2.615      4.482
REMARK INTER + INTRA:         -13.064
REMARK INTER:                  -8.865
REMARK INTRA:                  -4.199
REMARK UNBOUND:                -4.130
REMARK SMILES CCCCCCCCCCCCCCCCCCCCCCCCCCCC(=O)[O-]
REMARK SMILES IDX 15 1 16 2 17 3 18 4 19 5 20 6 21 7 22 8 23 9 24 10 25 11
REMARK SMILES IDX 26 12 27 13 28 14 29 15 30 16 14 17 13 18 12 19 11 20 10 21
REMARK SMILES IDX 9 22 8 23 7 24 6 25 5 26 4 27 3 28 2 29 1 30
REMARK H PARENT
REMARK Flexibility Score: inf
ROOT
ATOM      1  C   UNL     1      22.255  10.279  35.519  1.00  0.00     0.000 C 
ENDROOT
BRANCH   1   2
ATOM      2  C   UNL     1      20.980   9.512  35.114  1.00  0.00     0.000 C 
BRANCH   2   3
ATOM      3  C   UNL     1      20.051   9.102  36.274  1.00  0.00     0.000 C 
BRANCH   3   4
ATOM      4  C   UNL     1      18.878   8.186  35.882  1.00  0.00     0.000 C 
BRANCH   4   5
ATOM      5  C   UNL     1      19.294   6.715  35.719  1.00  0.00     0.000 C 
BRANCH   5   6
ATOM      6  C   UNL     1      19.092   6.206  34.284  1.00  0.00     0.000 C 
BRANCH   6   7
ATOM      7  C   UNL     1      20.335   6.434  33.404  1.00  0.00     0.000 C 
BRANCH   7   8
ATOM      8  C   UNL     1      20.049   7.336  32.194  1.00  0.00     0.000 C 
BRANCH   8   9
ATOM      9  C   UNL     1      18.568   7.321  31.781  1.00  0.00     0.000 C 
BRANCH   9  10
ATOM     10  C   UNL     1      18.350   7.879  30.365  1.00  0.00     0.000 C 
BRANCH  10  11
ATOM     11  C   UNL     1      18.112   6.771  29.324  1.00  0.00     0.000 C 
BRANCH  11  12
ATOM     12  C   UNL     1      18.347   5.355  29.882  1.00  0.00     0.006 C 
BRANCH  12  13
ATOM     13  C   UNL     1      19.187   4.454  28.958  1.00  0.00     0.053 C 
BRANCH  13  14
ATOM     14  C   UNL     1      20.659   4.580  29.213  1.00  0.00     0.041 C 
ATOM     15  O   UNL     1      21.351   3.554  29.449  1.00  0.00    -0.550 OA
ATOM     16  O   UNL     1      21.261   5.832  29.227  1.00  0.00    -0.550 OA
ENDBRANCH  13  14
ENDBRANCH  12  13
ENDBRANCH  11  12
ENDBRANCH  10  11
ENDBRANCH   9  10
ENDBRANCH   8   9
ENDBRANCH   7   8
ENDBRANCH   6   7
ENDBRANCH   5   6
ENDBRANCH   4   5
ENDBRANCH   3   4
ENDBRANCH   2   3
ENDBRANCH   1   2
BRANCH   1  17
ATOM     17  C   UNL     1      22.295  11.745  35.036  1.00  0.00     0.000 C 
BRANCH  17  18
ATOM     18  C   UNL     1      21.446  12.689  35.909  1.00  0.00     0.000 C 
BRANCH  18  19
ATOM     19  C   UNL     1      20.234  13.260  35.157  1.00  0.00     0.000 C 
BRANCH  19  20
ATOM     20  C   UNL     1      18.892  12.787  35.742  1.00  0.00     0.000 C 
BRANCH  20  21
ATOM     21  C   UNL     1      18.103  11.899  34.767  1.00  0.00     0.000 C 
BRANCH  21  22
ATOM     22  C   UNL     1      18.359  12.263  33.294  1.00  0.00    -0.000 C 
BRANCH  22  23
ATOM     23  C   UNL     1      18.719  11.044  32.426  1.00  0.00    -0.000 C 
BRANCH  23  24
ATOM     24  C   UNL     1      20.165  11.022  31.897  1.00  0.00    -0.000 C 
BRANCH  24  25
ATOM     25  C   UNL     1      20.539  12.303  31.131  1.00  0.00    -0.000 C 
BRANCH  25  26
ATOM     26  C   UNL     1      21.562  13.171  31.886  1.00  0.00    -0.000 C 
BRANCH  26  27
ATOM     27  C   UNL     1      21.547  14.666  31.514  1.00  0.00    -0.000 C 
BRANCH  27  28
ATOM     28  C   UNL     1      22.529  15.034  30.380  1.00  0.00    -0.000 C 
BRANCH  28  29
ATOM     29  C   UNL     1      23.001  16.493  30.480  1.00  0.00    -0.003 C 
ATOM     30  C   UNL     1      24.439  16.643  29.988  1.00  0.00     0.004 C 
ENDBRANCH  28  29
ENDBRANCH  27  28
ENDBRANCH  26  27
ENDBRANCH  25  26
ENDBRANCH  24  25
ENDBRANCH  23  24
ENDBRANCH  22  23
ENDBRANCH  21  22
ENDBRANCH  20  21
ENDBRANCH  19  20
ENDBRANCH  18  19
ENDBRANCH  17  18
ENDBRANCH   1  17
TORSDOF 26
ENDMDL
MODEL 4
REMARK VINA RESULT:    -3.444      3.453      8.793
REMARK INTER + INTRA:         -12.808
REMARK INTER:                  -8.267
REMARK INTRA:                  -4.542
REMARK UNBOUND:                -4.130
REMARK SMILES CCCCCCCCCCCCCCCCCCCCCCCCCCCC(=O)[O-]
REMARK SMILES IDX 15 1 16 2 17 3 18 4 19 5 20 6 21 7 22 8 23 9 24 10 25 11
REMARK SMILES IDX 26 12 27 13 28 14 29 15 30 16 14 17 13 18 12 19 11 20 10 21
REMARK SMILES IDX 9 22 8 23 7 24 6 25 5 26 4 27 3 28 2 29 1 30
REMARK H PARENT
REMARK Flexibility Score: inf
ROOT
ATOM      1  C   UNL     1      22.072  11.700  33.553  1.00  0.00     0.000 C 
ENDROOT
BRANCH   1   2
ATOM      2  C   UNL     1      21.625  13.137  33.892  1.00  0.00     0.000 C 
BRANCH   2   3
ATOM      3  C   UNL     1      21.117  13.976  32.704  1.00  0.00     0.000 C 
BRANCH   3   4
ATOM      4  C   UNL     1      21.620  13.526  31.320  1.00  0.00     0.000 C 
BRANCH   4   5
ATOM      5  C   UNL     1      20.703  13.978  30.173  1.00  0.00     0.000 C 
BRANCH   5   6
ATOM      6  C   UNL     1      21.494  14.464  28.949  1.00  0.00     0.000 C 
BRANCH   6   7
ATOM      7  C   UNL     1      23.015  14.421  29.183  1.00  0.00     0.000 C 
BRANCH   7   8
ATOM      8  C   UNL     1      23.693  15.777  28.931  1.00  0.00     0.000 C 
BRANCH   8   9
ATOM      9  C   UNL     1      24.514  16.263  30.137  1.00  0.00     0.000 C 
BRANCH   9  10
ATOM     10  C   UNL     1      23.936  17.543  30.760  1.00  0.00     0.000 C 
BRANCH  10  11
ATOM     11  C   UNL     1      22.460  17.388  31.167  1.00  0.00     0.000 C 
BRANCH  11  12
ATOM     12  C   UNL     1      21.554  18.490  30.589  1.00  0.00     0.006 C 
BRANCH  12  13
ATOM     13  C   UNL     1      20.615  18.001  29.471  1.00  0.00     0.053 C 
BRANCH  13  14
ATOM     14  C   UNL     1      19.198  17.842  29.936  1.00  0.00     0.041 C 
ATOM     15  O   UNL     1      18.535  16.822  29.612  1.00  0.00    -0.550 OA
ATOM     16  O   UNL     1      18.597  18.839  30.696  1.00  0.00    -0.550 OA
ENDBRANCH  13  14
ENDBRANCH  12  13
ENDBRANCH  11  12
ENDBRANCH  10  11
ENDBRANCH   9  10
ENDBRANCH   8   9
ENDBRANCH   7   8
ENDBRANCH   6   7
ENDBRANCH   5   6
ENDBRANCH   4   5
ENDBRANCH   3   4
ENDBRANCH   2   3
ENDBRANCH   1   2
BRANCH   1  17
ATOM     17  C   UNL     1      21.729  10.655  34.636  1.00  0.00     0.000 C 
BRANCH  17  18
ATOM     18  C   UNL     1      20.799  11.208  35.733  1.00  0.00     0.000 C 
BRANCH  18  19
ATOM     19  C   UNL     1      19.350  10.720  35.583  1.00  0.00     0.000 C 
BRANCH  19  20
ATOM     20  C   UNL     1      19.006  10.307  34.142  1.00  0.00     0.000 C 
BRANCH  20  21
ATOM     21  C   UNL     1      18.301  11.426  33.359  1.00  0.00     0.000 C 
BRANCH  21  22
ATOM     22  C   UNL     1      18.566  11.347  31.845  1.00  0.00    -0.000 C 
BRANCH  22  23
ATOM     23  C   UNL     1      19.695  10.366  31.482  1.00  0.00    -0.000 C 
BRANCH  23  24
ATOM     24  C   UNL     1      19.312   9.278  30.462  1.00  0.00    -0.000 C 
BRANCH  24  25
ATOM     25  C   UNL     1      18.779   7.997  31.127  1.00  0.00    -0.000 C 
BRANCH  25  26
ATOM     26  C   UNL     1      19.729   6.798  30.957  1.00  0.00    -0.000 C 
BRANCH  26  27
ATOM     27  C   UNL     1      19.943   5.952  32.227  1.00  0.00    -0.000 C 
BRANCH  27  28
ATOM     28  C   UNL     1      19.321   6.572  33.499  1.00  0.00    -0.000 C 
BRANCH  28  29
ATOM     29  C   UNL     1      20.394   7.083  34.472  1.00  0.00    -0.003 C 
ATOM     30  C   UNL     1      19.935   6.946  35.922  1.00  0.00     0.004 C 
ENDBRANCH  28  29
ENDBRANCH  27  28
ENDBRANCH  26  27
ENDBRANCH  25  26
ENDBRANCH  24  25
ENDBRANCH  23  24
ENDBRANCH  22  23
ENDBRANCH  21  22
ENDBRANCH  20  21
ENDBRANCH  19  20
ENDBRANCH  18  19
ENDBRANCH  17  18
ENDBRANCH   1  17
TORSDOF 26
ENDMDL
MODEL 5
REMARK VINA RESULT:    -3.408      3.581      8.458
REMARK INTER + INTRA:         -12.718
REMARK INTER:                  -8.362
REMARK INTRA:                  -4.356
REMARK UNBOUND:                -4.130
REMARK SMILES CCCCCCCCCCCCCCCCCCCCCCCCCCCC(=O)[O-]
REMARK SMILES IDX 15 1 16 2 17 3 18 4 19 5 20 6 21 7 22 8 23 9 24 10 25 11
REMARK SMILES IDX 26 12 27 13 28 14 29 15 30 16 14 17 13 18 12 19 11 20 10 21
REMARK SMILES IDX 9 22 8 23 7 24 6 25 5 26 4 27 3 28 2 29 1 30
REMARK H PARENT
REMARK Flexibility Score: inf
ROOT
ATOM      1  C   UNL     1      22.097  11.605  35.211  1.00  0.00     0.000 C 
ENDROOT
BRANCH   1   2
ATOM      2  C   UNL     1      21.408  12.958  35.485  1.00  0.00     0.000 C 
BRANCH   2   3
ATOM      3  C   UNL     1      20.855  13.689  34.246  1.00  0.00     0.000 C 
BRANCH   3   4
ATOM      4  C   UNL     1      21.486  13.274  32.905  1.00  0.00     0.000 C 
BRANCH   4   5
ATOM      5  C   UNL     1      21.663  14.454  31.936  1.00  0.00     0.000 C 
BRANCH   5   6
ATOM      6  C   UNL     1      21.234  14.104  30.503  1.00  0.00     0.000 C 
BRANCH   6   7
ATOM      7  C   UNL     1      19.819  14.615  30.177  1.00  0.00     0.000 C 
BRANCH   7   8
ATOM      8  C   UNL     1      19.802  15.612  29.008  1.00  0.00     0.000 C 
BRANCH   8   9
ATOM      9  C   UNL     1      19.204  16.973  29.399  1.00  0.00     0.000 C 
BRANCH   9  10
ATOM     10  C   UNL     1      20.107  17.754  30.366  1.00  0.00     0.000 C 
BRANCH  10  11
ATOM     11  C   UNL     1      20.890  18.879  29.666  1.00  0.00     0.000 C 
BRANCH  11  12
ATOM     12  C   UNL     1      22.400  18.842  29.964  1.00  0.00     0.006 C 
BRANCH  12  13
ATOM     13  C   UNL     1      23.111  17.588  29.423  1.00  0.00     0.053 C 
BRANCH  13  14
ATOM     14  C   UNL     1      24.196  17.101  30.337  1.00  0.00     0.041 C 
ATOM     15  O   UNL     1      24.699  17.876  31.192  1.00  0.00    -0.550 OA
ATOM     16  O   UNL     1      24.679  15.803  30.219  1.00  0.00    -0.550 OA
ENDBRANCH  13  14
ENDBRANCH  12  13
ENDBRANCH  11  12
ENDBRANCH  10  11
ENDBRANCH   9  10
ENDBRANCH   8   9
ENDBRANCH   7   8
ENDBRANCH   6   7
ENDBRANCH   5   6
ENDBRANCH   4   5
ENDBRANCH   3   4
ENDBRANCH   2   3
ENDBRANCH   1   2
BRANCH   1  17
ATOM     17  C   UNL     1      21.276  10.374  35.652  1.00  0.00     0.000 C 
BRANCH  17  18
ATOM     18  C   UNL     1      20.798   9.513  34.467  1.00  0.00     0.000 C 
BRANCH  18  19
ATOM     19  C   UNL     1      19.267   9.411  34.388  1.00  0.00     0.000 C 
BRANCH  19  20
ATOM     20  C   UNL     1      18.571  10.776  34.516  1.00  0.00     0.000 C 
BRANCH  20  21
ATOM     21  C   UNL     1      18.293  11.428  33.152  1.00  0.00     0.000 C 
BRANCH  21  22
ATOM     22  C   UNL     1      18.400  10.429  31.986  1.00  0.00    -0.000 C 
BRANCH  22  23
ATOM     23  C   UNL     1      19.308  10.928  30.848  1.00  0.00    -0.000 C 
BRANCH  23  24
ATOM     24  C   UNL     1      20.744  10.371  30.865  1.00  0.00    -0.000 C 
BRANCH  24  25
ATOM     25  C   UNL     1      21.114   9.634  29.566  1.00  0.00    -0.000 C 
BRANCH  25  26
ATOM     26  C   UNL     1      20.041   8.621  29.130  1.00  0.00    -0.000 C 
BRANCH  26  27
ATOM     27  C   UNL     1      20.358   7.152  29.469  1.00  0.00    -0.000 C 
BRANCH  27  28
ATOM     28  C   UNL     1      19.339   6.501  30.430  1.00  0.00    -0.000 C 
BRANCH  28  29
ATOM     29  C   UNL     1      19.519   6.989  31.876  1.00  0.00    -0.003 C 
ATOM     30  C   UNL     1      20.346   5.999  32.694  1.00  0.00     0.004 C 
ENDBRANCH  28  29
ENDBRANCH  27  28
ENDBRANCH  26  27
ENDBRANCH  25  26
ENDBRANCH  24  25
ENDBRANCH  23  24
ENDBRANCH  22  23
ENDBRANCH  21  22
ENDBRANCH  20  21
ENDBRANCH  19  20
ENDBRANCH  18  19
ENDBRANCH  17  18
ENDBRANCH   1  17
TORSDOF 26
ENDMDL
MODEL 6
REMARK VINA RESULT:    -3.402      2.135      3.595
REMARK INTER + INTRA:         -12.703
REMARK INTER:                  -8.698
REMARK INTRA:                  -4.004
REMARK UNBOUND:                -4.130
REMARK SMILES CCCCCCCCCCCCCCCCCCCCCCCCCCCC(=O)[O-]
REMARK SMILES IDX 15 1 16 2 17 3 18 4 19 5 20 6 21 7 22 8 23 9 24 10 25 11
REMARK SMILES IDX 26 12 27 13 28 14 29 15 30 16 14 17 13 18 12 19 11 20 10 21
REMARK SMILES IDX 9 22 8 23 7 24 6 25 5 26 4 27 3 28 2 29 1 30
REMARK H PARENT
REMARK Flexibility Score: inf
ROOT
ATOM      1  C   UNL     1      18.220  10.599  33.626  1.00  0.00     0.000 C 
ENDROOT
BRANCH   1   2
ATOM      2  C   UNL     1      18.030  10.372  32.112  1.00  0.00     0.000 C 
BRANCH   2   3
ATOM      3  C   UNL     1      19.277   9.887  31.347  1.00  0.00     0.000 C 
BRANCH   3   4
ATOM      4  C   UNL     1      19.952   8.629  31.924  1.00  0.00     0.000 C 
BRANCH   4   5
ATOM      5  C   UNL     1      19.269   7.326  31.479  1.00  0.00     0.000 C 
BRANCH   5   6
ATOM      6  C   UNL     1      19.439   6.197  32.507  1.00  0.00     0.000 C 
BRANCH   6   7
ATOM      7  C   UNL     1      18.125   5.878  33.245  1.00  0.00     0.000 C 
BRANCH   7   8
ATOM      8  C   UNL     1      17.878   6.806  34.444  1.00  0.00     0.000 C 
BRANCH   8   9
ATOM      9  C   UNL     1      18.971   6.691  35.519  1.00  0.00     0.000 C 
BRANCH   9  10
ATOM     10  C   UNL     1      19.532   8.061  35.932  1.00  0.00     0.000 C 
BRANCH  10  11
ATOM     11  C   UNL     1      20.926   8.332  35.338  1.00  0.00     0.000 C 
BRANCH  11  12
ATOM     12  C   UNL     1      21.209   9.829  35.118  1.00  0.00     0.006 C 
BRANCH  12  13
ATOM     13  C   UNL     1      22.343  10.385  35.998  1.00  0.00     0.053 C 
BRANCH  13  14
ATOM     14  C   UNL     1      23.513  10.868  35.194  1.00  0.00     0.041 C 
ATOM     15  O   UNL     1      23.387  11.087  33.961  1.00  0.00    -0.550 OA
ATOM     16  O   UNL     1      24.754  11.039  35.798  1.00  0.00    -0.550 OA
ENDBRANCH  13  14
ENDBRANCH  12  13
ENDBRANCH  11  12
ENDBRANCH  10  11
ENDBRANCH   9  10
ENDBRANCH   8   9
ENDBRANCH   7   8
ENDBRANCH   6   7
ENDBRANCH   5   6
ENDBRANCH   4   5
ENDBRANCH   3   4
ENDBRANCH   2   3
ENDBRANCH   1   2
BRANCH   1  17
ATOM     17  C   UNL     1      17.954  12.047  34.090  1.00  0.00     0.000 C 
BRANCH  17  18
ATOM     18  C   UNL     1      18.315  12.282  35.569  1.00  0.00     0.000 C 
BRANCH  18  19
ATOM     19  C   UNL     1      19.719  12.877  35.749  1.00  0.00     0.000 C 
BRANCH  19  20
ATOM     20  C   UNL     1      20.052  13.952  34.700  1.00  0.00     0.000 C 
BRANCH  20  21
ATOM     21  C   UNL     1      21.271  13.583  33.841  1.00  0.00     0.000 C 
BRANCH  21  22
ATOM     22  C   UNL     1      20.887  13.197  32.402  1.00  0.00    -0.000 C 
BRANCH  22  23
ATOM     23  C   UNL     1      21.093  14.344  31.396  1.00  0.00    -0.000 C 
BRANCH  23  24
ATOM     24  C   UNL     1      22.083  14.044  30.256  1.00  0.00    -0.000 C 
BRANCH  24  25
ATOM     25  C   UNL     1      22.720  15.316  29.669  1.00  0.00    -0.000 C 
BRANCH  25  26
ATOM     26  C   UNL     1      23.608  16.060  30.681  1.00  0.00    -0.000 C 
BRANCH  26  27
ATOM     27  C   UNL     1      23.358  17.578  30.774  1.00  0.00    -0.000 C 
BRANCH  27  28
ATOM     28  C   UNL     1      21.939  17.945  31.263  1.00  0.00    -0.000 C 
BRANCH  28  29
ATOM     29  C   UNL     1      21.046  18.442  30.115  1.00  0.00    -0.003 C 
ATOM     30  C   UNL     1      19.678  17.765  30.146  1.00  0.00     0.004 C 
ENDBRANCH  28  29
ENDBRANCH  27  28
ENDBRANCH  26  27
ENDBRANCH  25  26
ENDBRANCH  24  25
ENDBRANCH  23  24
ENDBRANCH  22  23
ENDBRANCH  21  22
ENDBRANCH  20  21
ENDBRANCH  19  20
ENDBRANCH  18  19
ENDBRANCH  17  18
ENDBRANCH   1  17
TORSDOF 26
ENDMDL
MODEL 7
REMARK VINA RESULT:    -3.334      1.398      3.294
REMARK INTER + INTRA:         -12.531
REMARK INTER:                  -8.691
REMARK INTRA:                  -3.839
REMARK UNBOUND:                -4.130
REMARK SMILES CCCCCCCCCCCCCCCCCCCCCCCCCCCC(=O)[O-]
REMARK SMILES IDX 15 1 16 2 17 3 18 4 19 5 20 6 21 7 22 8 23 9 24 10 25 11
REMARK SMILES IDX 26 12 27 13 28 14 29 15 30 16 14 17 13 18 12 19 11 20 10 21
REMARK SMILES IDX 9 22 8 23 7 24 6 25 5 26 4 27 3 28 2 29 1 30
REMARK H PARENT
REMARK Flexibility Score: inf
ROOT
ATOM      1  C   UNL     1      22.689  11.228  34.127  1.00  0.00     0.000 C 
ENDROOT
BRANCH   1   2
ATOM      2  C   UNL     1      22.217  11.319  35.593  1.00  0.00     0.000 C 
BRANCH   2   3
ATOM      3  C   UNL     1      21.002  10.444  35.958  1.00  0.00     0.000 C 
BRANCH   3   4
ATOM      4  C   UNL     1      19.708  11.218  36.270  1.00  0.00     0.000 C 
BRANCH   4   5
ATOM      5  C   UNL     1      19.797  12.708  35.903  1.00  0.00     0.000 C 
BRANCH   5   6
ATOM      6  C   UNL     1      18.811  13.097  34.792  1.00  0.00     0.000 C 
BRANCH   6   7
ATOM      7  C   UNL     1      17.987  11.894  34.296  1.00  0.00     0.000 C 
BRANCH   7   8
ATOM      8  C   UNL     1      17.975  11.774  32.764  1.00  0.00     0.000 C 
BRANCH   8   9
ATOM      9  C   UNL     1      18.147  10.323  32.283  1.00  0.00     0.000 C 
BRANCH   9  10
ATOM     10  C   UNL     1      18.345   9.339  33.446  1.00  0.00     0.000 C 
BRANCH  10  11
ATOM     11  C   UNL     1      19.548   8.404  33.231  1.00  0.00     0.000 C 
BRANCH  11  12
ATOM     12  C   UNL     1      19.397   7.049  33.947  1.00  0.00     0.006 C 
BRANCH  12  13
ATOM     13  C   UNL     1      20.319   6.886  35.170  1.00  0.00     0.053 C 
BRANCH  13  14
ATOM     14  C   UNL     1      19.559   6.841  36.462  1.00  0.00     0.041 C 
ATOM     15  O   UNL     1      19.027   7.887  36.920  1.00  0.00    -0.550 OA
ATOM     16  O   UNL     1      19.472   5.655  37.181  1.00  0.00    -0.550 OA
ENDBRANCH  13  14
ENDBRANCH  12  13
ENDBRANCH  11  12
ENDBRANCH  10  11
ENDBRANCH   9  10
ENDBRANCH   8   9
ENDBRANCH   7   8
ENDBRANCH   6   7
ENDBRANCH   5   6
ENDBRANCH   4   5
ENDBRANCH   3   4
ENDBRANCH   2   3
ENDBRANCH   1   2
BRANCH   1  17
ATOM     17  C   UNL     1      21.560  11.378  33.086  1.00  0.00     0.000 C 
BRANCH  17  18
ATOM     18  C   UNL     1      22.062  11.883  31.720  1.00  0.00     0.000 C 
BRANCH  18  19
ATOM     19  C   UNL     1      21.297  11.263  30.541  1.00  0.00     0.000 C 
BRANCH  19  20
ATOM     20  C   UNL     1      21.110  12.242  29.369  1.00  0.00     0.000 C 
BRANCH  20  21
ATOM     21  C   UNL     1      19.772  12.995  29.436  1.00  0.00     0.000 C 
BRANCH  21  22
ATOM     22  C   UNL     1      19.886  14.342  30.172  1.00  0.00    -0.000 C 
BRANCH  22  23
ATOM     23  C   UNL     1      18.950  15.421  29.599  1.00  0.00    -0.000 C 
BRANCH  23  24
ATOM     24  C   UNL     1      19.654  16.689  29.080  1.00  0.00    -0.000 C 
BRANCH  24  25
ATOM     25  C   UNL     1      19.766  17.789  30.150  1.00  0.00    -0.000 C 
BRANCH  25  26
ATOM     26  C   UNL     1      21.051  18.625  30.012  1.00  0.00    -0.000 C 
BRANCH  26  27
ATOM     27  C   UNL     1      22.197  18.216  30.957  1.00  0.00    -0.000 C 
BRANCH  27  28
ATOM     28  C   UNL     1      22.778  16.816  30.660  1.00  0.00    -0.000 C 
BRANCH  28  29
ATOM     29  C   UNL     1      24.287  16.869  30.373  1.00  0.00    -0.003 C 
ATOM     30  C   UNL     1      24.742  15.645  29.581  1.00  0.00     0.004 C 
ENDBRANCH  28  29
ENDBRANCH  27  28
ENDBRANCH  26  27
ENDBRANCH  25  26
ENDBRANCH  24  25
ENDBRANCH  23  24
ENDBRANCH  22  23
ENDBRANCH  21  22
ENDBRANCH  20  21
ENDBRANCH  19  20
ENDBRANCH  18  19
ENDBRANCH  17  18
ENDBRANCH   1  17
TORSDOF 26
ENDMDL
MODEL 8
REMARK VINA RESULT:    -3.333      3.561      8.836
REMARK INTER + INTRA:         -12.530
REMARK INTER:                  -9.085
REMARK INTRA:                  -3.444
REMARK UNBOUND:                -4.130
REMARK SMILES CCCCCCCCCCCCCCCCCCCCCCCCCCCC(=O)[O-]
REMARK SMILES IDX 15 1 16 2 17 3 18 4 19 5 20 6 21 7 22 8 23 9 24 10 25 11
REMARK SMILES IDX 26 12 27 13 28 14 29 15 30 16 14 17 13 18 12 19 11 20 10 21
REMARK SMILES IDX 9 22 8 23 7 24 6 25 5 26 4 27 3 28 2 29 1 30
REMARK H PARENT
REMARK Flexibility Score: inf
ROOT
ATOM      1  C   UNL     1      21.574  10.380  35.336  1.00  0.00     0.000 C 
ENDROOT
BRANCH   1   2
ATOM      2  C   UNL     1      22.223  11.647  34.742  1.00  0.00     0.000 C 
BRANCH   2   3
ATOM      3  C   UNL     1      21.986  11.877  33.236  1.00  0.00     0.000 C 
BRANCH   3   4
ATOM      4  C   UNL     1      21.499  13.287  32.857  1.00  0.00     0.000 C 
BRANCH   4   5
ATOM      5  C   UNL     1      20.477  13.279  31.709  1.00  0.00     0.000 C 
BRANCH   5   6
ATOM      6  C   UNL     1      20.669  14.462  30.748  1.00  0.00     0.000 C 
BRANCH   6   7
ATOM      7  C   UNL     1      21.146  14.010  29.355  1.00  0.00     0.000 C 
BRANCH   7   8
ATOM      8  C   UNL     1      22.653  13.717  29.310  1.00  0.00     0.000 C 
BRANCH   8   9
ATOM      9  C   UNL     1      23.485  14.952  28.927  1.00  0.00     0.000 C 
BRANCH   9  10
ATOM     10  C   UNL     1      24.015  15.705  30.158  1.00  0.00     0.000 C 
BRANCH  10  11
ATOM     11  C   UNL     1      24.284  17.192  29.869  1.00  0.00     0.000 C 
BRANCH  11  12
ATOM     12  C   UNL     1      23.523  18.140  30.814  1.00  0.00     0.006 C 
BRANCH  12  13
ATOM     13  C   UNL     1      22.078  17.698  31.109  1.00  0.00     0.053 C 
BRANCH  13  14
ATOM     14  C   UNL     1      21.064  18.491  30.339  1.00  0.00     0.041 C 
ATOM     15  O   UNL     1      21.427  19.220  29.378  1.00  0.00    -0.550 OA
ATOM     16  O   UNL     1      19.724  18.456  30.705  1.00  0.00    -0.550 OA
ENDBRANCH  13  14
ENDBRANCH  12  13
ENDBRANCH  11  12
ENDBRANCH  10  11
ENDBRANCH   9  10
ENDBRANCH   8   9
ENDBRANCH   7   8
ENDBRANCH   6   7
ENDBRANCH   5   6
ENDBRANCH   4   5
ENDBRANCH   3   4
ENDBRANCH   2   3
ENDBRANCH   1   2
BRANCH   1  17
ATOM     17  C   UNL     1      20.330  10.654  36.208  1.00  0.00     0.000 C 
BRANCH  17  18
ATOM     18  C   UNL     1      19.762  12.073  36.020  1.00  0.00     0.000 C 
BRANCH  18  19
ATOM     19  C   UNL     1      18.382  12.075  35.345  1.00  0.00     0.000 C 
BRANCH  19  20
ATOM     20  C   UNL     1      18.456  11.788  33.836  1.00  0.00     0.000 C 
BRANCH  20  21
ATOM     21  C   UNL     1      17.875  10.414  33.466  1.00  0.00     0.000 C 
BRANCH  21  22
ATOM     22  C   UNL     1      18.030  10.088  31.970  1.00  0.00    -0.000 C 
BRANCH  22  23
ATOM     23  C   UNL     1      19.460   9.664  31.591  1.00  0.00    -0.000 C 
BRANCH  23  24
ATOM     24  C   UNL     1      19.748   8.156  31.711  1.00  0.00    -0.000 C 
BRANCH  24  25
ATOM     25  C   UNL     1      18.469   7.317  31.881  1.00  0.00    -0.000 C 
BRANCH  25  26
ATOM     26  C   UNL     1      18.734   5.956  32.549  1.00  0.00    -0.000 C 
BRANCH  26  27
ATOM     27  C   UNL     1      18.279   5.853  34.017  1.00  0.00    -0.000 C 
BRANCH  27  28
ATOM     28  C   UNL     1      18.428   7.171  34.809  1.00  0.00    -0.000 C 
BRANCH  28  29
ATOM     29  C   UNL     1      19.639   7.140  35.753  1.00  0.00    -0.003 C 
ATOM     30  C   UNL     1      19.342   6.322  37.008  1.00  0.00     0.004 C 
ENDBRANCH  28  29
ENDBRANCH  27  28
ENDBRANCH  26  27
ENDBRANCH  25  26
ENDBRANCH  24  25
ENDBRANCH  23  24
ENDBRANCH  22  23
ENDBRANCH  21  22
ENDBRANCH  20  21
ENDBRANCH  19  20
ENDBRANCH  18  19
ENDBRANCH  17  18
ENDBRANCH   1  17
TORSDOF 26
ENDMDL
MODEL 9
REMARK VINA RESULT:    -3.321      2.486      3.854
REMARK INTER + INTRA:         -12.498
REMARK INTER:                  -8.814
REMARK INTRA:                  -3.684
REMARK UNBOUND:                -4.130
REMARK SMILES CCCCCCCCCCCCCCCCCCCCCCCCCCCC(=O)[O-]
REMARK SMILES IDX 15 1 16 2 17 3 18 4 19 5 20 6 21 7 22 8 23 9 24 10 25 11
REMARK SMILES IDX 26 12 27 13 28 14 29 15 30 16 14 17 13 18 12 19 11 20 10 21
REMARK SMILES IDX 9 22 8 23 7 24 6 25 5 26 4 27 3 28 2 29 1 30
REMARK H PARENT
REMARK Flexibility Score: inf
ROOT
ATOM      1  C   UNL     1      21.428  12.548  35.209  1.00  0.00     0.000 C 
ENDROOT
BRANCH   1   2
ATOM      2  C   UNL     1      21.589  11.230  35.993  1.00  0.00     0.000 C 
BRANCH   2   3
ATOM      3  C   UNL     1      21.944   9.989  35.150  1.00  0.00     0.000 C 
BRANCH   3   4
ATOM      4  C   UNL     1      20.882   8.875  35.144  1.00  0.00     0.000 C 
BRANCH   4   5
ATOM      5  C   UNL     1      19.782   9.089  36.196  1.00  0.00     0.000 C 
BRANCH   5   6
ATOM      6  C   UNL     1      19.391   7.785  36.907  1.00  0.00     0.000 C 
BRANCH   6   7
ATOM      7  C   UNL     1      19.270   6.601  35.930  1.00  0.00     0.000 C 
BRANCH   7   8
ATOM      8  C   UNL     1      18.076   6.740  34.974  1.00  0.00     0.000 C 
BRANCH   8   9
ATOM      9  C   UNL     1      17.908   5.520  34.053  1.00  0.00     0.000 C 
BRANCH   9  10
ATOM     10  C   UNL     1      17.976   5.897  32.564  1.00  0.00     0.000 C 
BRANCH  10  11
ATOM     11  C   UNL     1      19.403   6.249  32.109  1.00  0.00     0.000 C 
BRANCH  11  12
ATOM     12  C   UNL     1      19.437   7.108  30.831  1.00  0.00     0.006 C 
BRANCH  12  13
ATOM     13  C   UNL     1      20.303   6.515  29.705  1.00  0.00     0.053 C 
BRANCH  13  14
ATOM     14  C   UNL     1      20.433   5.024  29.801  1.00  0.00     0.041 C 
ATOM     15  O   UNL     1      21.525   4.505  30.153  1.00  0.00    -0.550 OA
ATOM     16  O   UNL     1      19.361   4.206  29.464  1.00  0.00    -0.550 OA
ENDBRANCH  13  14
ENDBRANCH  12  13
ENDBRANCH  11  12
ENDBRANCH  10  11
ENDBRANCH   9  10
ENDBRANCH   8   9
ENDBRANCH   7   8
ENDBRANCH   6   7
ENDBRANCH   5   6
ENDBRANCH   4   5
ENDBRANCH   3   4
ENDBRANCH   2   3
ENDBRANCH   1   2
BRANCH   1  17
ATOM     17  C   UNL     1      20.115  13.305  35.500  1.00  0.00     0.000 C 
BRANCH  17  18
ATOM     18  C   UNL     1      19.073  13.159  34.374  1.00  0.00     0.000 C 
BRANCH  18  19
ATOM     19  C   UNL     1      18.261  11.859  34.484  1.00  0.00     0.000 C 
BRANCH  19  20
ATOM     20  C   UNL     1      18.404  10.961  33.243  1.00  0.00     0.000 C 
BRANCH  20  21
ATOM     21  C   UNL     1      19.519  11.431  32.297  1.00  0.00     0.000 C 
BRANCH  21  22
ATOM     22  C   UNL     1      20.413  10.275  31.813  1.00  0.00    -0.000 C 
BRANCH  22  23
ATOM     23  C   UNL     1      20.932  10.476  30.378  1.00  0.00    -0.000 C 
BRANCH  23  24
ATOM     24  C   UNL     1      20.352  11.696  29.638  1.00  0.00    -0.000 C 
BRANCH  24  25
ATOM     25  C   UNL     1      21.419  12.753  29.302  1.00  0.00    -0.000 C 
BRANCH  25  26
ATOM     26  C   UNL     1      22.065  13.366  30.557  1.00  0.00    -0.000 C 
BRANCH  26  27
ATOM     27  C   UNL     1      21.483  14.725  30.990  1.00  0.00    -0.000 C 
BRANCH  27  28
ATOM     28  C   UNL     1      21.833  15.885  30.031  1.00  0.00    -0.000 C 
BRANCH  28  29
ATOM     29  C   UNL     1      21.068  17.171  30.382  1.00  0.00    -0.003 C 
ATOM     30  C   UNL     1      21.766  17.942  31.500  1.00  0.00     0.004 C 
ENDBRANCH  28  29
ENDBRANCH  27  28
ENDBRANCH  26  27
ENDBRANCH  25  26
ENDBRANCH  24  25
ENDBRANCH  23  24
ENDBRANCH  22  23
ENDBRANCH  21  22
ENDBRANCH  20  21
ENDBRANCH  19  20
ENDBRANCH  18  19
ENDBRANCH  17  18
ENDBRANCH   1  17
TORSDOF 26
ENDMDL
