MODEL 1
REMARK VINA RESULT:    -7.221      0.000      0.000
REMARK INTER + INTRA:         -11.798
REMARK INTER:                 -10.599
REMARK INTRA:                  -1.200
REMARK UNBOUND:                -1.200
REMARK SMILES O=c1c(O[C@H]2O[C@H](CO)[C@H](O)[C@H](O)[C@@H]2O)c(-c2ccc(O)c(O)c2)oc2cc(O)cc(O)c12
REMARK SMILES IDX 4 1 3 2 16 3 25 4 2 5 26 6 1 7 33 8 27 9 31 10 28 11 30 12
REMARK SMILES IDX 17 13 20 14 19 15 22 16 18 17 24 18 21 19 23 21 32 23 29 25
REMARK SMILES IDX 5 27 14 28 6 29 12 30 7 31 10 32 15 33 13 35 8 37 9 38 11 40
REMARK H PARENT 21 20 23 22 32 24 29 26 15 34 13 36 9 39 11 41
REMARK Flexibility Score: inf
ROOT
ATOM      1  O   UNL     1       0.428 -20.832  28.546  1.00  0.00    -0.454 OA
ENDROOT
BRANCH   1   2
ATOM      2  C   UNL     1       0.017 -22.114  28.958  1.00  0.00     0.214 A 
ATOM      3  C   UNL     1       0.522 -23.229  28.262  1.00  0.00     0.180 A 
ATOM      4  O   UNL     1       0.229 -24.459  28.667  1.00  0.00    -0.452 OA
ATOM      5  C   UNL     1      -0.849 -22.338  30.048  1.00  0.00     0.239 A 
ATOM      6  C   UNL     1      -0.562 -24.716  29.701  1.00  0.00     0.146 A 
ATOM      7  O   UNL     1      -1.364 -21.362  30.657  1.00  0.00    -0.285 OA
ATOM      8  C   UNL     1      -1.147 -23.660  30.439  1.00  0.00     0.111 A 
ATOM      9  C   UNL     1      -0.813 -26.045  30.052  1.00  0.00     0.094 A 
ATOM     10  C   UNL     1      -2.000 -23.972  31.527  1.00  0.00     0.134 A 
ATOM     11  C   UNL     1      -1.649 -26.346  31.131  1.00  0.00     0.123 A 
ATOM     12  C   UNL     1      -2.240 -25.312  31.860  1.00  0.00     0.093 A 
BRANCH   3  13
ATOM     13  C   UNL     1       1.415 -23.068  27.093  1.00  0.00     0.025 A 
ATOM     14  C   UNL     1       3.138 -22.745  24.892  1.00  0.00     0.157 A 
ATOM     15  C   UNL     1       3.611 -22.543  26.192  1.00  0.00     0.051 A 
ATOM     16  C   UNL     1       1.799 -23.119  24.687  1.00  0.00     0.158 A 
ATOM     17  C   UNL     1       2.757 -22.710  27.288  1.00  0.00     0.016 A 
ATOM     18  C   UNL     1       0.946 -23.286  25.786  1.00  0.00     0.062 A 
BRANCH  14  19
ATOM     19  O   UNL     1       4.011 -22.570  23.817  1.00  0.00    -0.504 OA
ATOM     20  H   UNL     1       3.918 -21.796  23.172  1.00  0.00     0.293 HD
ENDBRANCH  14  19
BRANCH  16  21
ATOM     21  O   UNL     1       1.320 -23.324  23.394  1.00  0.00    -0.504 OA
ATOM     22  H   UNL     1       0.725 -24.112  23.167  1.00  0.00     0.293 HD
ENDBRANCH  16  21
ENDBRANCH   3  13
BRANCH  10  23
ATOM     23  O   UNL     1      -2.607 -22.965  32.276  1.00  0.00    -0.507 OA
ATOM     24  H   UNL     1      -2.912 -23.119  33.230  1.00  0.00     0.293 HD
ENDBRANCH  10  23
BRANCH  11  25
ATOM     25  O   UNL     1      -1.902 -27.669  31.486  1.00  0.00    -0.508 OA
ATOM     26  H   UNL     1      -1.276 -28.185  32.093  1.00  0.00     0.293 HD
ENDBRANCH  11  25
ENDBRANCH   1   2
BRANCH   1  27
ATOM     27  C   UNL     1      -0.423 -19.725  28.233  1.00  0.00     0.339 C 
ATOM     28  C   UNL     1      -1.432 -20.132  27.141  1.00  0.00     0.214 C 
ATOM     29  O   UNL     1       0.326 -18.580  27.849  1.00  0.00    -0.332 OA
ATOM     30  C   UNL     1      -0.705 -20.333  25.791  1.00  0.00     0.180 C 
ATOM     31  C   UNL     1       1.093 -18.826  26.679  1.00  0.00     0.179 C 
ATOM     32  C   UNL     1       0.179 -19.117  25.468  1.00  0.00     0.177 C 
BRANCH  28  33
ATOM     33  O   UNL     1      -2.421 -19.139  27.039  1.00  0.00    -0.384 OA
ATOM     34  H   UNL     1      -2.892 -19.108  27.913  1.00  0.00     0.211 HD
ENDBRANCH  28  33
BRANCH  30  35
ATOM     35  O   UNL     1      -1.623 -20.546  24.750  1.00  0.00    -0.387 OA
ATOM     36  H   UNL     1      -2.436 -20.939  25.163  1.00  0.00     0.211 HD
ENDBRANCH  30  35
BRANCH  31  37
ATOM     37  C   UNL     1       2.021 -17.631  26.421  1.00  0.00     0.191 C 
BRANCH  37  38
ATOM     38  O   UNL     1       2.244 -17.464  25.047  1.00  0.00    -0.394 OA
ATOM     39  H   UNL     1       2.022 -16.520  24.844  1.00  0.00     0.210 HD
ENDBRANCH  37  38
ENDBRANCH  31  37
BRANCH  32  40
ATOM     40  O   UNL     1      -0.627 -17.999  25.186  1.00  0.00    -0.387 OA
ATOM     41  H   UNL     1      -0.802 -18.003  24.209  1.00  0.00     0.211 HD
ENDBRANCH  32  40
ENDBRANCH   1  27
TORSDOF 12
ENDMDL
MODEL 2
REMARK VINA RESULT:    -7.149      2.442      7.733
REMARK INTER + INTRA:         -11.692
REMARK INTER:                 -10.408
REMARK INTRA:                  -1.285
REMARK UNBOUND:                -1.200
REMARK SMILES O=c1c(O[C@H]2O[C@H](CO)[C@H](O)[C@H](O)[C@@H]2O)c(-c2ccc(O)c(O)c2)oc2cc(O)cc(O)c12
REMARK SMILES IDX 4 1 3 2 16 3 25 4 2 5 26 6 1 7 33 8 27 9 31 10 28 11 30 12
REMARK SMILES IDX 17 13 20 14 19 15 22 16 18 17 24 18 21 19 23 21 32 23 29 25
REMARK SMILES IDX 5 27 14 28 6 29 12 30 7 31 10 32 15 33 13 35 8 37 9 38 11 40
REMARK H PARENT 21 20 23 22 32 24 29 26 15 34 13 36 9 39 11 41
REMARK Flexibility Score: inf
ROOT
ATOM      1  O   UNL     1       0.959 -24.284  27.715  1.00  0.00    -0.454 OA
ENDROOT
BRANCH   1   2
ATOM      2  C   UNL     1       0.531 -23.013  27.288  1.00  0.00     0.214 A 
ATOM      3  C   UNL     1      -0.202 -22.220  28.191  1.00  0.00     0.180 A 
ATOM      4  O   UNL     1      -0.554 -20.982  27.862  1.00  0.00    -0.452 OA
ATOM      5  C   UNL     1       0.826 -22.483  26.014  1.00  0.00     0.239 A 
ATOM      6  C   UNL     1      -0.277 -20.435  26.685  1.00  0.00     0.146 A 
ATOM      7  O   UNL     1       1.432 -23.186  25.161  1.00  0.00    -0.285 OA
ATOM      8  C   UNL     1       0.423 -21.168  25.698  1.00  0.00     0.111 A 
ATOM      9  C   UNL     1      -0.689 -19.125  26.430  1.00  0.00     0.094 A 
ATOM     10  C   UNL     1       0.687 -20.558  24.446  1.00  0.00     0.134 A 
ATOM     11  C   UNL     1      -0.420 -18.526  25.196  1.00  0.00     0.123 A 
ATOM     12  C   UNL     1       0.262 -19.243  24.211  1.00  0.00     0.093 A 
BRANCH   3  13
ATOM     13  C   UNL     1      -0.569 -22.721  29.534  1.00  0.00     0.025 A 
ATOM     14  C   UNL     1      -1.301 -23.680  32.077  1.00  0.00     0.157 A 
ATOM     15  C   UNL     1      -2.136 -23.893  30.976  1.00  0.00     0.051 A 
ATOM     16  C   UNL     1      -0.087 -22.991  31.908  1.00  0.00     0.158 A 
ATOM     17  C   UNL     1      -1.770 -23.423  29.710  1.00  0.00     0.016 A 
ATOM     18  C   UNL     1       0.277 -22.522  30.638  1.00  0.00     0.062 A 
BRANCH  14  19
ATOM     19  O   UNL     1      -1.691 -24.158  33.328  1.00  0.00    -0.504 OA
ATOM     20  H   UNL     1      -1.534 -23.629  34.177  1.00  0.00     0.293 HD
ENDBRANCH  14  19
BRANCH  16  21
ATOM     21  O   UNL     1       0.752 -22.776  33.000  1.00  0.00    -0.504 OA
ATOM     22  H   UNL     1       1.602 -23.312  33.129  1.00  0.00     0.293 HD
ENDBRANCH  16  21
ENDBRANCH   3  13
BRANCH  10  23
ATOM     23  O   UNL     1       1.365 -21.245  23.440  1.00  0.00    -0.507 OA
ATOM     24  H   UNL     1       1.279 -20.985  22.465  1.00  0.00     0.293 HD
ENDBRANCH  10  23
BRANCH  11  25
ATOM     25  O   UNL     1      -0.827 -17.220  24.937  1.00  0.00    -0.508 OA
ATOM     26  H   UNL     1      -1.766 -16.904  25.149  1.00  0.00     0.293 HD
ENDBRANCH  11  25
ENDBRANCH   1   2
BRANCH   1  27
ATOM     27  C   UNL     1       2.278 -24.823  27.592  1.00  0.00     0.339 C 
ATOM     28  C   UNL     1       2.225 -26.362  27.665  1.00  0.00     0.214 C 
ATOM     29  O   UNL     1       3.157 -24.285  28.571  1.00  0.00    -0.332 OA
ATOM     30  C   UNL     1       1.857 -26.815  29.097  1.00  0.00     0.180 C 
ATOM     31  C   UNL     1       2.728 -24.601  29.888  1.00  0.00     0.179 C 
ATOM     32  C   UNL     1       2.760 -26.127  30.132  1.00  0.00     0.177 C 
BRANCH  28  33
ATOM     33  O   UNL     1       3.472 -26.882  27.277  1.00  0.00    -0.384 OA
ATOM     34  H   UNL     1       3.951 -26.156  26.795  1.00  0.00     0.211 HD
ENDBRANCH  28  33
BRANCH  30  35
ATOM     35  O   UNL     1       1.959 -28.211  29.226  1.00  0.00    -0.387 OA
ATOM     36  H   UNL     1       1.961 -28.583  28.306  1.00  0.00     0.211 HD
ENDBRANCH  30  35
BRANCH  31  37
ATOM     37  C   UNL     1       3.596 -23.841  30.900  1.00  0.00     0.191 C 
BRANCH  37  38
ATOM     38  O   UNL     1       3.394 -24.336  32.196  1.00  0.00    -0.394 OA
ATOM     39  H   UNL     1       3.684 -25.283  32.179  1.00  0.00     0.210 HD
ENDBRANCH  37  38
ENDBRANCH  31  37
BRANCH  32  40
ATOM     40  O   UNL     1       4.077 -26.610  30.017  1.00  0.00    -0.387 OA
ATOM     41  H   UNL     1       4.384 -26.840  30.932  1.00  0.00     0.211 HD
ENDBRANCH  32  40
ENDBRANCH   1  27
TORSDOF 12
ENDMDL
MODEL 3
REMARK VINA RESULT:    -7.035      2.141      2.934
REMARK INTER + INTRA:         -11.525
REMARK INTER:                  -9.951
REMARK INTRA:                  -1.573
REMARK UNBOUND:                -1.200
REMARK SMILES O=c1c(O[C@H]2O[C@H](CO)[C@H](O)[C@H](O)[C@@H]2O)c(-c2ccc(O)c(O)c2)oc2cc(O)cc(O)c12
REMARK SMILES IDX 4 1 3 2 16 3 25 4 2 5 26 6 1 7 33 8 27 9 31 10 28 11 30 12
REMARK SMILES IDX 17 13 20 14 19 15 22 16 18 17 24 18 21 19 23 21 32 23 29 25
REMARK SMILES IDX 5 27 14 28 6 29 12 30 7 31 10 32 15 33 13 35 8 37 9 38 11 40
REMARK H PARENT 21 20 23 22 32 24 29 26 15 34 13 36 9 39 11 41
REMARK Flexibility Score: inf
ROOT
ATOM      1  O   UNL     1      -1.214 -19.518  28.144  1.00  0.00    -0.454 OA
ENDROOT
BRANCH   1   2
ATOM      2  C   UNL     1      -1.010 -20.881  28.430  1.00  0.00     0.214 A 
ATOM      3  C   UNL     1      -0.204 -21.632  27.553  1.00  0.00     0.180 A 
ATOM      4  O   UNL     1       0.084 -22.899  27.828  1.00  0.00    -0.452 OA
ATOM      5  C   UNL     1      -1.547 -21.524  29.565  1.00  0.00     0.239 A 
ATOM      6  C   UNL     1      -0.379 -23.535  28.897  1.00  0.00     0.146 A 
ATOM      7  O   UNL     1      -2.319 -20.898  30.341  1.00  0.00    -0.285 OA
ATOM      8  C   UNL     1      -1.228 -22.875  29.815  1.00  0.00     0.111 A 
ATOM      9  C   UNL     1      -0.021 -24.871  29.101  1.00  0.00     0.094 A 
ATOM     10  C   UNL     1      -1.718 -23.591  30.936  1.00  0.00     0.134 A 
ATOM     11  C   UNL     1      -0.502 -25.569  30.212  1.00  0.00     0.123 A 
ATOM     12  C   UNL     1      -1.348 -24.930  31.121  1.00  0.00     0.093 A 
BRANCH   3  13
ATOM     13  C   UNL     1       0.371 -21.030  26.330  1.00  0.00     0.025 A 
ATOM     14  C   UNL     1       1.496 -19.877  24.022  1.00  0.00     0.157 A 
ATOM     15  C   UNL     1       2.301 -20.170  25.128  1.00  0.00     0.051 A 
ATOM     16  C   UNL     1       0.121 -20.168  24.064  1.00  0.00     0.158 A 
ATOM     17  C   UNL     1       1.744 -20.750  26.273  1.00  0.00     0.016 A 
ATOM     18  C   UNL     1      -0.434 -20.749  25.212  1.00  0.00     0.062 A 
BRANCH  14  19
ATOM     19  O   UNL     1       2.077 -19.298  22.894  1.00  0.00    -0.504 OA
ATOM     20  H   UNL     1       3.004 -18.893  22.917  1.00  0.00     0.293 HD
ENDBRANCH  14  19
BRANCH  16  21
ATOM     21  O   UNL     1      -0.688 -19.880  22.966  1.00  0.00    -0.504 OA
ATOM     22  H   UNL     1      -1.693 -19.784  23.058  1.00  0.00     0.293 HD
ENDBRANCH  16  21
ENDBRANCH   3  13
BRANCH  10  23
ATOM     23  O   UNL     1      -2.565 -22.985  31.863  1.00  0.00    -0.507 OA
ATOM     24  H   UNL     1      -3.569 -22.961  31.733  1.00  0.00     0.293 HD
ENDBRANCH  10  23
BRANCH  11  25
ATOM     25  O   UNL     1      -0.146 -26.900  30.422  1.00  0.00    -0.508 OA
ATOM     26  H   UNL     1      -0.823 -27.649  30.343  1.00  0.00     0.293 HD
ENDBRANCH  11  25
ENDBRANCH   1   2
BRANCH   1  27
ATOM     27  C   UNL     1      -0.337 -18.439  28.477  1.00  0.00     0.339 C 
ATOM     28  C   UNL     1      -1.047 -17.461  29.434  1.00  0.00     0.214 C 
ATOM     29  O   UNL     1       0.142 -17.774  27.315  1.00  0.00    -0.332 OA
ATOM     30  C   UNL     1      -2.170 -16.705  28.687  1.00  0.00     0.180 C 
ATOM     31  C   UNL     1      -0.921 -17.197  26.569  1.00  0.00     0.179 C 
ATOM     32  C   UNL     1      -1.635 -16.094  27.382  1.00  0.00     0.177 C 
BRANCH  28  33
ATOM     33  O   UNL     1      -0.100 -16.566  29.960  1.00  0.00    -0.384 OA
ATOM     34  H   UNL     1       0.226 -16.958  30.813  1.00  0.00     0.211 HD
ENDBRANCH  28  33
BRANCH  30  35
ATOM     35  O   UNL     1      -2.724 -15.697  29.494  1.00  0.00    -0.387 OA
ATOM     36  H   UNL     1      -2.261 -14.852  29.252  1.00  0.00     0.211 HD
ENDBRANCH  30  35
BRANCH  31  37
ATOM     37  C   UNL     1      -0.374 -16.664  25.238  1.00  0.00     0.191 C 
BRANCH  37  38
ATOM     38  O   UNL     1      -1.156 -15.597  24.772  1.00  0.00    -0.394 OA
ATOM     39  H   UNL     1      -1.780 -15.982  24.107  1.00  0.00     0.210 HD
ENDBRANCH  37  38
ENDBRANCH  31  37
BRANCH  32  40
ATOM     40  O   UNL     1      -0.741 -15.048  27.672  1.00  0.00    -0.387 OA
ATOM     41  H   UNL     1      -1.236 -14.382  28.217  1.00  0.00     0.211 HD
ENDBRANCH  32  40
ENDBRANCH   1  27
TORSDOF 12
ENDMDL
MODEL 4
REMARK VINA RESULT:    -6.979      1.403      2.239
REMARK INTER + INTRA:         -11.442
REMARK INTER:                  -9.948
REMARK INTRA:                  -1.493
REMARK UNBOUND:                -1.200
REMARK SMILES O=c1c(O[C@H]2O[C@H](CO)[C@H](O)[C@H](O)[C@@H]2O)c(-c2ccc(O)c(O)c2)oc2cc(O)cc(O)c12
REMARK SMILES IDX 4 1 3 2 16 3 25 4 2 5 26 6 1 7 33 8 27 9 31 10 28 11 30 12
REMARK SMILES IDX 17 13 20 14 19 15 22 16 18 17 24 18 21 19 23 21 32 23 29 25
REMARK SMILES IDX 5 27 14 28 6 29 12 30 7 31 10 32 15 33 13 35 8 37 9 38 11 40
REMARK H PARENT 21 20 23 22 32 24 29 26 15 34 13 36 9 39 11 41
REMARK Flexibility Score: inf
ROOT
ATOM      1  O   UNL     1       0.011 -20.098  27.631  1.00  0.00    -0.454 OA
ENDROOT
BRANCH   1   2
ATOM      2  C   UNL     1      -0.328 -21.282  28.312  1.00  0.00     0.214 A 
ATOM      3  C   UNL     1       0.147 -22.504  27.797  1.00  0.00     0.180 A 
ATOM      4  O   UNL     1      -0.076 -23.637  28.452  1.00  0.00    -0.452 OA
ATOM      5  C   UNL     1      -1.091 -21.304  29.497  1.00  0.00     0.239 A 
ATOM      6  C   UNL     1      -0.768 -23.701  29.583  1.00  0.00     0.146 A 
ATOM      7  O   UNL     1      -1.579 -20.236  29.955  1.00  0.00    -0.285 OA
ATOM      8  C   UNL     1      -1.318 -22.531  30.156  1.00  0.00     0.111 A 
ATOM      9  C   UNL     1      -0.952 -24.942  30.199  1.00  0.00     0.094 A 
ATOM     10  C   UNL     1      -2.066 -22.638  31.355  1.00  0.00     0.134 A 
ATOM     11  C   UNL     1      -1.685 -25.040  31.385  1.00  0.00     0.123 A 
ATOM     12  C   UNL     1      -2.239 -23.893  31.955  1.00  0.00     0.093 A 
BRANCH   3  13
ATOM     13  C   UNL     1       0.933 -22.559  26.544  1.00  0.00     0.025 A 
ATOM     14  C   UNL     1       2.456 -22.653  24.180  1.00  0.00     0.157 A 
ATOM     15  C   UNL     1       3.090 -22.577  25.425  1.00  0.00     0.051 A 
ATOM     16  C   UNL     1       1.053 -22.692  24.114  1.00  0.00     0.158 A 
ATOM     17  C   UNL     1       2.333 -22.537  26.601  1.00  0.00     0.016 A 
ATOM     18  C   UNL     1       0.298 -22.652  25.294  1.00  0.00     0.062 A 
BRANCH  14  19
ATOM     19  O   UNL     1       3.235 -22.691  23.023  1.00  0.00    -0.504 OA
ATOM     20  H   UNL     1       2.917 -22.288  22.150  1.00  0.00     0.293 HD
ENDBRANCH  14  19
BRANCH  16  21
ATOM     21  O   UNL     1       0.413 -22.769  22.878  1.00  0.00    -0.504 OA
ATOM     22  H   UNL     1      -0.442 -23.298  22.755  1.00  0.00     0.293 HD
ENDBRANCH  16  21
ENDBRANCH   3  13
BRANCH  10  23
ATOM     23  O   UNL     1      -2.635 -21.514  31.952  1.00  0.00    -0.507 OA
ATOM     24  H   UNL     1      -2.564 -21.344  32.947  1.00  0.00     0.293 HD
ENDBRANCH  10  23
BRANCH  11  25
ATOM     25  O   UNL     1      -1.869 -26.274  32.005  1.00  0.00    -0.508 OA
ATOM     26  H   UNL     1      -2.790 -26.680  32.116  1.00  0.00     0.293 HD
ENDBRANCH  11  25
ENDBRANCH   1   2
BRANCH   1  27
ATOM     27  C   UNL     1      -0.744 -19.469  26.591  1.00  0.00     0.339 C 
ATOM     28  C   UNL     1       0.209 -18.872  25.537  1.00  0.00     0.214 C 
ATOM     29  O   UNL     1      -1.630 -18.484  27.110  1.00  0.00    -0.332 OA
ATOM     30  C   UNL     1       0.963 -17.657  26.127  1.00  0.00     0.180 C 
ATOM     31  C   UNL     1      -0.923 -17.440  27.765  1.00  0.00     0.179 C 
ATOM     32  C   UNL     1      -0.023 -16.671  26.773  1.00  0.00     0.177 C 
BRANCH  28  33
ATOM     33  O   UNL     1      -0.536 -18.502  24.404  1.00  0.00    -0.384 OA
ATOM     34  H   UNL     1      -0.033 -18.824  23.610  1.00  0.00     0.211 HD
ENDBRANCH  28  33
BRANCH  30  35
ATOM     35  O   UNL     1       1.715 -17.002  25.138  1.00  0.00    -0.387 OA
ATOM     36  H   UNL     1       1.082 -16.756  24.414  1.00  0.00     0.211 HD
ENDBRANCH  30  35
BRANCH  31  37
ATOM     37  C   UNL     1      -1.925 -16.513  28.466  1.00  0.00     0.191 C 
BRANCH  37  38
ATOM     38  O   UNL     1      -3.104 -16.398  27.716  1.00  0.00    -0.394 OA
ATOM     39  H   UNL     1      -3.214 -15.433  27.521  1.00  0.00     0.210 HD
ENDBRANCH  37  38
ENDBRANCH  31  37
BRANCH  32  40
ATOM     40  O   UNL     1      -0.807 -16.056  25.780  1.00  0.00    -0.387 OA
ATOM     41  H   UNL     1      -1.451 -16.737  25.452  1.00  0.00     0.211 HD
ENDBRANCH  32  40
ENDBRANCH   1  27
TORSDOF 12
ENDMDL
MODEL 5
REMARK VINA RESULT:    -6.937      2.350      7.445
REMARK INTER + INTRA:         -11.381
REMARK INTER:                 -10.185
REMARK INTRA:                  -1.196
REMARK UNBOUND:                -1.200
REMARK SMILES O=c1c(O[C@H]2O[C@H](CO)[C@H](O)[C@H](O)[C@@H]2O)c(-c2ccc(O)c(O)c2)oc2cc(O)cc(O)c12
REMARK SMILES IDX 4 1 3 2 16 3 25 4 2 5 26 6 1 7 33 8 27 9 31 10 28 11 30 12
REMARK SMILES IDX 17 13 20 14 19 15 22 16 18 17 24 18 21 19 23 21 32 23 29 25
REMARK SMILES IDX 5 27 14 28 6 29 12 30 7 31 10 32 15 33 13 35 8 37 9 38 11 40
REMARK H PARENT 21 20 23 22 32 24 29 26 15 34 13 36 9 39 11 41
REMARK Flexibility Score: inf
ROOT
ATOM      1  O   UNL     1       0.983 -20.608  26.463  1.00  0.00    -0.454 OA
ENDROOT
BRANCH   1   2
ATOM      2  C   UNL     1       0.246 -19.413  26.563  1.00  0.00     0.214 A 
ATOM      3  C   UNL     1      -0.384 -19.120  27.788  1.00  0.00     0.180 A 
ATOM      4  O   UNL     1      -1.019 -17.966  27.954  1.00  0.00    -0.452 OA
ATOM      5  C   UNL     1       0.131 -18.482  25.509  1.00  0.00     0.239 A 
ATOM      6  C   UNL     1      -1.130 -17.051  26.999  1.00  0.00     0.146 A 
ATOM      7  O   UNL     1       0.634 -18.738  24.382  1.00  0.00    -0.285 OA
ATOM      8  C   UNL     1      -0.563 -17.273  25.723  1.00  0.00     0.111 A 
ATOM      9  C   UNL     1      -1.819 -15.866  27.269  1.00  0.00     0.094 A 
ATOM     10  C   UNL     1      -0.716 -16.282  24.721  1.00  0.00     0.134 A 
ATOM     11  C   UNL     1      -1.960 -14.889  26.279  1.00  0.00     0.123 A 
ATOM     12  C   UNL     1      -1.413 -15.101  25.013  1.00  0.00     0.093 A 
BRANCH   3  13
ATOM     13  C   UNL     1      -0.327 -20.062  28.928  1.00  0.00     0.025 A 
ATOM     14  C   UNL     1      -0.184 -21.847  31.099  1.00  0.00     0.157 A 
ATOM     15  C   UNL     1       0.867 -20.960  30.845  1.00  0.00     0.051 A 
ATOM     16  C   UNL     1      -1.319 -21.840  30.269  1.00  0.00     0.158 A 
ATOM     17  C   UNL     1       0.793 -20.067  29.770  1.00  0.00     0.016 A 
ATOM     18  C   UNL     1      -1.389 -20.944  29.193  1.00  0.00     0.062 A 
BRANCH  14  19
ATOM     19  O   UNL     1      -0.085 -22.728  32.177  1.00  0.00    -0.504 OA
ATOM     20  H   UNL     1      -0.903 -23.079  32.659  1.00  0.00     0.293 HD
ENDBRANCH  14  19
BRANCH  16  21
ATOM     21  O   UNL     1      -2.371 -22.720  30.515  1.00  0.00    -0.504 OA
ATOM     22  H   UNL     1      -3.299 -22.385  30.747  1.00  0.00     0.293 HD
ENDBRANCH  16  21
ENDBRANCH   3  13
BRANCH  10  23
ATOM     23  O   UNL     1      -0.183 -16.460  23.445  1.00  0.00    -0.507 OA
ATOM     24  H   UNL     1       0.717 -16.899  23.298  1.00  0.00     0.293 HD
ENDBRANCH  10  23
BRANCH  11  25
ATOM     25  O   UNL     1      -2.644 -13.705  26.544  1.00  0.00    -0.508 OA
ATOM     26  H   UNL     1      -3.646 -13.630  26.416  1.00  0.00     0.293 HD
ENDBRANCH  11  25
ENDBRANCH   1   2
BRANCH   1  27
ATOM     27  C   UNL     1       0.453 -21.937  26.471  1.00  0.00     0.339 C 
ATOM     28  C   UNL     1       1.387 -22.870  27.266  1.00  0.00     0.214 C 
ATOM     29  O   UNL     1       0.233 -22.421  25.152  1.00  0.00    -0.332 OA
ATOM     30  C   UNL     1       2.709 -23.087  26.493  1.00  0.00     0.180 C 
ATOM     31  C   UNL     1       1.444 -22.488  24.412  1.00  0.00     0.179 C 
ATOM     32  C   UNL     1       2.424 -23.504  25.042  1.00  0.00     0.177 C 
BRANCH  28  33
ATOM     33  O   UNL     1       0.729 -24.091  27.493  1.00  0.00    -0.384 OA
ATOM     34  H   UNL     1       1.333 -24.809  27.168  1.00  0.00     0.211 HD
ENDBRANCH  28  33
BRANCH  30  35
ATOM     35  O   UNL     1       3.507 -24.058  27.121  1.00  0.00    -0.387 OA
ATOM     36  H   UNL     1       3.445 -24.879  26.567  1.00  0.00     0.211 HD
ENDBRANCH  30  35
BRANCH  31  37
ATOM     37  C   UNL     1       1.127 -22.830  22.950  1.00  0.00     0.191 C 
BRANCH  37  38
ATOM     38  O   UNL     1       0.111 -23.793  22.876  1.00  0.00    -0.394 OA
ATOM     39  H   UNL     1       0.490 -24.557  22.372  1.00  0.00     0.210 HD
ENDBRANCH  37  38
ENDBRANCH  31  37
BRANCH  32  40
ATOM     40  O   UNL     1       1.870 -24.797  25.013  1.00  0.00    -0.387 OA
ATOM     41  H   UNL     1       1.421 -24.942  25.886  1.00  0.00     0.211 HD
ENDBRANCH  32  40
ENDBRANCH   1  27
TORSDOF 12
ENDMDL
MODEL 6
REMARK VINA RESULT:    -6.848      1.940      4.588
REMARK INTER + INTRA:         -11.251
REMARK INTER:                  -9.586
REMARK INTRA:                  -1.665
REMARK UNBOUND:                -1.200
REMARK SMILES O=c1c(O[C@H]2O[C@H](CO)[C@H](O)[C@H](O)[C@@H]2O)c(-c2ccc(O)c(O)c2)oc2cc(O)cc(O)c12
REMARK SMILES IDX 4 1 3 2 16 3 25 4 2 5 26 6 1 7 33 8 27 9 31 10 28 11 30 12
REMARK SMILES IDX 17 13 20 14 19 15 22 16 18 17 24 18 21 19 23 21 32 23 29 25
REMARK SMILES IDX 5 27 14 28 6 29 12 30 7 31 10 32 15 33 13 35 8 37 9 38 11 40
REMARK H PARENT 21 20 23 22 32 24 29 26 15 34 13 36 9 39 11 41
REMARK Flexibility Score: inf
ROOT
ATOM      1  O   UNL     1       0.555 -20.768  26.844  1.00  0.00    -0.454 OA
ENDROOT
BRANCH   1   2
ATOM      2  C   UNL     1       0.067 -21.479  27.957  1.00  0.00     0.214 A 
ATOM      3  C   UNL     1      -0.567 -20.754  28.984  1.00  0.00     0.180 A 
ATOM      4  O   UNL     1      -1.116 -21.391  30.012  1.00  0.00    -0.452 OA
ATOM      5  C   UNL     1       0.155 -22.881  28.080  1.00  0.00     0.239 A 
ATOM      6  C   UNL     1      -1.079 -22.709  30.156  1.00  0.00     0.146 A 
ATOM      7  O   UNL     1       0.765 -23.556  27.208  1.00  0.00    -0.285 OA
ATOM      8  C   UNL     1      -0.431 -23.519  29.194  1.00  0.00     0.111 A 
ATOM      9  C   UNL     1      -1.685 -23.289  31.273  1.00  0.00     0.094 A 
ATOM     10  C   UNL     1      -0.395 -24.923  29.389  1.00  0.00     0.134 A 
ATOM     11  C   UNL     1      -1.653 -24.675  31.456  1.00  0.00     0.123 A 
ATOM     12  C   UNL     1      -1.008 -25.483  30.518  1.00  0.00     0.093 A 
BRANCH   3  13
ATOM     13  C   UNL     1      -0.673 -19.279  28.933  1.00  0.00     0.025 A 
ATOM     14  C   UNL     1      -0.846 -16.471  28.861  1.00  0.00     0.157 A 
ATOM     15  C   UNL     1       0.271 -17.094  29.427  1.00  0.00     0.051 A 
ATOM     16  C   UNL     1      -1.881 -17.253  28.319  1.00  0.00     0.158 A 
ATOM     17  C   UNL     1       0.361 -18.490  29.457  1.00  0.00     0.016 A 
ATOM     18  C   UNL     1      -1.787 -18.651  28.350  1.00  0.00     0.062 A 
BRANCH  14  19
ATOM     19  O   UNL     1      -0.911 -15.077  28.845  1.00  0.00    -0.504 OA
ATOM     20  H   UNL     1      -1.474 -14.575  28.169  1.00  0.00     0.293 HD
ENDBRANCH  14  19
BRANCH  16  21
ATOM     21  O   UNL     1      -2.997 -16.640  27.751  1.00  0.00    -0.504 OA
ATOM     22  H   UNL     1      -2.935 -16.131  26.878  1.00  0.00     0.293 HD
ENDBRANCH  16  21
ENDBRANCH   3  13
BRANCH  10  23
ATOM     23  O   UNL     1       0.241 -25.760  28.473  1.00  0.00    -0.507 OA
ATOM     24  H   UNL     1       0.150 -26.768  28.519  1.00  0.00     0.293 HD
ENDBRANCH  10  23
BRANCH  11  25
ATOM     25  O   UNL     1      -2.258 -25.258  32.567  1.00  0.00    -0.508 OA
ATOM     26  H   UNL     1      -3.218 -25.054  32.817  1.00  0.00     0.293 HD
ENDBRANCH  11  25
ENDBRANCH   1   2
BRANCH   1  27
ATOM     27  C   UNL     1      -0.026 -20.731  25.537  1.00  0.00     0.339 C 
ATOM     28  C   UNL     1       1.018 -21.159  24.487  1.00  0.00     0.214 C 
ATOM     29  O   UNL     1      -0.569 -19.451  25.241  1.00  0.00    -0.332 OA
ATOM     30  C   UNL     1       2.113 -20.075  24.351  1.00  0.00     0.180 C 
ATOM     31  C   UNL     1       0.433 -18.444  25.251  1.00  0.00     0.179 C 
ATOM     32  C   UNL     1       1.479 -18.690  24.141  1.00  0.00     0.177 C 
BRANCH  28  33
ATOM     33  O   UNL     1       0.370 -21.377  23.260  1.00  0.00    -0.384 OA
ATOM     34  H   UNL     1       0.300 -22.361  23.140  1.00  0.00     0.211 HD
ENDBRANCH  28  33
BRANCH  30  35
ATOM     35  O   UNL     1       2.984 -20.367  23.289  1.00  0.00    -0.387 OA
ATOM     36  H   UNL     1       3.200 -21.334  23.355  1.00  0.00     0.211 HD
ENDBRANCH  30  35
BRANCH  31  37
ATOM     37  C   UNL     1      -0.230 -17.067  25.118  1.00  0.00     0.191 C 
BRANCH  37  38
ATOM     38  O   UNL     1       0.563 -16.207  24.345  1.00  0.00    -0.394 OA
ATOM     39  H   UNL     1       0.459 -16.504  23.406  1.00  0.00     0.210 HD
ENDBRANCH  37  38
ENDBRANCH  31  37
BRANCH  32  40
ATOM     40  O   UNL     1       0.869 -18.628  22.875  1.00  0.00    -0.387 OA
ATOM     41  H   UNL     1      -0.067 -18.330  23.016  1.00  0.00     0.211 HD
ENDBRANCH  32  40
ENDBRANCH   1  27
TORSDOF 12
ENDMDL
MODEL 7
REMARK VINA RESULT:    -6.846      3.713      8.128
REMARK INTER + INTRA:         -11.247
REMARK INTER:                  -9.563
REMARK INTRA:                  -1.684
REMARK UNBOUND:                -1.200
REMARK SMILES O=c1c(O[C@H]2O[C@H](CO)[C@H](O)[C@H](O)[C@@H]2O)c(-c2ccc(O)c(O)c2)oc2cc(O)cc(O)c12
REMARK SMILES IDX 4 1 3 2 16 3 25 4 2 5 26 6 1 7 33 8 27 9 31 10 28 11 30 12
REMARK SMILES IDX 17 13 20 14 19 15 22 16 18 17 24 18 21 19 23 21 32 23 29 25
REMARK SMILES IDX 5 27 14 28 6 29 12 30 7 31 10 32 15 33 13 35 8 37 9 38 11 40
REMARK H PARENT 21 20 23 22 32 24 29 26 15 34 13 36 9 39 11 41
REMARK Flexibility Score: inf
ROOT
ATOM      1  O   UNL     1      -0.602 -17.495  28.089  1.00  0.00    -0.454 OA
ENDROOT
BRANCH   1   2
ATOM      2  C   UNL     1      -0.595 -16.198  27.542  1.00  0.00     0.214 A 
ATOM      3  C   UNL     1      -0.147 -16.038  26.216  1.00  0.00     0.180 A 
ATOM      4  O   UNL     1      -0.202 -14.847  25.631  1.00  0.00    -0.452 OA
ATOM      5  C   UNL     1      -1.041 -15.059  28.243  1.00  0.00     0.239 A 
ATOM      6  C   UNL     1      -0.637 -13.753  26.245  1.00  0.00     0.146 A 
ATOM      7  O   UNL     1      -1.395 -15.156  29.449  1.00  0.00    -0.285 OA
ATOM      8  C   UNL     1      -1.071 -13.809  27.590  1.00  0.00     0.111 A 
ATOM      9  C   UNL     1      -0.657 -12.543  25.546  1.00  0.00     0.094 A 
ATOM     10  C   UNL     1      -1.513 -12.618  28.219  1.00  0.00     0.134 A 
ATOM     11  C   UNL     1      -1.100 -11.374  26.170  1.00  0.00     0.123 A 
ATOM     12  C   UNL     1      -1.522 -11.415  27.500  1.00  0.00     0.093 A 
BRANCH   3  13
ATOM     13  C   UNL     1       0.358 -17.185  25.429  1.00  0.00     0.025 A 
ATOM     14  C   UNL     1       1.353 -19.357  23.942  1.00  0.00     0.157 A 
ATOM     15  C   UNL     1       2.178 -18.688  24.852  1.00  0.00     0.051 A 
ATOM     16  C   UNL     1       0.019 -18.946  23.778  1.00  0.00     0.158 A 
ATOM     17  C   UNL     1       1.682 -17.613  25.597  1.00  0.00     0.016 A 
ATOM     18  C   UNL     1      -0.475 -17.868  24.526  1.00  0.00     0.062 A 
BRANCH  14  19
ATOM     19  O   UNL     1       1.873 -20.426  23.212  1.00  0.00    -0.504 OA
ATOM     20  H   UNL     1       1.277 -21.125  22.787  1.00  0.00     0.293 HD
ENDBRANCH  14  19
BRANCH  16  21
ATOM     21  O   UNL     1      -0.811 -19.607  22.875  1.00  0.00    -0.504 OA
ATOM     22  H   UNL     1      -0.619 -19.608  21.880  1.00  0.00     0.293 HD
ENDBRANCH  16  21
ENDBRANCH   3  13
BRANCH  10  23
ATOM     23  O   UNL     1      -1.941 -12.621  29.546  1.00  0.00    -0.507 OA
ATOM     24  H   UNL     1      -2.281 -13.462  29.996  1.00  0.00     0.293 HD
ENDBRANCH  10  23
BRANCH  11  25
ATOM     25  O   UNL     1      -1.124 -10.166  25.478  1.00  0.00    -0.508 OA
ATOM     26  H   UNL     1      -1.923  -9.545  25.520  1.00  0.00     0.293 HD
ENDBRANCH  11  25
ENDBRANCH   1   2
BRANCH   1  27
ATOM     27  C   UNL     1      -1.752 -18.310  28.332  1.00  0.00     0.339 C 
ATOM     28  C   UNL     1      -1.732 -18.826  29.784  1.00  0.00     0.214 C 
ATOM     29  O   UNL     1      -1.844 -19.379  27.400  1.00  0.00    -0.332 OA
ATOM     30  C   UNL     1      -0.598 -19.862  29.966  1.00  0.00     0.180 C 
ATOM     31  C   UNL     1      -0.724 -20.249  27.491  1.00  0.00     0.179 C 
ATOM     32  C   UNL     1      -0.669 -20.940  28.872  1.00  0.00     0.177 C 
BRANCH  28  33
ATOM     33  O   UNL     1      -2.983 -19.391  30.086  1.00  0.00    -0.384 OA
ATOM     34  H   UNL     1      -3.672 -18.804  29.675  1.00  0.00     0.211 HD
ENDBRANCH  28  33
BRANCH  30  35
ATOM     35  O   UNL     1      -0.661 -20.463  31.234  1.00  0.00    -0.387 OA
ATOM     36  H   UNL     1       0.014 -21.191  31.238  1.00  0.00     0.211 HD
ENDBRANCH  30  35
BRANCH  31  37
ATOM     37  C   UNL     1      -0.778 -21.267  26.344  1.00  0.00     0.191 C 
BRANCH  37  38
ATOM     38  O   UNL     1      -1.871 -21.010  25.505  1.00  0.00    -0.394 OA
ATOM     39  H   UNL     1      -1.721 -21.546  24.685  1.00  0.00     0.210 HD
ENDBRANCH  37  38
ENDBRANCH  31  37
BRANCH  32  40
ATOM     40  O   UNL     1      -1.810 -21.741  29.062  1.00  0.00    -0.387 OA
ATOM     41  H   UNL     1      -1.807 -22.034  30.010  1.00  0.00     0.211 HD
ENDBRANCH  32  40
ENDBRANCH   1  27
TORSDOF 12
ENDMDL
MODEL 8
REMARK VINA RESULT:    -6.748      2.410      7.466
REMARK INTER + INTRA:         -11.104
REMARK INTER:                  -9.421
REMARK INTRA:                  -1.683
REMARK UNBOUND:                -1.200
REMARK SMILES O=c1c(O[C@H]2O[C@H](CO)[C@H](O)[C@H](O)[C@@H]2O)c(-c2ccc(O)c(O)c2)oc2cc(O)cc(O)c12
REMARK SMILES IDX 4 1 3 2 16 3 25 4 2 5 26 6 1 7 33 8 27 9 31 10 28 11 30 12
REMARK SMILES IDX 17 13 20 14 19 15 22 16 18 17 24 18 21 19 23 21 32 23 29 25
REMARK SMILES IDX 5 27 14 28 6 29 12 30 7 31 10 32 15 33 13 35 8 37 9 38 11 40
REMARK H PARENT 21 20 23 22 32 24 29 26 15 34 13 36 9 39 11 41
REMARK Flexibility Score: inf
ROOT
ATOM      1  O   UNL     1      -0.023 -20.642  26.014  1.00  0.00    -0.454 OA
ENDROOT
BRANCH   1   2
ATOM      2  C   UNL     1      -0.516 -19.359  26.319  1.00  0.00     0.214 A 
ATOM      3  C   UNL     1      -0.901 -19.092  27.647  1.00  0.00     0.180 A 
ATOM      4  O   UNL     1      -1.292 -17.873  27.998  1.00  0.00    -0.452 OA
ATOM      5  C   UNL     1      -0.616 -18.321  25.369  1.00  0.00     0.239 A 
ATOM      6  C   UNL     1      -1.377 -16.861  27.143  1.00  0.00     0.146 A 
ATOM      7  O   UNL     1      -0.334 -18.540  24.160  1.00  0.00    -0.285 OA
ATOM      8  C   UNL     1      -1.049 -17.042  25.780  1.00  0.00     0.111 A 
ATOM      9  C   UNL     1      -1.801 -15.613  27.607  1.00  0.00     0.094 A 
ATOM     10  C   UNL     1      -1.168 -15.944  24.892  1.00  0.00     0.134 A 
ATOM     11  C   UNL     1      -1.910 -14.532  26.728  1.00  0.00     0.123 A 
ATOM     12  C   UNL     1      -1.597 -14.702  25.378  1.00  0.00     0.093 A 
BRANCH   3  13
ATOM     13  C   UNL     1      -0.846 -20.141  28.690  1.00  0.00     0.025 A 
ATOM     14  C   UNL     1      -0.710 -22.123  30.683  1.00  0.00     0.157 A 
ATOM     15  C   UNL     1       0.194 -21.056  30.686  1.00  0.00     0.051 A 
ATOM     16  C   UNL     1      -1.696 -22.198  29.684  1.00  0.00     0.158 A 
ATOM     17  C   UNL     1       0.123 -20.067  29.700  1.00  0.00     0.016 A 
ATOM     18  C   UNL     1      -1.765 -21.204  28.697  1.00  0.00     0.062 A 
BRANCH  14  19
ATOM     19  O   UNL     1      -0.616 -23.096  31.678  1.00  0.00    -0.504 OA
ATOM     20  H   UNL     1      -0.963 -22.939  32.616  1.00  0.00     0.293 HD
ENDBRANCH  14  19
BRANCH  16  21
ATOM     21  O   UNL     1      -2.603 -23.256  29.674  1.00  0.00    -0.504 OA
ATOM     22  H   UNL     1      -2.690 -23.887  30.462  1.00  0.00     0.293 HD
ENDBRANCH  16  21
ENDBRANCH   3  13
BRANCH  10  23
ATOM     23  O   UNL     1      -0.865 -16.078  23.537  1.00  0.00    -0.507 OA
ATOM     24  H   UNL     1       0.086 -16.198  23.212  1.00  0.00     0.293 HD
ENDBRANCH  10  23
BRANCH  11  25
ATOM     25  O   UNL     1      -2.329 -13.285  27.185  1.00  0.00    -0.508 OA
ATOM     26  H   UNL     1      -2.321 -12.469  26.585  1.00  0.00     0.293 HD
ENDBRANCH  11  25
ENDBRANCH   1   2
BRANCH   1  27
ATOM     27  C   UNL     1       1.350 -21.009  25.854  1.00  0.00     0.339 C 
ATOM     28  C   UNL     1       1.549 -21.720  24.501  1.00  0.00     0.214 C 
ATOM     29  O   UNL     1       1.808 -21.810  26.936  1.00  0.00    -0.332 OA
ATOM     30  C   UNL     1       0.875 -23.112  24.527  1.00  0.00     0.180 C 
ATOM     31  C   UNL     1       1.085 -23.030  27.025  1.00  0.00     0.179 C 
ATOM     32  C   UNL     1       1.314 -23.903  25.770  1.00  0.00     0.177 C 
BRANCH  28  33
ATOM     33  O   UNL     1       2.925 -21.831  24.241  1.00  0.00    -0.384 OA
ATOM     34  H   UNL     1       3.017 -22.274  23.356  1.00  0.00     0.211 HD
ENDBRANCH  28  33
BRANCH  30  35
ATOM     35  O   UNL     1       1.179 -23.842  23.366  1.00  0.00    -0.387 OA
ATOM     36  H   UNL     1       1.998 -23.435  22.979  1.00  0.00     0.211 HD
ENDBRANCH  30  35
BRANCH  31  37
ATOM     37  C   UNL     1       1.484 -23.764  28.312  1.00  0.00     0.191 C 
BRANCH  37  38
ATOM     38  O   UNL     1       1.301 -25.146  28.172  1.00  0.00    -0.394 OA
ATOM     39  H   UNL     1       1.428 -25.346  27.210  1.00  0.00     0.210 HD
ENDBRANCH  37  38
ENDBRANCH  31  37
BRANCH  32  40
ATOM     40  O   UNL     1       2.672 -24.254  25.662  1.00  0.00    -0.387 OA
ATOM     41  H   UNL     1       3.041 -24.283  26.583  1.00  0.00     0.211 HD
ENDBRANCH  32  40
ENDBRANCH   1  27
TORSDOF 12
ENDMDL
MODEL 9
REMARK VINA RESULT:    -6.633      2.430      6.637
REMARK INTER + INTRA:         -10.935
REMARK INTER:                  -9.469
REMARK INTRA:                  -1.466
REMARK UNBOUND:                -1.200
REMARK SMILES O=c1c(O[C@H]2O[C@H](CO)[C@H](O)[C@H](O)[C@@H]2O)c(-c2ccc(O)c(O)c2)oc2cc(O)cc(O)c12
REMARK SMILES IDX 4 1 3 2 16 3 25 4 2 5 26 6 1 7 33 8 27 9 31 10 28 11 30 12
REMARK SMILES IDX 17 13 20 14 19 15 22 16 18 17 24 18 21 19 23 21 32 23 29 25
REMARK SMILES IDX 5 27 14 28 6 29 12 30 7 31 10 32 15 33 13 35 8 37 9 38 11 40
REMARK H PARENT 21 20 23 22 32 24 29 26 15 34 13 36 9 39 11 41
REMARK Flexibility Score: inf
ROOT
ATOM      1  O   UNL     1      -0.092 -20.383  28.333  1.00  0.00    -0.454 OA
ENDROOT
BRANCH   1   2
ATOM      2  C   UNL     1      -0.381 -19.139  27.740  1.00  0.00     0.214 A 
ATOM      3  C   UNL     1       0.069 -18.909  26.426  1.00  0.00     0.180 A 
ATOM      4  O   UNL     1      -0.252 -17.785  25.796  1.00  0.00    -0.452 OA
ATOM      5  C   UNL     1      -1.122 -18.126  28.384  1.00  0.00     0.239 A 
ATOM      6  C   UNL     1      -0.967 -16.816  26.355  1.00  0.00     0.146 A 
ATOM      7  O   UNL     1      -1.492 -18.276  29.579  1.00  0.00    -0.285 OA
ATOM      8  C   UNL     1      -1.431 -16.940  27.685  1.00  0.00     0.111 A 
ATOM      9  C   UNL     1      -1.254 -15.668  25.612  1.00  0.00     0.094 A 
ATOM     10  C   UNL     1      -2.178 -15.879  28.255  1.00  0.00     0.134 A 
ATOM     11  C   UNL     1      -1.997 -14.627  26.177  1.00  0.00     0.123 A 
ATOM     12  C   UNL     1      -2.451 -14.735  27.493  1.00  0.00     0.093 A 
BRANCH   3  13
ATOM     13  C   UNL     1       0.873 -19.917  25.699  1.00  0.00     0.025 A 
ATOM     14  C   UNL     1       2.433 -21.814  24.326  1.00  0.00     0.157 A 
ATOM     15  C   UNL     1       3.037 -20.903  25.198  1.00  0.00     0.051 A 
ATOM     16  C   UNL     1       1.039 -21.785  24.143  1.00  0.00     0.158 A 
ATOM     17  C   UNL     1       2.262 -19.964  25.886  1.00  0.00     0.016 A 
ATOM     18  C   UNL     1       0.265 -20.843  24.835  1.00  0.00     0.062 A 
BRANCH  14  19
ATOM     19  O   UNL     1       3.229 -22.740  23.651  1.00  0.00    -0.504 OA
ATOM     20  H   UNL     1       4.032 -22.457  23.103  1.00  0.00     0.293 HD
ENDBRANCH  14  19
BRANCH  16  21
ATOM     21  O   UNL     1       0.428 -22.691  23.278  1.00  0.00    -0.504 OA
ATOM     22  H   UNL     1       0.821 -23.609  23.107  1.00  0.00     0.293 HD
ENDBRANCH  16  21
ENDBRANCH   3  13
BRANCH  10  23
ATOM     23  O   UNL     1      -2.647 -15.952  29.566  1.00  0.00    -0.507 OA
ATOM     24  H   UNL     1      -3.079 -15.159  30.023  1.00  0.00     0.293 HD
ENDBRANCH  10  23
BRANCH  11  25
ATOM     25  O   UNL     1      -2.287 -13.481  25.441  1.00  0.00    -0.508 OA
ATOM     26  H   UNL     1      -1.569 -12.984  24.927  1.00  0.00     0.293 HD
ENDBRANCH  11  25
ENDBRANCH   1   2
BRANCH   1  27
ATOM     27  C   UNL     1      -0.938 -21.537  28.344  1.00  0.00     0.339 C 
ATOM     28  C   UNL     1      -1.587 -21.699  29.732  1.00  0.00     0.214 C 
ATOM     29  O   UNL     1      -0.229 -22.708  27.960  1.00  0.00    -0.332 OA
ATOM     30  C   UNL     1      -0.521 -22.109  30.775  1.00  0.00     0.180 C 
ATOM     31  C   UNL     1       0.833 -22.995  28.859  1.00  0.00     0.179 C 
ATOM     32  C   UNL     1       0.294 -23.311  30.272  1.00  0.00     0.177 C 
BRANCH  28  33
ATOM     33  O   UNL     1      -2.608 -22.662  29.650  1.00  0.00    -0.384 OA
ATOM     34  H   UNL     1      -2.167 -23.537  29.487  1.00  0.00     0.211 HD
ENDBRANCH  28  33
BRANCH  30  35
ATOM     35  O   UNL     1      -1.116 -22.418  32.010  1.00  0.00    -0.387 OA
ATOM     36  H   UNL     1      -1.994 -22.833  31.807  1.00  0.00     0.211 HD
ENDBRANCH  30  35
BRANCH  31  37
ATOM     37  C   UNL     1       1.676 -24.147  28.297  1.00  0.00     0.191 C 
BRANCH  37  38
ATOM     38  O   UNL     1       0.853 -25.149  27.764  1.00  0.00    -0.394 OA
ATOM     39  H   UNL     1       0.627 -25.750  28.518  1.00  0.00     0.210 HD
ENDBRANCH  37  38
ENDBRANCH  31  37
BRANCH  32  40
ATOM     40  O   UNL     1      -0.517 -24.460  30.238  1.00  0.00    -0.387 OA
ATOM     41  H   UNL     1      -0.614 -24.721  29.285  1.00  0.00     0.211 HD
ENDBRANCH  32  40
ENDBRANCH   1  27
TORSDOF 12
ENDMDL
