MODEL 1
REMARK VINA RESULT:    -2.330      0.000      0.000
REMARK INTER + INTRA:          -3.496
REMARK INTER:                  -3.284
REMARK INTRA:                  -0.212
REMARK UNBOUND:                -0.212
REMARK SMILES CCCCCCCCC(=O)[O-]
REMARK SMILES IDX 6 1 7 2 8 3 9 4 10 5 11 6 5 7 4 8 3 9 2 10 1 11
REMARK H PARENT
REMARK Flexibility Score: inf
ROOT
ATOM      1  C   UNL     1     -32.293  19.024 -10.413  1.00  0.00     0.000 C 
ENDROOT
BRANCH   1   2
ATOM      2  C   UNL     1     -31.432  17.750 -10.434  1.00  0.00     0.006 C 
BRANCH   2   3
ATOM      3  C   UNL     1     -29.941  18.046 -10.639  1.00  0.00     0.053 C 
BRANCH   3   4
ATOM      4  C   UNL     1     -29.328  17.029 -11.549  1.00  0.00     0.041 C 
ATOM      5  O   UNL     1     -29.308  15.814 -11.220  1.00  0.00    -0.550 OA
ATOM      6  O   UNL     1     -28.823  17.416 -12.784  1.00  0.00    -0.550 OA
ENDBRANCH   3   4
ENDBRANCH   2   3
ENDBRANCH   1   2
BRANCH   1   7
ATOM      7  C   UNL     1     -31.446  20.308 -10.424  1.00  0.00     0.000 C 
BRANCH   7   8
ATOM      8  C   UNL     1     -32.262  21.555 -10.049  1.00  0.00    -0.000 C 
BRANCH   8   9
ATOM      9  C   UNL     1     -31.534  22.867 -10.392  1.00  0.00    -0.000 C 
BRANCH   9  10
ATOM     10  C   UNL     1     -32.152  24.085  -9.689  1.00  0.00    -0.003 C 
ATOM     11  C   UNL     1     -33.675  24.125  -9.810  1.00  0.00     0.004 C 
ENDBRANCH   9  10
ENDBRANCH   8   9
ENDBRANCH   7   8
ENDBRANCH   1   7
TORSDOF 7
ENDMDL
MODEL 2
REMARK VINA RESULT:    -0.736      3.706      6.220
REMARK INTER + INTRA:          -1.249
REMARK INTER:                  -0.928
REMARK INTRA:                  -0.321
REMARK UNBOUND:                -0.212
REMARK SMILES CCCCCCCCC(=O)[O-]
REMARK SMILES IDX 6 1 7 2 8 3 9 4 10 5 11 6 5 7 4 8 3 9 2 10 1 11
REMARK H PARENT
REMARK Flexibility Score: inf
ROOT
ATOM      1  C   UNL     1     -31.551  19.574 -10.368  1.00  0.00     0.000 C 
ENDROOT
BRANCH   1   2
ATOM      2  C   UNL     1     -32.360  20.851 -10.082  1.00  0.00     0.006 C 
BRANCH   2   3
ATOM      3  C   UNL     1     -31.709  22.109 -10.671  1.00  0.00     0.053 C 
BRANCH   3   4
ATOM      4  C   UNL     1     -32.276  23.337 -10.033  1.00  0.00     0.041 C 
ATOM      5  O   UNL     1     -31.555  24.060  -9.296  1.00  0.00    -0.550 OA
ATOM      6  O   UNL     1     -33.588  23.711 -10.291  1.00  0.00    -0.550 OA
ENDBRANCH   3   4
ENDBRANCH   2   3
ENDBRANCH   1   2
BRANCH   1   7
ATOM      7  C   UNL     1     -30.058  19.862 -10.603  1.00  0.00     0.000 C 
BRANCH   7   8
ATOM      8  C   UNL     1     -29.185  18.607 -10.451  1.00  0.00    -0.000 C 
BRANCH   8   9
ATOM      9  C   UNL     1     -29.161  17.742 -11.725  1.00  0.00    -0.000 C 
BRANCH   9  10
ATOM     10  C   UNL     1     -29.505  16.271 -11.444  1.00  0.00    -0.003 C 
ATOM     11  C   UNL     1     -30.870  16.103 -10.777  1.00  0.00     0.004 C 
ENDBRANCH   9  10
ENDBRANCH   8   9
ENDBRANCH   7   8
ENDBRANCH   1   7
TORSDOF 7
ENDMDL
