MODEL 1
REMARK VINA RESULT:    -6.210      0.000      0.000
REMARK INTER + INTRA:         -14.160
REMARK INTER:                 -11.293
REMARK INTRA:                  -2.868
REMARK UNBOUND:                -2.868
REMARK SMILES CCCCCC=CCC=CCCCCCCCC(=O)[O-]
REMARK SMILES IDX 11 1 12 2 13 3 14 4 15 5 16 6 17 7 18 8 19 9 20 10 10 11
REMARK SMILES IDX 9 12 8 13 7 14 6 15 5 16 4 17 3 18 2 19 1 20
REMARK H PARENT
REMARK Flexibility Score: inf
ROOT
ATOM      1  C   UNL     1     -64.993   0.450  -3.309  1.00  0.00     0.027 C 
ENDROOT
BRANCH   1   2
ATOM      2  C   UNL     1     -64.278   1.655  -3.938  1.00  0.00     0.004 C 
BRANCH   2   3
ATOM      3  C   UNL     1     -64.597   2.967  -3.202  1.00  0.00     0.000 C 
BRANCH   3   4
ATOM      4  C   UNL     1     -64.118   2.967  -1.739  1.00  0.00     0.000 C 
BRANCH   4   5
ATOM      5  C   UNL     1     -62.622   2.657  -1.541  1.00  0.00     0.000 C 
BRANCH   5   6
ATOM      6  C   UNL     1     -62.333   1.895  -0.238  1.00  0.00     0.006 C 
BRANCH   6   7
ATOM      7  C   UNL     1     -62.534   2.772   1.004  1.00  0.00     0.053 C 
BRANCH   7   8
ATOM      8  C   UNL     1     -61.252   3.414   1.444  1.00  0.00     0.041 C 
ATOM      9  O   UNL     1     -61.267   4.543   2.007  1.00  0.00    -0.550 OA
ATOM     10  O   UNL     1     -60.045   2.745   1.270  1.00  0.00    -0.550 OA
ENDBRANCH   7   8
ENDBRANCH   6   7
ENDBRANCH   5   6
ENDBRANCH   4   5
ENDBRANCH   3   4
ENDBRANCH   2   3
ENDBRANCH   1   2
BRANCH   1  11
ATOM     11  C   UNL     1     -64.038  -0.630  -2.876  1.00  0.00    -0.031 C 
ATOM     12  C   UNL     1     -62.749  -0.623  -3.251  1.00  0.00    -0.027 C 
BRANCH  12  13
ATOM     13  C   UNL     1     -61.802  -1.708  -2.822  1.00  0.00     0.054 C 
BRANCH  13  14
ATOM     14  C   UNL     1     -61.222  -1.424  -1.459  1.00  0.00    -0.027 C 
ATOM     15  C   UNL     1     -61.563  -2.074  -0.331  1.00  0.00    -0.031 C 
BRANCH  15  16
ATOM     16  C   UNL     1     -62.546  -3.221  -0.256  1.00  0.00     0.027 C 
BRANCH  16  17
ATOM     17  C   UNL     1     -63.552  -3.024   0.886  1.00  0.00     0.004 C 
BRANCH  17  18
ATOM     18  C   UNL     1     -64.751  -2.161   0.457  1.00  0.00     0.000 C 
BRANCH  18  19
ATOM     19  C   UNL     1     -64.637  -0.738   1.018  1.00  0.00    -0.003 C 
ATOM     20  C   UNL     1     -65.686   0.183   0.401  1.00  0.00     0.004 C 
ENDBRANCH  18  19
ENDBRANCH  17  18
ENDBRANCH  16  17
ENDBRANCH  15  16
ENDBRANCH  13  14
ENDBRANCH  12  13
ENDBRANCH   1  11
TORSDOF 14
ENDMDL
MODEL 2
REMARK VINA RESULT:    -6.140      2.832      5.945
REMARK INTER + INTRA:         -14.033
REMARK INTER:                 -11.148
REMARK INTRA:                  -2.885
REMARK UNBOUND:                -2.868
REMARK SMILES CCCCCC=CCC=CCCCCCCCC(=O)[O-]
REMARK SMILES IDX 11 1 12 2 13 3 14 4 15 5 16 6 17 7 18 8 19 9 20 10 10 11
REMARK SMILES IDX 9 12 8 13 7 14 6 15 5 16 4 17 3 18 2 19 1 20
REMARK H PARENT
REMARK Flexibility Score: inf
ROOT
ATOM      1  C   UNL     1     -64.666  -0.747   0.929  1.00  0.00     0.027 C 
ENDROOT
BRANCH   1   2
ATOM      2  C   UNL     1     -64.681  -2.254   0.634  1.00  0.00     0.004 C 
BRANCH   2   3
ATOM      3  C   UNL     1     -63.284  -2.884   0.762  1.00  0.00     0.000 C 
BRANCH   3   4
ATOM      4  C   UNL     1     -62.525  -2.938  -0.576  1.00  0.00     0.000 C 
BRANCH   4   5
ATOM      5  C   UNL     1     -61.586  -1.746  -0.844  1.00  0.00     0.000 C 
BRANCH   5   6
ATOM      6  C   UNL     1     -61.701  -1.200  -2.276  1.00  0.00     0.006 C 
BRANCH   6   7
ATOM      7  C   UNL     1     -62.402  -2.187  -3.219  1.00  0.00     0.053 C 
BRANCH   7   8
ATOM      8  C   UNL     1     -61.417  -3.023  -3.980  1.00  0.00     0.041 C 
ATOM      9  O   UNL     1     -61.817  -3.974  -4.706  1.00  0.00    -0.550 OA
ATOM     10  O   UNL     1     -60.060  -2.723  -3.921  1.00  0.00    -0.550 OA
ENDBRANCH   7   8
ENDBRANCH   6   7
ENDBRANCH   5   6
ENDBRANCH   4   5
ENDBRANCH   3   4
ENDBRANCH   2   3
ENDBRANCH   1   2
BRANCH   1  11
ATOM     11  C   UNL     1     -65.213   0.072  -0.210  1.00  0.00    -0.031 C 
ATOM     12  C   UNL     1     -65.158  -0.361  -1.479  1.00  0.00    -0.027 C 
BRANCH  12  13
ATOM     13  C   UNL     1     -65.700   0.465  -2.613  1.00  0.00     0.054 C 
BRANCH  13  14
ATOM     14  C   UNL     1     -64.638   0.740  -3.648  1.00  0.00    -0.027 C 
ATOM     15  C   UNL     1     -63.747   1.746  -3.582  1.00  0.00    -0.031 C 
BRANCH  15  16
ATOM     16  C   UNL     1     -63.638   2.732  -2.441  1.00  0.00     0.027 C 
BRANCH  16  17
ATOM     17  C   UNL     1     -62.412   2.443  -1.565  1.00  0.00     0.004 C 
BRANCH  17  18
ATOM     18  C   UNL     1     -62.667   2.775  -0.085  1.00  0.00     0.000 C 
BRANCH  18  19
ATOM     19  C   UNL     1     -61.954   1.778   0.837  1.00  0.00    -0.003 C 
ATOM     20  C   UNL     1     -61.277   2.494   2.003  1.00  0.00     0.004 C 
ENDBRANCH  18  19
ENDBRANCH  17  18
ENDBRANCH  16  17
ENDBRANCH  15  16
ENDBRANCH  13  14
ENDBRANCH  12  13
ENDBRANCH   1  11
TORSDOF 14
ENDMDL
MODEL 3
REMARK VINA RESULT:    -6.094      1.141      3.090
REMARK INTER + INTRA:         -13.950
REMARK INTER:                 -11.122
REMARK INTRA:                  -2.828
REMARK UNBOUND:                -2.868
REMARK SMILES CCCCCC=CCC=CCCCCCCCC(=O)[O-]
REMARK SMILES IDX 11 1 12 2 13 3 14 4 15 5 16 6 17 7 18 8 19 9 20 10 10 11
REMARK SMILES IDX 9 12 8 13 7 14 6 15 5 16 4 17 3 18 2 19 1 20
REMARK H PARENT
REMARK Flexibility Score: inf
ROOT
ATOM      1  C   UNL     1     -64.806   0.964  -3.494  1.00  0.00     0.027 C 
ENDROOT
BRANCH   1   2
ATOM      2  C   UNL     1     -64.476   2.387  -3.020  1.00  0.00     0.004 C 
BRANCH   2   3
ATOM      3  C   UNL     1     -63.005   2.757  -3.277  1.00  0.00     0.000 C 
BRANCH   3   4
ATOM      4  C   UNL     1     -62.134   2.669  -2.010  1.00  0.00     0.000 C 
BRANCH   4   5
ATOM      5  C   UNL     1     -61.609   1.261  -1.675  1.00  0.00     0.000 C 
BRANCH   5   6
ATOM      6  C   UNL     1     -61.576   0.974  -0.165  1.00  0.00     0.006 C 
BRANCH   6   7
ATOM      7  C   UNL     1     -62.308   2.052   0.646  1.00  0.00     0.053 C 
BRANCH   7   8
ATOM      8  C   UNL     1     -61.348   2.943   1.378  1.00  0.00     0.041 C 
ATOM      9  O   UNL     1     -60.114   2.680   1.383  1.00  0.00    -0.550 OA
ATOM     10  O   UNL     1     -61.813   4.087   2.017  1.00  0.00    -0.550 OA
ENDBRANCH   7   8
ENDBRANCH   6   7
ENDBRANCH   5   6
ENDBRANCH   4   5
ENDBRANCH   3   4
ENDBRANCH   2   3
ENDBRANCH   1   2
BRANCH   1  11
ATOM     11  C   UNL     1     -65.334   0.092  -2.387  1.00  0.00    -0.031 C 
ATOM     12  C   UNL     1     -65.152   0.406  -1.094  1.00  0.00    -0.027 C 
BRANCH  12  13
ATOM     13  C   UNL     1     -65.676  -0.472   0.008  1.00  0.00     0.054 C 
BRANCH  13  14
ATOM     14  C   UNL     1     -64.583  -0.851   0.975  1.00  0.00    -0.027 C 
ATOM     15  C   UNL     1     -63.766  -1.912   0.829  1.00  0.00    -0.031 C 
BRANCH  15  16
ATOM     16  C   UNL     1     -63.784  -2.863  -0.346  1.00  0.00     0.027 C 
BRANCH  16  17
ATOM     17  C   UNL     1     -62.633  -2.574  -1.319  1.00  0.00     0.004 C 
BRANCH  17  18
ATOM     18  C   UNL     1     -63.111  -2.522  -2.780  1.00  0.00     0.000 C 
BRANCH  18  19
ATOM     19  C   UNL     1     -62.037  -1.918  -3.692  1.00  0.00    -0.003 C 
ATOM     20  C   UNL     1     -61.266  -3.008  -4.432  1.00  0.00     0.004 C 
ENDBRANCH  18  19
ENDBRANCH  17  18
ENDBRANCH  16  17
ENDBRANCH  15  16
ENDBRANCH  13  14
ENDBRANCH  12  13
ENDBRANCH   1  11
TORSDOF 14
ENDMDL
MODEL 4
REMARK VINA RESULT:    -6.035      1.729      5.196
REMARK INTER + INTRA:         -13.843
REMARK INTER:                 -10.934
REMARK INTRA:                  -2.908
REMARK UNBOUND:                -2.868
REMARK SMILES CCCCCC=CCC=CCCCCCCCC(=O)[O-]
REMARK SMILES IDX 11 1 12 2 13 3 14 4 15 5 16 6 17 7 18 8 19 9 20 10 10 11
REMARK SMILES IDX 9 12 8 13 7 14 6 15 5 16 4 17 3 18 2 19 1 20
REMARK H PARENT
REMARK Flexibility Score: inf
ROOT
ATOM      1  C   UNL     1     -64.672  -0.995   0.990  1.00  0.00     0.027 C 
ENDROOT
BRANCH   1   2
ATOM      2  C   UNL     1     -64.896  -2.441   0.521  1.00  0.00     0.004 C 
BRANCH   2   3
ATOM      3  C   UNL     1     -63.665  -3.328   0.769  1.00  0.00     0.000 C 
BRANCH   3   4
ATOM      4  C   UNL     1     -62.406  -2.826   0.039  1.00  0.00     0.000 C 
BRANCH   4   5
ATOM      5  C   UNL     1     -62.505  -2.810  -1.498  1.00  0.00     0.000 C 
BRANCH   5   6
ATOM      6  C   UNL     1     -61.781  -1.612  -2.135  1.00  0.00     0.006 C 
BRANCH   6   7
ATOM      7  C   UNL     1     -61.178  -0.673  -1.083  1.00  0.00     0.053 C 
BRANCH   7   8
ATOM      8  C   UNL     1     -59.710  -0.460  -1.305  1.00  0.00     0.041 C 
ATOM      9  O   UNL     1     -59.256   0.704  -1.479  1.00  0.00    -0.550 OA
ATOM     10  O   UNL     1     -58.839  -1.544  -1.277  1.00  0.00    -0.550 OA
ENDBRANCH   7   8
ENDBRANCH   6   7
ENDBRANCH   5   6
ENDBRANCH   4   5
ENDBRANCH   3   4
ENDBRANCH   2   3
ENDBRANCH   1   2
BRANCH   1  11
ATOM     11  C   UNL     1     -64.856   0.009  -0.117  1.00  0.00    -0.031 C 
ATOM     12  C   UNL     1     -65.269  -0.359  -1.340  1.00  0.00    -0.027 C 
BRANCH  12  13
ATOM     13  C   UNL     1     -65.444   0.648  -2.443  1.00  0.00     0.054 C 
BRANCH  13  14
ATOM     14  C   UNL     1     -64.331   0.552  -3.455  1.00  0.00    -0.027 C 
ATOM     15  C   UNL     1     -63.390   1.495  -3.650  1.00  0.00    -0.031 C 
BRANCH  15  16
ATOM     16  C   UNL     1     -63.272   2.776  -2.857  1.00  0.00     0.027 C 
BRANCH  16  17
ATOM     17  C   UNL     1     -62.309   2.616  -1.672  1.00  0.00     0.004 C 
BRANCH  17  18
ATOM     18  C   UNL     1     -63.012   2.838  -0.322  1.00  0.00     0.000 C 
BRANCH  18  19
ATOM     19  C   UNL     1     -62.110   2.422   0.846  1.00  0.00    -0.003 C 
ATOM     20  C   UNL     1     -61.715   3.629   1.693  1.00  0.00     0.004 C 
ENDBRANCH  18  19
ENDBRANCH  17  18
ENDBRANCH  16  17
ENDBRANCH  15  16
ENDBRANCH  13  14
ENDBRANCH  12  13
ENDBRANCH   1  11
TORSDOF 14
ENDMDL
MODEL 5
REMARK VINA RESULT:    -6.014      2.969      6.016
REMARK INTER + INTRA:         -13.803
REMARK INTER:                 -11.237
REMARK INTRA:                  -2.566
REMARK UNBOUND:                -2.868
REMARK SMILES CCCCCC=CCC=CCCCCCCCC(=O)[O-]
REMARK SMILES IDX 11 1 12 2 13 3 14 4 15 5 16 6 17 7 18 8 19 9 20 10 10 11
REMARK SMILES IDX 9 12 8 13 7 14 6 15 5 16 4 17 3 18 2 19 1 20
REMARK H PARENT
REMARK Flexibility Score: inf
ROOT
ATOM      1  C   UNL     1     -65.703  -0.207  -0.011  1.00  0.00     0.027 C 
ENDROOT
BRANCH   1   2
ATOM      2  C   UNL     1     -64.738  -0.954   0.921  1.00  0.00     0.004 C 
BRANCH   2   3
ATOM      3  C   UNL     1     -64.705  -2.464   0.631  1.00  0.00     0.000 C 
BRANCH   3   4
ATOM      4  C   UNL     1     -63.277  -3.042   0.624  1.00  0.00     0.000 C 
BRANCH   4   5
ATOM      5  C   UNL     1     -62.364  -2.512  -0.498  1.00  0.00     0.000 C 
BRANCH   5   6
ATOM      6  C   UNL     1     -62.968  -2.692  -1.901  1.00  0.00     0.006 C 
BRANCH   6   7
ATOM      7  C   UNL     1     -62.166  -1.950  -2.977  1.00  0.00     0.053 C 
BRANCH   7   8
ATOM      8  C   UNL     1     -61.369  -2.894  -3.826  1.00  0.00     0.041 C 
ATOM      9  O   UNL     1     -61.948  -3.806  -4.478  1.00  0.00    -0.550 OA
ATOM     10  O   UNL     1     -59.991  -2.740  -3.932  1.00  0.00    -0.550 OA
ENDBRANCH   7   8
ENDBRANCH   6   7
ENDBRANCH   5   6
ENDBRANCH   4   5
ENDBRANCH   3   4
ENDBRANCH   2   3
ENDBRANCH   1   2
BRANCH   1  11
ATOM     11  C   UNL     1     -65.004   0.421  -1.187  1.00  0.00    -0.031 C 
ATOM     12  C   UNL     1     -65.335   0.113  -2.451  1.00  0.00    -0.027 C 
BRANCH  12  13
ATOM     13  C   UNL     1     -64.629   0.738  -3.621  1.00  0.00     0.054 C 
BRANCH  13  14
ATOM     14  C   UNL     1     -64.668   2.244  -3.546  1.00  0.00    -0.027 C 
ATOM     15  C   UNL     1     -63.643   3.017  -3.140  1.00  0.00    -0.031 C 
BRANCH  15  16
ATOM     16  C   UNL     1     -62.278   2.505  -2.740  1.00  0.00     0.027 C 
BRANCH  16  17
ATOM     17  C   UNL     1     -62.064   2.607  -1.223  1.00  0.00     0.004 C 
BRANCH  17  18
ATOM     18  C   UNL     1     -61.629   1.266  -0.609  1.00  0.00     0.000 C 
BRANCH  18  19
ATOM     19  C   UNL     1     -60.376   0.720  -1.305  1.00  0.00    -0.003 C 
ATOM     20  C   UNL     1     -59.147   1.557  -0.963  1.00  0.00     0.004 C 
ENDBRANCH  18  19
ENDBRANCH  17  18
ENDBRANCH  16  17
ENDBRANCH  15  16
ENDBRANCH  13  14
ENDBRANCH  12  13
ENDBRANCH   1  11
TORSDOF 14
ENDMDL
MODEL 6
REMARK VINA RESULT:    -5.984      1.944      5.296
REMARK INTER + INTRA:         -13.749
REMARK INTER:                 -10.934
REMARK INTRA:                  -2.815
REMARK UNBOUND:                -2.868
REMARK SMILES CCCCCC=CCC=CCCCCCCCC(=O)[O-]
REMARK SMILES IDX 11 1 12 2 13 3 14 4 15 5 16 6 17 7 18 8 19 9 20 10 10 11
REMARK SMILES IDX 9 12 8 13 7 14 6 15 5 16 4 17 3 18 2 19 1 20
REMARK H PARENT
REMARK Flexibility Score: inf
ROOT
ATOM      1  C   UNL     1     -64.668  -2.047   0.910  1.00  0.00     0.027 C 
ENDROOT
BRANCH   1   2
ATOM      2  C   UNL     1     -63.801  -2.863  -0.060  1.00  0.00     0.004 C 
BRANCH   2   3
ATOM      3  C   UNL     1     -64.540  -3.183  -1.370  1.00  0.00     0.000 C 
BRANCH   3   4
ATOM      4  C   UNL     1     -63.813  -2.647  -2.616  1.00  0.00     0.000 C 
BRANCH   4   5
ATOM      5  C   UNL     1     -62.275  -2.719  -2.556  1.00  0.00     0.000 C 
BRANCH   5   6
ATOM      6  C   UNL     1     -61.610  -1.334  -2.488  1.00  0.00     0.006 C 
BRANCH   6   7
ATOM      7  C   UNL     1     -60.862  -1.115  -1.167  1.00  0.00     0.053 C 
BRANCH   7   8
ATOM      8  C   UNL     1     -59.401  -0.862  -1.392  1.00  0.00     0.041 C 
ATOM      9  O   UNL     1     -58.590  -1.827  -1.442  1.00  0.00    -0.550 OA
ATOM     10  O   UNL     1     -58.943   0.436  -1.590  1.00  0.00    -0.550 OA
ENDBRANCH   7   8
ENDBRANCH   6   7
ENDBRANCH   5   6
ENDBRANCH   4   5
ENDBRANCH   3   4
ENDBRANCH   2   3
ENDBRANCH   1   2
BRANCH   1  11
ATOM     11  C   UNL     1     -64.872  -0.627   0.453  1.00  0.00    -0.031 C 
ATOM     12  C   UNL     1     -63.864   0.259   0.435  1.00  0.00    -0.027 C 
BRANCH  12  13
ATOM     13  C   UNL     1     -64.075   1.677  -0.016  1.00  0.00     0.054 C 
BRANCH  13  14
ATOM     14  C   UNL     1     -62.772   2.434  -0.076  1.00  0.00    -0.027 C 
ATOM     15  C   UNL     1     -62.031   2.597  -1.189  1.00  0.00    -0.031 C 
BRANCH  15  16
ATOM     16  C   UNL     1     -62.409   2.087  -2.561  1.00  0.00     0.027 C 
BRANCH  16  17
ATOM     17  C   UNL     1     -63.364   3.054  -3.275  1.00  0.00     0.004 C 
BRANCH  17  18
ATOM     18  C   UNL     1     -64.737   2.416  -3.545  1.00  0.00     0.000 C 
BRANCH  18  19
ATOM     19  C   UNL     1     -64.619   0.895  -3.703  1.00  0.00    -0.003 C 
ATOM     20  C   UNL     1     -65.738   0.175  -2.956  1.00  0.00     0.004 C 
ENDBRANCH  18  19
ENDBRANCH  17  18
ENDBRANCH  16  17
ENDBRANCH  15  16
ENDBRANCH  13  14
ENDBRANCH  12  13
ENDBRANCH   1  11
TORSDOF 14
ENDMDL
MODEL 7
REMARK VINA RESULT:    -5.883      0.866      3.880
REMARK INTER + INTRA:         -13.566
REMARK INTER:                 -11.126
REMARK INTRA:                  -2.440
REMARK UNBOUND:                -2.868
REMARK SMILES CCCCCC=CCC=CCCCCCCCC(=O)[O-]
REMARK SMILES IDX 11 1 12 2 13 3 14 4 15 5 16 6 17 7 18 8 19 9 20 10 10 11
REMARK SMILES IDX 9 12 8 13 7 14 6 15 5 16 4 17 3 18 2 19 1 20
REMARK H PARENT
REMARK Flexibility Score: inf
ROOT
ATOM      1  C   UNL     1     -63.493  -3.036   0.879  1.00  0.00     0.027 C 
ENDROOT
BRANCH   1   2
ATOM      2  C   UNL     1     -64.968  -2.806   0.519  1.00  0.00     0.004 C 
BRANCH   2   3
ATOM      3  C   UNL     1     -65.186  -1.469  -0.208  1.00  0.00     0.000 C 
BRANCH   3   4
ATOM      4  C   UNL     1     -65.019  -0.248   0.716  1.00  0.00     0.000 C 
BRANCH   4   5
ATOM      5  C   UNL     1     -64.390   0.992   0.052  1.00  0.00     0.000 C 
BRANCH   5   6
ATOM      6  C   UNL     1     -62.935   1.233   0.484  1.00  0.00     0.006 C 
BRANCH   6   7
ATOM      7  C   UNL     1     -62.500   2.688   0.272  1.00  0.00     0.053 C 
BRANCH   7   8
ATOM      8  C   UNL     1     -61.653   3.185   1.406  1.00  0.00     0.041 C 
ATOM      9  O   UNL     1     -61.437   4.420   1.544  1.00  0.00    -0.550 OA
ATOM     10  O   UNL     1     -61.138   2.287   2.335  1.00  0.00    -0.550 OA
ENDBRANCH   7   8
ENDBRANCH   6   7
ENDBRANCH   5   6
ENDBRANCH   4   5
ENDBRANCH   3   4
ENDBRANCH   2   3
ENDBRANCH   1   2
BRANCH   1  11
ATOM     11  C   UNL     1     -62.576  -2.875  -0.304  1.00  0.00    -0.031 C 
ATOM     12  C   UNL     1     -61.537  -2.025  -0.281  1.00  0.00    -0.027 C 
BRANCH  12  13
ATOM     13  C   UNL     1     -60.629  -1.864  -1.467  1.00  0.00     0.054 C 
BRANCH  13  14
ATOM     14  C   UNL     1     -61.261  -2.413  -2.722  1.00  0.00    -0.027 C 
ATOM     15  C   UNL     1     -62.131  -1.740  -3.498  1.00  0.00    -0.031 C 
BRANCH  15  16
ATOM     16  C   UNL     1     -62.577  -0.314  -3.263  1.00  0.00     0.027 C 
BRANCH  16  17
ATOM     17  C   UNL     1     -64.107  -0.197  -3.269  1.00  0.00     0.004 C 
BRANCH  17  18
ATOM     18  C   UNL     1     -64.581   1.166  -3.800  1.00  0.00     0.000 C 
BRANCH  18  19
ATOM     19  C   UNL     1     -63.604   2.282  -3.409  1.00  0.00    -0.003 C 
ATOM     20  C   UNL     1     -64.349   3.563  -3.045  1.00  0.00     0.004 C 
ENDBRANCH  18  19
ENDBRANCH  17  18
ENDBRANCH  16  17
ENDBRANCH  15  16
ENDBRANCH  13  14
ENDBRANCH  12  13
ENDBRANCH   1  11
TORSDOF 14
ENDMDL
MODEL 8
REMARK VINA RESULT:    -5.848      2.912      6.007
REMARK INTER + INTRA:         -13.502
REMARK INTER:                 -10.755
REMARK INTRA:                  -2.747
REMARK UNBOUND:                -2.868
REMARK SMILES CCCCCC=CCC=CCCCCCCCC(=O)[O-]
REMARK SMILES IDX 11 1 12 2 13 3 14 4 15 5 16 6 17 7 18 8 19 9 20 10 10 11
REMARK SMILES IDX 9 12 8 13 7 14 6 15 5 16 4 17 3 18 2 19 1 20
REMARK H PARENT
REMARK Flexibility Score: inf
ROOT
ATOM      1  C   UNL     1     -65.361  -0.123   0.453  1.00  0.00     0.027 C 
ENDROOT
BRANCH   1   2
ATOM      2  C   UNL     1     -64.647  -1.268   1.187  1.00  0.00     0.004 C 
BRANCH   2   3
ATOM      3  C   UNL     1     -64.914  -2.633   0.531  1.00  0.00     0.000 C 
BRANCH   3   4
ATOM      4  C   UNL     1     -63.879  -2.991  -0.551  1.00  0.00     0.000 C 
BRANCH   4   5
ATOM      5  C   UNL     1     -62.425  -2.608  -0.216  1.00  0.00     0.000 C 
BRANCH   5   6
ATOM      6  C   UNL     1     -61.588  -2.278  -1.463  1.00  0.00     0.006 C 
BRANCH   6   7
ATOM      7  C   UNL     1     -62.341  -2.583  -2.764  1.00  0.00     0.053 C 
BRANCH   7   8
ATOM      8  C   UNL     1     -61.420  -3.098  -3.831  1.00  0.00     0.041 C 
ATOM      9  O   UNL     1     -60.252  -2.635  -3.939  1.00  0.00    -0.550 OA
ATOM     10  O   UNL     1     -61.839  -4.120  -4.676  1.00  0.00    -0.550 OA
ENDBRANCH   7   8
ENDBRANCH   6   7
ENDBRANCH   5   6
ENDBRANCH   4   5
ENDBRANCH   3   4
ENDBRANCH   2   3
ENDBRANCH   1   2
BRANCH   1  11
ATOM     11  C   UNL     1     -64.464   1.064   0.220  1.00  0.00    -0.031 C 
ATOM     12  C   UNL     1     -63.129   0.937   0.155  1.00  0.00    -0.027 C 
BRANCH  12  13
ATOM     13  C   UNL     1     -62.239   2.127  -0.071  1.00  0.00     0.054 C 
BRANCH  13  14
ATOM     14  C   UNL     1     -61.372   1.940  -1.291  1.00  0.00    -0.027 C 
ATOM     15  C   UNL     1     -61.627   2.472  -2.501  1.00  0.00    -0.031 C 
BRANCH  15  16
ATOM     16  C   UNL     1     -62.796   3.376  -2.820  1.00  0.00     0.027 C 
BRANCH  16  17
ATOM     17  C   UNL     1     -63.746   2.727  -3.836  1.00  0.00     0.004 C 
BRANCH  17  18
ATOM     18  C   UNL     1     -64.804   1.843  -3.155  1.00  0.00     0.000 C 
BRANCH  18  19
ATOM     19  C   UNL     1     -64.454   0.357  -3.292  1.00  0.00    -0.003 C 
ATOM     20  C   UNL     1     -65.704  -0.515  -3.198  1.00  0.00     0.004 C 
ENDBRANCH  18  19
ENDBRANCH  17  18
ENDBRANCH  16  17
ENDBRANCH  15  16
ENDBRANCH  13  14
ENDBRANCH  12  13
ENDBRANCH   1  11
TORSDOF 14
ENDMDL
MODEL 9
REMARK VINA RESULT:    -5.539      2.702      4.814
REMARK INTER + INTRA:         -12.940
REMARK INTER:                 -10.620
REMARK INTRA:                  -2.319
REMARK UNBOUND:                -2.868
REMARK SMILES CCCCCC=CCC=CCCCCCCCC(=O)[O-]
REMARK SMILES IDX 11 1 12 2 13 3 14 4 15 5 16 6 17 7 18 8 19 9 20 10 10 11
REMARK SMILES IDX 9 12 8 13 7 14 6 15 5 16 4 17 3 18 2 19 1 20
REMARK H PARENT
REMARK Flexibility Score: inf
ROOT
ATOM      1  C   UNL     1     -63.989   2.591   0.112  1.00  0.00     0.027 C 
ENDROOT
BRANCH   1   2
ATOM      2  C   UNL     1     -62.584   2.996   0.581  1.00  0.00     0.004 C 
BRANCH   2   3
ATOM      3  C   UNL     1     -61.594   1.820   0.526  1.00  0.00     0.000 C 
BRANCH   3   4
ATOM      4  C   UNL     1     -60.767   1.792  -0.773  1.00  0.00     0.000 C 
BRANCH   4   5
ATOM      5  C   UNL     1     -61.313   0.864  -1.875  1.00  0.00     0.000 C 
BRANCH   5   6
ATOM      6  C   UNL     1     -62.263   1.580  -2.849  1.00  0.00     0.006 C 
BRANCH   6   7
ATOM      7  C   UNL     1     -63.263   0.615  -3.498  1.00  0.00     0.053 C 
BRANCH   7   8
ATOM      8  C   UNL     1     -64.670   1.123  -3.396  1.00  0.00     0.041 C 
ATOM      9  O   UNL     1     -64.922   2.343  -3.600  1.00  0.00    -0.550 OA
ATOM     10  O   UNL     1     -65.709   0.241  -3.120  1.00  0.00    -0.550 OA
ENDBRANCH   7   8
ENDBRANCH   6   7
ENDBRANCH   5   6
ENDBRANCH   4   5
ENDBRANCH   3   4
ENDBRANCH   2   3
ENDBRANCH   1   2
BRANCH   1  11
ATOM     11  C   UNL     1     -64.209   1.102   0.153  1.00  0.00    -0.031 C 
ATOM     12  C   UNL     1     -65.410   0.575   0.440  1.00  0.00    -0.027 C 
BRANCH  12  13
ATOM     13  C   UNL     1     -65.621  -0.913   0.486  1.00  0.00     0.054 C 
BRANCH  13  14
ATOM     14  C   UNL     1     -64.371  -1.632   0.926  1.00  0.00    -0.027 C 
ATOM     15  C   UNL     1     -63.856  -2.716   0.315  1.00  0.00    -0.031 C 
BRANCH  15  16
ATOM     16  C   UNL     1     -64.420  -3.356  -0.933  1.00  0.00     0.027 C 
BRANCH  16  17
ATOM     17  C   UNL     1     -63.911  -2.657  -2.201  1.00  0.00     0.004 C 
BRANCH  17  18
ATOM     18  C   UNL     1     -62.400  -2.861  -2.406  1.00  0.00     0.000 C 
BRANCH  18  19
ATOM     19  C   UNL     1     -62.100  -3.398  -3.811  1.00  0.00    -0.003 C 
ATOM     20  C   UNL     1     -61.292  -2.390  -4.624  1.00  0.00     0.004 C 
ENDBRANCH  18  19
ENDBRANCH  17  18
ENDBRANCH  16  17
ENDBRANCH  15  16
ENDBRANCH  13  14
ENDBRANCH  12  13
ENDBRANCH   1  11
TORSDOF 14
ENDMDL
