MODEL 1
REMARK VINA RESULT:    -5.756      0.000      0.000
REMARK INTER + INTRA:          -5.756
REMARK INTER:                  -5.756
REMARK INTRA:                   0.000
REMARK UNBOUND:                 0.000
REMARK SMILES CC(C)=C1CC[C@@H](C)CC1=O
REMARK SMILES IDX 8 1 7 2 6 3 5 4 4 5 2 6 1 7 3 8 10 9 11 10 9 11
REMARK H PARENT
REMARK Flexibility Score: inf
ROOT
ATOM      1  C   UNL     1       3.243  11.235  48.487  1.00  0.00     0.008 C 
ATOM      2  C   UNL     1       3.495  11.513  46.996  1.00  0.00    -0.006 C 
ATOM      3  C   UNL     1       3.608  13.018  46.695  1.00  0.00     0.008 C 
ATOM      4  C   UNL     1       2.289  13.776  46.908  1.00  0.00     0.039 C 
ATOM      5  C   UNL     1       1.102  13.107  46.227  1.00  0.00    -0.006 C 
ATOM      6  C   UNL     1       0.042  13.839  45.774  1.00  0.00    -0.070 C 
ATOM      7  C   UNL     1      -0.004  15.340  45.946  1.00  0.00     0.039 C 
ATOM      8  C   UNL     1      -1.117  13.196  45.047  1.00  0.00     0.039 C 
ATOM      9  C   UNL     1       1.114  11.615  46.195  1.00  0.00     0.159 C 
ATOM     10  O   UNL     1       0.044  10.950  46.253  1.00  0.00    -0.295 OA
ATOM     11  C   UNL     1       2.416  10.873  46.107  1.00  0.00     0.084 C 
ENDROOT
TORSDOF 0
ENDMDL
MODEL 2
REMARK VINA RESULT:    -5.586      1.727      2.860
REMARK INTER + INTRA:          -5.586
REMARK INTER:                  -5.586
REMARK INTRA:                   0.000
REMARK UNBOUND:                 0.000
REMARK SMILES CC(C)=C1CC[C@@H](C)CC1=O
REMARK SMILES IDX 8 1 7 2 6 3 5 4 4 5 2 6 1 7 3 8 10 9 11 10 9 11
REMARK H PARENT
REMARK Flexibility Score: inf
ROOT
ATOM      1  C   UNL     1       2.219  10.346  45.129  1.00  0.00     0.008 C 
ATOM      2  C   UNL     1       1.810  10.866  46.517  1.00  0.00    -0.006 C 
ATOM      3  C   UNL     1       0.352  10.516  46.864  1.00  0.00     0.008 C 
ATOM      4  C   UNL     1      -0.670  11.242  45.975  1.00  0.00     0.039 C 
ATOM      5  C   UNL     1      -0.410  12.739  45.872  1.00  0.00    -0.006 C 
ATOM      6  C   UNL     1      -1.434  13.622  45.679  1.00  0.00    -0.070 C 
ATOM      7  C   UNL     1      -2.863  13.147  45.544  1.00  0.00     0.039 C 
ATOM      8  C   UNL     1      -1.200  15.115  45.631  1.00  0.00     0.039 C 
ATOM      9  C   UNL     1       1.021  13.164  45.871  1.00  0.00     0.159 C 
ATOM     10  O   UNL     1       1.405  14.171  45.218  1.00  0.00    -0.295 OA
ATOM     11  C   UNL     1       2.039  12.380  46.648  1.00  0.00     0.084 C 
ENDROOT
TORSDOF 0
ENDMDL
MODEL 3
REMARK VINA RESULT:    -5.487      1.809      3.826
REMARK INTER + INTRA:          -5.487
REMARK INTER:                  -5.487
REMARK INTRA:                   0.000
REMARK UNBOUND:                 0.000
REMARK SMILES CC(C)=C1CC[C@@H](C)CC1=O
REMARK SMILES IDX 8 1 7 2 6 3 5 4 4 5 2 6 1 7 3 8 10 9 11 10 9 11
REMARK H PARENT
REMARK Flexibility Score: inf
ROOT
ATOM      1  C   UNL     1      -0.093  10.572  46.755  1.00  0.00     0.008 C 
ATOM      2  C   UNL     1       0.821  10.880  45.558  1.00  0.00    -0.006 C 
ATOM      3  C   UNL     1       2.226  10.275  45.725  1.00  0.00     0.008 C 
ATOM      4  C   UNL     1       3.027  10.919  46.868  1.00  0.00     0.039 C 
ATOM      5  C   UNL     1       3.022  12.441  46.813  1.00  0.00    -0.006 C 
ATOM      6  C   UNL     1       4.073  13.169  47.292  1.00  0.00    -0.070 C 
ATOM      7  C   UNL     1       5.276  12.493  47.911  1.00  0.00     0.039 C 
ATOM      8  C   UNL     1       4.107  14.676  47.195  1.00  0.00     0.039 C 
ATOM      9  C   UNL     1       1.765  13.081  46.324  1.00  0.00     0.159 C 
ATOM     10  O   UNL     1       1.380  14.195  46.770  1.00  0.00    -0.295 OA
ATOM     11  C   UNL     1       0.921  12.390  45.292  1.00  0.00     0.084 C 
ENDROOT
TORSDOF 0
ENDMDL
MODEL 4
REMARK VINA RESULT:    -5.447      0.627      0.627
REMARK INTER + INTRA:          -5.447
REMARK INTER:                  -5.447
REMARK INTRA:                   0.000
REMARK UNBOUND:                 0.000
REMARK SMILES CC(C)=C1CC[C@@H](C)CC1=O
REMARK SMILES IDX 8 1 7 2 6 3 5 4 4 5 2 6 1 7 3 8 10 9 11 10 9 11
REMARK H PARENT
REMARK Flexibility Score: inf
ROOT
ATOM      1  C   UNL     1       2.678  11.381  48.257  1.00  0.00     0.008 C 
ATOM      2  C   UNL     1       2.984  11.762  46.799  1.00  0.00    -0.006 C 
ATOM      3  C   UNL     1       3.162  13.280  46.619  1.00  0.00     0.008 C 
ATOM      4  C   UNL     1       1.865  14.071  46.854  1.00  0.00     0.039 C 
ATOM      5  C   UNL     1       0.675  13.502  46.093  1.00  0.00    -0.006 C 
ATOM      6  C   UNL     1      -0.344  14.307  45.670  1.00  0.00    -0.070 C 
ATOM      7  C   UNL     1      -0.340  15.791  45.957  1.00  0.00     0.039 C 
ATOM      8  C   UNL     1      -1.504  13.767  44.866  1.00  0.00     0.039 C 
ATOM      9  C   UNL     1       0.633  12.017  45.946  1.00  0.00     0.159 C 
ATOM     10  O   UNL     1      -0.462  11.392  45.925  1.00  0.00    -0.295 OA
ATOM     11  C   UNL     1       1.909  11.235  45.836  1.00  0.00     0.084 C 
ENDROOT
TORSDOF 0
ENDMDL
MODEL 5
REMARK VINA RESULT:    -5.402      1.626      2.586
REMARK INTER + INTRA:          -5.402
REMARK INTER:                  -5.402
REMARK INTRA:                   0.000
REMARK UNBOUND:                 0.000
REMARK SMILES CC(C)=C1CC[C@@H](C)CC1=O
REMARK SMILES IDX 8 1 7 2 6 3 5 4 4 5 2 6 1 7 3 8 10 9 11 10 9 11
REMARK H PARENT
REMARK Flexibility Score: inf
ROOT
ATOM      1  C   UNL     1       4.318  10.819  45.774  1.00  0.00     0.008 C 
ATOM      2  C   UNL     1       3.382  10.850  46.993  1.00  0.00    -0.006 C 
ATOM      3  C   UNL     1       1.934  10.478  46.626  1.00  0.00     0.008 C 
ATOM      4  C   UNL     1       1.256  11.517  45.720  1.00  0.00     0.039 C 
ATOM      5  C   UNL     1       1.407  12.943  46.234  1.00  0.00    -0.006 C 
ATOM      6  C   UNL     1       0.456  13.890  45.982  1.00  0.00    -0.070 C 
ATOM      7  C   UNL     1      -0.775  13.565  45.167  1.00  0.00     0.039 C 
ATOM      8  C   UNL     1       0.565  15.293  46.532  1.00  0.00     0.039 C 
ATOM      9  C   UNL     1       2.695  13.267  46.916  1.00  0.00     0.159 C 
ATOM     10  O   UNL     1       3.208  14.416  46.836  1.00  0.00    -0.295 OA
ATOM     11  C   UNL     1       3.417  12.212  47.703  1.00  0.00     0.084 C 
ENDROOT
TORSDOF 0
ENDMDL
MODEL 6
REMARK VINA RESULT:    -5.161      1.870      3.317
REMARK INTER + INTRA:          -5.161
REMARK INTER:                  -5.161
REMARK INTRA:                   0.000
REMARK UNBOUND:                 0.000
REMARK SMILES CC(C)=C1CC[C@@H](C)CC1=O
REMARK SMILES IDX 8 1 7 2 6 3 5 4 4 5 2 6 1 7 3 8 10 9 11 10 9 11
REMARK H PARENT
REMARK Flexibility Score: inf
ROOT
ATOM      1  C   UNL     1       5.920  13.866  46.518  1.00  0.00     0.008 C 
ATOM      2  C   UNL     1       5.008  13.697  47.745  1.00  0.00    -0.006 C 
ATOM      3  C   UNL     1       4.734  12.217  48.067  1.00  0.00     0.008 C 
ATOM      4  C   UNL     1       3.896  11.511  46.989  1.00  0.00     0.039 C 
ATOM      5  C   UNL     1       2.647  12.292  46.601  1.00  0.00    -0.006 C 
ATOM      6  C   UNL     1       1.519  11.652  46.173  1.00  0.00    -0.070 C 
ATOM      7  C   UNL     1       1.471  10.146  46.050  1.00  0.00     0.039 C 
ATOM      8  C   UNL     1       0.254  12.409  45.837  1.00  0.00     0.039 C 
ATOM      9  C   UNL     1       2.771  13.779  46.601  1.00  0.00     0.159 C 
ATOM     10  O   UNL     1       2.129  14.490  45.781  1.00  0.00    -0.295 OA
ATOM     11  C   UNL     1       3.684  14.459  47.580  1.00  0.00     0.084 C 
ENDROOT
TORSDOF 0
ENDMDL
MODEL 7
REMARK VINA RESULT:    -5.052      1.780      4.483
REMARK INTER + INTRA:          -5.052
REMARK INTER:                  -5.052
REMARK INTRA:                   0.000
REMARK UNBOUND:                 0.000
REMARK SMILES CC(C)=C1CC[C@@H](C)CC1=O
REMARK SMILES IDX 8 1 7 2 6 3 5 4 4 5 2 6 1 7 3 8 10 9 11 10 9 11
REMARK H PARENT
REMARK Flexibility Score: inf
ROOT
ATOM      1  C   UNL     1      -1.166  15.925  46.306  1.00  0.00     0.008 C 
ATOM      2  C   UNL     1      -0.877  15.188  44.988  1.00  0.00    -0.006 C 
ATOM      3  C   UNL     1      -1.690  13.888  44.857  1.00  0.00     0.008 C 
ATOM      4  C   UNL     1      -1.279  12.816  45.879  1.00  0.00     0.039 C 
ATOM      5  C   UNL     1       0.226  12.591  45.933  1.00  0.00    -0.006 C 
ATOM      6  C   UNL     1       0.748  11.373  46.264  1.00  0.00    -0.070 C 
ATOM      7  C   UNL     1      -0.148  10.205  46.607  1.00  0.00     0.039 C 
ATOM      8  C   UNL     1       2.238  11.119  46.267  1.00  0.00     0.039 C 
ATOM      9  C   UNL     1       1.083  13.795  45.723  1.00  0.00     0.159 C 
ATOM     10  O   UNL     1       2.193  13.920  46.307  1.00  0.00    -0.295 OA
ATOM     11  C   UNL     1       0.622  14.898  44.814  1.00  0.00     0.084 C 
ENDROOT
TORSDOF 0
ENDMDL
MODEL 8
REMARK VINA RESULT:    -5.012      1.082      3.871
REMARK INTER + INTRA:          -5.012
REMARK INTER:                  -5.012
REMARK INTRA:                   0.000
REMARK UNBOUND:                 0.000
REMARK SMILES CC(C)=C1CC[C@@H](C)CC1=O
REMARK SMILES IDX 8 1 7 2 6 3 5 4 4 5 2 6 1 7 3 8 10 9 11 10 9 11
REMARK H PARENT
REMARK Flexibility Score: inf
ROOT
ATOM      1  C   UNL     1      -1.362  13.874  44.365  1.00  0.00     0.008 C 
ATOM      2  C   UNL     1      -1.325  13.628  45.882  1.00  0.00    -0.006 C 
ATOM      3  C   UNL     1      -0.498  14.692  46.626  1.00  0.00     0.008 C 
ATOM      4  C   UNL     1       1.001  14.632  46.290  1.00  0.00     0.039 C 
ATOM      5  C   UNL     1       1.579  13.227  46.397  1.00  0.00    -0.006 C 
ATOM      6  C   UNL     1       2.886  13.024  46.735  1.00  0.00    -0.070 C 
ATOM      7  C   UNL     1       3.816  14.187  46.999  1.00  0.00     0.039 C 
ATOM      8  C   UNL     1       3.460  11.636  46.899  1.00  0.00     0.039 C 
ATOM      9  C   UNL     1       0.675  12.108  45.997  1.00  0.00     0.159 C 
ATOM     10  O   UNL     1       1.126  11.062  45.459  1.00  0.00    -0.295 OA
ATOM     11  C   UNL     1      -0.806  12.221  46.218  1.00  0.00     0.084 C 
ENDROOT
TORSDOF 0
ENDMDL
