MODEL 1
REMARK VINA RESULT:    -2.435      0.000      0.000
REMARK INTER + INTRA:          -2.742
REMARK INTER:                  -2.719
REMARK INTRA:                  -0.022
REMARK UNBOUND:                -0.022
REMARK SMILES CCCC(=O)[O-]
REMARK SMILES IDX 3 1 4 2 5 3 6 4 2 5 1 6
REMARK H PARENT
REMARK Flexibility Score: inf
ROOT
ATOM      1  C   UNL     1      55.319  18.484  85.067  1.00  0.00     0.052 C 
ENDROOT
BRANCH   1   2
ATOM      2  C   UNL     1      53.903  18.472  85.555  1.00  0.00     0.041 C 
ATOM      3  O   UNL     1      52.950  18.459  84.732  1.00  0.00    -0.550 OA
ATOM      4  O   UNL     1      53.636  18.441  86.917  1.00  0.00    -0.550 OA
ENDBRANCH   1   2
BRANCH   1   5
ATOM      5  C   UNL     1      55.825  17.071  84.751  1.00  0.00     0.003 C 
ATOM      6  C   UNL     1      56.125  16.264  86.013  1.00  0.00     0.004 C 
ENDBRANCH   1   5
TORSDOF 2
ENDMDL
MODEL 2
REMARK VINA RESULT:    -2.406     15.766     16.881
REMARK INTER + INTRA:          -2.710
REMARK INTER:                  -2.698
REMARK INTRA:                  -0.011
REMARK UNBOUND:                -0.022
REMARK SMILES CCCC(=O)[O-]
REMARK SMILES IDX 3 1 4 2 5 3 6 4 2 5 1 6
REMARK H PARENT
REMARK Flexibility Score: inf
ROOT
ATOM      1  C   UNL     1      38.713  20.291  80.273  1.00  0.00     0.052 C 
ENDROOT
BRANCH   1   2
ATOM      2  C   UNL     1      37.760  19.312  80.888  1.00  0.00     0.041 C 
ATOM      3  O   UNL     1      37.302  19.515  82.043  1.00  0.00    -0.550 OA
ATOM      4  O   UNL     1      37.351  18.195  80.172  1.00  0.00    -0.550 OA
ENDBRANCH   1   2
BRANCH   1   5
ATOM      5  C   UNL     1      39.840  19.585  79.507  1.00  0.00     0.003 C 
ATOM      6  C   UNL     1      41.225  19.961  80.033  1.00  0.00     0.004 C 
ENDBRANCH   1   5
TORSDOF 2
ENDMDL
MODEL 3
REMARK VINA RESULT:    -2.385      2.215      3.363
REMARK INTER + INTRA:          -2.686
REMARK INTER:                  -2.672
REMARK INTRA:                  -0.014
REMARK UNBOUND:                -0.022
REMARK SMILES CCCC(=O)[O-]
REMARK SMILES IDX 3 1 4 2 5 3 6 4 2 5 1 6
REMARK H PARENT
REMARK Flexibility Score: inf
ROOT
ATOM      1  C   UNL     1      54.500  17.718  86.268  1.00  0.00     0.052 C 
ENDROOT
BRANCH   1   2
ATOM      2  C   UNL     1      55.621  16.875  85.741  1.00  0.00     0.041 C 
ATOM      3  O   UNL     1      56.092  15.939  86.439  1.00  0.00    -0.550 OA
ATOM      4  O   UNL     1      56.120  17.100  84.465  1.00  0.00    -0.550 OA
ENDBRANCH   1   2
BRANCH   1   5
ATOM      5  C   UNL     1      53.824  18.528  85.156  1.00  0.00     0.003 C 
ATOM      6  C   UNL     1      52.300  18.504  85.263  1.00  0.00     0.004 C 
ENDBRANCH   1   5
TORSDOF 2
ENDMDL
MODEL 4
REMARK VINA RESULT:    -2.361     17.191     17.978
REMARK INTER + INTRA:          -2.659
REMARK INTER:                  -2.653
REMARK INTRA:                  -0.006
REMARK UNBOUND:                -0.022
REMARK SMILES CCCC(=O)[O-]
REMARK SMILES IDX 3 1 4 2 5 3 6 4 2 5 1 6
REMARK H PARENT
REMARK Flexibility Score: inf
ROOT
ATOM      1  C   UNL     1      44.227  30.899  91.575  1.00  0.00     0.052 C 
ENDROOT
BRANCH   1   2
ATOM      2  C   UNL     1      43.831  30.736  93.010  1.00  0.00     0.041 C 
ATOM      3  O   UNL     1      43.814  31.734  93.779  1.00  0.00    -0.550 OA
ATOM      4  O   UNL     1      43.449  29.491  93.490  1.00  0.00    -0.550 OA
ENDBRANCH   1   2
BRANCH   1   5
ATOM      5  C   UNL     1      45.689  31.343  91.433  1.00  0.00     0.003 C 
ATOM      6  C   UNL     1      46.089  31.568  89.976  1.00  0.00     0.004 C 
ENDBRANCH   1   5
TORSDOF 2
ENDMDL
MODEL 5
REMARK VINA RESULT:    -2.333     12.053     12.678
REMARK INTER + INTRA:          -2.628
REMARK INTER:                  -2.622
REMARK INTRA:                  -0.005
REMARK UNBOUND:                -0.022
REMARK SMILES CCCC(=O)[O-]
REMARK SMILES IDX 3 1 4 2 5 3 6 4 2 5 1 6
REMARK H PARENT
REMARK Flexibility Score: inf
ROOT
ATOM      1  C   UNL     1      45.988  19.164  77.786  1.00  0.00     0.052 C 
ENDROOT
BRANCH   1   2
ATOM      2  C   UNL     1      45.848  18.101  76.740  1.00  0.00     0.041 C 
ATOM      3  O   UNL     1      45.594  16.914  77.073  1.00  0.00    -0.550 OA
ATOM      4  O   UNL     1      45.964  18.428  75.395  1.00  0.00    -0.550 OA
ENDBRANCH   1   2
BRANCH   1   5
ATOM      5  C   UNL     1      44.625  19.618  78.322  1.00  0.00     0.003 C 
ATOM      6  C   UNL     1      44.703  20.961  79.049  1.00  0.00     0.004 C 
ENDBRANCH   1   5
TORSDOF 2
ENDMDL
MODEL 6
REMARK VINA RESULT:    -2.310     10.903     11.934
REMARK INTER + INTRA:          -2.603
REMARK INTER:                  -2.587
REMARK INTRA:                  -0.016
REMARK UNBOUND:                -0.022
REMARK SMILES CCCC(=O)[O-]
REMARK SMILES IDX 3 1 4 2 5 3 6 4 2 5 1 6
REMARK H PARENT
REMARK Flexibility Score: inf
ROOT
ATOM      1  C   UNL     1      45.798  18.853  77.922  1.00  0.00     0.052 C 
ENDROOT
BRANCH   1   2
ATOM      2  C   UNL     1      45.800  17.929  76.743  1.00  0.00     0.041 C 
ATOM      3  O   UNL     1      45.952  18.387  75.580  1.00  0.00    -0.550 OA
ATOM      4  O   UNL     1      45.668  16.559  76.931  1.00  0.00    -0.550 OA
ENDBRANCH   1   2
BRANCH   1   5
ATOM      5  C   UNL     1      46.843  19.966  77.775  1.00  0.00     0.003 C 
ATOM      6  C   UNL     1      47.896  19.925  78.883  1.00  0.00     0.004 C 
ENDBRANCH   1   5
TORSDOF 2
ENDMDL
MODEL 7
REMARK VINA RESULT:    -2.215     17.050     17.881
REMARK INTER + INTRA:          -2.496
REMARK INTER:                  -2.443
REMARK INTRA:                  -0.053
REMARK UNBOUND:                -0.022
REMARK SMILES CCCC(=O)[O-]
REMARK SMILES IDX 3 1 4 2 5 3 6 4 2 5 1 6
REMARK H PARENT
REMARK Flexibility Score: inf
ROOT
ATOM      1  C   UNL     1      44.620  29.899  92.016  1.00  0.00     0.052 C 
ENDROOT
BRANCH   1   2
ATOM      2  C   UNL     1      44.999  30.965  91.033  1.00  0.00     0.041 C 
ATOM      3  O   UNL     1      44.146  31.408  90.220  1.00  0.00    -0.550 OA
ATOM      4  O   UNL     1      46.283  31.492  91.039  1.00  0.00    -0.550 OA
ENDBRANCH   1   2
BRANCH   1   5
ATOM      5  C   UNL     1      43.484  30.355  92.941  1.00  0.00     0.003 C 
ATOM      6  C   UNL     1      43.807  31.667  93.655  1.00  0.00     0.004 C 
ENDBRANCH   1   5
TORSDOF 2
ENDMDL
MODEL 8
REMARK VINA RESULT:    -2.174     17.116     17.626
REMARK INTER + INTRA:          -2.450
REMARK INTER:                  -2.386
REMARK INTRA:                  -0.064
REMARK UNBOUND:                -0.022
REMARK SMILES CCCC(=O)[O-]
REMARK SMILES IDX 3 1 4 2 5 3 6 4 2 5 1 6
REMARK H PARENT
REMARK Flexibility Score: inf
ROOT
ATOM      1  C   UNL     1      49.809  35.455  87.757  1.00  0.00     0.052 C 
ENDROOT
BRANCH   1   2
ATOM      2  C   UNL     1      51.120  34.768  87.529  1.00  0.00     0.041 C 
ATOM      3  O   UNL     1      51.780  34.323  88.505  1.00  0.00    -0.550 OA
ATOM      4  O   UNL     1      51.596  34.588  86.238  1.00  0.00    -0.550 OA
ENDBRANCH   1   2
BRANCH   1   5
ATOM      5  C   UNL     1      48.657  34.736  87.044  1.00  0.00     0.003 C 
ATOM      6  C   UNL     1      48.258  33.439  87.746  1.00  0.00     0.004 C 
ENDBRANCH   1   5
TORSDOF 2
ENDMDL
MODEL 9
REMARK VINA RESULT:    -2.167     17.140     17.852
REMARK INTER + INTRA:          -2.442
REMARK INTER:                  -2.404
REMARK INTRA:                  -0.039
REMARK UNBOUND:                -0.022
REMARK SMILES CCCC(=O)[O-]
REMARK SMILES IDX 3 1 4 2 5 3 6 4 2 5 1 6
REMARK H PARENT
REMARK Flexibility Score: inf
ROOT
ATOM      1  C   UNL     1      37.058  20.009  80.917  1.00  0.00     0.052 C 
ENDROOT
BRANCH   1   2
ATOM      2  C   UNL     1      37.935  18.861  80.520  1.00  0.00     0.041 C 
ATOM      3  O   UNL     1      37.423  17.770  80.155  1.00  0.00    -0.550 OA
ATOM      4  O   UNL     1      39.316  19.007  80.521  1.00  0.00    -0.550 OA
ENDBRANCH   1   2
BRANCH   1   5
ATOM      5  C   UNL     1      37.850  21.317  81.034  1.00  0.00     0.003 C 
ATOM      6  C   UNL     1      37.660  22.223  79.818  1.00  0.00     0.004 C 
ENDBRANCH   1   5
TORSDOF 2
ENDMDL
