MODEL 1
REMARK VINA RESULT:    -6.012      0.000      0.000
REMARK INTER + INTRA:          -7.458
REMARK INTER:                  -7.418
REMARK INTRA:                  -0.041
REMARK UNBOUND:                -0.041
REMARK SMILES O=c1c(O)c(-c2cc(O)c(O)c(O)c2)oc2cc(O)cc(O)c12
REMARK SMILES IDX 5 1 3 2 2 3 1 4 23 5 21 6 20 7 18 8 17 9 16 10 15 11 6 12
REMARK SMILES IDX 7 13 8 14 14 15 10 16 12 17 9 18 11 20 13 22 4 24 22 26
REMARK SMILES IDX 19 28
REMARK H PARENT 9 19 11 21 13 23 4 25 22 27 19 29
REMARK Flexibility Score: inf
ROOT
ATOM      1  C   UNL     1      -0.624 -25.744 -45.775  1.00  0.00     0.180 A 
ATOM      2  C   UNL     1      -1.120 -26.314 -46.960  1.00  0.00     0.208 A 
ATOM      3  C   UNL     1      -2.500 -26.539 -47.083  1.00  0.00     0.238 A 
ATOM      4  O   UNL     1      -2.931 -27.100 -48.123  1.00  0.00    -0.285 OA
ATOM      5  C   UNL     1      -3.369 -26.177 -46.026  1.00  0.00     0.111 A 
ATOM      6  C   UNL     1      -4.789 -26.322 -46.058  1.00  0.00     0.134 A 
ATOM      7  C   UNL     1      -5.537 -26.052 -44.905  1.00  0.00     0.093 A 
ATOM      8  C   UNL     1      -4.924 -25.579 -43.743  1.00  0.00     0.123 A 
ATOM      9  C   UNL     1      -3.547 -25.377 -43.721  1.00  0.00     0.094 A 
ATOM     10  C   UNL     1      -2.769 -25.672 -44.844  1.00  0.00     0.146 A 
ATOM     11  O   UNL     1      -1.457 -25.475 -44.776  1.00  0.00    -0.452 OA
ENDROOT
BRANCH   1  12
ATOM     12  C   UNL     1       0.815 -25.453 -45.582  1.00  0.00     0.029 A 
ATOM     13  C   UNL     1       1.557 -24.760 -46.552  1.00  0.00     0.062 A 
ATOM     14  C   UNL     1       2.913 -24.473 -46.342  1.00  0.00     0.162 A 
ATOM     15  C   UNL     1       1.439 -25.827 -44.382  1.00  0.00     0.062 A 
ATOM     16  C   UNL     1       3.536 -24.871 -45.147  1.00  0.00     0.200 A 
ATOM     17  C   UNL     1       2.793 -25.547 -44.165  1.00  0.00     0.162 A 
BRANCH  14  18
ATOM     18  O   UNL     1       3.641 -23.790 -47.315  1.00  0.00    -0.504 OA
ATOM     19  H   UNL     1       4.596 -23.493 -47.152  1.00  0.00     0.293 HD
ENDBRANCH  14  18
BRANCH  16  20
ATOM     20  O   UNL     1       4.886 -24.598 -44.923  1.00  0.00    -0.502 OA
ATOM     21  H   UNL     1       5.450 -24.080 -45.587  1.00  0.00     0.293 HD
ENDBRANCH  16  20
BRANCH  17  22
ATOM     22  O   UNL     1       3.380 -25.948 -42.965  1.00  0.00    -0.504 OA
ATOM     23  H   UNL     1       2.905 -25.858 -42.076  1.00  0.00     0.293 HD
ENDBRANCH  17  22
ENDBRANCH   1  12
BRANCH   2  24
ATOM     24  O   UNL     1      -0.241 -26.684 -47.982  1.00  0.00    -0.502 OA
ATOM     25  H   UNL     1      -0.391 -26.423 -48.950  1.00  0.00     0.293 HD
ENDBRANCH   2  24
BRANCH   6  26
ATOM     26  O   UNL     1      -5.510 -26.700 -47.196  1.00  0.00    -0.507 OA
ATOM     27  H   UNL     1      -6.054 -26.071 -47.766  1.00  0.00     0.293 HD
ENDBRANCH   6  26
BRANCH   8  28
ATOM     28  O   UNL     1      -5.678 -25.297 -42.606  1.00  0.00    -0.508 OA
ATOM     29  H   UNL     1      -6.687 -25.215 -42.645  1.00  0.00     0.293 HD
ENDBRANCH   8  28
TORSDOF 7
ENDMDL
MODEL 2
REMARK VINA RESULT:    -5.697      3.360      4.297
REMARK INTER + INTRA:          -7.070
REMARK INTER:                  -6.767
REMARK INTRA:                  -0.302
REMARK UNBOUND:                -0.041
REMARK SMILES O=c1c(O)c(-c2cc(O)c(O)c(O)c2)oc2cc(O)cc(O)c12
REMARK SMILES IDX 5 1 3 2 2 3 1 4 23 5 21 6 20 7 18 8 17 9 16 10 15 11 6 12
REMARK SMILES IDX 7 13 8 14 14 15 10 16 12 17 9 18 11 20 13 22 4 24 22 26
REMARK SMILES IDX 19 28
REMARK H PARENT 9 19 11 21 13 23 4 25 22 27 19 29
REMARK Flexibility Score: inf
ROOT
ATOM      1  C   UNL     1      -0.300 -23.751 -44.678  1.00  0.00     0.180 A 
ATOM      2  C   UNL     1       0.545 -24.370 -45.615  1.00  0.00     0.208 A 
ATOM      3  C   UNL     1       0.003 -25.314 -46.502  1.00  0.00     0.238 A 
ATOM      4  O   UNL     1       0.776 -25.905 -47.301  1.00  0.00    -0.285 OA
ATOM      5  C   UNL     1      -1.379 -25.614 -46.453  1.00  0.00     0.111 A 
ATOM      6  C   UNL     1      -2.042 -26.524 -47.331  1.00  0.00     0.134 A 
ATOM      7  C   UNL     1      -3.387 -26.843 -47.107  1.00  0.00     0.093 A 
ATOM      8  C   UNL     1      -4.111 -26.235 -46.078  1.00  0.00     0.123 A 
ATOM      9  C   UNL     1      -3.487 -25.301 -45.254  1.00  0.00     0.094 A 
ATOM     10  C   UNL     1      -2.137 -24.989 -45.429  1.00  0.00     0.146 A 
ATOM     11  O   UNL     1      -1.580 -24.102 -44.613  1.00  0.00    -0.452 OA
ENDROOT
BRANCH   1  12
ATOM     12  C   UNL     1       0.192 -22.728 -43.727  1.00  0.00     0.029 A 
ATOM     13  C   UNL     1       0.947 -23.083 -42.597  1.00  0.00     0.062 A 
ATOM     14  C   UNL     1       1.424 -22.100 -41.721  1.00  0.00     0.162 A 
ATOM     15  C   UNL     1      -0.051 -21.370 -43.987  1.00  0.00     0.062 A 
ATOM     16  C   UNL     1       1.157 -20.743 -41.977  1.00  0.00     0.200 A 
ATOM     17  C   UNL     1       0.420 -20.382 -43.117  1.00  0.00     0.162 A 
BRANCH  14  18
ATOM     18  O   UNL     1       2.167 -22.464 -40.598  1.00  0.00    -0.504 OA
ATOM     19  H   UNL     1       1.859 -23.201 -39.974  1.00  0.00     0.293 HD
ENDBRANCH  14  18
BRANCH  16  20
ATOM     20  O   UNL     1       1.620 -19.751 -41.112  1.00  0.00    -0.502 OA
ATOM     21  H   UNL     1       1.790 -18.801 -41.422  1.00  0.00     0.293 HD
ENDBRANCH  16  20
BRANCH  17  22
ATOM     22  O   UNL     1       0.146 -19.044 -43.403  1.00  0.00    -0.504 OA
ATOM     23  H   UNL     1       0.383 -18.623 -44.292  1.00  0.00     0.293 HD
ENDBRANCH  17  22
ENDBRANCH   1  12
BRANCH   2  24
ATOM     24  O   UNL     1       1.911 -24.075 -45.631  1.00  0.00    -0.502 OA
ATOM     25  H   UNL     1       2.423 -23.819 -44.795  1.00  0.00     0.293 HD
ENDBRANCH   2  24
BRANCH   6  26
ATOM     26  O   UNL     1      -1.438 -27.116 -48.444  1.00  0.00    -0.507 OA
ATOM     27  H   UNL     1      -0.485 -27.447 -48.472  1.00  0.00     0.293 HD
ENDBRANCH   6  26
BRANCH   8  28
ATOM     28  O   UNL     1      -5.452 -26.546 -45.872  1.00  0.00    -0.508 OA
ATOM     29  H   UNL     1      -5.734 -27.306 -45.265  1.00  0.00     0.293 HD
ENDBRANCH   8  28
TORSDOF 7
ENDMDL
MODEL 3
REMARK VINA RESULT:    -5.578      3.869      6.090
REMARK INTER + INTRA:          -6.923
REMARK INTER:                  -6.590
REMARK INTRA:                  -0.333
REMARK UNBOUND:                -0.041
REMARK SMILES O=c1c(O)c(-c2cc(O)c(O)c(O)c2)oc2cc(O)cc(O)c12
REMARK SMILES IDX 5 1 3 2 2 3 1 4 23 5 21 6 20 7 18 8 17 9 16 10 15 11 6 12
REMARK SMILES IDX 7 13 8 14 14 15 10 16 12 17 9 18 11 20 13 22 4 24 22 26
REMARK SMILES IDX 19 28
REMARK H PARENT 9 19 11 21 13 23 4 25 22 27 19 29
REMARK Flexibility Score: inf
ROOT
ATOM      1  C   UNL     1       0.060 -23.367 -44.285  1.00  0.00     0.180 A 
ATOM      2  C   UNL     1       1.356 -23.906 -44.211  1.00  0.00     0.208 A 
ATOM      3  C   UNL     1       1.694 -24.984 -45.045  1.00  0.00     0.238 A 
ATOM      4  O   UNL     1       2.837 -25.498 -44.935  1.00  0.00    -0.285 OA
ATOM      5  C   UNL     1       0.738 -25.498 -45.953  1.00  0.00     0.111 A 
ATOM      6  C   UNL     1       0.984 -26.562 -46.873  1.00  0.00     0.134 A 
ATOM      7  C   UNL     1      -0.074 -27.076 -47.633  1.00  0.00     0.093 A 
ATOM      8  C   UNL     1      -1.353 -26.522 -47.555  1.00  0.00     0.123 A 
ATOM      9  C   UNL     1      -1.589 -25.445 -46.704  1.00  0.00     0.094 A 
ATOM     10  C   UNL     1      -0.563 -24.933 -45.906  1.00  0.00     0.146 A 
ATOM     11  O   UNL     1      -0.835 -23.913 -45.101  1.00  0.00    -0.452 OA
ENDROOT
BRANCH   1  12
ATOM     12  C   UNL     1      -0.363 -22.214 -43.457  1.00  0.00     0.029 A 
ATOM     13  C   UNL     1      -1.075 -22.397 -42.260  1.00  0.00     0.062 A 
ATOM     14  C   UNL     1      -1.446 -21.295 -41.477  1.00  0.00     0.162 A 
ATOM     15  C   UNL     1       0.002 -20.916 -43.844  1.00  0.00     0.062 A 
ATOM     16  C   UNL     1      -1.096 -19.996 -41.883  1.00  0.00     0.200 A 
ATOM     17  C   UNL     1      -0.366 -19.810 -43.070  1.00  0.00     0.162 A 
BRANCH  14  18
ATOM     18  O   UNL     1      -2.158 -21.487 -40.294  1.00  0.00    -0.504 OA
ATOM     19  H   UNL     1      -3.013 -20.979 -40.099  1.00  0.00     0.293 HD
ENDBRANCH  14  18
BRANCH  16  20
ATOM     20  O   UNL     1      -1.462 -18.887 -41.119  1.00  0.00    -0.502 OA
ATOM     21  H   UNL     1      -1.081 -17.964 -41.290  1.00  0.00     0.293 HD
ENDBRANCH  16  20
BRANCH  17  22
ATOM     22  O   UNL     1       0.003 -18.535 -43.496  1.00  0.00    -0.504 OA
ATOM     23  H   UNL     1      -0.195 -17.705 -42.950  1.00  0.00     0.293 HD
ENDBRANCH  17  22
ENDBRANCH   1  12
BRANCH   2  24
ATOM     24  O   UNL     1       2.277 -23.397 -43.292  1.00  0.00    -0.502 OA
ATOM     25  H   UNL     1       3.020 -23.961 -42.896  1.00  0.00     0.293 HD
ENDBRANCH   2  24
BRANCH   6  26
ATOM     26  O   UNL     1       2.245 -27.125 -47.096  1.00  0.00    -0.507 OA
ATOM     27  H   UNL     1       2.754 -27.677 -46.423  1.00  0.00     0.293 HD
ENDBRANCH   6  26
BRANCH   8  28
ATOM     28  O   UNL     1      -2.396 -27.030 -48.327  1.00  0.00    -0.508 OA
ATOM     29  H   UNL     1      -2.259 -27.814 -48.952  1.00  0.00     0.293 HD
ENDBRANCH   8  28
TORSDOF 7
ENDMDL
MODEL 4
REMARK VINA RESULT:    -5.514     17.095     18.132
REMARK INTER + INTRA:          -6.844
REMARK INTER:                  -6.504
REMARK INTRA:                  -0.340
REMARK UNBOUND:                -0.041
REMARK SMILES O=c1c(O)c(-c2cc(O)c(O)c(O)c2)oc2cc(O)cc(O)c12
REMARK SMILES IDX 5 1 3 2 2 3 1 4 23 5 21 6 20 7 18 8 17 9 16 10 15 11 6 12
REMARK SMILES IDX 7 13 8 14 14 15 10 16 12 17 9 18 11 20 13 22 4 24 22 26
REMARK SMILES IDX 19 28
REMARK H PARENT 9 19 11 21 13 23 4 25 22 27 19 29
REMARK Flexibility Score: inf
ROOT
ATOM      1  C   UNL     1      -1.543 -11.645 -34.892  1.00  0.00     0.180 A 
ATOM      2  C   UNL     1      -0.560 -12.552 -34.459  1.00  0.00     0.208 A 
ATOM      3  C   UNL     1      -0.929 -13.594 -33.593  1.00  0.00     0.238 A 
ATOM      4  O   UNL     1      -0.034 -14.369 -33.166  1.00  0.00    -0.285 OA
ATOM      5  C   UNL     1      -2.277 -13.725 -33.183  1.00  0.00     0.111 A 
ATOM      6  C   UNL     1      -2.770 -14.766 -32.340  1.00  0.00     0.134 A 
ATOM      7  C   UNL     1      -4.096 -14.723 -31.893  1.00  0.00     0.093 A 
ATOM      8  C   UNL     1      -4.966 -13.713 -32.312  1.00  0.00     0.123 A 
ATOM      9  C   UNL     1      -4.510 -12.726 -33.182  1.00  0.00     0.094 A 
ATOM     10  C   UNL     1      -3.182 -12.722 -33.617  1.00  0.00     0.146 A 
ATOM     11  O   UNL     1      -2.786 -11.756 -34.438  1.00  0.00    -0.452 OA
ENDROOT
BRANCH   1  12
ATOM     12  C   UNL     1      -1.237 -10.537 -35.825  1.00  0.00     0.029 A 
ATOM     13  C   UNL     1      -1.113 -10.758 -37.207  1.00  0.00     0.062 A 
ATOM     14  C   UNL     1      -0.846  -9.693 -38.078  1.00  0.00     0.162 A 
ATOM     15  C   UNL     1      -1.123  -9.229 -35.329  1.00  0.00     0.062 A 
ATOM     16  C   UNL     1      -0.711  -8.389 -37.570  1.00  0.00     0.200 A 
ATOM     17  C   UNL     1      -0.854  -8.160 -36.191  1.00  0.00     0.162 A 
BRANCH  14  18
ATOM     18  O   UNL     1      -0.719  -9.925 -39.447  1.00  0.00    -0.504 OA
ATOM     19  H   UNL     1       0.046  -9.532 -39.983  1.00  0.00     0.293 HD
ENDBRANCH  14  18
BRANCH  16  20
ATOM     20  O   UNL     1      -0.440  -7.317 -38.422  1.00  0.00    -0.502 OA
ATOM     21  H   UNL     1      -0.556  -6.353 -38.131  1.00  0.00     0.293 HD
ENDBRANCH  16  20
BRANCH  17  22
ATOM     22  O   UNL     1      -0.734  -6.877 -35.657  1.00  0.00    -0.504 OA
ATOM     23  H   UNL     1      -1.094  -6.059 -36.134  1.00  0.00     0.293 HD
ENDBRANCH  17  22
ENDBRANCH   1  12
BRANCH   2  24
ATOM     24  O   UNL     1       0.769 -12.390 -34.859  1.00  0.00    -0.502 OA
ATOM     25  H   UNL     1       1.090 -12.627 -35.790  1.00  0.00     0.293 HD
ENDBRANCH   2  24
BRANCH   6  26
ATOM     26  O   UNL     1      -2.011 -15.870 -31.937  1.00  0.00    -0.507 OA
ATOM     27  H   UNL     1      -1.593 -16.539 -32.566  1.00  0.00     0.293 HD
ENDBRANCH   6  26
BRANCH   8  28
ATOM     28  O   UNL     1      -6.288 -13.687 -31.875  1.00  0.00    -0.508 OA
ATOM     29  H   UNL     1      -6.913 -12.930 -32.122  1.00  0.00     0.293 HD
ENDBRANCH   8  28
TORSDOF 7
ENDMDL
MODEL 5
REMARK VINA RESULT:    -5.507      3.907      5.985
REMARK INTER + INTRA:          -6.836
REMARK INTER:                  -6.527
REMARK INTRA:                  -0.309
REMARK UNBOUND:                -0.041
REMARK SMILES O=c1c(O)c(-c2cc(O)c(O)c(O)c2)oc2cc(O)cc(O)c12
REMARK SMILES IDX 5 1 3 2 2 3 1 4 23 5 21 6 20 7 18 8 17 9 16 10 15 11 6 12
REMARK SMILES IDX 7 13 8 14 14 15 10 16 12 17 9 18 11 20 13 22 4 24 22 26
REMARK SMILES IDX 19 28
REMARK H PARENT 9 19 11 21 13 23 4 25 22 27 19 29
REMARK Flexibility Score: inf
ROOT
ATOM      1  C   UNL     1       0.044 -23.247 -44.077  1.00  0.00     0.180 A 
ATOM      2  C   UNL     1       1.369 -23.717 -44.104  1.00  0.00     0.208 A 
ATOM      3  C   UNL     1       1.716 -24.725 -45.017  1.00  0.00     0.238 A 
ATOM      4  O   UNL     1       2.889 -25.180 -44.998  1.00  0.00    -0.285 OA
ATOM      5  C   UNL     1       0.739 -25.239 -45.903  1.00  0.00     0.111 A 
ATOM      6  C   UNL     1       0.989 -26.233 -46.897  1.00  0.00     0.134 A 
ATOM      7  C   UNL     1      -0.081 -26.761 -47.630  1.00  0.00     0.093 A 
ATOM      8  C   UNL     1      -1.382 -26.285 -47.452  1.00  0.00     0.123 A 
ATOM      9  C   UNL     1      -1.626 -25.273 -46.527  1.00  0.00     0.094 A 
ATOM     10  C   UNL     1      -0.585 -24.751 -45.754  1.00  0.00     0.146 A 
ATOM     11  O   UNL     1      -0.865 -23.795 -44.876  1.00  0.00    -0.452 OA
ENDROOT
BRANCH   1  12
ATOM     12  C   UNL     1      -0.391 -22.169 -43.160  1.00  0.00     0.029 A 
ATOM     13  C   UNL     1      -0.038 -20.829 -43.388  1.00  0.00     0.062 A 
ATOM     14  C   UNL     1      -0.479 -19.818 -42.522  1.00  0.00     0.162 A 
ATOM     15  C   UNL     1      -1.220 -22.482 -42.072  1.00  0.00     0.062 A 
ATOM     16  C   UNL     1      -1.292 -20.144 -41.422  1.00  0.00     0.200 A 
ATOM     17  C   UNL     1      -1.664 -21.480 -41.202  1.00  0.00     0.162 A 
BRANCH  14  18
ATOM     18  O   UNL     1      -0.118 -18.492 -42.754  1.00  0.00    -0.504 OA
ATOM     19  H   UNL     1       0.686 -18.252 -43.323  1.00  0.00     0.293 HD
ENDBRANCH  14  18
BRANCH  16  20
ATOM     20  O   UNL     1      -1.736 -19.152 -40.547  1.00  0.00    -0.502 OA
ATOM     21  H   UNL     1      -2.496 -19.307 -39.895  1.00  0.00     0.293 HD
ENDBRANCH  16  20
BRANCH  17  22
ATOM     22  O   UNL     1      -2.475 -21.834 -40.123  1.00  0.00    -0.504 OA
ATOM     23  H   UNL     1      -2.958 -22.723 -40.081  1.00  0.00     0.293 HD
ENDBRANCH  17  22
ENDBRANCH   1  12
BRANCH   2  24
ATOM     24  O   UNL     1       2.311 -23.210 -43.205  1.00  0.00    -0.502 OA
ATOM     25  H   UNL     1       2.995 -23.799 -42.744  1.00  0.00     0.293 HD
ENDBRANCH   2  24
BRANCH   6  26
ATOM     26  O   UNL     1       2.263 -26.712 -47.219  1.00  0.00    -0.507 OA
ATOM     27  H   UNL     1       3.045 -26.736 -46.583  1.00  0.00     0.293 HD
ENDBRANCH   6  26
BRANCH   8  28
ATOM     28  O   UNL     1      -2.437 -26.805 -48.197  1.00  0.00    -0.508 OA
ATOM     29  H   UNL     1      -2.737 -26.376 -49.064  1.00  0.00     0.293 HD
ENDBRANCH   8  28
TORSDOF 7
ENDMDL
MODEL 6
REMARK VINA RESULT:    -5.468     16.030     17.767
REMARK INTER + INTRA:          -6.788
REMARK INTER:                  -6.438
REMARK INTRA:                  -0.350
REMARK UNBOUND:                -0.041
REMARK SMILES O=c1c(O)c(-c2cc(O)c(O)c(O)c2)oc2cc(O)cc(O)c12
REMARK SMILES IDX 5 1 3 2 2 3 1 4 23 5 21 6 20 7 18 8 17 9 16 10 15 11 6 12
REMARK SMILES IDX 7 13 8 14 14 15 10 16 12 17 9 18 11 20 13 22 4 24 22 26
REMARK SMILES IDX 19 28
REMARK H PARENT 9 19 11 21 13 23 4 25 22 27 19 29
REMARK Flexibility Score: inf
ROOT
ATOM      1  C   UNL     1      -3.826  -9.473 -43.073  1.00  0.00     0.180 A 
ATOM      2  C   UNL     1      -3.888  -8.520 -42.041  1.00  0.00     0.208 A 
ATOM      3  C   UNL     1      -2.841  -8.458 -41.108  1.00  0.00     0.238 A 
ATOM      4  O   UNL     1      -2.929  -7.640 -40.155  1.00  0.00    -0.285 OA
ATOM      5  C   UNL     1      -1.737  -9.337 -41.227  1.00  0.00     0.111 A 
ATOM      6  C   UNL     1      -0.602  -9.333 -40.362  1.00  0.00     0.134 A 
ATOM      7  C   UNL     1       0.369 -10.334 -40.494  1.00  0.00     0.093 A 
ATOM      8  C   UNL     1       0.280 -11.296 -41.503  1.00  0.00     0.123 A 
ATOM      9  C   UNL     1      -0.794 -11.271 -42.389  1.00  0.00     0.094 A 
ATOM     10  C   UNL     1      -1.798 -10.308 -42.260  1.00  0.00     0.146 A 
ATOM     11  O   UNL     1      -2.810 -10.327 -43.120  1.00  0.00    -0.452 OA
ENDROOT
BRANCH   1  12
ATOM     12  C   UNL     1      -4.879  -9.583 -44.108  1.00  0.00     0.029 A 
ATOM     13  C   UNL     1      -4.906  -8.721 -45.217  1.00  0.00     0.062 A 
ATOM     14  C   UNL     1      -5.896  -8.855 -46.200  1.00  0.00     0.162 A 
ATOM     15  C   UNL     1      -5.837 -10.603 -44.012  1.00  0.00     0.062 A 
ATOM     16  C   UNL     1      -6.866  -9.867 -46.084  1.00  0.00     0.200 A 
ATOM     17  C   UNL     1      -6.831 -10.744 -44.987  1.00  0.00     0.162 A 
BRANCH  14  18
ATOM     18  O   UNL     1      -5.918  -7.991 -47.293  1.00  0.00    -0.504 OA
ATOM     19  H   UNL     1      -5.281  -7.206 -47.362  1.00  0.00     0.293 HD
ENDBRANCH  14  18
BRANCH  16  20
ATOM     20  O   UNL     1      -7.863 -10.011 -47.050  1.00  0.00    -0.502 OA
ATOM     21  H   UNL     1      -7.651 -10.073 -48.039  1.00  0.00     0.293 HD
ENDBRANCH  16  20
BRANCH  17  22
ATOM     22  O   UNL     1      -7.774 -11.761 -44.848  1.00  0.00    -0.504 OA
ATOM     23  H   UNL     1      -8.626 -11.638 -44.314  1.00  0.00     0.293 HD
ENDBRANCH  17  22
ENDBRANCH   1  12
BRANCH   2  24
ATOM     24  O   UNL     1      -4.997  -7.678 -41.929  1.00  0.00    -0.502 OA
ATOM     25  H   UNL     1      -5.365  -7.155 -42.715  1.00  0.00     0.293 HD
ENDBRANCH   2  24
BRANCH   6  26
ATOM     26  O   UNL     1      -0.369  -8.363 -39.382  1.00  0.00    -0.507 OA
ATOM     27  H   UNL     1       0.142  -8.521 -38.528  1.00  0.00     0.293 HD
ENDBRANCH   6  26
BRANCH   8  28
ATOM     28  O   UNL     1       1.259 -12.277 -41.637  1.00  0.00    -0.508 OA
ATOM     29  H   UNL     1       1.718 -12.451 -42.523  1.00  0.00     0.293 HD
ENDBRANCH   8  28
TORSDOF 7
ENDMDL
MODEL 7
REMARK VINA RESULT:    -5.447      4.771      6.508
REMARK INTER + INTRA:          -6.761
REMARK INTER:                  -6.393
REMARK INTRA:                  -0.369
REMARK UNBOUND:                -0.041
REMARK SMILES O=c1c(O)c(-c2cc(O)c(O)c(O)c2)oc2cc(O)cc(O)c12
REMARK SMILES IDX 5 1 3 2 2 3 1 4 23 5 21 6 20 7 18 8 17 9 16 10 15 11 6 12
REMARK SMILES IDX 7 13 8 14 14 15 10 16 12 17 9 18 11 20 13 22 4 24 22 26
REMARK SMILES IDX 19 28
REMARK H PARENT 9 19 11 21 13 23 4 25 22 27 19 29
REMARK Flexibility Score: inf
ROOT
ATOM      1  C   UNL     1      -0.071 -22.664 -43.681  1.00  0.00     0.180 A 
ATOM      2  C   UNL     1      -0.023 -21.270 -43.857  1.00  0.00     0.208 A 
ATOM      3  C   UNL     1      -0.022 -20.439 -42.725  1.00  0.00     0.238 A 
ATOM      4  O   UNL     1      -0.036 -19.192 -42.891  1.00  0.00    -0.285 OA
ATOM      5  C   UNL     1      -0.053 -21.013 -41.431  1.00  0.00     0.111 A 
ATOM      6  C   UNL     1      -0.015 -20.268 -40.214  1.00  0.00     0.134 A 
ATOM      7  C   UNL     1      -0.182 -20.932 -38.993  1.00  0.00     0.093 A 
ATOM      8  C   UNL     1      -0.320 -22.321 -38.941  1.00  0.00     0.123 A 
ATOM      9  C   UNL     1      -0.298 -23.062 -40.120  1.00  0.00     0.094 A 
ATOM     10  C   UNL     1      -0.169 -22.425 -41.356  1.00  0.00     0.146 A 
ATOM     11  O   UNL     1      -0.165 -23.169 -42.456  1.00  0.00    -0.452 OA
ENDROOT
BRANCH   1  12
ATOM     12  C   UNL     1      -0.049 -23.604 -44.824  1.00  0.00     0.029 A 
ATOM     13  C   UNL     1       1.161 -24.073 -45.362  1.00  0.00     0.062 A 
ATOM     14  C   UNL     1       1.162 -24.982 -46.429  1.00  0.00     0.162 A 
ATOM     15  C   UNL     1      -1.260 -24.082 -45.348  1.00  0.00     0.062 A 
ATOM     16  C   UNL     1      -0.056 -25.438 -46.963  1.00  0.00     0.200 A 
ATOM     17  C   UNL     1      -1.269 -24.987 -46.414  1.00  0.00     0.162 A 
BRANCH  14  18
ATOM     18  O   UNL     1       2.369 -25.436 -46.959  1.00  0.00    -0.504 OA
ATOM     19  H   UNL     1       3.049 -25.924 -46.389  1.00  0.00     0.293 HD
ENDBRANCH  14  18
BRANCH  16  20
ATOM     20  O   UNL     1      -0.074 -26.338 -48.029  1.00  0.00    -0.502 OA
ATOM     21  H   UNL     1      -0.476 -26.102 -48.928  1.00  0.00     0.293 HD
ENDBRANCH  16  20
BRANCH  17  22
ATOM     22  O   UNL     1      -2.494 -25.427 -46.916  1.00  0.00    -0.504 OA
ATOM     23  H   UNL     1      -2.577 -26.266 -47.477  1.00  0.00     0.293 HD
ENDBRANCH  17  22
ENDBRANCH   1  12
BRANCH   2  24
ATOM     24  O   UNL     1      -0.016 -20.725 -45.144  1.00  0.00    -0.502 OA
ATOM     25  H   UNL     1       0.817 -20.703 -45.721  1.00  0.00     0.293 HD
ENDBRANCH   2  24
BRANCH   6  26
ATOM     26  O   UNL     1       0.210 -18.889 -40.149  1.00  0.00    -0.507 OA
ATOM     27  H   UNL     1       1.118 -18.453 -40.192  1.00  0.00     0.293 HD
ENDBRANCH   6  26
BRANCH   8  28
ATOM     28  O   UNL     1      -0.469 -22.975 -37.720  1.00  0.00    -0.508 OA
ATOM     29  H   UNL     1      -0.145 -22.563 -36.854  1.00  0.00     0.293 HD
ENDBRANCH   8  28
TORSDOF 7
ENDMDL
MODEL 8
REMARK VINA RESULT:    -5.376      4.689      6.895
REMARK INTER + INTRA:          -6.674
REMARK INTER:                  -6.789
REMARK INTRA:                   0.116
REMARK UNBOUND:                -0.041
REMARK SMILES O=c1c(O)c(-c2cc(O)c(O)c(O)c2)oc2cc(O)cc(O)c12
REMARK SMILES IDX 5 1 3 2 2 3 1 4 23 5 21 6 20 7 18 8 17 9 16 10 15 11 6 12
REMARK SMILES IDX 7 13 8 14 14 15 10 16 12 17 9 18 11 20 13 22 4 24 22 26
REMARK SMILES IDX 19 28
REMARK H PARENT 9 19 11 21 13 23 4 25 22 27 19 29
REMARK Flexibility Score: inf
ROOT
ATOM      1  C   UNL     1       0.648 -22.695 -43.780  1.00  0.00     0.180 A 
ATOM      2  C   UNL     1       1.601 -22.931 -42.774  1.00  0.00     0.208 A 
ATOM      3  C   UNL     1       1.737 -22.000 -41.732  1.00  0.00     0.238 A 
ATOM      4  O   UNL     1       2.630 -22.190 -40.866  1.00  0.00    -0.285 OA
ATOM      5  C   UNL     1       0.908 -20.853 -41.699  1.00  0.00     0.111 A 
ATOM      6  C   UNL     1       0.933 -19.865 -40.669  1.00  0.00     0.134 A 
ATOM      7  C   UNL     1       0.160 -18.705 -40.807  1.00  0.00     0.093 A 
ATOM      8  C   UNL     1      -0.686 -18.529 -41.904  1.00  0.00     0.123 A 
ATOM      9  C   UNL     1      -0.761 -19.515 -42.884  1.00  0.00     0.094 A 
ATOM     10  C   UNL     1       0.025 -20.667 -42.794  1.00  0.00     0.146 A 
ATOM     11  O   UNL     1      -0.070 -21.577 -43.756  1.00  0.00    -0.452 OA
ENDROOT
BRANCH   1  12
ATOM     12  C   UNL     1       0.428 -23.642 -44.896  1.00  0.00     0.029 A 
ATOM     13  C   UNL     1       1.503 -24.278 -45.538  1.00  0.00     0.062 A 
ATOM     14  C   UNL     1       1.275 -25.189 -46.578  1.00  0.00     0.162 A 
ATOM     15  C   UNL     1      -0.883 -23.955 -45.287  1.00  0.00     0.062 A 
ATOM     16  C   UNL     1      -0.041 -25.481 -46.978  1.00  0.00     0.200 A 
ATOM     17  C   UNL     1      -1.121 -24.862 -46.325  1.00  0.00     0.162 A 
BRANCH  14  18
ATOM     18  O   UNL     1       2.350 -25.810 -47.212  1.00  0.00    -0.504 OA
ATOM     19  H   UNL     1       3.220 -25.320 -47.383  1.00  0.00     0.293 HD
ENDBRANCH  14  18
BRANCH  16  20
ATOM     20  O   UNL     1      -0.287 -26.382 -48.015  1.00  0.00    -0.502 OA
ATOM     21  H   UNL     1      -0.981 -26.204 -48.732  1.00  0.00     0.293 HD
ENDBRANCH  16  20
BRANCH  17  22
ATOM     22  O   UNL     1      -2.438 -25.137 -46.693  1.00  0.00    -0.504 OA
ATOM     23  H   UNL     1      -2.683 -25.455 -47.623  1.00  0.00     0.293 HD
ENDBRANCH  17  22
ENDBRANCH   1  12
BRANCH   2  24
ATOM     24  O   UNL     1       2.424 -24.059 -42.839  1.00  0.00    -0.502 OA
ATOM     25  H   UNL     1       2.426 -24.687 -43.634  1.00  0.00     0.293 HD
ENDBRANCH   2  24
BRANCH   6  26
ATOM     26  O   UNL     1       1.672 -19.986 -39.488  1.00  0.00    -0.507 OA
ATOM     27  H   UNL     1       1.388 -19.619 -38.593  1.00  0.00     0.293 HD
ENDBRANCH   6  26
BRANCH   8  28
ATOM     28  O   UNL     1      -1.463 -17.380 -42.024  1.00  0.00    -0.508 OA
ATOM     29  H   UNL     1      -1.946 -17.153 -42.885  1.00  0.00     0.293 HD
ENDBRANCH   8  28
TORSDOF 7
ENDMDL
MODEL 9
REMARK VINA RESULT:    -5.363      4.183      5.718
REMARK INTER + INTRA:          -6.658
REMARK INTER:                  -6.358
REMARK INTRA:                  -0.300
REMARK UNBOUND:                -0.041
REMARK SMILES O=c1c(O)c(-c2cc(O)c(O)c(O)c2)oc2cc(O)cc(O)c12
REMARK SMILES IDX 5 1 3 2 2 3 1 4 23 5 21 6 20 7 18 8 17 9 16 10 15 11 6 12
REMARK SMILES IDX 7 13 8 14 14 15 10 16 12 17 9 18 11 20 13 22 4 24 22 26
REMARK SMILES IDX 19 28
REMARK H PARENT 9 19 11 21 13 23 4 25 22 27 19 29
REMARK Flexibility Score: inf
ROOT
ATOM      1  C   UNL     1      -0.285 -23.440 -43.786  1.00  0.00     0.180 A 
ATOM      2  C   UNL     1      -1.288 -23.883 -42.907  1.00  0.00     0.208 A 
ATOM      3  C   UNL     1      -1.856 -22.970 -42.004  1.00  0.00     0.238 A 
ATOM      4  O   UNL     1      -2.713 -23.386 -41.183  1.00  0.00    -0.285 OA
ATOM      5  C   UNL     1      -1.426 -21.621 -42.004  1.00  0.00     0.111 A 
ATOM      6  C   UNL     1      -1.961 -20.600 -41.161  1.00  0.00     0.134 A 
ATOM      7  C   UNL     1      -1.370 -19.331 -41.153  1.00  0.00     0.093 A 
ATOM      8  C   UNL     1      -0.306 -19.026 -42.006  1.00  0.00     0.123 A 
ATOM      9  C   UNL     1       0.183 -19.998 -42.875  1.00  0.00     0.094 A 
ATOM     10  C   UNL     1      -0.362 -21.285 -42.880  1.00  0.00     0.146 A 
ATOM     11  O   UNL     1       0.143 -22.185 -43.716  1.00  0.00    -0.452 OA
ENDROOT
BRANCH   1  12
ATOM     12  C   UNL     1       0.344 -24.338 -44.782  1.00  0.00     0.029 A 
ATOM     13  C   UNL     1      -0.351 -24.757 -45.929  1.00  0.00     0.062 A 
ATOM     14  C   UNL     1       0.268 -25.587 -46.873  1.00  0.00     0.162 A 
ATOM     15  C   UNL     1       1.678 -24.735 -44.608  1.00  0.00     0.062 A 
ATOM     16  C   UNL     1       1.598 -25.999 -46.680  1.00  0.00     0.200 A 
ATOM     17  C   UNL     1       2.303 -25.565 -45.544  1.00  0.00     0.162 A 
BRANCH  14  18
ATOM     18  O   UNL     1      -0.433 -26.002 -48.004  1.00  0.00    -0.504 OA
ATOM     19  H   UNL     1      -1.161 -26.705 -47.950  1.00  0.00     0.293 HD
ENDBRANCH  14  18
BRANCH  16  20
ATOM     20  O   UNL     1       2.228 -26.830 -47.607  1.00  0.00    -0.502 OA
ATOM     21  H   UNL     1       3.085 -26.562 -48.077  1.00  0.00     0.293 HD
ENDBRANCH  16  20
BRANCH  17  22
ATOM     22  O   UNL     1       3.627 -25.949 -45.328  1.00  0.00    -0.504 OA
ATOM     23  H   UNL     1       3.871 -26.863 -44.967  1.00  0.00     0.293 HD
ENDBRANCH  17  22
ENDBRANCH   1  12
BRANCH   2  24
ATOM     24  O   UNL     1      -1.681 -25.224 -42.909  1.00  0.00    -0.502 OA
ATOM     25  H   UNL     1      -2.391 -25.582 -43.537  1.00  0.00     0.293 HD
ENDBRANCH   2  24
BRANCH   6  26
ATOM     26  O   UNL     1      -3.079 -20.773 -40.339  1.00  0.00    -0.507 OA
ATOM     27  H   UNL     1      -3.130 -21.420 -39.567  1.00  0.00     0.293 HD
ENDBRANCH   6  26
BRANCH   8  28
ATOM     28  O   UNL     1       0.265 -17.756 -42.004  1.00  0.00    -0.508 OA
ATOM     29  H   UNL     1      -0.300 -16.920 -41.917  1.00  0.00     0.293 HD
ENDBRANCH   8  28
TORSDOF 7
ENDMDL
