MODEL 1
REMARK VINA RESULT:    -5.234      0.000      0.000
REMARK INTER + INTRA:          -8.083
REMARK INTER:                  -7.070
REMARK INTRA:                  -1.013
REMARK UNBOUND:                -1.013
REMARK SMILES CC(=O)CCC=C(C)CCC=C(C)C
REMARK SMILES IDX 7 1 6 2 8 3 9 4 10 5 11 6 13 7 12 8 14 9 5 10 4 11 2 12 3 13
REMARK SMILES IDX 1 14
REMARK H PARENT
REMARK Flexibility Score: inf
ROOT
ATOM      1  C   UNL     1      18.015 -11.115  65.188  1.00  0.00    -0.077 C 
ATOM      2  C   UNL     1      17.856  -9.992  65.925  1.00  0.00    -0.028 C 
ATOM      3  C   UNL     1      18.217 -12.468  65.828  1.00  0.00     0.039 C 
ENDROOT
BRANCH   1   4
ATOM      4  C   UNL     1      18.008 -11.010  63.678  1.00  0.00     0.034 C 
BRANCH   4   5
ATOM      5  C   UNL     1      16.769 -11.696  63.092  1.00  0.00     0.032 C 
BRANCH   5   6
ATOM      6  C   UNL     1      15.670 -10.693  62.844  1.00  0.00    -0.028 C 
ATOM      7  C   UNL     1      13.582  -9.471  63.279  1.00  0.00     0.039 C 
ATOM      8  C   UNL     1      14.579 -10.546  63.629  1.00  0.00    -0.080 C 
ATOM      9  C   UNL     1      14.329 -11.434  64.826  1.00  0.00     0.039 C 
ENDBRANCH   5   6
ENDBRANCH   4   5
ENDBRANCH   1   4
BRANCH   2  10
ATOM     10  C   UNL     1      17.807  -9.959  67.433  1.00  0.00     0.035 C 
BRANCH  10  11
ATOM     11  C   UNL     1      19.110  -9.386  68.007  1.00  0.00     0.079 C 
BRANCH  11  12
ATOM     12  C   UNL     1      19.543 -10.064  69.286  1.00  0.00     0.130 C 
ATOM     13  O   UNL     1      19.518  -9.468  70.353  1.00  0.00    -0.300 OA
ATOM     14  C   UNL     1      19.997 -11.491  69.260  1.00  0.00     0.087 C 
ENDBRANCH  11  12
ENDBRANCH  10  11
ENDBRANCH   2  10
TORSDOF 6
ENDMDL
MODEL 2
REMARK VINA RESULT:    -5.204      1.255      1.896
REMARK INTER + INTRA:          -8.042
REMARK INTER:                  -7.177
REMARK INTRA:                  -0.865
REMARK UNBOUND:                -1.013
REMARK SMILES CC(=O)CCC=C(C)CCC=C(C)C
REMARK SMILES IDX 7 1 6 2 8 3 9 4 10 5 11 6 13 7 12 8 14 9 5 10 4 11 2 12 3 13
REMARK SMILES IDX 1 14
REMARK H PARENT
REMARK Flexibility Score: inf
ROOT
ATOM      1  C   UNL     1      16.625 -11.520  65.729  1.00  0.00    -0.077 C 
ATOM      2  C   UNL     1      17.153 -10.596  66.564  1.00  0.00    -0.028 C 
ATOM      3  C   UNL     1      17.475 -12.585  65.077  1.00  0.00     0.039 C 
ENDROOT
BRANCH   1   4
ATOM      4  C   UNL     1      15.144 -11.473  65.425  1.00  0.00     0.034 C 
BRANCH   4   5
ATOM      5  C   UNL     1      14.903 -11.224  63.932  1.00  0.00     0.032 C 
BRANCH   5   6
ATOM      6  C   UNL     1      14.653  -9.760  63.668  1.00  0.00    -0.028 C 
ATOM      7  C   UNL     1      15.175  -7.471  62.939  1.00  0.00     0.039 C 
ATOM      8  C   UNL     1      15.582  -8.900  63.191  1.00  0.00    -0.080 C 
ATOM      9  C   UNL     1      17.006  -9.328  62.925  1.00  0.00     0.039 C 
ENDBRANCH   5   6
ENDBRANCH   4   5
ENDBRANCH   1   4
BRANCH   2  10
ATOM     10  C   UNL     1      18.603 -10.549  66.981  1.00  0.00     0.035 C 
BRANCH  10  11
ATOM     11  C   UNL     1      18.815  -9.517  68.097  1.00  0.00     0.079 C 
BRANCH  11  12
ATOM     12  C   UNL     1      19.517 -10.087  69.306  1.00  0.00     0.130 C 
ATOM     13  O   UNL     1      19.610  -9.443  70.342  1.00  0.00    -0.300 OA
ATOM     14  C   UNL     1      20.101 -11.466  69.253  1.00  0.00     0.087 C 
ENDBRANCH  11  12
ENDBRANCH  10  11
ENDBRANCH   2  10
TORSDOF 6
ENDMDL
MODEL 3
REMARK VINA RESULT:    -5.091      1.149      1.759
REMARK INTER + INTRA:          -7.889
REMARK INTER:                  -6.971
REMARK INTRA:                  -0.918
REMARK UNBOUND:                -1.013
REMARK SMILES CC(=O)CCC=C(C)CCC=C(C)C
REMARK SMILES IDX 7 1 6 2 8 3 9 4 10 5 11 6 13 7 12 8 14 9 5 10 4 11 2 12 3 13
REMARK SMILES IDX 1 14
REMARK H PARENT
REMARK Flexibility Score: inf
ROOT
ATOM      1  C   UNL     1      17.555  -9.824  64.949  1.00  0.00    -0.077 C 
ATOM      2  C   UNL     1      17.281  -9.989  66.263  1.00  0.00    -0.028 C 
ATOM      3  C   UNL     1      18.872 -10.257  64.348  1.00  0.00     0.039 C 
ENDROOT
BRANCH   1   4
ATOM      4  C   UNL     1      16.520  -9.170  64.059  1.00  0.00     0.034 C 
BRANCH   4   5
ATOM      5  C   UNL     1      15.894 -10.198  63.110  1.00  0.00     0.032 C 
BRANCH   5   6
ATOM      6  C   UNL     1      14.728 -10.893  63.769  1.00  0.00    -0.028 C 
ATOM      7  C   UNL     1      13.522 -12.720  64.885  1.00  0.00     0.039 C 
ATOM      8  C   UNL     1      14.752 -12.171  64.209  1.00  0.00    -0.080 C 
ATOM      9  C   UNL     1      15.961 -13.059  64.025  1.00  0.00     0.039 C 
ENDBRANCH   5   6
ENDBRANCH   4   5
ENDBRANCH   1   4
BRANCH   2  10
ATOM     10  C   UNL     1      18.205 -10.656  67.252  1.00  0.00     0.035 C 
BRANCH  10  11
ATOM     11  C   UNL     1      18.965  -9.609  68.079  1.00  0.00     0.079 C 
BRANCH  11  12
ATOM     12  C   UNL     1      19.574 -10.177  69.339  1.00  0.00     0.130 C 
ATOM     13  O   UNL     1      19.577  -9.535  70.380  1.00  0.00    -0.300 OA
ATOM     14  C   UNL     1      20.173 -11.549  69.329  1.00  0.00     0.087 C 
ENDBRANCH  11  12
ENDBRANCH  10  11
ENDBRANCH   2  10
TORSDOF 6
ENDMDL
MODEL 4
REMARK VINA RESULT:    -4.933      2.298      3.798
REMARK INTER + INTRA:          -7.676
REMARK INTER:                  -6.409
REMARK INTRA:                  -1.267
REMARK UNBOUND:                -1.013
REMARK SMILES CC(=O)CCC=C(C)CCC=C(C)C
REMARK SMILES IDX 7 1 6 2 8 3 9 4 10 5 11 6 13 7 12 8 14 9 5 10 4 11 2 12 3 13
REMARK SMILES IDX 1 14
REMARK H PARENT
REMARK Flexibility Score: inf
ROOT
ATOM      1  C   UNL     1      17.864 -12.062  66.059  1.00  0.00    -0.077 C 
ATOM      2  C   UNL     1      17.801 -11.633  67.340  1.00  0.00    -0.028 C 
ATOM      3  C   UNL     1      18.673 -13.274  65.662  1.00  0.00     0.039 C 
ENDROOT
BRANCH   1   4
ATOM      4  C   UNL     1      17.116 -11.296  64.990  1.00  0.00     0.034 C 
BRANCH   4   5
ATOM      5  C   UNL     1      17.661  -9.869  64.863  1.00  0.00     0.032 C 
BRANCH   5   6
ATOM      6  C   UNL     1      18.915  -9.849  64.023  1.00  0.00    -0.028 C 
ATOM      7  C   UNL     1      21.326  -9.736  63.561  1.00  0.00     0.039 C 
ATOM      8  C   UNL     1      20.163  -9.696  64.519  1.00  0.00    -0.080 C 
ATOM      9  C   UNL     1      20.418  -9.470  65.991  1.00  0.00     0.039 C 
ENDBRANCH   5   6
ENDBRANCH   4   5
ENDBRANCH   1   4
BRANCH   2  10
ATOM     10  C   UNL     1      18.466 -12.322  68.507  1.00  0.00     0.035 C 
BRANCH  10  11
ATOM     11  C   UNL     1      19.591 -11.451  69.083  1.00  0.00     0.079 C 
BRANCH  11  12
ATOM     12  C   UNL     1      20.889 -12.202  69.264  1.00  0.00     0.130 C 
ATOM     13  O   UNL     1      21.303 -12.484  70.380  1.00  0.00    -0.300 OA
ATOM     14  C   UNL     1      21.682 -12.626  68.066  1.00  0.00     0.087 C 
ENDBRANCH  11  12
ENDBRANCH  10  11
ENDBRANCH   2  10
TORSDOF 6
ENDMDL
MODEL 5
REMARK VINA RESULT:    -4.859      3.108      5.892
REMARK INTER + INTRA:          -7.576
REMARK INTER:                  -6.502
REMARK INTRA:                  -1.074
REMARK UNBOUND:                -1.013
REMARK SMILES CC(=O)CCC=C(C)CCC=C(C)C
REMARK SMILES IDX 7 1 6 2 8 3 9 4 10 5 11 6 13 7 12 8 14 9 5 10 4 11 2 12 3 13
REMARK SMILES IDX 1 14
REMARK H PARENT
REMARK Flexibility Score: inf
ROOT
ATOM      1  C   UNL     1      17.465 -10.895  66.989  1.00  0.00    -0.077 C 
ATOM      2  C   UNL     1      16.723 -10.723  65.871  1.00  0.00    -0.028 C 
ATOM      3  C   UNL     1      17.714 -12.263  67.579  1.00  0.00     0.039 C 
ENDROOT
BRANCH   1   4
ATOM      4  C   UNL     1      18.046  -9.680  67.679  1.00  0.00     0.034 C 
BRANCH   4   5
ATOM      5  C   UNL     1      19.574  -9.668  67.564  1.00  0.00     0.032 C 
BRANCH   5   6
ATOM      6  C   UNL     1      20.002  -9.280  66.171  1.00  0.00    -0.028 C 
ATOM      7  C   UNL     1      20.911  -9.604  63.910  1.00  0.00     0.039 C 
ATOM      8  C   UNL     1      20.572 -10.126  65.283  1.00  0.00    -0.080 C 
ATOM      9  C   UNL     1      20.890 -11.560  65.635  1.00  0.00     0.039 C 
ENDBRANCH   5   6
ENDBRANCH   4   5
ENDBRANCH   1   4
BRANCH   2  10
ATOM     10  C   UNL     1      16.117 -11.847  65.066  1.00  0.00     0.035 C 
BRANCH  10  11
ATOM     11  C   UNL     1      17.112 -12.362  64.017  1.00  0.00     0.079 C 
BRANCH  11  12
ATOM     12  C   UNL     1      16.632 -12.165  62.598  1.00  0.00     0.130 C 
ATOM     13  O   UNL     1      17.122 -12.801  61.675  1.00  0.00    -0.300 OA
ATOM     14  C   UNL     1      15.532 -11.192  62.308  1.00  0.00     0.087 C 
ENDBRANCH  11  12
ENDBRANCH  10  11
ENDBRANCH   2  10
TORSDOF 6
ENDMDL
MODEL 6
REMARK VINA RESULT:    -4.816      1.359      1.931
REMARK INTER + INTRA:          -7.518
REMARK INTER:                  -6.900
REMARK INTRA:                  -0.618
REMARK UNBOUND:                -1.013
REMARK SMILES CC(=O)CCC=C(C)CCC=C(C)C
REMARK SMILES IDX 7 1 6 2 8 3 9 4 10 5 11 6 13 7 12 8 14 9 5 10 4 11 2 12 3 13
REMARK SMILES IDX 1 14
REMARK H PARENT
REMARK Flexibility Score: inf
ROOT
ATOM      1  C   UNL     1      17.297 -10.949  65.289  1.00  0.00    -0.077 C 
ATOM      2  C   UNL     1      17.806 -11.007  66.541  1.00  0.00    -0.028 C 
ATOM      3  C   UNL     1      16.588  -9.720  64.771  1.00  0.00     0.039 C 
ENDROOT
BRANCH   1   4
ATOM      4  C   UNL     1      17.425 -12.158  64.387  1.00  0.00     0.034 C 
BRANCH   4   5
ATOM      5  C   UNL     1      17.175 -11.774  62.924  1.00  0.00     0.032 C 
BRANCH   5   6
ATOM      6  C   UNL     1      16.041 -12.582  62.346  1.00  0.00    -0.028 C 
ATOM      7  C   UNL     1      13.889 -12.983  61.227  1.00  0.00     0.039 C 
ATOM      8  C   UNL     1      14.923 -12.049  61.803  1.00  0.00    -0.080 C 
ATOM      9  C   UNL     1      14.678 -10.558  61.777  1.00  0.00     0.039 C 
ENDBRANCH   5   6
ENDBRANCH   4   5
ENDBRANCH   1   4
BRANCH   2  10
ATOM     10  C   UNL     1      17.780  -9.866  67.528  1.00  0.00     0.035 C 
BRANCH  10  11
ATOM     11  C   UNL     1      19.204  -9.487  67.958  1.00  0.00     0.079 C 
BRANCH  11  12
ATOM     12  C   UNL     1      19.611 -10.109  69.273  1.00  0.00     0.130 C 
ATOM     13  O   UNL     1      19.509  -9.487  70.321  1.00  0.00    -0.300 OA
ATOM     14  C   UNL     1      20.134 -11.512  69.308  1.00  0.00     0.087 C 
ENDBRANCH  11  12
ENDBRANCH  10  11
ENDBRANCH   2  10
TORSDOF 6
ENDMDL
MODEL 7
REMARK VINA RESULT:    -4.728      2.985      6.145
REMARK INTER + INTRA:          -7.399
REMARK INTER:                  -6.433
REMARK INTRA:                  -0.966
REMARK UNBOUND:                -1.013
REMARK SMILES CC(=O)CCC=C(C)CCC=C(C)C
REMARK SMILES IDX 7 1 6 2 8 3 9 4 10 5 11 6 13 7 12 8 14 9 5 10 4 11 2 12 3 13
REMARK SMILES IDX 1 14
REMARK H PARENT
REMARK Flexibility Score: inf
ROOT
ATOM      1  C   UNL     1      15.615 -11.325  65.566  1.00  0.00    -0.077 C 
ATOM      2  C   UNL     1      15.899 -10.599  64.461  1.00  0.00    -0.028 C 
ATOM      3  C   UNL     1      14.296 -12.043  65.733  1.00  0.00     0.039 C 
ENDROOT
BRANCH   1   4
ATOM      4  C   UNL     1      16.641 -11.406  66.675  1.00  0.00     0.034 C 
BRANCH   4   5
ATOM      5  C   UNL     1      17.341 -10.056  66.868  1.00  0.00     0.032 C 
BRANCH   5   6
ATOM      6  C   UNL     1      18.824 -10.247  67.069  1.00  0.00    -0.028 C 
ATOM      7  C   UNL     1      21.209 -10.215  66.478  1.00  0.00     0.039 C 
ATOM      8  C   UNL     1      19.758 -10.020  66.119  1.00  0.00    -0.080 C 
ATOM      9  C   UNL     1      19.388  -9.598  64.716  1.00  0.00     0.039 C 
ENDBRANCH   5   6
ENDBRANCH   4   5
ENDBRANCH   1   4
BRANCH   2  10
ATOM     10  C   UNL     1      14.984 -10.464  63.268  1.00  0.00     0.035 C 
BRANCH  10  11
ATOM     11  C   UNL     1      15.687 -10.937  61.987  1.00  0.00     0.079 C 
BRANCH  11  12
ATOM     12  C   UNL     1      16.041 -12.405  62.013  1.00  0.00     0.130 C 
ATOM     13  O   UNL     1      17.204 -12.773  61.926  1.00  0.00    -0.300 OA
ATOM     14  C   UNL     1      14.962 -13.433  62.161  1.00  0.00     0.087 C 
ENDBRANCH  11  12
ENDBRANCH  10  11
ENDBRANCH   2  10
TORSDOF 6
ENDMDL
MODEL 8
REMARK VINA RESULT:    -4.723      3.053      4.988
REMARK INTER + INTRA:          -7.392
REMARK INTER:                  -6.575
REMARK INTRA:                  -0.817
REMARK UNBOUND:                -1.013
REMARK SMILES CC(=O)CCC=C(C)CCC=C(C)C
REMARK SMILES IDX 7 1 6 2 8 3 9 4 10 5 11 6 13 7 12 8 14 9 5 10 4 11 2 12 3 13
REMARK SMILES IDX 1 14
REMARK H PARENT
REMARK Flexibility Score: inf
ROOT
ATOM      1  C   UNL     1      18.960 -11.216  65.173  1.00  0.00    -0.077 C 
ATOM      2  C   UNL     1      19.827 -11.541  66.159  1.00  0.00    -0.028 C 
ATOM      3  C   UNL     1      17.680 -11.986  64.949  1.00  0.00     0.039 C 
ENDROOT
BRANCH   1   4
ATOM      4  C   UNL     1      19.291 -10.058  64.256  1.00  0.00     0.034 C 
BRANCH   4   5
ATOM      5  C   UNL     1      20.731  -9.583  64.478  1.00  0.00     0.032 C 
BRANCH   5   6
ATOM      6  C   UNL     1      21.572  -9.832  63.251  1.00  0.00    -0.028 C 
ATOM      7  C   UNL     1      23.457 -10.709  61.939  1.00  0.00     0.039 C 
ATOM      8  C   UNL     1      22.746 -10.502  63.252  1.00  0.00    -0.080 C 
ATOM      9  C   UNL     1      23.366 -11.028  64.526  1.00  0.00     0.039 C 
ENDBRANCH   5   6
ENDBRANCH   4   5
ENDBRANCH   1   4
BRANCH   2  10
ATOM     10  C   UNL     1      19.604 -12.644  67.164  1.00  0.00     0.035 C 
BRANCH  10  11
ATOM     11  C   UNL     1      18.875 -12.110  68.405  1.00  0.00     0.079 C 
BRANCH  11  12
ATOM     12  C   UNL     1      19.755 -11.256  69.287  1.00  0.00     0.130 C 
ATOM     13  O   UNL     1      20.673 -11.751  69.927  1.00  0.00    -0.300 OA
ATOM     14  C   UNL     1      19.518  -9.780  69.378  1.00  0.00     0.087 C 
ENDBRANCH  11  12
ENDBRANCH  10  11
ENDBRANCH   2  10
TORSDOF 6
ENDMDL
MODEL 9
REMARK VINA RESULT:    -4.630      1.037      1.679
REMARK INTER + INTRA:          -7.268
REMARK INTER:                  -6.181
REMARK INTRA:                  -1.087
REMARK UNBOUND:                -1.013
REMARK SMILES CC(=O)CCC=C(C)CCC=C(C)C
REMARK SMILES IDX 7 1 6 2 8 3 9 4 10 5 11 6 13 7 12 8 14 9 5 10 4 11 2 12 3 13
REMARK SMILES IDX 1 14
REMARK H PARENT
REMARK Flexibility Score: inf
ROOT
ATOM      1  C   UNL     1      17.809 -11.303  65.707  1.00  0.00    -0.077 C 
ATOM      2  C   UNL     1      18.053 -12.403  66.454  1.00  0.00    -0.028 C 
ATOM      3  C   UNL     1      17.370  -9.997  66.327  1.00  0.00     0.039 C 
ENDROOT
BRANCH   1   4
ATOM      4  C   UNL     1      17.961 -11.388  64.203  1.00  0.00     0.034 C 
BRANCH   4   5
ATOM      5  C   UNL     1      16.736 -12.056  63.570  1.00  0.00     0.032 C 
BRANCH   5   6
ATOM      6  C   UNL     1      15.704 -11.025  63.184  1.00  0.00    -0.028 C 
ATOM      7  C   UNL     1      13.634  -9.714  63.377  1.00  0.00     0.039 C 
ATOM      8  C   UNL     1      14.552 -10.808  63.858  1.00  0.00    -0.080 C 
ATOM      9  C   UNL     1      14.159 -11.637  65.058  1.00  0.00     0.039 C 
ENDBRANCH   5   6
ENDBRANCH   4   5
ENDBRANCH   1   4
BRANCH   2  10
ATOM     10  C   UNL     1      17.975 -12.447  67.961  1.00  0.00     0.035 C 
BRANCH  10  11
ATOM     11  C   UNL     1      19.376 -12.579  68.574  1.00  0.00     0.079 C 
BRANCH  11  12
ATOM     12  C   UNL     1      20.031 -11.245  68.848  1.00  0.00     0.130 C 
ATOM     13  O   UNL     1      19.956 -10.723  69.951  1.00  0.00    -0.300 OA
ATOM     14  C   UNL     1      20.796 -10.550  67.764  1.00  0.00     0.087 C 
ENDBRANCH  11  12
ENDBRANCH  10  11
ENDBRANCH   2  10
TORSDOF 6
ENDMDL
