MODEL 1
REMARK VINA RESULT:    -4.418      0.000      0.000
REMARK INTER + INTRA:          -5.725
REMARK INTER:                  -5.452
REMARK INTRA:                  -0.273
REMARK UNBOUND:                -0.273
REMARK SMILES C=CC[C@@H](C)C(=O)CC
REMARK SMILES IDX 4 1 5 2 6 3 7 4 8 5 9 6 3 7 2 8 1 9
REMARK H PARENT
REMARK Flexibility Score: inf
ROOT
ATOM      1  C   UNL     1      28.117   7.300  19.292  1.00  0.00     0.057 C 
ATOM      2  C   UNL     1      29.125   6.181  19.591  1.00  0.00     0.016 C 
ENDROOT
BRANCH   1   3
ATOM      3  C   UNL     1      26.735   6.709  19.109  1.00  0.00     0.135 C 
ATOM      4  O   UNL     1      26.579   5.751  18.365  1.00  0.00    -0.299 OA
BRANCH   3   5
ATOM      5  C   UNL     1      25.543   7.276  19.836  1.00  0.00     0.072 C 
ATOM      6  C   UNL     1      24.262   6.570  19.404  1.00  0.00     0.012 C 
ENDBRANCH   3   5
ENDBRANCH   1   3
BRANCH   1   7
ATOM      7  C   UNL     1      28.094   8.360  20.410  1.00  0.00     0.038 C 
BRANCH   7   8
ATOM      8  C   UNL     1      28.839   9.605  20.008  1.00  0.00    -0.034 C 
ATOM      9  C   UNL     1      28.644  10.196  18.826  1.00  0.00     0.004 C 
ENDBRANCH   7   8
ENDBRANCH   1   7
TORSDOF 4
ENDMDL
MODEL 2
REMARK VINA RESULT:    -4.392      1.955      3.784
REMARK INTER + INTRA:          -5.692
REMARK INTER:                  -5.413
REMARK INTRA:                  -0.279
REMARK UNBOUND:                -0.273
REMARK SMILES C=CC[C@@H](C)C(=O)CC
REMARK SMILES IDX 4 1 5 2 6 3 7 4 8 5 9 6 3 7 2 8 1 9
REMARK H PARENT
REMARK Flexibility Score: inf
ROOT
ATOM      1  C   UNL     1      27.712   7.741  20.064  1.00  0.00     0.057 C 
ATOM      2  C   UNL     1      28.910   6.988  19.469  1.00  0.00     0.016 C 
ENDROOT
BRANCH   1   3
ATOM      3  C   UNL     1      28.065   9.202  20.249  1.00  0.00     0.135 C 
ATOM      4  O   UNL     1      28.569   9.825  19.325  1.00  0.00    -0.299 OA
BRANCH   3   5
ATOM      5  C   UNL     1      27.797   9.910  21.552  1.00  0.00     0.072 C 
ATOM      6  C   UNL     1      27.084   8.984  22.532  1.00  0.00     0.012 C 
ENDBRANCH   3   5
ENDBRANCH   1   3
BRANCH   1   7
ATOM      7  C   UNL     1      26.457   7.610  19.179  1.00  0.00     0.038 C 
BRANCH   7   8
ATOM      8  C   UNL     1      25.474   6.624  19.753  1.00  0.00    -0.034 C 
ATOM      9  C   UNL     1      24.173   6.667  19.454  1.00  0.00     0.004 C 
ENDBRANCH   7   8
ENDBRANCH   1   7
TORSDOF 4
ENDMDL
MODEL 3
REMARK VINA RESULT:    -3.934      1.748      2.447
REMARK INTER + INTRA:          -5.127
REMARK INTER:                  -5.193
REMARK INTRA:                   0.066
REMARK UNBOUND:                -0.273
REMARK SMILES C=CC[C@@H](C)C(=O)CC
REMARK SMILES IDX 4 1 5 2 6 3 7 4 8 5 9 6 3 7 2 8 1 9
REMARK H PARENT
REMARK Flexibility Score: inf
ROOT
ATOM      1  C   UNL     1      27.588   7.941  19.761  1.00  0.00     0.057 C 
ATOM      2  C   UNL     1      28.894   8.744  19.683  1.00  0.00     0.016 C 
ENDROOT
BRANCH   1   3
ATOM      3  C   UNL     1      27.805   6.552  19.198  1.00  0.00     0.135 C 
ATOM      4  O   UNL     1      28.883   5.996  19.355  1.00  0.00    -0.299 OA
BRANCH   3   5
ATOM      5  C   UNL     1      26.711   5.835  18.451  1.00  0.00     0.072 C 
ATOM      6  C   UNL     1      25.389   5.935  19.203  1.00  0.00     0.012 C 
ENDBRANCH   3   5
ENDBRANCH   1   3
BRANCH   1   7
ATOM      7  C   UNL     1      27.061   7.847  21.206  1.00  0.00     0.038 C 
BRANCH   7   8
ATOM      8  C   UNL     1      27.230   9.150  21.943  1.00  0.00    -0.034 C 
ATOM      9  C   UNL     1      26.934   9.272  23.240  1.00  0.00     0.004 C 
ENDBRANCH   7   8
ENDBRANCH   1   7
TORSDOF 4
ENDMDL
MODEL 4
REMARK VINA RESULT:    -3.524     12.346     13.292
REMARK INTER + INTRA:          -4.621
REMARK INTER:                  -4.169
REMARK INTRA:                  -0.452
REMARK UNBOUND:                -0.273
REMARK SMILES C=CC[C@@H](C)C(=O)CC
REMARK SMILES IDX 4 1 5 2 6 3 7 4 8 5 9 6 3 7 2 8 1 9
REMARK H PARENT
REMARK Flexibility Score: inf
ROOT
ATOM      1  C   UNL     1      16.051   7.354  25.481  1.00  0.00     0.057 C 
ATOM      2  C   UNL     1      16.378   6.198  26.436  1.00  0.00     0.016 C 
ENDROOT
BRANCH   1   3
ATOM      3  C   UNL     1      14.648   7.856  25.746  1.00  0.00     0.135 C 
ATOM      4  O   UNL     1      14.392   8.409  26.807  1.00  0.00    -0.299 OA
BRANCH   3   5
ATOM      5  C   UNL     1      13.556   7.697  24.720  1.00  0.00     0.072 C 
ATOM      6  C   UNL     1      14.143   7.327  23.361  1.00  0.00     0.012 C 
ENDBRANCH   3   5
ENDBRANCH   1   3
BRANCH   1   7
ATOM      7  C   UNL     1      17.060   8.511  25.619  1.00  0.00     0.038 C 
BRANCH   7   8
ATOM      8  C   UNL     1      16.897   9.522  24.515  1.00  0.00    -0.034 C 
ATOM      9  C   UNL     1      16.617  10.804  24.765  1.00  0.00     0.004 C 
ENDBRANCH   7   8
ENDBRANCH   1   7
TORSDOF 4
ENDMDL
MODEL 5
REMARK VINA RESULT:    -3.439     12.376     13.789
REMARK INTER + INTRA:          -4.516
REMARK INTER:                  -4.053
REMARK INTRA:                  -0.464
REMARK UNBOUND:                -0.273
REMARK SMILES C=CC[C@@H](C)C(=O)CC
REMARK SMILES IDX 4 1 5 2 6 3 7 4 8 5 9 6 3 7 2 8 1 9
REMARK H PARENT
REMARK Flexibility Score: inf
ROOT
ATOM      1  C   UNL     1      15.604   7.802  25.656  1.00  0.00     0.057 C 
ATOM      2  C   UNL     1      16.193   6.468  26.135  1.00  0.00     0.016 C 
ENDROOT
BRANCH   1   3
ATOM      3  C   UNL     1      16.711   8.823  25.499  1.00  0.00     0.135 C 
ATOM      4  O   UNL     1      17.861   8.448  25.317  1.00  0.00    -0.299 OA
BRANCH   3   5
ATOM      5  C   UNL     1      16.422  10.301  25.553  1.00  0.00     0.072 C 
ATOM      6  C   UNL     1      15.552  10.637  26.760  1.00  0.00     0.012 C 
ENDBRANCH   3   5
ENDBRANCH   1   3
BRANCH   1   7
ATOM      7  C   UNL     1      14.839   7.646  24.328  1.00  0.00     0.038 C 
BRANCH   7   8
ATOM      8  C   UNL     1      13.349   7.688  24.539  1.00  0.00    -0.034 C 
ATOM      9  C   UNL     1      12.792   8.424  25.505  1.00  0.00     0.004 C 
ENDBRANCH   7   8
ENDBRANCH   1   7
TORSDOF 4
ENDMDL
MODEL 6
REMARK VINA RESULT:    -3.351     12.196     13.669
REMARK INTER + INTRA:          -4.407
REMARK INTER:                  -3.971
REMARK INTRA:                  -0.437
REMARK UNBOUND:                -0.273
REMARK SMILES C=CC[C@@H](C)C(=O)CC
REMARK SMILES IDX 4 1 5 2 6 3 7 4 8 5 9 6 3 7 2 8 1 9
REMARK H PARENT
REMARK Flexibility Score: inf
ROOT
ATOM      1  C   UNL     1      16.647  10.787  25.448  1.00  0.00     0.057 C 
ATOM      2  C   UNL     1      16.529  12.014  24.534  1.00  0.00     0.016 C 
ENDROOT
BRANCH   1   3
ATOM      3  C   UNL     1      15.451  10.721  26.375  1.00  0.00     0.135 C 
ATOM      4  O   UNL     1      15.543  11.157  27.514  1.00  0.00    -0.299 OA
BRANCH   3   5
ATOM      5  C   UNL     1      14.141  10.135  25.917  1.00  0.00     0.072 C 
ATOM      6  C   UNL     1      13.683   9.031  26.864  1.00  0.00     0.012 C 
ENDBRANCH   3   5
ENDBRANCH   1   3
BRANCH   1   7
ATOM      7  C   UNL     1      16.758   9.481  24.638  1.00  0.00     0.038 C 
BRANCH   7   8
ATOM      8  C   UNL     1      17.490   8.413  25.407  1.00  0.00    -0.034 C 
ATOM      9  C   UNL     1      16.876   7.312  25.848  1.00  0.00     0.004 C 
ENDBRANCH   7   8
ENDBRANCH   1   7
TORSDOF 4
ENDMDL
MODEL 7
REMARK VINA RESULT:    -3.346     11.977     14.086
REMARK INTER + INTRA:          -4.401
REMARK INTER:                  -4.034
REMARK INTRA:                  -0.367
REMARK UNBOUND:                -0.273
REMARK SMILES C=CC[C@@H](C)C(=O)CC
REMARK SMILES IDX 4 1 5 2 6 3 7 4 8 5 9 6 3 7 2 8 1 9
REMARK H PARENT
REMARK Flexibility Score: inf
ROOT
ATOM      1  C   UNL     1      14.546   8.341  25.524  1.00  0.00     0.057 C 
ATOM      2  C   UNL     1      13.839   8.963  26.736  1.00  0.00     0.016 C 
ENDROOT
BRANCH   1   3
ATOM      3  C   UNL     1      15.609   7.369  25.994  1.00  0.00     0.135 C 
ATOM      4  O   UNL     1      15.279   6.349  26.583  1.00  0.00    -0.299 OA
BRANCH   3   5
ATOM      5  C   UNL     1      17.070   7.630  25.739  1.00  0.00     0.072 C 
ATOM      6  C   UNL     1      17.252   8.831  24.817  1.00  0.00     0.012 C 
ENDBRANCH   3   5
ENDBRANCH   1   3
BRANCH   1   7
ATOM      7  C   UNL     1      13.553   7.625  24.589  1.00  0.00     0.038 C 
BRANCH   7   8
ATOM      8  C   UNL     1      14.184   7.288  23.264  1.00  0.00    -0.034 C 
ATOM      9  C   UNL     1      13.455   7.102  22.160  1.00  0.00     0.004 C 
ENDBRANCH   7   8
ENDBRANCH   1   7
TORSDOF 4
ENDMDL
MODEL 8
REMARK VINA RESULT:    -3.280     12.204     12.826
REMARK INTER + INTRA:          -4.319
REMARK INTER:                  -4.155
REMARK INTRA:                  -0.164
REMARK UNBOUND:                -0.273
REMARK SMILES C=CC[C@@H](C)C(=O)CC
REMARK SMILES IDX 4 1 5 2 6 3 7 4 8 5 9 6 3 7 2 8 1 9
REMARK H PARENT
REMARK Flexibility Score: inf
ROOT
ATOM      1  C   UNL     1      16.293   9.913  25.748  1.00  0.00     0.057 C 
ATOM      2  C   UNL     1      14.777   9.956  25.984  1.00  0.00     0.016 C 
ENDROOT
BRANCH   1   3
ATOM      3  C   UNL     1      16.728   8.490  25.470  1.00  0.00     0.135 C 
ATOM      4  O   UNL     1      17.869   8.269  25.091  1.00  0.00    -0.299 OA
BRANCH   3   5
ATOM      5  C   UNL     1      15.781   7.334  25.662  1.00  0.00     0.072 C 
ATOM      6  C   UNL     1      16.458   6.203  26.427  1.00  0.00     0.012 C 
ENDBRANCH   3   5
ENDBRANCH   1   3
BRANCH   1   7
ATOM      7  C   UNL     1      16.716  10.831  24.585  1.00  0.00     0.038 C 
BRANCH   7   8
ATOM      8  C   UNL     1      16.234  12.243  24.789  1.00  0.00    -0.034 C 
ATOM      9  C   UNL     1      17.068  13.286  24.762  1.00  0.00     0.004 C 
ENDBRANCH   7   8
ENDBRANCH   1   7
TORSDOF 4
ENDMDL
MODEL 9
REMARK VINA RESULT:    -3.253     11.953     14.215
REMARK INTER + INTRA:          -4.287
REMARK INTER:                  -3.800
REMARK INTRA:                  -0.487
REMARK UNBOUND:                -0.273
REMARK SMILES C=CC[C@@H](C)C(=O)CC
REMARK SMILES IDX 4 1 5 2 6 3 7 4 8 5 9 6 3 7 2 8 1 9
REMARK H PARENT
REMARK Flexibility Score: inf
ROOT
ATOM      1  C   UNL     1      13.787   7.947  25.852  1.00  0.00     0.057 C 
ATOM      2  C   UNL     1      12.704   8.392  24.860  1.00  0.00     0.016 C 
ENDROOT
BRANCH   1   3
ATOM      3  C   UNL     1      15.056   7.596  25.103  1.00  0.00     0.135 C 
ATOM      4  O   UNL     1      15.101   7.737  23.890  1.00  0.00    -0.299 OA
BRANCH   3   5
ATOM      5  C   UNL     1      16.273   7.084  25.829  1.00  0.00     0.072 C 
ATOM      6  C   UNL     1      17.474   7.989  25.575  1.00  0.00     0.012 C 
ENDBRANCH   3   5
ENDBRANCH   1   3
BRANCH   1   7
ATOM      7  C   UNL     1      14.080   9.034  26.905  1.00  0.00     0.038 C 
BRANCH   7   8
ATOM      8  C   UNL     1      14.463  10.340  26.261  1.00  0.00    -0.034 C 
ATOM      9  C   UNL     1      15.513  11.053  26.676  1.00  0.00     0.004 C 
ENDBRANCH   7   8
ENDBRANCH   1   7
TORSDOF 4
ENDMDL
