MODEL 1
REMARK VINA RESULT:    -2.445      0.000      0.000
REMARK INTER + INTRA:          -2.445
REMARK INTER:                  -2.445
REMARK INTRA:                   0.000
REMARK UNBOUND:                 0.000
REMARK SMILES CC(=O)[O-]
REMARK SMILES IDX 1 1 2 2 3 3 4 4
REMARK H PARENT
REMARK Flexibility Score: inf
ROOT
ATOM      1  C   UNL     1      15.780  15.725  38.214  1.00  0.00     0.063 C 
ATOM      2  C   UNL     1      14.838  14.614  37.895  1.00  0.00     0.038 C 
ATOM      3  O   UNL     1      14.875  13.544  38.559  1.00  0.00    -0.550 OA
ATOM      4  O   UNL     1      13.953  14.736  36.833  1.00  0.00    -0.550 OA
ENDROOT
TORSDOF 0
ENDMDL
MODEL 2
REMARK VINA RESULT:    -2.437      0.130      1.621
REMARK INTER + INTRA:          -2.437
REMARK INTER:                  -2.437
REMARK INTRA:                   0.000
REMARK UNBOUND:                 0.000
REMARK SMILES CC(=O)[O-]
REMARK SMILES IDX 1 1 2 2 3 3 4 4
REMARK H PARENT
REMARK Flexibility Score: inf
ROOT
ATOM      1  C   UNL     1      15.775  15.680  38.152  1.00  0.00     0.063 C 
ATOM      2  C   UNL     1      14.782  14.609  37.854  1.00  0.00     0.038 C 
ATOM      3  O   UNL     1      13.996  14.731  36.877  1.00  0.00    -0.550 OA
ATOM      4  O   UNL     1      14.685  13.499  38.681  1.00  0.00    -0.550 OA
ENDROOT
TORSDOF 0
ENDMDL
MODEL 3
REMARK VINA RESULT:    -2.406      9.259      9.836
REMARK INTER + INTRA:          -2.406
REMARK INTER:                  -2.406
REMARK INTRA:                   0.000
REMARK UNBOUND:                 0.000
REMARK SMILES CC(=O)[O-]
REMARK SMILES IDX 1 1 2 2 3 3 4 4
REMARK H PARENT
REMARK Flexibility Score: inf
ROOT
ATOM      1  C   UNL     1       9.850  17.778  30.483  1.00  0.00     0.063 C 
ATOM      2  C   UNL     1       8.982  18.634  31.341  1.00  0.00     0.038 C 
ATOM      3  O   UNL     1       8.591  19.757  30.924  1.00  0.00    -0.550 OA
ATOM      4  O   UNL     1       8.644  18.220  32.623  1.00  0.00    -0.550 OA
ENDROOT
TORSDOF 0
ENDMDL
MODEL 4
REMARK VINA RESULT:    -2.341      1.331      1.699
REMARK INTER + INTRA:          -2.341
REMARK INTER:                  -2.341
REMARK INTRA:                   0.000
REMARK UNBOUND:                 0.000
REMARK SMILES CC(=O)[O-]
REMARK SMILES IDX 1 1 2 2 3 3 4 4
REMARK H PARENT
REMARK Flexibility Score: inf
ROOT
ATOM      1  C   UNL     1      14.672  13.521  38.680  1.00  0.00     0.063 C 
ATOM      2  C   UNL     1      14.930  14.756  37.886  1.00  0.00     0.038 C 
ATOM      3  O   UNL     1      15.835  15.557  38.240  1.00  0.00    -0.550 OA
ATOM      4  O   UNL     1      14.140  15.054  36.783  1.00  0.00    -0.550 OA
ENDROOT
TORSDOF 0
ENDMDL
MODEL 5
REMARK VINA RESULT:    -2.226      9.158      9.744
REMARK INTER + INTRA:          -2.226
REMARK INTER:                  -2.226
REMARK INTRA:                   0.000
REMARK UNBOUND:                 0.000
REMARK SMILES CC(=O)[O-]
REMARK SMILES IDX 1 1 2 2 3 3 4 4
REMARK H PARENT
REMARK Flexibility Score: inf
ROOT
ATOM      1  C   UNL     1       9.015  18.275  32.526  1.00  0.00     0.063 C 
ATOM      2  C   UNL     1       9.203  18.509  31.066  1.00  0.00     0.038 C 
ATOM      3  O   UNL     1       9.977  17.768  30.402  1.00  0.00    -0.550 OA
ATOM      4  O   UNL     1       8.567  19.574  30.443  1.00  0.00    -0.550 OA
ENDROOT
TORSDOF 0
ENDMDL
MODEL 6
REMARK VINA RESULT:    -2.218      2.065      2.240
REMARK INTER + INTRA:          -2.218
REMARK INTER:                  -2.218
REMARK INTRA:                   0.000
REMARK UNBOUND:                 0.000
REMARK SMILES CC(=O)[O-]
REMARK SMILES IDX 1 1 2 2 3 3 4 4
REMARK H PARENT
REMARK Flexibility Score: inf
ROOT
ATOM      1  C   UNL     1      15.763  17.874  38.137  1.00  0.00     0.063 C 
ATOM      2  C   UNL     1      15.165  16.541  38.435  1.00  0.00     0.038 C 
ATOM      3  O   UNL     1      15.877  15.503  38.382  1.00  0.00    -0.550 OA
ATOM      4  O   UNL     1      13.811  16.434  38.721  1.00  0.00    -0.550 OA
ENDROOT
TORSDOF 0
ENDMDL
MODEL 7
REMARK VINA RESULT:    -2.190      4.690      4.956
REMARK INTER + INTRA:          -2.190
REMARK INTER:                  -2.190
REMARK INTRA:                   0.000
REMARK UNBOUND:                 0.000
REMARK SMILES CC(=O)[O-]
REMARK SMILES IDX 1 1 2 2 3 3 4 4
REMARK H PARENT
REMARK Flexibility Score: inf
ROOT
ATOM      1  C   UNL     1      18.047  17.412  34.099  1.00  0.00     0.063 C 
ATOM      2  C   UNL     1      18.156  16.163  34.905  1.00  0.00     0.038 C 
ATOM      3  O   UNL     1      17.528  16.056  35.992  1.00  0.00    -0.550 OA
ATOM      4  O   UNL     1      18.991  15.135  34.487  1.00  0.00    -0.550 OA
ENDROOT
TORSDOF 0
ENDMDL
MODEL 8
REMARK VINA RESULT:    -2.155      3.542      3.826
REMARK INTER + INTRA:          -2.155
REMARK INTER:                  -2.155
REMARK INTRA:                   0.000
REMARK UNBOUND:                 0.000
REMARK SMILES CC(=O)[O-]
REMARK SMILES IDX 1 1 2 2 3 3 4 4
REMARK H PARENT
REMARK Flexibility Score: inf
ROOT
ATOM      1  C   UNL     1      17.215  18.083  35.957  1.00  0.00     0.063 C 
ATOM      2  C   UNL     1      17.309  16.610  36.169  1.00  0.00     0.038 C 
ATOM      3  O   UNL     1      16.631  16.057  37.076  1.00  0.00    -0.550 OA
ATOM      4  O   UNL     1      18.183  15.850  35.403  1.00  0.00    -0.550 OA
ENDROOT
TORSDOF 0
ENDMDL
MODEL 9
REMARK VINA RESULT:    -2.130      3.589      4.018
REMARK INTER + INTRA:          -2.130
REMARK INTER:                  -2.130
REMARK INTRA:                   0.000
REMARK UNBOUND:                 0.000
REMARK SMILES CC(=O)[O-]
REMARK SMILES IDX 1 1 2 2 3 3 4 4
REMARK H PARENT
REMARK Flexibility Score: inf
ROOT
ATOM      1  C   UNL     1      17.130  18.492  35.758  1.00  0.00     0.063 C 
ATOM      2  C   UNL     1      16.709  17.669  36.928  1.00  0.00     0.038 C 
ATOM      3  O   UNL     1      16.202  18.223  37.940  1.00  0.00    -0.550 OA
ATOM      4  O   UNL     1      16.922  16.297  36.927  1.00  0.00    -0.550 OA
ENDROOT
TORSDOF 0
ENDMDL
