MODEL 1
REMARK VINA RESULT:    -2.975      0.000      0.000
REMARK INTER + INTRA:          -3.927
REMARK INTER:                  -3.671
REMARK INTRA:                  -0.256
REMARK UNBOUND:                -0.256
REMARK SMILES CCCCC(=O)CC
REMARK SMILES IDX 4 1 3 2 2 3 1 4 5 5 6 6 7 7 8 8
REMARK H PARENT
REMARK Flexibility Score: inf
ROOT
ATOM      1  C   UNL     1     159.226 164.977 167.296  1.00  0.00     0.075 C 
ENDROOT
BRANCH   1   2
ATOM      2  C   UNL     1     160.501 164.134 167.181  1.00  0.00     0.008 C 
BRANCH   2   3
ATOM      3  C   UNL     1     161.480 164.458 168.315  1.00  0.00    -0.003 C 
ATOM      4  C   UNL     1     162.846 164.863 167.767  1.00  0.00     0.004 C 
ENDBRANCH   2   3
ENDBRANCH   1   2
BRANCH   1   5
ATOM      5  C   UNL     1     158.483 164.645 168.563  1.00  0.00     0.132 C 
ATOM      6  O   UNL     1     158.223 165.538 169.357  1.00  0.00    -0.300 OA
BRANCH   5   7
ATOM      7  C   UNL     1     158.034 163.239 168.861  1.00  0.00     0.072 C 
ATOM      8  C   UNL     1     158.689 162.720 170.136  1.00  0.00     0.012 C 
ENDBRANCH   5   7
ENDBRANCH   1   5
TORSDOF 4
ENDMDL
MODEL 2
REMARK VINA RESULT:    -2.972      1.393      3.384
REMARK INTER + INTRA:          -3.923
REMARK INTER:                  -3.562
REMARK INTRA:                  -0.361
REMARK UNBOUND:                -0.256
REMARK SMILES CCCCC(=O)CC
REMARK SMILES IDX 4 1 3 2 2 3 1 4 5 5 6 6 7 7 8 8
REMARK H PARENT
REMARK Flexibility Score: inf
ROOT
ATOM      1  C   UNL     1     160.301 164.422 169.467  1.00  0.00     0.075 C 
ENDROOT
BRANCH   1   2
ATOM      2  C   UNL     1     159.839 163.217 170.293  1.00  0.00     0.008 C 
BRANCH   2   3
ATOM      3  C   UNL     1     159.586 161.999 169.398  1.00  0.00    -0.003 C 
ATOM      4  C   UNL     1     158.170 161.461 169.585  1.00  0.00     0.004 C 
ENDBRANCH   2   3
ENDBRANCH   1   2
BRANCH   1   5
ATOM      5  C   UNL     1     159.173 164.951 168.622  1.00  0.00     0.132 C 
ATOM      6  O   UNL     1     158.168 165.385 169.167  1.00  0.00    -0.300 OA
BRANCH   5   7
ATOM      7  C   UNL     1     159.266 164.976 167.119  1.00  0.00     0.072 C 
ATOM      8  C   UNL     1     160.605 164.418 166.650  1.00  0.00     0.012 C 
ENDBRANCH   5   7
ENDBRANCH   1   5
TORSDOF 4
ENDMDL
MODEL 3
REMARK VINA RESULT:    -2.968      8.409      9.511
REMARK INTER + INTRA:          -3.918
REMARK INTER:                  -3.566
REMARK INTRA:                  -0.353
REMARK UNBOUND:                -0.256
REMARK SMILES CCCCC(=O)CC
REMARK SMILES IDX 4 1 3 2 2 3 1 4 5 5 6 6 7 7 8 8
REMARK H PARENT
REMARK Flexibility Score: inf
ROOT
ATOM      1  C   UNL     1     166.823 160.250 169.421  1.00  0.00     0.075 C 
ENDROOT
BRANCH   1   2
ATOM      2  C   UNL     1     167.975 159.718 170.280  1.00  0.00     0.008 C 
BRANCH   2   3
ATOM      3  C   UNL     1     169.256 159.568 169.453  1.00  0.00    -0.003 C 
ATOM      4  C   UNL     1     169.780 158.135 169.501  1.00  0.00     0.004 C 
ENDBRANCH   2   3
ENDBRANCH   1   2
BRANCH   1   5
ATOM      5  C   UNL     1     166.283 159.165 168.526  1.00  0.00     0.132 C 
ATOM      6  O   UNL     1     165.827 158.148 169.027  1.00  0.00    -0.300 OA
BRANCH   5   7
ATOM      7  C   UNL     1     166.275 159.318 167.029  1.00  0.00     0.072 C 
ATOM      8  C   UNL     1     166.790 160.695 166.621  1.00  0.00     0.012 C 
ENDBRANCH   5   7
ENDBRANCH   1   5
TORSDOF 4
ENDMDL
MODEL 4
REMARK VINA RESULT:    -2.964      7.475      8.951
REMARK INTER + INTRA:          -3.914
REMARK INTER:                  -3.669
REMARK INTRA:                  -0.244
REMARK UNBOUND:                -0.256
REMARK SMILES CCCCC(=O)CC
REMARK SMILES IDX 4 1 3 2 2 3 1 4 5 5 6 6 7 7 8 8
REMARK H PARENT
REMARK Flexibility Score: inf
ROOT
ATOM      1  C   UNL     1     164.894 172.103 167.337  1.00  0.00     0.075 C 
ENDROOT
BRANCH   1   2
ATOM      2  C   UNL     1     164.123 170.788 167.185  1.00  0.00     0.008 C 
BRANCH   2   3
ATOM      3  C   UNL     1     164.452 169.821 168.328  1.00  0.00    -0.003 C 
ATOM      4  C   UNL     1     164.830 168.442 167.793  1.00  0.00     0.004 C 
ENDBRANCH   2   3
ENDBRANCH   1   2
BRANCH   1   5
ATOM      5  C   UNL     1     164.543 172.777 168.638  1.00  0.00     0.132 C 
ATOM      6  O   UNL     1     165.430 173.031 169.440  1.00  0.00    -0.300 OA
BRANCH   5   7
ATOM      7  C   UNL     1     163.124 173.164 168.960  1.00  0.00     0.072 C 
ATOM      8  C   UNL     1     162.652 172.477 170.237  1.00  0.00     0.012 C 
ENDBRANCH   5   7
ENDBRANCH   1   5
TORSDOF 4
ENDMDL
MODEL 5
REMARK VINA RESULT:    -2.964      8.268      9.339
REMARK INTER + INTRA:          -3.914
REMARK INTER:                  -3.589
REMARK INTRA:                  -0.324
REMARK UNBOUND:                -0.256
REMARK SMILES CCCCC(=O)CC
REMARK SMILES IDX 4 1 3 2 2 3 1 4 5 5 6 6 7 7 8 8
REMARK H PARENT
REMARK Flexibility Score: inf
ROOT
ATOM      1  C   UNL     1     164.429 170.918 169.407  1.00  0.00     0.075 C 
ENDROOT
BRANCH   1   2
ATOM      2  C   UNL     1     163.202 171.388 170.195  1.00  0.00     0.008 C 
BRANCH   2   3
ATOM      3  C   UNL     1     162.017 171.658 169.262  1.00  0.00    -0.003 C 
ATOM      4  C   UNL     1     161.290 172.943 169.651  1.00  0.00     0.004 C 
ENDBRANCH   2   3
ENDBRANCH   1   2
BRANCH   1   5
ATOM      5  C   UNL     1     164.959 172.027 168.537  1.00  0.00     0.132 C 
ATOM      6  O   UNL     1     165.395 173.043 169.061  1.00  0.00    -0.300 OA
BRANCH   5   7
ATOM      7  C   UNL     1     164.982 171.902 167.037  1.00  0.00     0.072 C 
ATOM      8  C   UNL     1     164.420 170.554 166.597  1.00  0.00     0.012 C 
ENDBRANCH   5   7
ENDBRANCH   1   5
TORSDOF 4
ENDMDL
MODEL 6
REMARK VINA RESULT:    -2.958      9.982     12.732
REMARK INTER + INTRA:          -3.906
REMARK INTER:                  -3.698
REMARK INTRA:                  -0.209
REMARK UNBOUND:                -0.256
REMARK SMILES CCCCC(=O)CC
REMARK SMILES IDX 4 1 3 2 2 3 1 4 5 5 6 6 7 7 8 8
REMARK H PARENT
REMARK Flexibility Score: inf
ROOT
ATOM      1  C   UNL     1     171.996 166.286 167.229  1.00  0.00     0.075 C 
ENDROOT
BRANCH   1   2
ATOM      2  C   UNL     1     170.698 167.097 167.146  1.00  0.00     0.008 C 
BRANCH   2   3
ATOM      3  C   UNL     1     169.759 166.755 168.307  1.00  0.00    -0.003 C 
ATOM      4  C   UNL     1     168.373 166.364 167.800  1.00  0.00     0.004 C 
ENDBRANCH   2   3
ENDBRANCH   1   2
BRANCH   1   5
ATOM      5  C   UNL     1     172.729 166.587 168.509  1.00  0.00     0.132 C 
ATOM      6  O   UNL     1     173.047 165.666 169.248  1.00  0.00    -0.300 OA
BRANCH   5   7
ATOM      7  C   UNL     1     173.097 167.997 168.887  1.00  0.00     0.072 C 
ATOM      8  C   UNL     1     173.067 168.178 170.401  1.00  0.00     0.012 C 
ENDBRANCH   5   7
ENDBRANCH   1   5
TORSDOF 4
ENDMDL
MODEL 7
REMARK VINA RESULT:    -2.937      8.299      9.636
REMARK INTER + INTRA:          -3.881
REMARK INTER:                  -3.509
REMARK INTRA:                  -0.371
REMARK UNBOUND:                -0.256
REMARK SMILES CCCCC(=O)CC
REMARK SMILES IDX 4 1 3 2 2 3 1 4 5 5 6 6 7 7 8 8
REMARK H PARENT
REMARK Flexibility Score: inf
ROOT
ATOM      1  C   UNL     1     166.278 159.159 169.027  1.00  0.00     0.075 C 
ENDROOT
BRANCH   1   2
ATOM      2  C   UNL     1     166.170 158.886 167.523  1.00  0.00     0.008 C 
BRANCH   2   3
ATOM      3  C   UNL     1     166.581 160.117 166.708  1.00  0.00    -0.003 C 
ATOM      4  C   UNL     1     166.692 161.354 167.594  1.00  0.00     0.004 C 
ENDBRANCH   2   3
ENDBRANCH   1   2
BRANCH   1   5
ATOM      5  C   UNL     1     167.190 158.158 169.685  1.00  0.00     0.132 C 
ATOM      6  O   UNL     1     166.719 157.336 170.459  1.00  0.00    -0.300 OA
BRANCH   5   7
ATOM      7  C   UNL     1     168.667 158.135 169.393  1.00  0.00     0.072 C 
ATOM      8  C   UNL     1     169.279 159.518 169.589  1.00  0.00     0.012 C 
ENDBRANCH   5   7
ENDBRANCH   1   5
TORSDOF 4
ENDMDL
MODEL 8
REMARK VINA RESULT:    -2.884      1.176      1.732
REMARK INTER + INTRA:          -3.814
REMARK INTER:                  -3.473
REMARK INTRA:                  -0.342
REMARK UNBOUND:                -0.256
REMARK SMILES CCCCC(=O)CC
REMARK SMILES IDX 4 1 3 2 2 3 1 4 5 5 6 6 7 7 8 8
REMARK H PARENT
REMARK Flexibility Score: inf
ROOT
ATOM      1  C   UNL     1     158.936 164.932 168.979  1.00  0.00     0.075 C 
ENDROOT
BRANCH   1   2
ATOM      2  C   UNL     1     158.663 164.925 167.471  1.00  0.00     0.008 C 
BRANCH   2   3
ATOM      3  C   UNL     1     159.971 164.872 166.674  1.00  0.00    -0.003 C 
ATOM      4  C   UNL     1     161.138 164.441 167.558  1.00  0.00     0.004 C 
ENDBRANCH   2   3
ENDBRANCH   1   2
BRANCH   1   5
ATOM      5  C   UNL     1     158.127 163.865 169.669  1.00  0.00     0.132 C 
ATOM      6  O   UNL     1     157.254 164.192 170.460  1.00  0.00    -0.300 OA
BRANCH   5   7
ATOM      7  C   UNL     1     158.359 162.404 169.389  1.00  0.00     0.072 C 
ATOM      8  C   UNL     1     159.730 161.966 169.895  1.00  0.00     0.012 C 
ENDBRANCH   5   7
ENDBRANCH   1   5
TORSDOF 4
ENDMDL
MODEL 9
REMARK VINA RESULT:    -2.871     11.748     12.933
REMARK INTER + INTRA:          -3.799
REMARK INTER:                  -3.445
REMARK INTRA:                  -0.354
REMARK UNBOUND:                -0.256
REMARK SMILES CCCCC(=O)CC
REMARK SMILES IDX 4 1 3 2 2 3 1 4 5 5 6 6 7 7 8 8
REMARK H PARENT
REMARK Flexibility Score: inf
ROOT
ATOM      1  C   UNL     1     170.990 166.897 169.616  1.00  0.00     0.075 C 
ENDROOT
BRANCH   1   2
ATOM      2  C   UNL     1     171.472 168.103 170.429  1.00  0.00     0.008 C 
BRANCH   2   3
ATOM      3  C   UNL     1     171.624 169.342 169.541  1.00  0.00    -0.003 C 
ATOM      4  C   UNL     1     173.039 169.909 169.620  1.00  0.00     0.004 C 
ENDBRANCH   2   3
ENDBRANCH   1   2
BRANCH   1   5
ATOM      5  C   UNL     1     172.089 166.385 168.723  1.00  0.00     0.132 C 
ATOM      6  O   UNL     1     173.125 165.971 169.224  1.00  0.00    -0.300 OA
BRANCH   5   7
ATOM      7  C   UNL     1     171.930 166.354 167.226  1.00  0.00     0.072 C 
ATOM      8  C   UNL     1     170.513 166.751 166.823  1.00  0.00     0.012 C 
ENDBRANCH   5   7
ENDBRANCH   1   5
TORSDOF 4
ENDMDL
