MODEL 1
REMARK VINA RESULT:    -6.801      0.000      0.000
REMARK INTER + INTRA:          -7.397
REMARK INTER:                  -7.397
REMARK INTRA:                   0.000
REMARK UNBOUND:                 0.000
REMARK SMILES Cc1cc(O)c2c(c1)C(=O)c1cc(O)cc(O)c1C2=O
REMARK SMILES IDX 1 1 2 2 8 3 7 4 6 5 4 6 3 7 19 8 20 9 18 10 11 11 9 12 10 13
REMARK SMILES IDX 12 14 13 15 15 16 16 17 5 18 17 20 14 22
REMARK H PARENT 5 19 17 21 14 23
REMARK Flexibility Score: inf
ROOT
ATOM      1  C   UNL     1     -23.429  96.763 -31.784  1.00  0.00     0.044 C 
ATOM      2  C   UNL     1     -23.876  95.733 -30.788  1.00  0.00    -0.047 A 
ATOM      3  C   UNL     1     -23.531  94.388 -30.964  1.00  0.00     0.016 A 
ATOM      4  C   UNL     1     -23.980  93.410 -30.061  1.00  0.00     0.038 A 
ATOM      5  C   UNL     1     -24.813  93.778 -28.981  1.00  0.00     0.076 A 
ATOM      6  C   UNL     1     -25.123  95.148 -28.782  1.00  0.00     0.127 A 
ATOM      7  C   UNL     1     -24.679  96.102 -29.705  1.00  0.00     0.050 A 
ATOM      8  C   UNL     1     -25.387  92.698 -28.138  1.00  0.00     0.201 C 
ATOM      9  O   UNL     1     -26.507  92.864 -27.583  1.00  0.00    -0.288 OA
ATOM     10  C   UNL     1     -24.736  91.363 -28.102  1.00  0.00     0.076 A 
ATOM     11  C   UNL     1     -23.904  90.998 -29.185  1.00  0.00     0.041 A 
ATOM     12  C   UNL     1     -23.583  91.992 -30.236  1.00  0.00     0.194 C 
ATOM     13  O   UNL     1     -22.949  91.637 -31.268  1.00  0.00    -0.289 OA
ATOM     14  C   UNL     1     -23.382  89.696 -29.257  1.00  0.00     0.059 A 
ATOM     15  C   UNL     1     -23.666  88.762 -28.257  1.00  0.00     0.120 A 
ATOM     16  C   UNL     1     -24.453  89.131 -27.168  1.00  0.00     0.093 A 
ATOM     17  C   UNL     1     -24.968  90.426 -27.062  1.00  0.00     0.131 A 
ENDROOT
BRANCH   6  18
ATOM     18  O   UNL     1     -25.835  95.609 -27.673  1.00  0.00    -0.507 OA
ATOM     19  H   UNL     1     -26.332  96.488 -27.653  1.00  0.00     0.293 HD
ENDBRANCH   6  18
BRANCH  17  20
ATOM     20  O   UNL     1     -25.671  90.748 -25.899  1.00  0.00    -0.507 OA
ATOM     21  H   UNL     1     -26.515  90.275 -25.606  1.00  0.00     0.293 HD
ENDBRANCH  17  20
BRANCH  15  22
ATOM     22  O   UNL     1     -23.159  87.465 -28.332  1.00  0.00    -0.508 OA
ATOM     23  H   UNL     1     -22.219  87.245 -28.026  1.00  0.00     0.293 HD
ENDBRANCH  15  22
TORSDOF 3
ENDMDL
MODEL 2
REMARK VINA RESULT:    -6.547      6.705     10.004
REMARK INTER + INTRA:          -7.121
REMARK INTER:                  -7.121
REMARK INTRA:                   0.000
REMARK UNBOUND:                 0.000
REMARK SMILES Cc1cc(O)c2c(c1)C(=O)c1cc(O)cc(O)c1C2=O
REMARK SMILES IDX 1 1 2 2 8 3 7 4 6 5 4 6 3 7 19 8 20 9 18 10 11 11 9 12 10 13
REMARK SMILES IDX 12 14 13 15 15 16 16 17 5 18 17 20 14 22
REMARK H PARENT 5 19 17 21 14 23
REMARK Flexibility Score: inf
ROOT
ATOM      1  C   UNL     1     -22.983  89.171 -26.140  1.00  0.00     0.044 C 
ATOM      2  C   UNL     1     -23.260  87.841 -25.504  1.00  0.00    -0.047 A 
ATOM      3  C   UNL     1     -22.525  87.428 -24.386  1.00  0.00     0.016 A 
ATOM      4  C   UNL     1     -22.747  86.167 -23.810  1.00  0.00     0.038 A 
ATOM      5  C   UNL     1     -23.698  85.290 -24.378  1.00  0.00     0.076 A 
ATOM      6  C   UNL     1     -24.471  85.731 -25.483  1.00  0.00     0.127 A 
ATOM      7  C   UNL     1     -24.220  86.984 -26.051  1.00  0.00     0.050 A 
ATOM      8  C   UNL     1     -23.797  83.912 -23.832  1.00  0.00     0.201 C 
ATOM      9  O   UNL     1     -24.148  82.963 -24.584  1.00  0.00    -0.288 OA
ATOM     10  C   UNL     1     -23.304  83.624 -22.460  1.00  0.00     0.076 A 
ATOM     11  C   UNL     1     -22.352  84.502 -21.896  1.00  0.00     0.041 A 
ATOM     12  C   UNL     1     -21.987  85.751 -22.607  1.00  0.00     0.194 C 
ATOM     13  O   UNL     1     -21.047  86.473 -22.173  1.00  0.00    -0.289 OA
ATOM     14  C   UNL     1     -21.759  84.191 -20.661  1.00  0.00     0.059 A 
ATOM     15  C   UNL     1     -22.115  83.025 -19.978  1.00  0.00     0.120 A 
ATOM     16  C   UNL     1     -23.083  82.177 -20.512  1.00  0.00     0.093 A 
ATOM     17  C   UNL     1     -23.702  82.474 -21.730  1.00  0.00     0.131 A 
ENDROOT
BRANCH   6  18
ATOM     18  O   UNL     1     -25.514  84.976 -26.025  1.00  0.00    -0.507 OA
ATOM     19  H   UNL     1     -25.784  85.012 -26.997  1.00  0.00     0.293 HD
ENDBRANCH   6  18
BRANCH  17  20
ATOM     20  O   UNL     1     -24.727  81.626 -22.157  1.00  0.00    -0.507 OA
ATOM     21  H   UNL     1     -24.678  81.070 -23.000  1.00  0.00     0.293 HD
ENDBRANCH  17  20
BRANCH  15  22
ATOM     22  O   UNL     1     -21.519  82.706 -18.758  1.00  0.00    -0.508 OA
ATOM     23  H   UNL     1     -20.839  83.319 -18.324  1.00  0.00     0.293 HD
ENDBRANCH  15  22
TORSDOF 3
ENDMDL
MODEL 3
REMARK VINA RESULT:    -6.396      7.397     10.745
REMARK INTER + INTRA:          -6.957
REMARK INTER:                  -6.957
REMARK INTRA:                   0.000
REMARK UNBOUND:                 0.000
REMARK SMILES Cc1cc(O)c2c(c1)C(=O)c1cc(O)cc(O)c1C2=O
REMARK SMILES IDX 1 1 2 2 8 3 7 4 6 5 4 6 3 7 19 8 20 9 18 10 11 11 9 12 10 13
REMARK SMILES IDX 12 14 13 15 15 16 16 17 5 18 17 20 14 22
REMARK H PARENT 5 19 17 21 14 23
REMARK Flexibility Score: inf
ROOT
ATOM      1  C   UNL     1     -23.443  88.113 -26.052  1.00  0.00     0.044 C 
ATOM      2  C   UNL     1     -23.126  87.005 -25.091  1.00  0.00    -0.047 A 
ATOM      3  C   UNL     1     -23.894  85.834 -25.088  1.00  0.00     0.016 A 
ATOM      4  C   UNL     1     -23.633  84.810 -24.163  1.00  0.00     0.038 A 
ATOM      5  C   UNL     1     -22.606  84.970 -23.206  1.00  0.00     0.076 A 
ATOM      6  C   UNL     1     -21.803  86.138 -23.243  1.00  0.00     0.127 A 
ATOM      7  C   UNL     1     -22.093  87.153 -24.160  1.00  0.00     0.050 A 
ATOM      8  C   UNL     1     -22.459  83.931 -22.154  1.00  0.00     0.201 C 
ATOM      9  O   UNL     1     -22.018  84.248 -21.016  1.00  0.00    -0.288 OA
ATOM     10  C   UNL     1     -23.007  82.568 -22.380  1.00  0.00     0.076 A 
ATOM     11  C   UNL     1     -24.034  82.413 -23.337  1.00  0.00     0.041 A 
ATOM     12  C   UNL     1     -24.430  83.560 -24.187  1.00  0.00     0.194 C 
ATOM     13  O   UNL     1     -25.430  83.464 -24.952  1.00  0.00    -0.289 OA
ATOM     14  C   UNL     1     -24.672  81.169 -23.482  1.00  0.00     0.059 A 
ATOM     15  C   UNL     1     -24.288  80.080 -22.696  1.00  0.00     0.120 A 
ATOM     16  C   UNL     1     -23.248  80.219 -21.779  1.00  0.00     0.093 A 
ATOM     17  C   UNL     1     -22.583  81.440 -21.630  1.00  0.00     0.131 A 
ENDROOT
BRANCH   6  18
ATOM     18  O   UNL     1     -20.692  86.318 -22.414  1.00  0.00    -0.507 OA
ATOM     19  H   UNL     1     -20.343  87.224 -22.136  1.00  0.00     0.293 HD
ENDBRANCH   6  18
BRANCH  17  20
ATOM     20  O   UNL     1     -21.492  81.479 -20.758  1.00  0.00    -0.507 OA
ATOM     21  H   UNL     1     -20.923  80.673 -20.539  1.00  0.00     0.293 HD
ENDBRANCH  17  20
BRANCH  15  22
ATOM     22  O   UNL     1     -24.928  78.848 -22.828  1.00  0.00    -0.508 OA
ATOM     23  H   UNL     1     -24.648  78.044 -22.278  1.00  0.00     0.293 HD
ENDBRANCH  15  22
TORSDOF 3
ENDMDL
MODEL 4
REMARK VINA RESULT:    -6.329      6.148     10.037
REMARK INTER + INTRA:          -6.884
REMARK INTER:                  -6.884
REMARK INTRA:                   0.000
REMARK UNBOUND:                 0.000
REMARK SMILES Cc1cc(O)c2c(c1)C(=O)c1cc(O)cc(O)c1C2=O
REMARK SMILES IDX 1 1 2 2 8 3 7 4 6 5 4 6 3 7 19 8 20 9 18 10 11 11 9 12 10 13
REMARK SMILES IDX 12 14 13 15 15 16 16 17 5 18 17 20 14 22
REMARK H PARENT 5 19 17 21 14 23
REMARK Flexibility Score: inf
ROOT
ATOM      1  C   UNL     1     -22.285  81.406 -22.044  1.00  0.00     0.044 C 
ATOM      2  C   UNL     1     -22.404  82.826 -22.515  1.00  0.00    -0.047 A 
ATOM      3  C   UNL     1     -23.624  83.304 -23.007  1.00  0.00     0.016 A 
ATOM      4  C   UNL     1     -23.735  84.618 -23.491  1.00  0.00     0.038 A 
ATOM      5  C   UNL     1     -22.600  85.459 -23.511  1.00  0.00     0.076 A 
ATOM      6  C   UNL     1     -21.377  84.984 -22.971  1.00  0.00     0.127 A 
ATOM      7  C   UNL     1     -21.287  83.666 -22.511  1.00  0.00     0.050 A 
ATOM      8  C   UNL     1     -22.722  86.787 -24.166  1.00  0.00     0.201 C 
ATOM      9  O   UNL     1     -21.716  87.310 -24.717  1.00  0.00    -0.288 OA
ATOM     10  C   UNL     1     -24.062  87.407 -24.335  1.00  0.00     0.076 A 
ATOM     11  C   UNL     1     -25.194  86.563 -24.315  1.00  0.00     0.041 A 
ATOM     12  C   UNL     1     -25.039  85.127 -23.980  1.00  0.00     0.194 C 
ATOM     13  O   UNL     1     -26.023  84.344 -24.085  1.00  0.00    -0.289 OA
ATOM     14  C   UNL     1     -26.464  87.089 -24.608  1.00  0.00     0.059 A 
ATOM     15  C   UNL     1     -26.617  88.445 -24.905  1.00  0.00     0.120 A 
ATOM     16  C   UNL     1     -25.508  89.289 -24.886  1.00  0.00     0.093 A 
ATOM     17  C   UNL     1     -24.237  88.794 -24.578  1.00  0.00     0.131 A 
ENDROOT
BRANCH   6  18
ATOM     18  O   UNL     1     -20.244  85.791 -22.840  1.00  0.00    -0.507 OA
ATOM     19  H   UNL     1     -20.012  86.296 -21.997  1.00  0.00     0.293 HD
ENDBRANCH   6  18
BRANCH  17  20
ATOM     20  O   UNL     1     -23.190  89.715 -24.490  1.00  0.00    -0.507 OA
ATOM     21  H   UNL     1     -23.229  90.553 -23.927  1.00  0.00     0.293 HD
ENDBRANCH  17  20
BRANCH  15  22
ATOM     22  O   UNL     1     -27.873  88.968 -25.209  1.00  0.00    -0.508 OA
ATOM     23  H   UNL     1     -28.517  88.480 -25.821  1.00  0.00     0.293 HD
ENDBRANCH  15  22
TORSDOF 3
ENDMDL
MODEL 5
REMARK VINA RESULT:    -6.232     15.030     17.640
REMARK INTER + INTRA:          -6.779
REMARK INTER:                  -6.779
REMARK INTRA:                   0.000
REMARK UNBOUND:                 0.000
REMARK SMILES Cc1cc(O)c2c(c1)C(=O)c1cc(O)cc(O)c1C2=O
REMARK SMILES IDX 1 1 2 2 8 3 7 4 6 5 4 6 3 7 19 8 20 9 18 10 11 11 9 12 10 13
REMARK SMILES IDX 12 14 13 15 15 16 16 17 5 18 17 20 14 22
REMARK H PARENT 5 19 17 21 14 23
REMARK Flexibility Score: inf
ROOT
ATOM      1  C   UNL     1     -29.404  81.514 -21.008  1.00  0.00     0.044 C 
ATOM      2  C   UNL     1     -30.795  81.842 -20.552  1.00  0.00    -0.047 A 
ATOM      3  C   UNL     1     -31.880  81.080 -21.000  1.00  0.00     0.016 A 
ATOM      4  C   UNL     1     -33.191  81.406 -20.613  1.00  0.00     0.038 A 
ATOM      5  C   UNL     1     -33.424  82.528 -19.788  1.00  0.00     0.076 A 
ATOM      6  C   UNL     1     -32.316  83.269 -19.300  1.00  0.00     0.127 A 
ATOM      7  C   UNL     1     -31.022  82.937 -19.713  1.00  0.00     0.050 A 
ATOM      8  C   UNL     1     -34.830  82.926 -19.523  1.00  0.00     0.201 C 
ATOM      9  O   UNL     1     -35.113  84.137 -19.321  1.00  0.00    -0.288 OA
ATOM     10  C   UNL     1     -35.922  81.930 -19.683  1.00  0.00     0.076 A 
ATOM     11  C   UNL     1     -35.686  80.809 -20.511  1.00  0.00     0.041 A 
ATOM     12  C   UNL     1     -34.332  80.575 -21.068  1.00  0.00     0.194 C 
ATOM     13  O   UNL     1     -34.146  79.651 -21.908  1.00  0.00    -0.289 OA
ATOM     14  C   UNL     1     -36.734  79.919 -20.798  1.00  0.00     0.059 A 
ATOM     15  C   UNL     1     -38.007  80.126 -20.259  1.00  0.00     0.120 A 
ATOM     16  C   UNL     1     -38.233  81.208 -19.411  1.00  0.00     0.093 A 
ATOM     17  C   UNL     1     -37.201  82.097 -19.093  1.00  0.00     0.131 A 
ENDROOT
BRANCH   6  18
ATOM     18  O   UNL     1     -32.451  84.314 -18.382  1.00  0.00    -0.507 OA
ATOM     19  H   UNL     1     -32.664  85.265 -18.646  1.00  0.00     0.293 HD
ENDBRANCH   6  18
BRANCH  17  20
ATOM     20  O   UNL     1     -37.480  83.103 -18.165  1.00  0.00    -0.507 OA
ATOM     21  H   UNL     1     -38.416  83.377 -17.901  1.00  0.00     0.293 HD
ENDBRANCH  17  20
BRANCH  15  22
ATOM     22  O   UNL     1     -39.052  79.252 -20.553  1.00  0.00    -0.508 OA
ATOM     23  H   UNL     1     -39.936  79.297 -20.059  1.00  0.00     0.293 HD
ENDBRANCH  15  22
TORSDOF 3
ENDMDL
MODEL 6
REMARK VINA RESULT:    -6.213     15.001     18.014
REMARK INTER + INTRA:          -6.758
REMARK INTER:                  -6.758
REMARK INTRA:                   0.000
REMARK UNBOUND:                 0.000
REMARK SMILES Cc1cc(O)c2c(c1)C(=O)c1cc(O)cc(O)c1C2=O
REMARK SMILES IDX 1 1 2 2 8 3 7 4 6 5 4 6 3 7 19 8 20 9 18 10 11 11 9 12 10 13
REMARK SMILES IDX 12 14 13 15 15 16 16 17 5 18 17 20 14 22
REMARK H PARENT 5 19 17 21 14 23
REMARK Flexibility Score: inf
ROOT
ATOM      1  C   UNL     1     -38.948  78.981 -20.962  1.00  0.00     0.044 C 
ATOM      2  C   UNL     1     -37.885  79.918 -20.468  1.00  0.00    -0.047 A 
ATOM      3  C   UNL     1     -36.538  79.667 -20.754  1.00  0.00     0.016 A 
ATOM      4  C   UNL     1     -35.533  80.515 -20.259  1.00  0.00     0.038 A 
ATOM      5  C   UNL     1     -35.877  81.614 -19.441  1.00  0.00     0.076 A 
ATOM      6  C   UNL     1     -37.246  81.889 -19.193  1.00  0.00     0.127 A 
ATOM      7  C   UNL     1     -38.229  81.020 -19.680  1.00  0.00     0.050 A 
ATOM      8  C   UNL     1     -34.778  82.397 -18.818  1.00  0.00     0.201 C 
ATOM      9  O   UNL     1     -34.962  82.960 -17.706  1.00  0.00    -0.288 OA
ATOM     10  C   UNL     1     -33.416  82.357 -19.410  1.00  0.00     0.076 A 
ATOM     11  C   UNL     1     -33.075  81.256 -20.226  1.00  0.00     0.041 A 
ATOM     12  C   UNL     1     -34.111  80.261 -20.593  1.00  0.00     0.194 C 
ATOM     13  O   UNL     1     -33.785  79.210 -21.213  1.00  0.00    -0.289 OA
ATOM     14  C   UNL     1     -31.757  81.111 -20.691  1.00  0.00     0.059 A 
ATOM     15  C   UNL     1     -30.782  82.057 -20.364  1.00  0.00     0.120 A 
ATOM     16  C   UNL     1     -31.124  83.166 -19.592  1.00  0.00     0.093 A 
ATOM     17  C   UNL     1     -32.434  83.344 -19.134  1.00  0.00     0.131 A 
ENDROOT
BRANCH   6  18
ATOM     18  O   UNL     1     -37.676  83.023 -18.499  1.00  0.00    -0.507 OA
ATOM     19  H   UNL     1     -37.311  83.298 -17.599  1.00  0.00     0.293 HD
ENDBRANCH   6  18
BRANCH  17  20
ATOM     20  O   UNL     1     -32.721  84.524 -18.444  1.00  0.00    -0.507 OA
ATOM     21  H   UNL     1     -32.804  85.426 -18.891  1.00  0.00     0.293 HD
ENDBRANCH  17  20
BRANCH  15  22
ATOM     22  O   UNL     1     -29.471  81.910 -20.812  1.00  0.00    -0.508 OA
ATOM     23  H   UNL     1     -28.705  81.746 -20.168  1.00  0.00     0.293 HD
ENDBRANCH  15  22
TORSDOF 3
ENDMDL
MODEL 7
REMARK VINA RESULT:    -6.163      5.990      9.194
REMARK INTER + INTRA:          -6.704
REMARK INTER:                  -6.704
REMARK INTRA:                   0.000
REMARK UNBOUND:                 0.000
REMARK SMILES Cc1cc(O)c2c(c1)C(=O)c1cc(O)cc(O)c1C2=O
REMARK SMILES IDX 1 1 2 2 8 3 7 4 6 5 4 6 3 7 19 8 20 9 18 10 11 11 9 12 10 13
REMARK SMILES IDX 12 14 13 15 15 16 16 17 5 18 17 20 14 22
REMARK H PARENT 5 19 17 21 14 23
REMARK Flexibility Score: inf
ROOT
ATOM      1  C   UNL     1     -25.869  89.329 -26.204  1.00  0.00     0.044 C 
ATOM      2  C   UNL     1     -24.911  88.401 -25.516  1.00  0.00    -0.047 A 
ATOM      3  C   UNL     1     -25.337  87.136 -25.095  1.00  0.00     0.016 A 
ATOM      4  C   UNL     1     -24.460  86.277 -24.411  1.00  0.00     0.038 A 
ATOM      5  C   UNL     1     -23.145  86.701 -24.118  1.00  0.00     0.076 A 
ATOM      6  C   UNL     1     -22.705  87.966 -24.587  1.00  0.00     0.127 A 
ATOM      7  C   UNL     1     -23.602  88.811 -25.249  1.00  0.00     0.050 A 
ATOM      8  C   UNL     1     -22.299  85.826 -23.267  1.00  0.00     0.201 C 
ATOM      9  O   UNL     1     -21.418  86.335 -22.523  1.00  0.00    -0.288 OA
ATOM     10  C   UNL     1     -22.616  84.378 -23.151  1.00  0.00     0.076 A 
ATOM     11  C   UNL     1     -23.933  83.959 -23.444  1.00  0.00     0.041 A 
ATOM     12  C   UNL     1     -24.910  84.926 -23.997  1.00  0.00     0.194 C 
ATOM     13  O   UNL     1     -26.119  84.591 -24.140  1.00  0.00    -0.289 OA
ATOM     14  C   UNL     1     -24.309  82.624 -23.215  1.00  0.00     0.059 A 
ATOM     15  C   UNL     1     -23.385  81.704 -22.712  1.00  0.00     0.120 A 
ATOM     16  C   UNL     1     -22.074  82.105 -22.460  1.00  0.00     0.093 A 
ATOM     17  C   UNL     1     -21.670  83.422 -22.699  1.00  0.00     0.131 A 
ENDROOT
BRANCH   6  18
ATOM     18  O   UNL     1     -21.387  88.407 -24.447  1.00  0.00    -0.507 OA
ATOM     19  H   UNL     1     -20.615  87.796 -24.222  1.00  0.00     0.293 HD
ENDBRANCH   6  18
BRANCH  17  20
ATOM     20  O   UNL     1     -20.319  83.727 -22.509  1.00  0.00    -0.507 OA
ATOM     21  H   UNL     1     -19.794  83.449 -21.692  1.00  0.00     0.293 HD
ENDBRANCH  17  20
BRANCH  15  22
ATOM     22  O   UNL     1     -23.758  80.383 -22.471  1.00  0.00    -0.508 OA
ATOM     23  H   UNL     1     -23.704  79.676 -23.196  1.00  0.00     0.293 HD
ENDBRANCH  15  22
TORSDOF 3
ENDMDL
MODEL 8
REMARK VINA RESULT:    -6.078      7.309     11.927
REMARK INTER + INTRA:          -6.610
REMARK INTER:                  -6.610
REMARK INTRA:                   0.000
REMARK UNBOUND:                 0.000
REMARK SMILES Cc1cc(O)c2c(c1)C(=O)c1cc(O)cc(O)c1C2=O
REMARK SMILES IDX 1 1 2 2 8 3 7 4 6 5 4 6 3 7 19 8 20 9 18 10 11 11 9 12 10 13
REMARK SMILES IDX 12 14 13 15 15 16 16 17 5 18 17 20 14 22
REMARK H PARENT 5 19 17 21 14 23
REMARK Flexibility Score: inf
ROOT
ATOM      1  C   UNL     1     -25.084  78.885 -22.881  1.00  0.00     0.044 C 
ATOM      2  C   UNL     1     -24.304  80.165 -22.817  1.00  0.00    -0.047 A 
ATOM      3  C   UNL     1     -24.565  81.195 -23.729  1.00  0.00     0.016 A 
ATOM      4  C   UNL     1     -23.811  82.380 -23.705  1.00  0.00     0.038 A 
ATOM      5  C   UNL     1     -22.760  82.527 -22.772  1.00  0.00     0.076 A 
ATOM      6  C   UNL     1     -22.531  81.500 -21.821  1.00  0.00     0.127 A 
ATOM      7  C   UNL     1     -23.282  80.321 -21.877  1.00  0.00     0.050 A 
ATOM      8  C   UNL     1     -21.894  83.729 -22.875  1.00  0.00     0.201 C 
ATOM      9  O   UNL     1     -20.687  83.666 -22.517  1.00  0.00    -0.288 OA
ATOM     10  C   UNL     1     -22.394  84.943 -23.572  1.00  0.00     0.076 A 
ATOM     11  C   UNL     1     -23.444  84.791 -24.504  1.00  0.00     0.041 A 
ATOM     12  C   UNL     1     -24.115  83.478 -24.654  1.00  0.00     0.194 C 
ATOM     13  O   UNL     1     -24.963  83.303 -25.572  1.00  0.00    -0.289 OA
ATOM     14  C   UNL     1     -23.852  85.888 -25.283  1.00  0.00     0.059 A 
ATOM     15  C   UNL     1     -23.236  87.133 -25.131  1.00  0.00     0.120 A 
ATOM     16  C   UNL     1     -22.227  87.296 -24.184  1.00  0.00     0.093 A 
ATOM     17  C   UNL     1     -21.817  86.226 -23.382  1.00  0.00     0.131 A 
ENDROOT
BRANCH   6  18
ATOM     18  O   UNL     1     -21.596  81.620 -20.790  1.00  0.00    -0.507 OA
ATOM     19  H   UNL     1     -20.619  81.827 -20.942  1.00  0.00     0.293 HD
ENDBRANCH   6  18
BRANCH  17  20
ATOM     20  O   UNL     1     -20.865  86.488 -22.394  1.00  0.00    -0.507 OA
ATOM     21  H   UNL     1     -20.677  85.865 -21.620  1.00  0.00     0.293 HD
ENDBRANCH  17  20
BRANCH  15  22
ATOM     22  O   UNL     1     -23.629  88.219 -25.911  1.00  0.00    -0.508 OA
ATOM     23  H   UNL     1     -24.356  88.856 -25.606  1.00  0.00     0.293 HD
ENDBRANCH  15  22
TORSDOF 3
ENDMDL
MODEL 9
REMARK VINA RESULT:    -5.960      1.198      3.495
REMARK INTER + INTRA:          -6.483
REMARK INTER:                  -6.483
REMARK INTRA:                   0.000
REMARK UNBOUND:                 0.000
REMARK SMILES Cc1cc(O)c2c(c1)C(=O)c1cc(O)cc(O)c1C2=O
REMARK SMILES IDX 1 1 2 2 8 3 7 4 6 5 4 6 3 7 19 8 20 9 18 10 11 11 9 12 10 13
REMARK SMILES IDX 12 14 13 15 15 16 16 17 5 18 17 20 14 22
REMARK H PARENT 5 19 17 21 14 23
REMARK Flexibility Score: inf
ROOT
ATOM      1  C   UNL     1     -23.623  97.125 -32.408  1.00  0.00     0.044 C 
ATOM      2  C   UNL     1     -23.650  95.712 -31.903  1.00  0.00    -0.047 A 
ATOM      3  C   UNL     1     -24.252  95.415 -30.675  1.00  0.00     0.016 A 
ATOM      4  C   UNL     1     -24.245  94.103 -30.174  1.00  0.00     0.038 A 
ATOM      5  C   UNL     1     -23.600  93.076 -30.898  1.00  0.00     0.076 A 
ATOM      6  C   UNL     1     -23.031  93.374 -32.163  1.00  0.00     0.127 A 
ATOM      7  C   UNL     1     -23.034  94.691 -32.633  1.00  0.00     0.050 A 
ATOM      8  C   UNL     1     -23.486  91.736 -30.265  1.00  0.00     0.201 C 
ATOM      9  O   UNL     1     -22.504  90.995 -30.538  1.00  0.00    -0.288 OA
ATOM     10  C   UNL     1     -24.421  91.352 -29.176  1.00  0.00     0.076 A 
ATOM     11  C   UNL     1     -25.064  92.382 -28.454  1.00  0.00     0.041 A 
ATOM     12  C   UNL     1     -24.913  93.792 -28.887  1.00  0.00     0.194 C 
ATOM     13  O   UNL     1     -25.377  94.724 -28.174  1.00  0.00    -0.289 OA
ATOM     14  C   UNL     1     -25.846  92.065 -27.331  1.00  0.00     0.059 A 
ATOM     15  C   UNL     1     -26.006  90.736 -26.931  1.00  0.00     0.120 A 
ATOM     16  C   UNL     1     -25.407  89.714 -27.664  1.00  0.00     0.093 A 
ATOM     17  C   UNL     1     -24.640  90.002 -28.798  1.00  0.00     0.131 A 
ENDROOT
BRANCH   6  18
ATOM     18  O   UNL     1     -22.486  92.394 -32.995  1.00  0.00    -0.507 OA
ATOM     19  H   UNL     1     -23.024  91.875 -33.675  1.00  0.00     0.293 HD
ENDBRANCH   6  18
BRANCH  17  20
ATOM     20  O   UNL     1     -24.147  88.921 -29.534  1.00  0.00    -0.507 OA
ATOM     21  H   UNL     1     -24.469  88.684 -30.462  1.00  0.00     0.293 HD
ENDBRANCH  17  20
BRANCH  15  22
ATOM     22  O   UNL     1     -26.771  90.420 -25.809  1.00  0.00    -0.508 OA
ATOM     23  H   UNL     1     -26.961  91.104 -25.086  1.00  0.00     0.293 HD
ENDBRANCH  15  22
TORSDOF 3
ENDMDL
