MODEL 1
REMARK VINA RESULT:    -4.652      0.000      0.000
REMARK INTER + INTRA:          -5.426
REMARK INTER:                  -5.196
REMARK INTRA:                  -0.230
REMARK UNBOUND:                -0.230
REMARK SMILES O=C([O-])c1ccccc1C(=O)[O-]
REMARK SMILES IDX 4 1 9 2 5 3 8 4 6 5 7 6 2 7 1 8 3 9 10 10 11 11 12 12
REMARK H PARENT
REMARK Flexibility Score: inf
ROOT
ATOM      1  C   UNL     1      59.493  38.642   6.248  1.00  0.00     0.006 A 
ATOM      2  C   UNL     1      60.106  39.130   7.435  1.00  0.00     0.006 A 
ATOM      3  C   UNL     1      58.972  37.334   6.235  1.00  0.00     0.010 A 
ATOM      4  C   UNL     1      60.235  38.271   8.543  1.00  0.00     0.010 A 
ATOM      5  C   UNL     1      59.090  36.507   7.353  1.00  0.00     0.001 A 
ATOM      6  C   UNL     1      59.729  36.970   8.499  1.00  0.00     0.001 A 
ENDROOT
BRANCH   1   7
ATOM      7  C   UNL     1      59.441  39.426   4.994  1.00  0.00     0.072 C 
ATOM      8  O   UNL     1      60.375  39.342   4.152  1.00  0.00    -0.545 OA
ATOM      9  O   UNL     1      58.398  40.314   4.756  1.00  0.00    -0.545 OA
ENDBRANCH   1   7
BRANCH   2  10
ATOM     10  C   UNL     1      60.560  40.531   7.591  1.00  0.00     0.072 C 
ATOM     11  O   UNL     1      61.771  40.837   7.432  1.00  0.00    -0.545 OA
ATOM     12  O   UNL     1      59.638  41.538   7.850  1.00  0.00    -0.545 OA
ENDBRANCH   2  10
TORSDOF 2
ENDMDL
MODEL 2
REMARK VINA RESULT:    -4.641      0.156      3.004
REMARK INTER + INTRA:          -5.414
REMARK INTER:                  -5.198
REMARK INTRA:                  -0.216
REMARK UNBOUND:                -0.230
REMARK SMILES O=C([O-])c1ccccc1C(=O)[O-]
REMARK SMILES IDX 4 1 9 2 5 3 8 4 6 5 7 6 2 7 1 8 3 9 10 10 11 11 12 12
REMARK H PARENT
REMARK Flexibility Score: inf
ROOT
ATOM      1  C   UNL     1      60.101  39.121   7.465  1.00  0.00     0.006 A 
ATOM      2  C   UNL     1      59.523  38.671   6.245  1.00  0.00     0.006 A 
ATOM      3  C   UNL     1      60.213  38.222   8.543  1.00  0.00     0.010 A 
ATOM      4  C   UNL     1      59.018  37.359   6.170  1.00  0.00     0.010 A 
ATOM      5  C   UNL     1      59.725  36.918   8.438  1.00  0.00     0.001 A 
ATOM      6  C   UNL     1      59.119  36.492   7.259  1.00  0.00     0.001 A 
ENDROOT
BRANCH   1   7
ATOM      7  C   UNL     1      60.529  40.522   7.678  1.00  0.00     0.072 C 
ATOM      8  O   UNL     1      61.755  40.809   7.736  1.00  0.00    -0.545 OA
ATOM      9  O   UNL     1      59.591  41.527   7.883  1.00  0.00    -0.545 OA
ENDBRANCH   1   7
BRANCH   2  10
ATOM     10  C   UNL     1      59.486  39.498   5.017  1.00  0.00     0.072 C 
ATOM     11  O   UNL     1      58.462  40.169   4.723  1.00  0.00    -0.545 OA
ATOM     12  O   UNL     1      60.612  39.594   4.207  1.00  0.00    -0.545 OA
ENDBRANCH   2  10
TORSDOF 2
ENDMDL
MODEL 3
REMARK VINA RESULT:    -4.504      1.465      3.225
REMARK INTER + INTRA:          -5.260
REMARK INTER:                  -5.033
REMARK INTRA:                  -0.227
REMARK UNBOUND:                -0.230
REMARK SMILES O=C([O-])c1ccccc1C(=O)[O-]
REMARK SMILES IDX 4 1 9 2 5 3 8 4 6 5 7 6 2 7 1 8 3 9 10 10 11 11 12 12
REMARK H PARENT
REMARK Flexibility Score: inf
ROOT
ATOM      1  C   UNL     1      59.486  39.365   6.658  1.00  0.00     0.006 A 
ATOM      2  C   UNL     1      59.383  38.034   6.165  1.00  0.00     0.006 A 
ATOM      3  C   UNL     1      59.776  39.570   8.020  1.00  0.00     0.010 A 
ATOM      4  C   UNL     1      59.507  36.959   7.065  1.00  0.00     0.010 A 
ATOM      5  C   UNL     1      59.918  38.488   8.891  1.00  0.00     0.001 A 
ATOM      6  C   UNL     1      59.773  37.187   8.416  1.00  0.00     0.001 A 
ENDROOT
BRANCH   1   7
ATOM      7  C   UNL     1      59.231  40.553   5.812  1.00  0.00     0.072 C 
ATOM      8  O   UNL     1      58.077  41.059   5.759  1.00  0.00    -0.545 OA
ATOM      9  O   UNL     1      60.238  41.088   5.018  1.00  0.00    -0.545 OA
ENDBRANCH   1   7
BRANCH   2  10
ATOM     10  C   UNL     1      59.217  37.717   4.728  1.00  0.00     0.072 C 
ATOM     11  O   UNL     1      58.078  37.475   4.249  1.00  0.00    -0.545 OA
ATOM     12  O   UNL     1      60.315  37.749   3.875  1.00  0.00    -0.545 OA
ENDBRANCH   2  10
TORSDOF 2
ENDMDL
MODEL 4
REMARK VINA RESULT:    -4.494      1.437      2.168
REMARK INTER + INTRA:          -5.249
REMARK INTER:                  -5.024
REMARK INTRA:                  -0.226
REMARK UNBOUND:                -0.230
REMARK SMILES O=C([O-])c1ccccc1C(=O)[O-]
REMARK SMILES IDX 4 1 9 2 5 3 8 4 6 5 7 6 2 7 1 8 3 9 10 10 11 11 12 12
REMARK H PARENT
REMARK Flexibility Score: inf
ROOT
ATOM      1  C   UNL     1      59.312  37.866   6.053  1.00  0.00     0.006 A 
ATOM      2  C   UNL     1      59.492  39.202   6.507  1.00  0.00     0.006 A 
ATOM      3  C   UNL     1      59.340  36.815   6.989  1.00  0.00     0.010 A 
ATOM      4  C   UNL     1      59.759  39.432   7.870  1.00  0.00     0.010 A 
ATOM      5  C   UNL     1      59.585  37.068   8.340  1.00  0.00     0.001 A 
ATOM      6  C   UNL     1      59.804  38.371   8.777  1.00  0.00     0.001 A 
ENDROOT
BRANCH   1   7
ATOM      7  C   UNL     1      59.166  37.521   4.621  1.00  0.00     0.072 C 
ATOM      8  O   UNL     1      60.187  37.322   3.908  1.00  0.00    -0.545 OA
ATOM      9  O   UNL     1      57.910  37.475   4.026  1.00  0.00    -0.545 OA
ENDBRANCH   1   7
BRANCH   2  10
ATOM     10  C   UNL     1      59.343  40.381   5.623  1.00  0.00     0.072 C 
ATOM     11  O   UNL     1      58.239  40.979   5.527  1.00  0.00    -0.545 OA
ATOM     12  O   UNL     1      60.444  40.882   4.938  1.00  0.00    -0.545 OA
ENDBRANCH   2  10
TORSDOF 2
ENDMDL
MODEL 5
REMARK VINA RESULT:    -4.364      2.214      3.372
REMARK INTER + INTRA:          -5.104
REMARK INTER:                  -5.201
REMARK INTRA:                   0.097
REMARK UNBOUND:                -0.230
REMARK SMILES O=C([O-])c1ccccc1C(=O)[O-]
REMARK SMILES IDX 4 1 9 2 5 3 8 4 6 5 7 6 2 7 1 8 3 9 10 10 11 11 12 12
REMARK H PARENT
REMARK Flexibility Score: inf
ROOT
ATOM      1  C   UNL     1      59.344  37.590   6.579  1.00  0.00     0.006 A 
ATOM      2  C   UNL     1      59.393  39.001   6.402  1.00  0.00     0.006 A 
ATOM      3  C   UNL     1      59.017  36.772   5.481  1.00  0.00     0.010 A 
ATOM      4  C   UNL     1      59.048  39.545   5.151  1.00  0.00     0.010 A 
ATOM      5  C   UNL     1      58.700  37.334   4.242  1.00  0.00     0.001 A 
ATOM      6  C   UNL     1      58.705  38.716   4.081  1.00  0.00     0.001 A 
ENDROOT
BRANCH   1   7
ATOM      7  C   UNL     1      59.553  36.941   7.894  1.00  0.00     0.072 C 
ATOM      8  O   UNL     1      60.587  37.195   8.569  1.00  0.00    -0.545 OA
ATOM      9  O   UNL     1      58.652  35.997   8.371  1.00  0.00    -0.545 OA
ENDBRANCH   1   7
BRANCH   2  10
ATOM     10  C   UNL     1      59.858  39.930   7.457  1.00  0.00     0.072 C 
ATOM     11  O   UNL     1      59.042  40.448   8.265  1.00  0.00    -0.545 OA
ATOM     12  O   UNL     1      61.215  40.191   7.608  1.00  0.00    -0.545 OA
ENDBRANCH   2  10
TORSDOF 2
ENDMDL
MODEL 6
REMARK VINA RESULT:    -4.246      2.260      4.331
REMARK INTER + INTRA:          -4.972
REMARK INTER:                  -4.909
REMARK INTRA:                  -0.063
REMARK UNBOUND:                -0.230
REMARK SMILES O=C([O-])c1ccccc1C(=O)[O-]
REMARK SMILES IDX 4 1 9 2 5 3 8 4 6 5 7 6 2 7 1 8 3 9 10 10 11 11 12 12
REMARK H PARENT
REMARK Flexibility Score: inf
ROOT
ATOM      1  C   UNL     1      59.244  39.017   6.924  1.00  0.00     0.006 A 
ATOM      2  C   UNL     1      59.122  39.162   5.514  1.00  0.00     0.006 A 
ATOM      3  C   UNL     1      58.999  40.130   7.751  1.00  0.00     0.010 A 
ATOM      4  C   UNL     1      58.825  40.430   4.980  1.00  0.00     0.010 A 
ATOM      5  C   UNL     1      58.683  41.373   7.201  1.00  0.00     0.001 A 
ATOM      6  C   UNL     1      58.607  41.525   5.819  1.00  0.00     0.001 A 
ENDROOT
BRANCH   1   7
ATOM      7  C   UNL     1      59.689  37.758   7.563  1.00  0.00     0.072 C 
ATOM      8  O   UNL     1      58.979  36.720   7.483  1.00  0.00    -0.545 OA
ATOM      9  O   UNL     1      60.859  37.717   8.313  1.00  0.00    -0.545 OA
ENDBRANCH   1   7
BRANCH   2  10
ATOM     10  C   UNL     1      59.226  38.023   4.574  1.00  0.00     0.072 C 
ATOM     11  O   UNL     1      58.193  37.424   4.172  1.00  0.00    -0.545 OA
ATOM     12  O   UNL     1      60.465  37.643   4.072  1.00  0.00    -0.545 OA
ENDBRANCH   2  10
TORSDOF 2
ENDMDL
MODEL 7
REMARK VINA RESULT:    -4.200      1.340      3.112
REMARK INTER + INTRA:          -4.921
REMARK INTER:                  -4.727
REMARK INTRA:                  -0.195
REMARK UNBOUND:                -0.230
REMARK SMILES O=C([O-])c1ccccc1C(=O)[O-]
REMARK SMILES IDX 4 1 9 2 5 3 8 4 6 5 7 6 2 7 1 8 3 9 10 10 11 11 12 12
REMARK H PARENT
REMARK Flexibility Score: inf
ROOT
ATOM      1  C   UNL     1      59.624  38.979   6.956  1.00  0.00     0.006 A 
ATOM      2  C   UNL     1      59.903  39.146   5.571  1.00  0.00     0.006 A 
ATOM      3  C   UNL     1      59.207  37.718   7.423  1.00  0.00     0.010 A 
ATOM      4  C   UNL     1      59.692  38.064   4.695  1.00  0.00     0.010 A 
ATOM      5  C   UNL     1      59.025  36.653   6.539  1.00  0.00     0.001 A 
ATOM      6  C   UNL     1      59.256  36.829   5.178  1.00  0.00     0.001 A 
ENDROOT
BRANCH   1   7
ATOM      7  C   UNL     1      59.684  40.097   7.925  1.00  0.00     0.072 C 
ATOM      8  O   UNL     1      58.795  40.990   7.919  1.00  0.00    -0.545 OA
ATOM      9  O   UNL     1      60.751  40.214   8.807  1.00  0.00    -0.545 OA
ENDBRANCH   1   7
BRANCH   2  10
ATOM     10  C   UNL     1      60.476  40.390   5.008  1.00  0.00     0.072 C 
ATOM     11  O   UNL     1      59.734  41.258   4.477  1.00  0.00    -0.545 OA
ATOM     12  O   UNL     1      61.838  40.644   5.121  1.00  0.00    -0.545 OA
ENDBRANCH   2  10
TORSDOF 2
ENDMDL
MODEL 8
REMARK VINA RESULT:    -4.141      1.563      2.174
REMARK INTER + INTRA:          -4.855
REMARK INTER:                  -4.643
REMARK INTRA:                  -0.213
REMARK UNBOUND:                -0.230
REMARK SMILES O=C([O-])c1ccccc1C(=O)[O-]
REMARK SMILES IDX 4 1 9 2 5 3 8 4 6 5 7 6 2 7 1 8 3 9 10 10 11 11 12 12
REMARK H PARENT
REMARK Flexibility Score: inf
ROOT
ATOM      1  C   UNL     1      60.434  39.031   5.793  1.00  0.00     0.006 A 
ATOM      2  C   UNL     1      59.957  38.721   7.097  1.00  0.00     0.006 A 
ATOM      3  C   UNL     1      60.126  38.165   4.727  1.00  0.00     0.010 A 
ATOM      4  C   UNL     1      59.245  37.523   7.298  1.00  0.00     0.010 A 
ATOM      5  C   UNL     1      59.398  36.993   4.946  1.00  0.00     0.001 A 
ATOM      6  C   UNL     1      58.969  36.668   6.230  1.00  0.00     0.001 A 
ENDROOT
BRANCH   1   7
ATOM      7  C   UNL     1      61.308  40.194   5.516  1.00  0.00     0.072 C 
ATOM      8  O   UNL     1      62.556  40.099   5.660  1.00  0.00    -0.545 OA
ATOM      9  O   UNL     1      60.762  41.422   5.160  1.00  0.00    -0.545 OA
ENDBRANCH   1   7
BRANCH   2  10
ATOM     10  C   UNL     1      60.112  39.636   8.251  1.00  0.00     0.072 C 
ATOM     11  O   UNL     1      59.351  40.629   8.393  1.00  0.00    -0.545 OA
ATOM     12  O   UNL     1      61.062  39.368   9.230  1.00  0.00    -0.545 OA
ENDBRANCH   2  10
TORSDOF 2
ENDMDL
MODEL 9
REMARK VINA RESULT:    -4.108     16.601     17.867
REMARK INTER + INTRA:          -4.818
REMARK INTER:                  -4.742
REMARK INTRA:                  -0.076
REMARK UNBOUND:                -0.230
REMARK SMILES O=C([O-])c1ccccc1C(=O)[O-]
REMARK SMILES IDX 4 1 9 2 5 3 8 4 6 5 7 6 2 7 1 8 3 9 10 10 11 11 12 12
REMARK H PARENT
REMARK Flexibility Score: inf
ROOT
ATOM      1  C   UNL     1      59.319  25.927  17.796  1.00  0.00     0.006 A 
ATOM      2  C   UNL     1      58.881  26.439  19.049  1.00  0.00     0.006 A 
ATOM      3  C   UNL     1      58.870  26.540  16.610  1.00  0.00     0.010 A 
ATOM      4  C   UNL     1      57.958  27.502  19.069  1.00  0.00     0.010 A 
ATOM      5  C   UNL     1      57.972  27.607  16.655  1.00  0.00     0.001 A 
ATOM      6  C   UNL     1      57.509  28.080  17.880  1.00  0.00     0.001 A 
ENDROOT
BRANCH   1   7
ATOM      7  C   UNL     1      60.177  24.726  17.679  1.00  0.00     0.072 C 
ATOM      8  O   UNL     1      59.706  23.652  17.216  1.00  0.00    -0.545 OA
ATOM      9  O   UNL     1      61.489  24.744  18.136  1.00  0.00    -0.545 OA
ENDBRANCH   1   7
BRANCH   2  10
ATOM     10  C   UNL     1      59.402  25.952  20.346  1.00  0.00     0.072 C 
ATOM     11  O   UNL     1      60.157  26.674  21.049  1.00  0.00    -0.545 OA
ATOM     12  O   UNL     1      59.009  24.711  20.835  1.00  0.00    -0.545 OA
ENDBRANCH   2  10
TORSDOF 2
ENDMDL
