MODEL 1
REMARK VINA RESULT:    -5.616      0.000      0.000
REMARK INTER + INTRA:         -10.401
REMARK INTER:                  -8.570
REMARK INTRA:                  -1.831
REMARK UNBOUND:                -1.831
REMARK SMILES CC(=O)CCC=C(C)CCC=C(C)CCC=C(C)C
REMARK SMILES IDX 10 1 11 2 12 3 13 4 14 5 15 6 16 7 18 8 17 9 19 10 9 11 7 12
REMARK SMILES IDX 6 13 8 14 5 15 4 16 2 17 3 18 1 19
REMARK H PARENT
REMARK Flexibility Score: inf
ROOT
ATOM      1  C   UNL     1      50.241  33.134  32.675  1.00  0.00     0.032 C 
ENDROOT
BRANCH   1   2
ATOM      2  C   UNL     1      51.452  32.269  32.409  1.00  0.00    -0.028 C 
ATOM      3  C   UNL     1      51.525  31.307  31.460  1.00  0.00    -0.077 C 
ATOM      4  C   UNL     1      50.352  30.962  30.576  1.00  0.00     0.039 C 
BRANCH   3   5
ATOM      5  C   UNL     1      52.830  30.563  31.275  1.00  0.00     0.034 C 
BRANCH   5   6
ATOM      6  C   UNL     1      53.815  30.900  32.401  1.00  0.00     0.032 C 
BRANCH   6   7
ATOM      7  C   UNL     1      55.205  31.106  31.853  1.00  0.00    -0.028 C 
ATOM      8  C   UNL     1      55.032  33.603  31.911  1.00  0.00     0.039 C 
ATOM      9  C   UNL     1      55.758  32.314  31.606  1.00  0.00    -0.080 C 
ATOM     10  C   UNL     1      57.147  32.363  31.025  1.00  0.00     0.039 C 
ENDBRANCH   6   7
ENDBRANCH   5   6
ENDBRANCH   3   5
ENDBRANCH   1   2
BRANCH   1  11
ATOM     11  C   UNL     1      50.635  34.613  32.786  1.00  0.00     0.034 C 
BRANCH  11  12
ATOM     12  C   UNL     1      50.686  35.289  31.428  1.00  0.00    -0.077 C 
ATOM     13  C   UNL     1      49.669  36.033  30.931  1.00  0.00    -0.028 C 
ATOM     14  C   UNL     1      51.923  35.124  30.582  1.00  0.00     0.039 C 
BRANCH  13  15
ATOM     15  C   UNL     1      48.357  36.309  31.629  1.00  0.00     0.035 C 
BRANCH  15  16
ATOM     16  C   UNL     1      47.194  35.740  30.811  1.00  0.00     0.079 C 
BRANCH  16  17
ATOM     17  C   UNL     1      47.062  34.256  31.032  1.00  0.00     0.130 C 
ATOM     18  O   UNL     1      46.580  33.844  32.076  1.00  0.00    -0.300 OA
ATOM     19  C   UNL     1      47.502  33.270  29.991  1.00  0.00     0.087 C 
ENDBRANCH  16  17
ENDBRANCH  15  16
ENDBRANCH  13  15
ENDBRANCH  11  12
ENDBRANCH   1  11
TORSDOF 9
ENDMDL
MODEL 2
REMARK VINA RESULT:    -5.582      2.650      4.800
REMARK INTER + INTRA:         -10.350
REMARK INTER:                  -8.949
REMARK INTRA:                  -1.401
REMARK UNBOUND:                -1.831
REMARK SMILES CC(=O)CCC=C(C)CCC=C(C)CCC=C(C)C
REMARK SMILES IDX 10 1 11 2 12 3 13 4 14 5 15 6 16 7 18 8 17 9 19 10 9 11 7 12
REMARK SMILES IDX 6 13 8 14 5 15 4 16 2 17 3 18 1 19
REMARK H PARENT
REMARK Flexibility Score: inf
ROOT
ATOM      1  C   UNL     1      53.342  30.872  32.392  1.00  0.00     0.032 C 
ENDROOT
BRANCH   1   2
ATOM      2  C   UNL     1      54.464  31.298  31.473  1.00  0.00    -0.028 C 
ATOM      3  C   UNL     1      55.438  32.181  31.794  1.00  0.00    -0.077 C 
ATOM      4  C   UNL     1      55.475  32.883  33.130  1.00  0.00     0.039 C 
BRANCH   3   5
ATOM      5  C   UNL     1      56.530  32.462  30.785  1.00  0.00     0.034 C 
BRANCH   5   6
ATOM      6  C   UNL     1      57.866  32.730  31.486  1.00  0.00     0.032 C 
BRANCH   6   7
ATOM      7  C   UNL     1      58.874  31.661  31.146  1.00  0.00    -0.028 C 
ATOM      8  C   UNL     1      59.565  31.328  33.531  1.00  0.00     0.039 C 
ATOM      9  C   UNL     1      59.661  31.038  32.051  1.00  0.00    -0.080 C 
ATOM     10  C   UNL     1      60.648  30.011  31.559  1.00  0.00     0.039 C 
ENDBRANCH   6   7
ENDBRANCH   5   6
ENDBRANCH   3   5
ENDBRANCH   1   2
BRANCH   1  11
ATOM     11  C   UNL     1      52.146  31.827  32.278  1.00  0.00     0.034 C 
BRANCH  11  12
ATOM     12  C   UNL     1      51.553  31.827  30.881  1.00  0.00    -0.077 C 
ATOM     13  C   UNL     1      51.200  32.958  30.225  1.00  0.00    -0.028 C 
ATOM     14  C   UNL     1      51.339  30.507  30.184  1.00  0.00     0.039 C 
BRANCH  13  15
ATOM     15  C   UNL     1      51.338  34.366  30.758  1.00  0.00     0.035 C 
BRANCH  15  16
ATOM     16  C   UNL     1      52.784  34.847  30.615  1.00  0.00     0.079 C 
BRANCH  16  17
ATOM     17  C   UNL     1      53.024  36.075  31.451  1.00  0.00     0.130 C 
ATOM     18  O   UNL     1      52.237  37.007  31.390  1.00  0.00    -0.300 OA
ATOM     19  C   UNL     1      54.207  36.176  32.368  1.00  0.00     0.087 C 
ENDBRANCH  16  17
ENDBRANCH  15  16
ENDBRANCH  13  15
ENDBRANCH  11  12
ENDBRANCH   1  11
TORSDOF 9
ENDMDL
MODEL 3
REMARK VINA RESULT:    -5.449      3.046      7.246
REMARK INTER + INTRA:         -10.147
REMARK INTER:                  -7.827
REMARK INTRA:                  -2.319
REMARK UNBOUND:                -1.831
REMARK SMILES CC(=O)CCC=C(C)CCC=C(C)CCC=C(C)C
REMARK SMILES IDX 10 1 11 2 12 3 13 4 14 5 15 6 16 7 18 8 17 9 19 10 9 11 7 12
REMARK SMILES IDX 6 13 8 14 5 15 4 16 2 17 3 18 1 19
REMARK H PARENT
REMARK Flexibility Score: inf
ROOT
ATOM      1  C   UNL     1      58.726  33.929  31.705  1.00  0.00     0.032 C 
ENDROOT
BRANCH   1   2
ATOM      2  C   UNL     1      57.473  34.582  32.241  1.00  0.00    -0.028 C 
ATOM      3  C   UNL     1      57.064  34.536  33.530  1.00  0.00    -0.077 C 
ATOM      4  C   UNL     1      57.822  33.766  34.585  1.00  0.00     0.039 C 
BRANCH   3   5
ATOM      5  C   UNL     1      55.814  35.292  33.926  1.00  0.00     0.034 C 
BRANCH   5   6
ATOM      6  C   UNL     1      54.971  35.637  32.693  1.00  0.00     0.032 C 
BRANCH   6   7
ATOM      7  C   UNL     1      53.519  35.805  33.067  1.00  0.00    -0.028 C 
ATOM      8  C   UNL     1      52.688  34.695  30.981  1.00  0.00     0.039 C 
ATOM      9  C   UNL     1      52.482  35.407  32.298  1.00  0.00    -0.080 C 
ATOM     10  C   UNL     1      51.082  35.672  32.787  1.00  0.00     0.039 C 
ENDBRANCH   6   7
ENDBRANCH   5   6
ENDBRANCH   3   5
ENDBRANCH   1   2
BRANCH   1  11
ATOM     11  C   UNL     1      58.382  32.732  30.809  1.00  0.00     0.034 C 
BRANCH  11  12
ATOM     12  C   UNL     1      58.094  31.481  31.620  1.00  0.00    -0.077 C 
ATOM     13  C   UNL     1      56.842  31.024  31.858  1.00  0.00    -0.028 C 
ATOM     14  C   UNL     1      59.253  30.708  32.196  1.00  0.00     0.039 C 
BRANCH  13  15
ATOM     15  C   UNL     1      55.562  31.662  31.367  1.00  0.00     0.035 C 
BRANCH  15  16
ATOM     16  C   UNL     1      54.636  31.966  32.548  1.00  0.00     0.079 C 
BRANCH  16  17
ATOM     17  C   UNL     1      53.525  30.952  32.630  1.00  0.00     0.130 C 
ATOM     18  O   UNL     1      53.710  29.907  33.235  1.00  0.00    -0.300 OA
ATOM     19  C   UNL     1      52.192  31.203  31.992  1.00  0.00     0.087 C 
ENDBRANCH  16  17
ENDBRANCH  15  16
ENDBRANCH  13  15
ENDBRANCH  11  12
ENDBRANCH   1  11
TORSDOF 9
ENDMDL
MODEL 4
REMARK VINA RESULT:    -5.441      2.755      3.995
REMARK INTER + INTRA:         -10.135
REMARK INTER:                  -8.318
REMARK INTRA:                  -1.817
REMARK UNBOUND:                -1.831
REMARK SMILES CC(=O)CCC=C(C)CCC=C(C)CCC=C(C)C
REMARK SMILES IDX 10 1 11 2 12 3 13 4 14 5 15 6 16 7 18 8 17 9 19 10 9 11 7 12
REMARK SMILES IDX 6 13 8 14 5 15 4 16 2 17 3 18 1 19
REMARK H PARENT
REMARK Flexibility Score: inf
ROOT
ATOM      1  C   UNL     1      49.878  33.497  32.632  1.00  0.00     0.032 C 
ENDROOT
BRANCH   1   2
ATOM      2  C   UNL     1      50.810  32.337  32.372  1.00  0.00    -0.028 C 
ATOM      3  C   UNL     1      51.316  32.003  31.161  1.00  0.00    -0.077 C 
ATOM      4  C   UNL     1      50.953  32.757  29.905  1.00  0.00     0.039 C 
BRANCH   3   5
ATOM      5  C   UNL     1      52.287  30.846  31.070  1.00  0.00     0.034 C 
BRANCH   5   6
ATOM      6  C   UNL     1      53.280  30.873  32.239  1.00  0.00     0.032 C 
BRANCH   6   7
ATOM      7  C   UNL     1      54.686  31.103  31.743  1.00  0.00    -0.028 C 
ATOM      8  C   UNL     1      54.626  33.559  32.228  1.00  0.00     0.039 C 
ATOM      9  C   UNL     1      55.297  32.308  31.711  1.00  0.00    -0.080 C 
ATOM     10  C   UNL     1      56.695  32.389  31.155  1.00  0.00     0.039 C 
ENDBRANCH   6   7
ENDBRANCH   5   6
ENDBRANCH   3   5
ENDBRANCH   1   2
BRANCH   1  11
ATOM     11  C   UNL     1      50.663  34.800  32.829  1.00  0.00     0.034 C 
BRANCH  11  12
ATOM     12  C   UNL     1      50.186  35.896  31.893  1.00  0.00    -0.077 C 
ATOM     13  C   UNL     1      50.989  36.495  30.983  1.00  0.00    -0.028 C 
ATOM     14  C   UNL     1      48.750  36.349  31.980  1.00  0.00     0.039 C 
BRANCH  13  15
ATOM     15  C   UNL     1      52.449  36.179  30.751  1.00  0.00     0.035 C 
BRANCH  15  16
ATOM     16  C   UNL     1      53.328  37.037  31.664  1.00  0.00     0.079 C 
BRANCH  16  17
ATOM     17  C   UNL     1      53.863  38.233  30.921  1.00  0.00     0.130 C 
ATOM     18  O   UNL     1      55.065  38.337  30.736  1.00  0.00    -0.300 OA
ATOM     19  C   UNL     1      52.946  39.297  30.393  1.00  0.00     0.087 C 
ENDBRANCH  16  17
ENDBRANCH  15  16
ENDBRANCH  13  15
ENDBRANCH  11  12
ENDBRANCH   1  11
TORSDOF 9
ENDMDL
MODEL 5
REMARK VINA RESULT:    -5.334      2.847      5.058
REMARK INTER + INTRA:          -9.971
REMARK INTER:                  -8.209
REMARK INTRA:                  -1.762
REMARK UNBOUND:                -1.831
REMARK SMILES CC(=O)CCC=C(C)CCC=C(C)CCC=C(C)C
REMARK SMILES IDX 10 1 11 2 12 3 13 4 14 5 15 6 16 7 18 8 17 9 19 10 9 11 7 12
REMARK SMILES IDX 6 13 8 14 5 15 4 16 2 17 3 18 1 19
REMARK H PARENT
REMARK Flexibility Score: inf
ROOT
ATOM      1  C   UNL     1      54.114  31.687  31.524  1.00  0.00     0.032 C 
ENDROOT
BRANCH   1   2
ATOM      2  C   UNL     1      54.290  33.175  31.715  1.00  0.00    -0.028 C 
ATOM      3  C   UNL     1      55.299  33.756  32.406  1.00  0.00    -0.077 C 
ATOM      4  C   UNL     1      56.358  32.944  33.111  1.00  0.00     0.039 C 
BRANCH   3   5
ATOM      5  C   UNL     1      55.372  35.266  32.458  1.00  0.00     0.034 C 
BRANCH   5   6
ATOM      6  C   UNL     1      56.318  35.729  33.573  1.00  0.00     0.032 C 
BRANCH   6   7
ATOM      7  C   UNL     1      55.541  36.135  34.801  1.00  0.00    -0.028 C 
ATOM      8  C   UNL     1      56.916  34.715  36.338  1.00  0.00     0.039 C 
ATOM      9  C   UNL     1      55.783  35.671  36.046  1.00  0.00    -0.080 C 
ATOM     10  C   UNL     1      54.900  36.142  37.173  1.00  0.00     0.039 C 
ENDBRANCH   6   7
ENDBRANCH   5   6
ENDBRANCH   3   5
ENDBRANCH   1   2
BRANCH   1  11
ATOM     11  C   UNL     1      52.880  31.177  32.279  1.00  0.00     0.034 C 
BRANCH  11  12
ATOM     12  C   UNL     1      51.609  31.342  31.465  1.00  0.00    -0.077 C 
ATOM     13  C   UNL     1      50.627  32.215  31.791  1.00  0.00    -0.028 C 
ATOM     14  C   UNL     1      51.423  30.492  30.234  1.00  0.00     0.039 C 
BRANCH  13  15
ATOM     15  C   UNL     1      50.635  33.145  32.983  1.00  0.00     0.035 C 
BRANCH  15  16
ATOM     16  C   UNL     1      50.207  34.552  32.558  1.00  0.00     0.079 C 
BRANCH  16  17
ATOM     17  C   UNL     1      51.403  35.380  32.170  1.00  0.00     0.130 C 
ATOM     18  O   UNL     1      52.078  35.906  33.041  1.00  0.00    -0.300 OA
ATOM     19  C   UNL     1      51.790  35.565  30.733  1.00  0.00     0.087 C 
ENDBRANCH  16  17
ENDBRANCH  15  16
ENDBRANCH  13  15
ENDBRANCH  11  12
ENDBRANCH   1  11
TORSDOF 9
ENDMDL
MODEL 6
REMARK VINA RESULT:    -5.327      2.542      4.229
REMARK INTER + INTRA:          -9.960
REMARK INTER:                  -8.442
REMARK INTRA:                  -1.518
REMARK UNBOUND:                -1.831
REMARK SMILES CC(=O)CCC=C(C)CCC=C(C)CCC=C(C)C
REMARK SMILES IDX 10 1 11 2 12 3 13 4 14 5 15 6 16 7 18 8 17 9 19 10 9 11 7 12
REMARK SMILES IDX 6 13 8 14 5 15 4 16 2 17 3 18 1 19
REMARK H PARENT
REMARK Flexibility Score: inf
ROOT
ATOM      1  C   UNL     1      51.308  31.716  32.018  1.00  0.00     0.032 C 
ENDROOT
BRANCH   1   2
ATOM      2  C   UNL     1      52.688  31.677  31.404  1.00  0.00    -0.028 C 
ATOM      3  C   UNL     1      53.728  30.949  31.875  1.00  0.00    -0.077 C 
ATOM      4  C   UNL     1      53.618  30.112  33.125  1.00  0.00     0.039 C 
BRANCH   3   5
ATOM      5  C   UNL     1      55.035  30.968  31.113  1.00  0.00     0.034 C 
BRANCH   5   6
ATOM      6  C   UNL     1      56.084  31.810  31.849  1.00  0.00     0.032 C 
BRANCH   6   7
ATOM      7  C   UNL     1      57.395  31.070  31.943  1.00  0.00    -0.028 C 
ATOM      8  C   UNL     1      58.710  32.945  30.929  1.00  0.00     0.039 C 
ATOM      9  C   UNL     1      58.580  31.557  31.513  1.00  0.00    -0.080 C 
ATOM     10  C   UNL     1      59.804  30.688  31.642  1.00  0.00     0.039 C 
ENDBRANCH   6   7
ENDBRANCH   5   6
ENDBRANCH   3   5
ENDBRANCH   1   2
BRANCH   1  11
ATOM     11  C   UNL     1      50.995  33.111  32.577  1.00  0.00     0.034 C 
BRANCH  11  12
ATOM     12  C   UNL     1      50.373  34.015  31.529  1.00  0.00    -0.077 C 
ATOM     13  C   UNL     1      51.065  34.977  30.874  1.00  0.00    -0.028 C 
ATOM     14  C   UNL     1      48.912  33.843  31.198  1.00  0.00     0.039 C 
BRANCH  13  15
ATOM     15  C   UNL     1      52.529  35.298  31.071  1.00  0.00     0.035 C 
BRANCH  15  16
ATOM     16  C   UNL     1      52.702  36.306  32.210  1.00  0.00     0.079 C 
BRANCH  16  17
ATOM     17  C   UNL     1      53.951  36.013  32.998  1.00  0.00     0.130 C 
ATOM     18  O   UNL     1      54.657  36.937  33.370  1.00  0.00    -0.300 OA
ATOM     19  C   UNL     1      54.343  34.607  33.344  1.00  0.00     0.087 C 
ENDBRANCH  16  17
ENDBRANCH  15  16
ENDBRANCH  13  15
ENDBRANCH  11  12
ENDBRANCH   1  11
TORSDOF 9
ENDMDL
MODEL 7
REMARK VINA RESULT:    -5.313      3.019      8.158
REMARK INTER + INTRA:          -9.940
REMARK INTER:                  -8.664
REMARK INTRA:                  -1.275
REMARK UNBOUND:                -1.831
REMARK SMILES CC(=O)CCC=C(C)CCC=C(C)CCC=C(C)C
REMARK SMILES IDX 10 1 11 2 12 3 13 4 14 5 15 6 16 7 18 8 17 9 19 10 9 11 7 12
REMARK SMILES IDX 6 13 8 14 5 15 4 16 2 17 3 18 1 19
REMARK H PARENT
REMARK Flexibility Score: inf
ROOT
ATOM      1  C   UNL     1      50.494  33.656  31.427  1.00  0.00     0.032 C 
ENDROOT
BRANCH   1   2
ATOM      2  C   UNL     1      49.158  34.127  31.954  1.00  0.00    -0.028 C 
ATOM      3  C   UNL     1      47.963  33.887  31.367  1.00  0.00    -0.077 C 
ATOM      4  C   UNL     1      47.847  33.137  30.062  1.00  0.00     0.039 C 
BRANCH   3   5
ATOM      5  C   UNL     1      46.703  34.376  32.049  1.00  0.00     0.034 C 
BRANCH   5   6
ATOM      6  C   UNL     1      45.683  34.877  31.019  1.00  0.00     0.032 C 
BRANCH   6   7
ATOM      7  C   UNL     1      44.274  34.627  31.496  1.00  0.00    -0.028 C 
ATOM      8  C   UNL     1      44.165  32.340  30.482  1.00  0.00     0.039 C 
ATOM      9  C   UNL     1      43.571  33.502  31.244  1.00  0.00    -0.080 C 
ATOM     10  C   UNL     1      42.157  33.408  31.757  1.00  0.00     0.039 C 
ENDBRANCH   6   7
ENDBRANCH   5   6
ENDBRANCH   3   5
ENDBRANCH   1   2
BRANCH   1  11
ATOM     11  C   UNL     1      51.068  32.538  32.307  1.00  0.00     0.034 C 
BRANCH  11  12
ATOM     12  C   UNL     1      51.401  31.296  31.499  1.00  0.00    -0.077 C 
ATOM     13  C   UNL     1      52.595  30.662  31.572  1.00  0.00    -0.028 C 
ATOM     14  C   UNL     1      50.358  30.739  30.563  1.00  0.00     0.039 C 
BRANCH  13  15
ATOM     15  C   UNL     1      53.759  31.071  32.447  1.00  0.00     0.035 C 
BRANCH  15  16
ATOM     16  C   UNL     1      55.051  31.106  31.627  1.00  0.00     0.079 C 
BRANCH  16  17
ATOM     17  C   UNL     1      55.550  32.519  31.477  1.00  0.00     0.130 C 
ATOM     18  O   UNL     1      56.699  32.715  31.111  1.00  0.00    -0.300 OA
ATOM     19  C   UNL     1      54.662  33.694  31.760  1.00  0.00     0.087 C 
ENDBRANCH  16  17
ENDBRANCH  15  16
ENDBRANCH  13  15
ENDBRANCH  11  12
ENDBRANCH   1  11
TORSDOF 9
ENDMDL
MODEL 8
REMARK VINA RESULT:    -5.301      1.522      2.264
REMARK INTER + INTRA:          -9.921
REMARK INTER:                  -7.951
REMARK INTRA:                  -1.970
REMARK UNBOUND:                -1.831
REMARK SMILES CC(=O)CCC=C(C)CCC=C(C)CCC=C(C)C
REMARK SMILES IDX 10 1 11 2 12 3 13 4 14 5 15 6 16 7 18 8 17 9 19 10 9 11 7 12
REMARK SMILES IDX 6 13 8 14 5 15 4 16 2 17 3 18 1 19
REMARK H PARENT
REMARK Flexibility Score: inf
ROOT
ATOM      1  C   UNL     1      49.349  33.313  32.037  1.00  0.00     0.032 C 
ENDROOT
BRANCH   1   2
ATOM      2  C   UNL     1      50.692  32.771  32.471  1.00  0.00    -0.028 C 
ATOM      3  C   UNL     1      51.405  31.837  31.801  1.00  0.00    -0.077 C 
ATOM      4  C   UNL     1      50.894  31.193  30.535  1.00  0.00     0.039 C 
BRANCH   3   5
ATOM      5  C   UNL     1      52.765  31.437  32.332  1.00  0.00     0.034 C 
BRANCH   5   6
ATOM      6  C   UNL     1      53.867  32.318  31.731  1.00  0.00     0.032 C 
BRANCH   6   7
ATOM      7  C   UNL     1      54.098  33.542  32.582  1.00  0.00    -0.028 C 
ATOM      8  C   UNL     1      53.065  35.095  30.911  1.00  0.00     0.039 C 
ATOM      9  C   UNL     1      53.764  34.799  32.218  1.00  0.00    -0.080 C 
ATOM     10  C   UNL     1      54.088  35.930  33.159  1.00  0.00     0.039 C 
ENDBRANCH   6   7
ENDBRANCH   5   6
ENDBRANCH   3   5
ENDBRANCH   1   2
BRANCH   1  11
ATOM     11  C   UNL     1      49.516  34.586  31.196  1.00  0.00     0.034 C 
BRANCH  11  12
ATOM     12  C   UNL     1      49.178  35.837  31.988  1.00  0.00    -0.077 C 
ATOM     13  C   UNL     1      47.951  36.409  31.981  1.00  0.00    -0.028 C 
ATOM     14  C   UNL     1      50.257  36.481  32.821  1.00  0.00     0.039 C 
BRANCH  13  15
ATOM     15  C   UNL     1      46.750  35.911  31.210  1.00  0.00     0.035 C 
BRANCH  15  16
ATOM     16  C   UNL     1      45.976  34.885  32.042  1.00  0.00     0.079 C 
BRANCH  16  17
ATOM     17  C   UNL     1      45.382  33.820  31.159  1.00  0.00     0.130 C 
ATOM     18  O   UNL     1      44.207  33.513  31.295  1.00  0.00    -0.300 OA
ATOM     19  C   UNL     1      46.200  33.133  30.107  1.00  0.00     0.087 C 
ENDBRANCH  16  17
ENDBRANCH  15  16
ENDBRANCH  13  15
ENDBRANCH  11  12
ENDBRANCH   1  11
TORSDOF 9
ENDMDL
MODEL 9
REMARK VINA RESULT:    -5.263      2.014      6.113
REMARK INTER + INTRA:          -9.862
REMARK INTER:                  -7.772
REMARK INTRA:                  -2.090
REMARK UNBOUND:                -1.831
REMARK SMILES CC(=O)CCC=C(C)CCC=C(C)CCC=C(C)C
REMARK SMILES IDX 10 1 11 2 12 3 13 4 14 5 15 6 16 7 18 8 17 9 19 10 9 11 7 12
REMARK SMILES IDX 6 13 8 14 5 15 4 16 2 17 3 18 1 19
REMARK H PARENT
REMARK Flexibility Score: inf
ROOT
ATOM      1  C   UNL     1      51.349  30.849  31.320  1.00  0.00     0.032 C 
ENDROOT
BRANCH   1   2
ATOM      2  C   UNL     1      50.338  31.877  30.868  1.00  0.00    -0.028 C 
ATOM      3  C   UNL     1      49.929  32.939  31.601  1.00  0.00    -0.077 C 
ATOM      4  C   UNL     1      50.428  33.185  33.004  1.00  0.00     0.039 C 
BRANCH   3   5
ATOM      5  C   UNL     1      48.951  33.917  30.986  1.00  0.00     0.034 C 
BRANCH   5   6
ATOM      6  C   UNL     1      49.017  35.275  31.695  1.00  0.00     0.032 C 
BRANCH   6   7
ATOM      7  C   UNL     1      49.294  36.381  30.709  1.00  0.00    -0.028 C 
ATOM      8  C   UNL     1      49.610  38.110  32.493  1.00  0.00     0.039 C 
ATOM      9  C   UNL     1      49.540  37.665  31.051  1.00  0.00    -0.080 C 
ATOM     10  C   UNL     1      49.766  38.671  29.952  1.00  0.00     0.039 C 
ENDBRANCH   6   7
ENDBRANCH   5   6
ENDBRANCH   3   5
ENDBRANCH   1   2
BRANCH   1  11
ATOM     11  C   UNL     1      52.778  31.299  30.985  1.00  0.00     0.034 C 
BRANCH  11  12
ATOM     12  C   UNL     1      53.687  31.249  32.199  1.00  0.00    -0.077 C 
ATOM     13  C   UNL     1      54.556  32.238  32.516  1.00  0.00    -0.028 C 
ATOM     14  C   UNL     1      53.628  30.041  33.099  1.00  0.00     0.039 C 
BRANCH  13  15
ATOM     15  C   UNL     1      54.756  33.518  31.737  1.00  0.00     0.035 C 
BRANCH  15  16
ATOM     16  C   UNL     1      54.335  34.723  32.583  1.00  0.00     0.079 C 
BRANCH  16  17
ATOM     17  C   UNL     1      53.140  35.410  31.977  1.00  0.00     0.130 C 
ATOM     18  O   UNL     1      52.546  36.261  32.621  1.00  0.00    -0.300 OA
ATOM     19  C   UNL     1      52.667  35.076  30.594  1.00  0.00     0.087 C 
ENDBRANCH  16  17
ENDBRANCH  15  16
ENDBRANCH  13  15
ENDBRANCH  11  12
ENDBRANCH   1  11
TORSDOF 9
ENDMDL
