MODEL 1
REMARK VINA RESULT:    -5.781      0.000      0.000
REMARK INTER + INTRA:          -9.762
REMARK INTER:                  -7.978
REMARK INTRA:                  -1.784
REMARK UNBOUND:                -1.784
REMARK SMILES C=C(CC[C@H](C(=O)[O-])[C@@H]1CC[C@@]2(C)C3=C(CC[C@@]12C)[C@@]1(C)CC[C@@H](O)C(C)(C)[C@H]1CC3)C(C)C
REMARK SMILES IDX 4 1 5 2 6 3 7 4 8 5 9 6 10 7 18 8 11 9 12 10 17 11 19 12
REMARK SMILES IDX 13 13 14 14 16 15 15 16 31 17 20 18 30 19 29 20 22 21 21 22
REMARK SMILES IDX 26 23 23 24 24 25 27 26 28 27 25 28 3 30 2 31 1 32 32 33
REMARK SMILES IDX 33 34 34 35
REMARK H PARENT 25 29
REMARK Flexibility Score: inf
ROOT
ATOM      1  C   UNL     1      -5.114  36.548  44.448  1.00  0.00     0.014 C 
ENDROOT
BRANCH   1   2
ATOM      2  C   UNL     1      -6.537  36.247  43.876  1.00  0.00     0.039 C 
BRANCH   2   3
ATOM      3  C   UNL     1      -7.412  37.444  44.166  1.00  0.00     0.045 C 
ATOM      4  O   UNL     1      -7.166  38.557  43.631  1.00  0.00    -0.550 OA
ATOM      5  O   UNL     1      -8.453  37.345  45.082  1.00  0.00    -0.550 OA
ENDBRANCH   2   3
BRANCH   2   6
ATOM      6  C   UNL     1      -7.165  34.925  44.451  1.00  0.00     0.004 C 
ATOM      7  C   UNL     1      -6.564  34.550  45.811  1.00  0.00     0.006 C 
ATOM      8  C   UNL     1      -7.081  33.600  43.574  1.00  0.00    -0.020 C 
ATOM      9  C   UNL     1      -6.839  33.078  45.996  1.00  0.00     0.012 C 
ATOM     10  C   UNL     1      -6.660  32.440  44.609  1.00  0.00    -0.006 C 
ATOM     11  C   UNL     1      -8.475  33.329  42.925  1.00  0.00     0.012 C 
ATOM     12  C   UNL     1      -6.090  33.706  42.372  1.00  0.00     0.012 C 
ATOM     13  C   UNL     1      -5.148  32.063  44.477  1.00  0.00     0.017 C 
ATOM     14  C   UNL     1      -7.555  31.164  44.547  1.00  0.00    -0.064 C 
ATOM     15  C   UNL     1      -9.415  32.620  43.876  1.00  0.00     0.032 C 
ATOM     16  C   UNL     1      -8.859  31.238  44.158  1.00  0.00    -0.064 C 
ATOM     17  C   UNL     1      -7.098  29.886  45.206  1.00  0.00     0.032 C 
ATOM     18  C   UNL     1      -9.798  29.996  44.035  1.00  0.00    -0.008 C 
ATOM     19  C   UNL     1      -7.574  28.687  44.420  1.00  0.00     0.009 C 
ATOM     20  C   UNL     1      -9.115  28.602  44.436  1.00  0.00     0.007 C 
ATOM     21  C   UNL     1     -10.357  29.935  42.571  1.00  0.00     0.014 C 
ATOM     22  C   UNL     1     -10.977  30.260  45.013  1.00  0.00     0.016 C 
ATOM     23  C   UNL     1      -9.629  27.343  43.611  1.00  0.00    -0.006 C 
ATOM     24  C   UNL     1      -9.503  29.071  41.651  1.00  0.00     0.033 C 
ATOM     25  C   UNL     1      -9.504  27.582  42.056  1.00  0.00     0.120 C 
ATOM     26  C   UNL     1      -8.857  26.052  44.024  1.00  0.00     0.014 C 
ATOM     27  C   UNL     1     -11.110  27.029  43.972  1.00  0.00     0.014 C 
BRANCH  25  28
ATOM     28  O   UNL     1      -8.335  26.988  41.542  1.00  0.00    -0.393 OA
ATOM     29  H   UNL     1      -8.508  26.784  40.586  1.00  0.00     0.210 HD
ENDBRANCH  25  28
ENDBRANCH   2   6
ENDBRANCH   1   2
BRANCH   1  30
ATOM     30  C   UNL     1      -4.069  36.912  43.374  1.00  0.00     0.031 C 
BRANCH  30  31
ATOM     31  C   UNL     1      -3.269  35.719  42.879  1.00  0.00    -0.075 C 
ATOM     32  C   UNL     1      -2.763  34.850  43.772  1.00  0.00     0.008 C 
BRANCH  31  33
ATOM     33  C   UNL     1      -2.872  35.589  41.413  1.00  0.00     0.008 C 
ATOM     34  C   UNL     1      -2.614  34.132  41.012  1.00  0.00     0.012 C 
ATOM     35  C   UNL     1      -3.930  36.227  40.505  1.00  0.00     0.012 C 
ENDBRANCH  31  33
ENDBRANCH  30  31
ENDBRANCH   1  30
TORSDOF 7
ENDMDL
MODEL 2
REMARK VINA RESULT:    -5.596      1.917      8.574
REMARK INTER + INTRA:          -9.506
REMARK INTER:                  -7.456
REMARK INTRA:                  -2.050
REMARK UNBOUND:                -1.784
REMARK SMILES C=C(CC[C@H](C(=O)[O-])[C@@H]1CC[C@@]2(C)C3=C(CC[C@@]12C)[C@@]1(C)CC[C@@H](O)C(C)(C)[C@H]1CC3)C(C)C
REMARK SMILES IDX 4 1 5 2 6 3 7 4 8 5 9 6 10 7 18 8 11 9 12 10 17 11 19 12
REMARK SMILES IDX 13 13 14 14 16 15 15 16 31 17 20 18 30 19 29 20 22 21 21 22
REMARK SMILES IDX 26 23 23 24 24 25 27 26 28 27 25 28 3 30 2 31 1 32 32 33
REMARK SMILES IDX 33 34 34 35
REMARK H PARENT 25 29
REMARK Flexibility Score: inf
ROOT
ATOM      1  C   UNL     1      -9.905  28.108  43.064  1.00  0.00     0.014 C 
ENDROOT
BRANCH   1   2
ATOM      2  C   UNL     1      -9.941  29.612  42.639  1.00  0.00     0.039 C 
BRANCH   2   3
ATOM      3  C   UNL     1      -9.786  29.670  41.138  1.00  0.00     0.045 C 
ATOM      4  O   UNL     1      -9.343  30.710  40.584  1.00  0.00    -0.550 OA
ATOM      5  O   UNL     1     -10.199  28.603  40.349  1.00  0.00    -0.550 OA
ENDBRANCH   2   3
BRANCH   2   6
ATOM      6  C   UNL     1      -8.849  30.483  43.363  1.00  0.00     0.004 C 
ATOM      7  C   UNL     1      -8.239  29.752  44.565  1.00  0.00     0.006 C 
ATOM      8  C   UNL     1      -9.262  31.919  43.909  1.00  0.00    -0.020 C 
ATOM      9  C   UNL     1      -7.634  30.822  45.439  1.00  0.00     0.012 C 
ATOM     10  C   UNL     1      -8.602  32.014  45.375  1.00  0.00    -0.006 C 
ATOM     11  C   UNL     1      -8.705  33.011  42.942  1.00  0.00     0.012 C 
ATOM     12  C   UNL     1     -10.805  32.158  43.940  1.00  0.00     0.012 C 
ATOM     13  C   UNL     1      -9.661  31.798  46.505  1.00  0.00     0.017 C 
ATOM     14  C   UNL     1      -7.781  33.316  45.629  1.00  0.00    -0.064 C 
ATOM     15  C   UNL     1      -7.254  33.337  43.231  1.00  0.00     0.032 C 
ATOM     16  C   UNL     1      -7.171  33.974  44.604  1.00  0.00    -0.064 C 
ATOM     17  C   UNL     1      -7.387  33.699  47.034  1.00  0.00     0.032 C 
ATOM     18  C   UNL     1      -6.369  35.303  44.782  1.00  0.00    -0.008 C 
ATOM     19  C   UNL     1      -7.375  35.202  47.188  1.00  0.00     0.009 C 
ATOM     20  C   UNL     1      -6.287  35.833  46.293  1.00  0.00     0.007 C 
ATOM     21  C   UNL     1      -6.997  36.395  43.848  1.00  0.00     0.014 C 
ATOM     22  C   UNL     1      -4.926  34.993  44.296  1.00  0.00     0.016 C 
ATOM     23  C   UNL     1      -6.266  37.416  46.446  1.00  0.00    -0.006 C 
ATOM     24  C   UNL     1      -8.058  37.231  44.551  1.00  0.00     0.033 C 
ATOM     25  C   UNL     1      -7.485  38.085  45.701  1.00  0.00     0.120 C 
ATOM     26  C   UNL     1      -6.256  37.831  47.950  1.00  0.00     0.014 C 
ATOM     27  C   UNL     1      -4.934  37.994  45.887  1.00  0.00     0.014 C 
BRANCH  25  28
ATOM     28  O   UNL     1      -8.533  38.374  46.596  1.00  0.00    -0.393 OA
ATOM     29  H   UNL     1      -8.354  37.863  47.429  1.00  0.00     0.210 HD
ENDBRANCH  25  28
ENDBRANCH   2   6
ENDBRANCH   1   2
BRANCH   1  30
ATOM     30  C   UNL     1     -11.265  27.555  43.532  1.00  0.00     0.031 C 
BRANCH  30  31
ATOM     31  C   UNL     1     -12.076  28.550  44.346  1.00  0.00    -0.075 C 
ATOM     32  C   UNL     1     -13.108  29.187  43.767  1.00  0.00     0.008 C 
BRANCH  31  33
ATOM     33  C   UNL     1     -11.629  28.977  45.740  1.00  0.00     0.008 C 
ATOM     34  C   UNL     1     -12.770  29.618  46.540  1.00  0.00     0.012 C 
ATOM     35  C   UNL     1     -11.025  27.792  46.504  1.00  0.00     0.012 C 
ENDBRANCH  31  33
ENDBRANCH  30  31
ENDBRANCH   1  30
TORSDOF 7
ENDMDL
MODEL 3
REMARK VINA RESULT:    -5.573      6.074      8.209
REMARK INTER + INTRA:          -9.475
REMARK INTER:                  -7.413
REMARK INTRA:                  -2.062
REMARK UNBOUND:                -1.784
REMARK SMILES C=C(CC[C@H](C(=O)[O-])[C@@H]1CC[C@@]2(C)C3=C(CC[C@@]12C)[C@@]1(C)CC[C@@H](O)C(C)(C)[C@H]1CC3)C(C)C
REMARK SMILES IDX 4 1 5 2 6 3 7 4 8 5 9 6 10 7 18 8 11 9 12 10 17 11 19 12
REMARK SMILES IDX 13 13 14 14 16 15 15 16 31 17 20 18 30 19 29 20 22 21 21 22
REMARK SMILES IDX 26 23 23 24 24 25 27 26 28 27 25 28 3 30 2 31 1 32 32 33
REMARK SMILES IDX 33 34 34 35
REMARK H PARENT 25 29
REMARK Flexibility Score: inf
ROOT
ATOM      1  C   UNL     1       0.673  30.217  41.971  1.00  0.00     0.014 C 
ENDROOT
BRANCH   1   2
ATOM      2  C   UNL     1       0.117  28.842  42.464  1.00  0.00     0.039 C 
BRANCH   2   3
ATOM      3  C   UNL     1       0.002  27.934  41.262  1.00  0.00     0.045 C 
ATOM      4  O   UNL     1      -0.244  28.412  40.124  1.00  0.00    -0.550 OA
ATOM      5  O   UNL     1       0.096  26.555  41.414  1.00  0.00    -0.550 OA
ENDBRANCH   2   3
BRANCH   2   6
ATOM      6  C   UNL     1      -1.256  28.968  43.220  1.00  0.00     0.004 C 
ATOM      7  C   UNL     1      -1.961  30.294  42.907  1.00  0.00     0.006 C 
ATOM      8  C   UNL     1      -1.264  28.853  44.807  1.00  0.00    -0.020 C 
ATOM      9  C   UNL     1      -2.942  30.518  44.031  1.00  0.00     0.012 C 
ATOM     10  C   UNL     1      -2.236  30.034  45.308  1.00  0.00    -0.006 C 
ATOM     11  C   UNL     1      -1.797  27.442  45.212  1.00  0.00     0.012 C 
ATOM     12  C   UNL     1       0.158  28.946  45.449  1.00  0.00     0.012 C 
ATOM     13  C   UNL     1      -1.432  31.252  45.869  1.00  0.00     0.017 C 
ATOM     14  C   UNL     1      -3.332  29.581  46.322  1.00  0.00    -0.064 C 
ATOM     15  C   UNL     1      -3.310  27.388  45.218  1.00  0.00     0.032 C 
ATOM     16  C   UNL     1      -3.818  28.308  46.311  1.00  0.00    -0.064 C 
ATOM     17  C   UNL     1      -4.094  30.609  47.121  1.00  0.00     0.032 C 
ATOM     18  C   UNL     1      -4.883  27.779  47.322  1.00  0.00    -0.008 C 
ATOM     19  C   UNL     1      -4.433  30.068  48.490  1.00  0.00     0.009 C 
ATOM     20  C   UNL     1      -5.399  28.869  48.378  1.00  0.00     0.007 C 
ATOM     21  C   UNL     1      -4.291  26.530  48.064  1.00  0.00     0.014 C 
ATOM     22  C   UNL     1      -6.094  27.325  46.460  1.00  0.00     0.016 C 
ATOM     23  C   UNL     1      -5.763  28.290  49.814  1.00  0.00    -0.006 C 
ATOM     24  C   UNL     1      -3.596  26.896  49.369  1.00  0.00     0.033 C 
ATOM     25  C   UNL     1      -4.565  27.466  50.426  1.00  0.00     0.120 C 
ATOM     26  C   UNL     1      -6.185  29.435  50.786  1.00  0.00     0.014 C 
ATOM     27  C   UNL     1      -7.026  27.385  49.726  1.00  0.00     0.014 C 
BRANCH  25  28
ATOM     28  O   UNL     1      -3.818  28.247  51.328  1.00  0.00    -0.393 OA
ATOM     29  H   UNL     1      -4.126  28.012  52.242  1.00  0.00     0.210 HD
ENDBRANCH  25  28
ENDBRANCH   2   6
ENDBRANCH   1   2
BRANCH   1  30
ATOM     30  C   UNL     1       1.993  30.639  42.647  1.00  0.00     0.031 C 
BRANCH  30  31
ATOM     31  C   UNL     1       1.811  31.699  43.720  1.00  0.00    -0.075 C 
ATOM     32  C   UNL     1       0.904  32.674  43.535  1.00  0.00     0.008 C 
BRANCH  31  33
ATOM     33  C   UNL     1       2.759  31.787  44.911  1.00  0.00     0.008 C 
ATOM     34  C   UNL     1       2.069  32.355  46.157  1.00  0.00     0.012 C 
ATOM     35  C   UNL     1       3.385  30.419  45.209  1.00  0.00     0.012 C 
ENDBRANCH  31  33
ENDBRANCH  30  31
ENDBRANCH   1  30
TORSDOF 7
ENDMDL
MODEL 4
REMARK VINA RESULT:    -5.548      4.008      6.897
REMARK INTER + INTRA:          -9.440
REMARK INTER:                  -8.542
REMARK INTRA:                  -0.898
REMARK UNBOUND:                -1.784
REMARK SMILES C=C(CC[C@H](C(=O)[O-])[C@@H]1CC[C@@]2(C)C3=C(CC[C@@]12C)[C@@]1(C)CC[C@@H](O)C(C)(C)[C@H]1CC3)C(C)C
REMARK SMILES IDX 4 1 5 2 6 3 7 4 8 5 9 6 10 7 18 8 11 9 12 10 17 11 19 12
REMARK SMILES IDX 13 13 14 14 16 15 15 16 31 17 20 18 30 19 29 20 22 21 21 22
REMARK SMILES IDX 26 23 23 24 24 25 27 26 28 27 25 28 3 30 2 31 1 32 32 33
REMARK SMILES IDX 33 34 34 35
REMARK H PARENT 25 29
REMARK Flexibility Score: inf
ROOT
ATOM      1  C   UNL     1      -7.324  36.694  45.288  1.00  0.00     0.014 C 
ENDROOT
BRANCH   1   2
ATOM      2  C   UNL     1      -7.047  35.349  44.543  1.00  0.00     0.039 C 
BRANCH   2   3
ATOM      3  C   UNL     1      -7.865  34.272  45.217  1.00  0.00     0.045 C 
ATOM      4  O   UNL     1      -7.749  34.065  46.453  1.00  0.00    -0.550 OA
ATOM      5  O   UNL     1      -8.699  33.452  44.466  1.00  0.00    -0.550 OA
ENDBRANCH   2   3
BRANCH   2   6
ATOM      6  C   UNL     1      -5.521  34.969  44.504  1.00  0.00     0.004 C 
ATOM      7  C   UNL     1      -4.642  36.172  44.142  1.00  0.00     0.006 C 
ATOM      8  C   UNL     1      -5.054  33.799  43.532  1.00  0.00    -0.020 C 
ATOM      9  C   UNL     1      -3.338  35.599  43.642  1.00  0.00     0.012 C 
ATOM     10  C   UNL     1      -3.714  34.350  42.830  1.00  0.00    -0.006 C 
ATOM     11  C   UNL     1      -4.789  32.512  44.375  1.00  0.00     0.012 C 
ATOM     12  C   UNL     1      -6.138  33.381  42.488  1.00  0.00     0.012 C 
ATOM     13  C   UNL     1      -3.978  34.826  41.364  1.00  0.00     0.017 C 
ATOM     14  C   UNL     1      -2.507  33.362  42.880  1.00  0.00    -0.064 C 
ATOM     15  C   UNL     1      -3.410  32.519  45.002  1.00  0.00     0.032 C 
ATOM     16  C   UNL     1      -2.379  32.458  43.892  1.00  0.00    -0.064 C 
ATOM     17  C   UNL     1      -1.306  33.589  41.996  1.00  0.00     0.032 C 
ATOM     18  C   UNL     1      -1.220  31.416  43.982  1.00  0.00    -0.008 C 
ATOM     19  C   UNL     1      -0.706  32.270  41.571  1.00  0.00     0.009 C 
ATOM     20  C   UNL     1      -0.151  31.505  42.791  1.00  0.00     0.007 C 
ATOM     21  C   UNL     1      -1.844  29.979  44.056  1.00  0.00     0.014 C 
ATOM     22  C   UNL     1      -0.486  31.715  45.319  1.00  0.00     0.016 C 
ATOM     23  C   UNL     1       0.483  30.113  42.355  1.00  0.00    -0.006 C 
ATOM     24  C   UNL     1      -1.990  29.330  42.686  1.00  0.00     0.033 C 
ATOM     25  C   UNL     1      -0.633  29.054  42.005  1.00  0.00     0.120 C 
ATOM     26  C   UNL     1       1.454  30.295  41.148  1.00  0.00     0.014 C 
ATOM     27  C   UNL     1       1.391  29.555  43.489  1.00  0.00     0.014 C 
BRANCH  25  28
ATOM     28  O   UNL     1      -0.847  28.981  40.615  1.00  0.00    -0.393 OA
ATOM     29  H   UNL     1      -0.399  28.156  40.294  1.00  0.00     0.210 HD
ENDBRANCH  25  28
ENDBRANCH   2   6
ENDBRANCH   1   2
BRANCH   1  30
ATOM     30  C   UNL     1      -7.932  37.793  44.395  1.00  0.00     0.031 C 
BRANCH  30  31
ATOM     31  C   UNL     1      -7.019  38.993  44.204  1.00  0.00    -0.075 C 
ATOM     32  C   UNL     1      -6.213  39.042  43.129  1.00  0.00     0.008 C 
BRANCH  31  33
ATOM     33  C   UNL     1      -6.863  40.046  45.295  1.00  0.00     0.008 C 
ATOM     34  C   UNL     1      -8.096  40.125  46.202  1.00  0.00     0.012 C 
ATOM     35  C   UNL     1      -5.594  39.792  46.118  1.00  0.00     0.012 C 
ENDBRANCH  31  33
ENDBRANCH  30  31
ENDBRANCH   1  30
TORSDOF 7
ENDMDL
MODEL 5
REMARK VINA RESULT:    -5.483      1.139      1.271
REMARK INTER + INTRA:          -9.351
REMARK INTER:                  -7.206
REMARK INTRA:                  -2.145
REMARK UNBOUND:                -1.784
REMARK SMILES C=C(CC[C@H](C(=O)[O-])[C@@H]1CC[C@@]2(C)C3=C(CC[C@@]12C)[C@@]1(C)CC[C@@H](O)C(C)(C)[C@H]1CC3)C(C)C
REMARK SMILES IDX 4 1 5 2 6 3 7 4 8 5 9 6 10 7 18 8 11 9 12 10 17 11 19 12
REMARK SMILES IDX 13 13 14 14 16 15 15 16 31 17 20 18 30 19 29 20 22 21 21 22
REMARK SMILES IDX 26 23 23 24 24 25 27 26 28 27 25 28 3 30 2 31 1 32 32 33
REMARK SMILES IDX 33 34 34 35
REMARK H PARENT 25 29
REMARK Flexibility Score: inf
ROOT
ATOM      1  C   UNL     1      -3.767  37.002  44.181  1.00  0.00     0.014 C 
ENDROOT
BRANCH   1   2
ATOM      2  C   UNL     1      -5.116  36.546  43.537  1.00  0.00     0.039 C 
BRANCH   2   3
ATOM      3  C   UNL     1      -6.023  37.752  43.465  1.00  0.00     0.045 C 
ATOM      4  O   UNL     1      -5.596  38.843  43.005  1.00  0.00    -0.550 OA
ATOM      5  O   UNL     1      -7.315  37.688  43.975  1.00  0.00    -0.550 OA
ENDBRANCH   2   3
BRANCH   2   6
ATOM      6  C   UNL     1      -5.799  35.361  44.313  1.00  0.00     0.004 C 
ATOM      7  C   UNL     1      -4.960  34.903  45.512  1.00  0.00     0.006 C 
ATOM      8  C   UNL     1      -6.149  34.030  43.513  1.00  0.00    -0.020 C 
ATOM      9  C   UNL     1      -5.423  33.504  45.835  1.00  0.00     0.012 C 
ATOM     10  C   UNL     1      -5.691  32.828  44.481  1.00  0.00    -0.006 C 
ATOM     11  C   UNL     1      -7.683  33.999  43.223  1.00  0.00     0.012 C 
ATOM     12  C   UNL     1      -5.472  33.948  42.108  1.00  0.00     0.012 C 
ATOM     13  C   UNL     1      -4.340  32.191  44.019  1.00  0.00     0.017 C 
ATOM     14  C   UNL     1      -6.774  31.727  44.699  1.00  0.00    -0.064 C 
ATOM     15  C   UNL     1      -8.473  33.476  44.405  1.00  0.00     0.032 C 
ATOM     16  C   UNL     1      -8.103  32.022  44.622  1.00  0.00    -0.064 C 
ATOM     17  C   UNL     1      -6.392  30.397  45.299  1.00  0.00     0.032 C 
ATOM     18  C   UNL     1      -9.237  30.961  44.789  1.00  0.00    -0.008 C 
ATOM     19  C   UNL     1      -7.235  29.290  44.711  1.00  0.00     0.009 C 
ATOM     20  C   UNL     1      -8.719  29.475  45.092  1.00  0.00     0.007 C 
ATOM     21  C   UNL     1     -10.132  30.981  43.501  1.00  0.00     0.014 C 
ATOM     22  C   UNL     1     -10.086  31.438  46.000  1.00  0.00     0.016 C 
ATOM     23  C   UNL     1      -9.618  28.314  44.479  1.00  0.00    -0.006 C 
ATOM     24  C   UNL     1      -9.681  29.970  42.455  1.00  0.00     0.033 C 
ATOM     25  C   UNL     1      -9.832  28.509  42.927  1.00  0.00     0.120 C 
ATOM     26  C   UNL     1      -8.995  26.914  44.768  1.00  0.00     0.014 C 
ATOM     27  C   UNL     1     -11.000  28.268  45.192  1.00  0.00     0.014 C 
BRANCH  25  28
ATOM     28  O   UNL     1      -8.936  27.714  42.186  1.00  0.00    -0.393 OA
ATOM     29  H   UNL     1      -8.709  28.221  41.363  1.00  0.00     0.210 HD
ENDBRANCH  25  28
ENDBRANCH   2   6
ENDBRANCH   1   2
BRANCH   1  30
ATOM     30  C   UNL     1      -2.598  37.107  43.181  1.00  0.00     0.031 C 
BRANCH  30  31
ATOM     31  C   UNL     1      -2.226  35.779  42.544  1.00  0.00    -0.075 C 
ATOM     32  C   UNL     1      -1.830  34.761  43.328  1.00  0.00     0.008 C 
BRANCH  31  33
ATOM     33  C   UNL     1      -2.114  35.634  41.030  1.00  0.00     0.008 C 
ATOM     34  C   UNL     1      -2.047  34.166  40.594  1.00  0.00     0.012 C 
ATOM     35  C   UNL     1      -3.268  36.361  40.328  1.00  0.00     0.012 C 
ENDBRANCH  31  33
ENDBRANCH  30  31
ENDBRANCH   1  30
TORSDOF 7
ENDMDL
MODEL 6
REMARK VINA RESULT:    -5.368      4.330      7.266
REMARK INTER + INTRA:          -9.191
REMARK INTER:                  -7.130
REMARK INTRA:                  -2.061
REMARK UNBOUND:                -1.784
REMARK SMILES C=C(CC[C@H](C(=O)[O-])[C@@H]1CC[C@@]2(C)C3=C(CC[C@@]12C)[C@@]1(C)CC[C@@H](O)C(C)(C)[C@H]1CC3)C(C)C
REMARK SMILES IDX 4 1 5 2 6 3 7 4 8 5 9 6 10 7 18 8 11 9 12 10 17 11 19 12
REMARK SMILES IDX 13 13 14 14 16 15 15 16 31 17 20 18 30 19 29 20 22 21 21 22
REMARK SMILES IDX 26 23 23 24 24 25 27 26 28 27 25 28 3 30 2 31 1 32 32 33
REMARK SMILES IDX 33 34 34 35
REMARK H PARENT 25 29
REMARK Flexibility Score: inf
ROOT
ATOM      1  C   UNL     1     -10.125  31.921  43.984  1.00  0.00     0.014 C 
ENDROOT
BRANCH   1   2
ATOM      2  C   UNL     1      -9.365  30.988  42.987  1.00  0.00     0.039 C 
BRANCH   2   3
ATOM      3  C   UNL     1      -9.155  31.757  41.704  1.00  0.00     0.045 C 
ATOM      4  O   UNL     1      -8.906  32.990  41.735  1.00  0.00    -0.550 OA
ATOM      5  O   UNL     1      -9.307  31.124  40.476  1.00  0.00    -0.550 OA
ENDBRANCH   2   3
BRANCH   2   6
ATOM      6  C   UNL     1     -10.113  29.629  42.725  1.00  0.00     0.004 C 
ATOM      7  C   UNL     1     -11.548  29.652  43.266  1.00  0.00     0.006 C 
ATOM      8  C   UNL     1      -9.473  28.287  43.290  1.00  0.00    -0.020 C 
ATOM      9  C   UNL     1     -11.957  28.209  43.424  1.00  0.00     0.012 C 
ATOM     10  C   UNL     1     -10.706  27.471  43.927  1.00  0.00    -0.006 C 
ATOM     11  C   UNL     1      -8.799  27.510  42.115  1.00  0.00     0.012 C 
ATOM     12  C   UNL     1      -8.326  28.527  44.324  1.00  0.00     0.012 C 
ATOM     13  C   UNL     1     -10.723  27.566  45.488  1.00  0.00     0.017 C 
ATOM     14  C   UNL     1     -10.804  25.985  43.464  1.00  0.00    -0.064 C 
ATOM     15  C   UNL     1      -9.800  26.683  41.335  1.00  0.00     0.032 C 
ATOM     16  C   UNL     1     -10.335  25.596  42.245  1.00  0.00    -0.064 C 
ATOM     17  C   UNL     1     -11.688  25.016  44.210  1.00  0.00     0.032 C 
ATOM     18  C   UNL     1     -10.365  24.119  41.736  1.00  0.00    -0.008 C 
ATOM     19  C   UNL     1     -11.084  23.632  44.197  1.00  0.00     0.009 C 
ATOM     20  C   UNL     1     -11.027  23.076  42.758  1.00  0.00     0.007 C 
ATOM     21  C   UNL     1      -8.902  23.685  41.376  1.00  0.00     0.014 C 
ATOM     22  C   UNL     1     -11.219  24.138  40.438  1.00  0.00     0.016 C 
ATOM     23  C   UNL     1     -10.393  21.618  42.730  1.00  0.00    -0.006 C 
ATOM     24  C   UNL     1      -8.186  23.009  42.538  1.00  0.00     0.033 C 
ATOM     25  C   UNL     1      -8.829  21.665  42.939  1.00  0.00     0.120 C 
ATOM     26  C   UNL     1     -11.055  20.701  43.805  1.00  0.00     0.014 C 
ATOM     27  C   UNL     1     -10.716  20.914  41.381  1.00  0.00     0.014 C 
BRANCH  25  28
ATOM     28  O   UNL     1      -8.486  21.397  44.278  1.00  0.00    -0.393 OA
ATOM     29  H   UNL     1      -7.554  21.056  44.278  1.00  0.00     0.210 HD
ENDBRANCH  25  28
ENDBRANCH   2   6
ENDBRANCH   1   2
BRANCH   1  30
ATOM     30  C   UNL     1      -9.563  31.897  45.419  1.00  0.00     0.031 C 
BRANCH  30  31
ATOM     31  C   UNL     1     -10.543  31.349  46.443  1.00  0.00    -0.075 C 
ATOM     32  C   UNL     1     -11.862  31.514  46.245  1.00  0.00     0.008 C 
BRANCH  31  33
ATOM     33  C   UNL     1     -10.059  30.782  47.774  1.00  0.00     0.008 C 
ATOM     34  C   UNL     1     -11.108  29.880  48.433  1.00  0.00     0.012 C 
ATOM     35  C   UNL     1      -8.731  30.036  47.595  1.00  0.00     0.012 C 
ENDBRANCH  31  33
ENDBRANCH  30  31
ENDBRANCH   1  30
TORSDOF 7
ENDMDL
MODEL 7
REMARK VINA RESULT:    -5.211      3.259      6.537
REMARK INTER + INTRA:          -8.975
REMARK INTER:                  -7.416
REMARK INTRA:                  -1.559
REMARK UNBOUND:                -1.784
REMARK SMILES C=C(CC[C@H](C(=O)[O-])[C@@H]1CC[C@@]2(C)C3=C(CC[C@@]12C)[C@@]1(C)CC[C@@H](O)C(C)(C)[C@H]1CC3)C(C)C
REMARK SMILES IDX 4 1 5 2 6 3 7 4 8 5 9 6 10 7 18 8 11 9 12 10 17 11 19 12
REMARK SMILES IDX 13 13 14 14 16 15 15 16 31 17 20 18 30 19 29 20 22 21 21 22
REMARK SMILES IDX 26 23 23 24 24 25 27 26 28 27 25 28 3 30 2 31 1 32 32 33
REMARK SMILES IDX 33 34 34 35
REMARK H PARENT 25 29
REMARK Flexibility Score: inf
ROOT
ATOM      1  C   UNL     1     -10.054  31.876  43.560  1.00  0.00     0.014 C 
ENDROOT
BRANCH   1   2
ATOM      2  C   UNL     1      -9.427  30.840  42.572  1.00  0.00     0.039 C 
BRANCH   2   3
ATOM      3  C   UNL     1      -9.245  31.527  41.239  1.00  0.00     0.045 C 
ATOM      4  O   UNL     1      -9.327  30.871  40.168  1.00  0.00    -0.550 OA
ATOM      5  O   UNL     1      -8.912  32.876  41.186  1.00  0.00    -0.550 OA
ENDBRANCH   2   3
BRANCH   2   6
ATOM      6  C   UNL     1     -10.285  29.530  42.428  1.00  0.00     0.004 C 
ATOM      7  C   UNL     1     -11.591  29.610  43.227  1.00  0.00     0.006 C 
ATOM      8  C   UNL     1      -9.625  28.141  42.840  1.00  0.00    -0.020 C 
ATOM      9  C   UNL     1     -12.043  28.185  43.431  1.00  0.00     0.012 C 
ATOM     10  C   UNL     1     -10.763  27.371  43.680  1.00  0.00    -0.006 C 
ATOM     11  C   UNL     1      -9.224  27.364  41.546  1.00  0.00     0.012 C 
ATOM     12  C   UNL     1      -8.297  28.294  43.647  1.00  0.00     0.012 C 
ATOM     13  C   UNL     1     -10.486  27.423  45.218  1.00  0.00     0.017 C 
ATOM     14  C   UNL     1     -11.026  25.905  43.215  1.00  0.00    -0.064 C 
ATOM     15  C   UNL     1     -10.395  26.612  40.950  1.00  0.00     0.032 C 
ATOM     16  C   UNL     1     -10.813  25.528  41.924  1.00  0.00    -0.064 C 
ATOM     17  C   UNL     1     -11.809  24.962  44.095  1.00  0.00     0.032 C 
ATOM     18  C   UNL     1     -11.017  24.070  41.402  1.00  0.00    -0.008 C 
ATOM     19  C   UNL     1     -11.295  23.550  43.944  1.00  0.00     0.009 C 
ATOM     20  C   UNL     1     -11.536  23.033  42.510  1.00  0.00     0.007 C 
ATOM     21  C   UNL     1      -9.672  23.572  40.769  1.00  0.00     0.014 C 
ATOM     22  C   UNL     1     -12.094  24.168  40.285  1.00  0.00     0.016 C 
ATOM     23  C   UNL     1     -10.998  21.546  42.338  1.00  0.00    -0.006 C 
ATOM     24  C   UNL     1      -8.792  22.828  41.765  1.00  0.00     0.033 C 
ATOM     25  C   UNL     1      -9.423  21.507  42.253  1.00  0.00     0.120 C 
ATOM     26  C   UNL     1     -11.500  20.633  43.500  1.00  0.00     0.014 C 
ATOM     27  C   UNL     1     -11.603  20.897  41.060  1.00  0.00     0.014 C 
BRANCH  25  28
ATOM     28  O   UNL     1      -8.854  21.185  43.500  1.00  0.00    -0.393 OA
ATOM     29  H   UNL     1      -7.939  21.570  43.512  1.00  0.00     0.210 HD
ENDBRANCH  25  28
ENDBRANCH   2   6
ENDBRANCH   1   2
BRANCH   1  30
ATOM     30  C   UNL     1      -9.277  32.033  44.882  1.00  0.00     0.031 C 
BRANCH  30  31
ATOM     31  C   UNL     1      -7.813  32.390  44.684  1.00  0.00    -0.075 C 
ATOM     32  C   UNL     1      -6.865  31.554  45.141  1.00  0.00     0.008 C 
BRANCH  31  33
ATOM     33  C   UNL     1      -7.400  33.756  44.147  1.00  0.00     0.008 C 
ATOM     34  C   UNL     1      -7.118  34.758  45.273  1.00  0.00     0.012 C 
ATOM     35  C   UNL     1      -6.191  33.629  43.212  1.00  0.00     0.012 C 
ENDBRANCH  31  33
ENDBRANCH  30  31
ENDBRANCH   1  30
TORSDOF 7
ENDMDL
MODEL 8
REMARK VINA RESULT:    -5.139      4.016      5.569
REMARK INTER + INTRA:          -8.875
REMARK INTER:                  -7.319
REMARK INTRA:                  -1.555
REMARK UNBOUND:                -1.784
REMARK SMILES C=C(CC[C@H](C(=O)[O-])[C@@H]1CC[C@@]2(C)C3=C(CC[C@@]12C)[C@@]1(C)CC[C@@H](O)C(C)(C)[C@H]1CC3)C(C)C
REMARK SMILES IDX 4 1 5 2 6 3 7 4 8 5 9 6 10 7 18 8 11 9 12 10 17 11 19 12
REMARK SMILES IDX 13 13 14 14 16 15 15 16 31 17 20 18 30 19 29 20 22 21 21 22
REMARK SMILES IDX 26 23 23 24 24 25 27 26 28 27 25 28 3 30 2 31 1 32 32 33
REMARK SMILES IDX 33 34 34 35
REMARK H PARENT 25 29
REMARK Flexibility Score: inf
ROOT
ATOM      1  C   UNL     1      -7.717  34.663  44.024  1.00  0.00     0.014 C 
ENDROOT
BRANCH   1   2
ATOM      2  C   UNL     1      -7.737  33.108  43.871  1.00  0.00     0.039 C 
BRANCH   2   3
ATOM      3  C   UNL     1      -8.882  32.750  42.953  1.00  0.00     0.045 C 
ATOM      4  O   UNL     1      -8.804  32.980  41.718  1.00  0.00    -0.550 OA
ATOM      5  O   UNL     1     -10.062  32.231  43.475  1.00  0.00    -0.550 OA
ENDBRANCH   2   3
BRANCH   2   6
ATOM      6  C   UNL     1      -7.849  32.356  45.247  1.00  0.00     0.004 C 
ATOM      7  C   UNL     1      -8.156  33.317  46.402  1.00  0.00     0.006 C 
ATOM      8  C   UNL     1      -6.611  31.487  45.742  1.00  0.00    -0.020 C 
ATOM      9  C   UNL     1      -7.735  32.602  47.662  1.00  0.00     0.012 C 
ATOM     10  C   UNL     1      -6.448  31.843  47.303  1.00  0.00    -0.006 C 
ATOM     11  C   UNL     1      -6.926  29.975  45.514  1.00  0.00     0.012 C 
ATOM     12  C   UNL     1      -5.299  31.751  44.936  1.00  0.00     0.012 C 
ATOM     13  C   UNL     1      -5.258  32.826  47.555  1.00  0.00     0.017 C 
ATOM     14  C   UNL     1      -6.345  30.600  48.241  1.00  0.00    -0.064 C 
ATOM     15  C   UNL     1      -7.760  29.394  46.637  1.00  0.00     0.032 C 
ATOM     16  C   UNL     1      -6.934  29.417  47.908  1.00  0.00    -0.064 C 
ATOM     17  C   UNL     1      -5.865  30.762  49.662  1.00  0.00     0.032 C 
ATOM     18  C   UNL     1      -6.836  28.125  48.779  1.00  0.00    -0.008 C 
ATOM     19  C   UNL     1      -5.088  29.542  50.099  1.00  0.00     0.009 C 
ATOM     20  C   UNL     1      -6.001  28.299  50.137  1.00  0.00     0.007 C 
ATOM     21  C   UNL     1      -6.228  26.975  47.902  1.00  0.00     0.014 C 
ATOM     22  C   UNL     1      -8.299  27.755  49.151  1.00  0.00     0.016 C 
ATOM     23  C   UNL     1      -5.193  27.008  50.596  1.00  0.00    -0.006 C 
ATOM     24  C   UNL     1      -4.713  26.877  48.028  1.00  0.00     0.033 C 
ATOM     25  C   UNL     1      -4.254  26.475  49.445  1.00  0.00     0.120 C 
ATOM     26  C   UNL     1      -4.361  27.299  51.883  1.00  0.00     0.014 C 
ATOM     27  C   UNL     1      -6.176  25.881  51.028  1.00  0.00     0.014 C 
BRANCH  25  28
ATOM     28  O   UNL     1      -2.930  26.923  49.620  1.00  0.00    -0.393 OA
ATOM     29  H   UNL     1      -2.500  26.917  48.725  1.00  0.00     0.210 HD
ENDBRANCH  25  28
ENDBRANCH   2   6
ENDBRANCH   1   2
BRANCH   1  30
ATOM     30  C   UNL     1      -6.375  35.316  43.637  1.00  0.00     0.031 C 
BRANCH  30  31
ATOM     31  C   UNL     1      -5.932  36.404  44.601  1.00  0.00    -0.075 C 
ATOM     32  C   UNL     1      -5.708  36.091  45.889  1.00  0.00     0.008 C 
BRANCH  31  33
ATOM     33  C   UNL     1      -5.915  37.870  44.181  1.00  0.00     0.008 C 
ATOM     34  C   UNL     1      -5.100  38.094  42.902  1.00  0.00     0.012 C 
ATOM     35  C   UNL     1      -7.343  38.406  44.021  1.00  0.00     0.012 C 
ENDBRANCH  31  33
ENDBRANCH  30  31
ENDBRANCH   1  30
TORSDOF 7
ENDMDL
