MODEL 1
REMARK VINA RESULT:    -3.948      0.000      0.000
REMARK INTER + INTRA:          -6.053
REMARK INTER:                  -5.564
REMARK INTRA:                  -0.489
REMARK UNBOUND:                -0.489
REMARK SMILES C=CCCCCCCC(=O)[O-]
REMARK SMILES IDX 6 1 7 2 8 3 9 4 10 5 11 6 5 7 4 8 3 9 2 10 1 11
REMARK H PARENT
REMARK Flexibility Score: inf
ROOT
ATOM      1  C   UNL     1      -7.742  14.514 -13.062  1.00  0.00     0.000 C 
ENDROOT
BRANCH   1   2
ATOM      2  C   UNL     1      -7.387  15.549 -14.137  1.00  0.00     0.006 C 
BRANCH   2   3
ATOM      3  C   UNL     1      -8.596  16.427 -14.475  1.00  0.00     0.053 C 
BRANCH   3   4
ATOM      4  C   UNL     1      -9.302  16.847 -13.224  1.00  0.00     0.041 C 
ATOM      5  O   UNL     1     -10.439  16.379 -12.951  1.00  0.00    -0.550 OA
ATOM      6  O   UNL     1      -8.686  17.719 -12.337  1.00  0.00    -0.550 OA
ENDBRANCH   3   4
ENDBRANCH   2   3
ENDBRANCH   1   2
BRANCH   1   7
ATOM      7  C   UNL     1      -7.901  13.118 -13.674  1.00  0.00     0.000 C 
BRANCH   7   8
ATOM      8  C   UNL     1      -7.241  13.043 -15.056  1.00  0.00     0.004 C 
BRANCH   8   9
ATOM      9  C   UNL     1      -8.218  12.491 -16.102  1.00  0.00     0.027 C 
BRANCH   9  10
ATOM     10  C   UNL     1      -9.644  12.642 -15.649  1.00  0.00    -0.035 C 
ATOM     11  C   UNL     1     -10.608  11.819 -16.069  1.00  0.00     0.004 C 
ENDBRANCH   9  10
ENDBRANCH   8   9
ENDBRANCH   7   8
ENDBRANCH   1   7
TORSDOF 7
ENDMDL
MODEL 2
REMARK VINA RESULT:    -3.857      1.598      2.320
REMARK INTER + INTRA:          -5.924
REMARK INTER:                  -5.466
REMARK INTRA:                  -0.458
REMARK UNBOUND:                -0.489
REMARK SMILES C=CCCCCCCC(=O)[O-]
REMARK SMILES IDX 6 1 7 2 8 3 9 4 10 5 11 6 5 7 4 8 3 9 2 10 1 11
REMARK H PARENT
REMARK Flexibility Score: inf
ROOT
ATOM      1  C   UNL     1      -8.779  15.759 -12.396  1.00  0.00     0.000 C 
ENDROOT
BRANCH   1   2
ATOM      2  C   UNL     1      -9.431  17.010 -12.997  1.00  0.00     0.006 C 
BRANCH   2   3
ATOM      3  C   UNL     1      -8.590  17.568 -14.149  1.00  0.00     0.053 C 
BRANCH   3   4
ATOM      4  C   UNL     1      -8.266  19.009 -13.910  1.00  0.00     0.041 C 
ATOM      5  O   UNL     1      -7.733  19.367 -12.826  1.00  0.00    -0.550 OA
ATOM      6  O   UNL     1      -8.509  19.951 -14.901  1.00  0.00    -0.550 OA
ENDBRANCH   3   4
ENDBRANCH   2   3
ENDBRANCH   1   2
BRANCH   1   7
ATOM      7  C   UNL     1      -7.838  15.090 -13.405  1.00  0.00     0.000 C 
BRANCH   7   8
ATOM      8  C   UNL     1      -7.698  13.590 -13.116  1.00  0.00     0.004 C 
BRANCH   8   9
ATOM      9  C   UNL     1      -7.902  12.763 -14.391  1.00  0.00     0.027 C 
BRANCH   9  10
ATOM     10  C   UNL     1      -9.109  13.231 -15.156  1.00  0.00    -0.035 C 
ATOM     11  C   UNL     1     -10.013  12.374 -15.638  1.00  0.00     0.004 C 
ENDBRANCH   9  10
ENDBRANCH   8   9
ENDBRANCH   7   8
ENDBRANCH   1   7
TORSDOF 7
ENDMDL
MODEL 3
REMARK VINA RESULT:    -3.736      1.209      1.715
REMARK INTER + INTRA:          -5.753
REMARK INTER:                  -5.027
REMARK INTRA:                  -0.726
REMARK UNBOUND:                -0.489
REMARK SMILES C=CCCCCCCC(=O)[O-]
REMARK SMILES IDX 6 1 7 2 8 3 9 4 10 5 11 6 5 7 4 8 3 9 2 10 1 11
REMARK H PARENT
REMARK Flexibility Score: inf
ROOT
ATOM      1  C   UNL     1      -6.880  16.144 -15.441  1.00  0.00     0.000 C 
ENDROOT
BRANCH   1   2
ATOM      2  C   UNL     1      -8.181  16.932 -15.249  1.00  0.00     0.006 C 
BRANCH   2   3
ATOM      3  C   UNL     1      -8.236  17.569 -13.857  1.00  0.00     0.053 C 
BRANCH   3   4
ATOM      4  C   UNL     1      -8.746  16.586 -12.852  1.00  0.00     0.041 C 
ATOM      5  O   UNL     1      -9.964  16.264 -12.840  1.00  0.00    -0.550 OA
ATOM      6  O   UNL     1      -7.869  15.987 -11.956  1.00  0.00    -0.550 OA
ENDBRANCH   3   4
ENDBRANCH   2   3
ENDBRANCH   1   2
BRANCH   1   7
ATOM      7  C   UNL     1      -7.170  14.672 -15.760  1.00  0.00     0.000 C 
BRANCH   7   8
ATOM      8  C   UNL     1      -6.939  13.787 -14.529  1.00  0.00     0.004 C 
BRANCH   8   9
ATOM      9  C   UNL     1      -8.161  12.902 -14.252  1.00  0.00     0.027 C 
BRANCH   9  10
ATOM     10  C   UNL     1      -9.289  13.220 -15.194  1.00  0.00    -0.035 C 
ATOM     11  C   UNL     1     -10.085  12.268 -15.687  1.00  0.00     0.004 C 
ENDBRANCH   9  10
ENDBRANCH   8   9
ENDBRANCH   7   8
ENDBRANCH   1   7
TORSDOF 7
ENDMDL
MODEL 4
REMARK VINA RESULT:    -3.498      2.200      4.432
REMARK INTER + INTRA:          -5.418
REMARK INTER:                  -4.772
REMARK INTRA:                  -0.646
REMARK UNBOUND:                -0.489
REMARK SMILES C=CCCCCCCC(=O)[O-]
REMARK SMILES IDX 6 1 7 2 8 3 9 4 10 5 11 6 5 7 4 8 3 9 2 10 1 11
REMARK H PARENT
REMARK Flexibility Score: inf
ROOT
ATOM      1  C   UNL     1      -8.103  14.007 -12.787  1.00  0.00     0.000 C 
ENDROOT
BRANCH   1   2
ATOM      2  C   UNL     1      -7.205  13.846 -14.019  1.00  0.00     0.006 C 
BRANCH   2   3
ATOM      3  C   UNL     1      -7.856  12.929 -15.058  1.00  0.00     0.053 C 
BRANCH   3   4
ATOM      4  C   UNL     1      -9.150  13.514 -15.533  1.00  0.00     0.041 C 
ATOM      5  O   UNL     1     -10.229  12.887 -15.361  1.00  0.00    -0.550 OA
ATOM      6  O   UNL     1      -9.170  14.771 -16.123  1.00  0.00    -0.550 OA
ENDBRANCH   3   4
ENDBRANCH   2   3
ENDBRANCH   1   2
BRANCH   1   7
ATOM      7  C   UNL     1      -8.060  15.445 -12.257  1.00  0.00     0.000 C 
BRANCH   7   8
ATOM      8  C   UNL     1      -9.364  16.187 -12.572  1.00  0.00     0.004 C 
BRANCH   8   9
ATOM      9  C   UNL     1      -9.086  17.642 -12.970  1.00  0.00     0.027 C 
BRANCH   9  10
ATOM     10  C   UNL     1      -7.978  17.727 -13.983  1.00  0.00    -0.035 C 
ATOM     11  C   UNL     1      -8.213  18.050 -15.258  1.00  0.00     0.004 C 
ENDBRANCH   9  10
ENDBRANCH   8   9
ENDBRANCH   7   8
ENDBRANCH   1   7
TORSDOF 7
ENDMDL
MODEL 5
REMARK VINA RESULT:    -3.489      2.281      4.320
REMARK INTER + INTRA:          -5.406
REMARK INTER:                  -4.600
REMARK INTRA:                  -0.806
REMARK UNBOUND:                -0.489
REMARK SMILES C=CCCCCCCC(=O)[O-]
REMARK SMILES IDX 6 1 7 2 8 3 9 4 10 5 11 6 5 7 4 8 3 9 2 10 1 11
REMARK H PARENT
REMARK Flexibility Score: inf
ROOT
ATOM      1  C   UNL     1      -7.944  15.260 -15.895  1.00  0.00     0.000 C 
ENDROOT
BRANCH   1   2
ATOM      2  C   UNL     1      -7.836  13.791 -15.467  1.00  0.00     0.006 C 
BRANCH   2   3
ATOM      3  C   UNL     1      -8.426  13.582 -14.070  1.00  0.00     0.053 C 
BRANCH   3   4
ATOM      4  C   UNL     1      -7.340  13.574 -13.040  1.00  0.00     0.041 C 
ATOM      5  O   UNL     1      -6.184  13.174 -13.340  1.00  0.00    -0.550 OA
ATOM      6  O   UNL     1      -7.591  14.052 -11.761  1.00  0.00    -0.550 OA
ENDBRANCH   3   4
ENDBRANCH   2   3
ENDBRANCH   1   2
BRANCH   1   7
ATOM      7  C   UNL     1      -6.657  16.025 -15.567  1.00  0.00     0.000 C 
BRANCH   7   8
ATOM      8  C   UNL     1      -6.924  17.144 -14.553  1.00  0.00     0.004 C 
BRANCH   8   9
ATOM      9  C   UNL     1      -8.414  17.507 -14.516  1.00  0.00     0.027 C 
BRANCH   9  10
ATOM     10  C   UNL     1      -8.928  17.551 -13.103  1.00  0.00    -0.035 C 
ATOM     11  C   UNL     1      -9.782  16.636 -12.635  1.00  0.00     0.004 C 
ENDBRANCH   9  10
ENDBRANCH   8   9
ENDBRANCH   7   8
ENDBRANCH   1   7
TORSDOF 7
ENDMDL
MODEL 6
REMARK VINA RESULT:    -3.482      2.969      5.559
REMARK INTER + INTRA:          -5.395
REMARK INTER:                  -4.923
REMARK INTRA:                  -0.472
REMARK UNBOUND:                -0.489
REMARK SMILES C=CCCCCCCC(=O)[O-]
REMARK SMILES IDX 6 1 7 2 8 3 9 4 10 5 11 6 5 7 4 8 3 9 2 10 1 11
REMARK H PARENT
REMARK Flexibility Score: inf
ROOT
ATOM      1  C   UNL     1      -8.932  17.467 -13.143  1.00  0.00     0.000 C 
ENDROOT
BRANCH   1   2
ATOM      2  C   UNL     1      -9.336  16.054 -12.704  1.00  0.00     0.006 C 
BRANCH   2   3
ATOM      3  C   UNL     1      -8.606  14.993 -13.532  1.00  0.00     0.053 C 
BRANCH   3   4
ATOM      4  C   UNL     1      -7.698  14.183 -12.660  1.00  0.00     0.041 C 
ATOM      5  O   UNL     1      -6.866  13.390 -13.175  1.00  0.00    -0.550 OA
ATOM      6  O   UNL     1      -7.737  14.339 -11.281  1.00  0.00    -0.550 OA
ENDBRANCH   3   4
ENDBRANCH   2   3
ENDBRANCH   1   2
BRANCH   1   7
ATOM      7  C   UNL     1      -8.512  17.486 -14.618  1.00  0.00     0.000 C 
BRANCH   7   8
ATOM      8  C   UNL     1      -7.936  18.853 -15.009  1.00  0.00     0.004 C 
BRANCH   8   9
ATOM      9  C   UNL     1      -6.488  18.998 -14.523  1.00  0.00     0.027 C 
BRANCH   9  10
ATOM     10  C   UNL     1      -6.328  20.206 -13.642  1.00  0.00    -0.035 C 
ATOM     11  C   UNL     1      -7.382  20.877 -13.169  1.00  0.00     0.004 C 
ENDBRANCH   9  10
ENDBRANCH   8   9
ENDBRANCH   7   8
ENDBRANCH   1   7
TORSDOF 7
ENDMDL
MODEL 7
REMARK VINA RESULT:    -3.473      1.942      2.584
REMARK INTER + INTRA:          -5.384
REMARK INTER:                  -5.045
REMARK INTRA:                  -0.339
REMARK UNBOUND:                -0.489
REMARK SMILES C=CCCCCCCC(=O)[O-]
REMARK SMILES IDX 6 1 7 2 8 3 9 4 10 5 11 6 5 7 4 8 3 9 2 10 1 11
REMARK H PARENT
REMARK Flexibility Score: inf
ROOT
ATOM      1  C   UNL     1      -8.216  16.649 -15.282  1.00  0.00     0.000 C 
ENDROOT
BRANCH   1   2
ATOM      2  C   UNL     1      -7.832  17.029 -13.847  1.00  0.00     0.006 C 
BRANCH   2   3
ATOM      3  C   UNL     1      -8.763  18.113 -13.298  1.00  0.00     0.053 C 
BRANCH   3   4
ATOM      4  C   UNL     1      -8.195  19.472 -13.560  1.00  0.00     0.041 C 
ATOM      5  O   UNL     1      -7.390  19.992 -12.743  1.00  0.00    -0.550 OA
ATOM      6  O   UNL     1      -8.517  20.146 -14.731  1.00  0.00    -0.550 OA
ENDBRANCH   3   4
ENDBRANCH   2   3
ENDBRANCH   1   2
BRANCH   1   7
ATOM      7  C   UNL     1      -8.078  15.139 -15.508  1.00  0.00     0.000 C 
BRANCH   7   8
ATOM      8  C   UNL     1      -8.770  14.350 -14.390  1.00  0.00     0.004 C 
BRANCH   8   9
ATOM      9  C   UNL     1      -8.663  12.839 -14.636  1.00  0.00     0.027 C 
BRANCH   9  10
ATOM     10  C   UNL     1      -9.318  12.452 -15.934  1.00  0.00    -0.035 C 
ATOM     11  C   UNL     1     -10.608  12.113 -15.998  1.00  0.00     0.004 C 
ENDBRANCH   9  10
ENDBRANCH   8   9
ENDBRANCH   7   8
ENDBRANCH   1   7
TORSDOF 7
ENDMDL
MODEL 8
REMARK VINA RESULT:    -3.317      2.897      5.642
REMARK INTER + INTRA:          -5.164
REMARK INTER:                  -4.748
REMARK INTRA:                  -0.416
REMARK UNBOUND:                -0.489
REMARK SMILES C=CCCCCCCC(=O)[O-]
REMARK SMILES IDX 6 1 7 2 8 3 9 4 10 5 11 6 5 7 4 8 3 9 2 10 1 11
REMARK H PARENT
REMARK Flexibility Score: inf
ROOT
ATOM      1  C   UNL     1      -9.312  16.567 -12.527  1.00  0.00     0.000 C 
ENDROOT
BRANCH   1   2
ATOM      2  C   UNL     1      -8.356  15.398 -12.257  1.00  0.00     0.006 C 
BRANCH   2   3
ATOM      3  C   UNL     1      -7.719  14.899 -13.557  1.00  0.00     0.053 C 
BRANCH   3   4
ATOM      4  C   UNL     1      -8.391  13.645 -14.021  1.00  0.00     0.041 C 
ATOM      5  O   UNL     1      -7.885  12.521 -13.760  1.00  0.00    -0.550 OA
ATOM      6  O   UNL     1      -9.600  13.713 -14.700  1.00  0.00    -0.550 OA
ENDBRANCH   3   4
ENDBRANCH   2   3
ENDBRANCH   1   2
BRANCH   1   7
ATOM      7  C   UNL     1      -8.941  17.293 -13.825  1.00  0.00     0.000 C 
BRANCH   7   8
ATOM      8  C   UNL     1      -8.381  18.690 -13.534  1.00  0.00     0.004 C 
BRANCH   8   9
ATOM      9  C   UNL     1      -7.085  18.937 -14.318  1.00  0.00     0.027 C 
BRANCH   9  10
ATOM     10  C   UNL     1      -6.472  20.260 -13.951  1.00  0.00    -0.035 C 
ATOM     11  C   UNL     1      -6.766  20.880 -12.805  1.00  0.00     0.004 C 
ENDBRANCH   9  10
ENDBRANCH   8   9
ENDBRANCH   7   8
ENDBRANCH   1   7
TORSDOF 7
ENDMDL
MODEL 9
REMARK VINA RESULT:    -3.295      2.273      4.857
REMARK INTER + INTRA:          -5.132
REMARK INTER:                  -4.488
REMARK INTRA:                  -0.644
REMARK UNBOUND:                -0.489
REMARK SMILES C=CCCCCCCC(=O)[O-]
REMARK SMILES IDX 6 1 7 2 8 3 9 4 10 5 11 6 5 7 4 8 3 9 2 10 1 11
REMARK H PARENT
REMARK Flexibility Score: inf
ROOT
ATOM      1  C   UNL     1      -7.205  16.146 -15.382  1.00  0.00     0.000 C 
ENDROOT
BRANCH   1   2
ATOM      2  C   UNL     1      -7.230  14.812 -14.627  1.00  0.00     0.006 C 
BRANCH   2   3
ATOM      3  C   UNL     1      -8.572  14.605 -13.921  1.00  0.00     0.053 C 
BRANCH   3   4
ATOM      4  C   UNL     1      -8.763  15.632 -12.849  1.00  0.00     0.041 C 
ATOM      5  O   UNL     1      -9.856  16.250 -12.750  1.00  0.00    -0.550 OA
ATOM      6  O   UNL     1      -7.750  15.875 -11.930  1.00  0.00    -0.550 OA
ENDBRANCH   3   4
ENDBRANCH   2   3
ENDBRANCH   1   2
BRANCH   1   7
ATOM      7  C   UNL     1      -5.933  16.938 -15.059  1.00  0.00     0.000 C 
BRANCH   7   8
ATOM      8  C   UNL     1      -6.274  18.340 -14.537  1.00  0.00     0.004 C 
BRANCH   8   9
ATOM      9  C   UNL     1      -7.786  18.592 -14.588  1.00  0.00     0.027 C 
BRANCH   9  10
ATOM     10  C   UNL     1      -8.199  19.627 -13.578  1.00  0.00    -0.035 C 
ATOM     11  C   UNL     1      -7.346  20.549 -13.126  1.00  0.00     0.004 C 
ENDBRANCH   9  10
ENDBRANCH   8   9
ENDBRANCH   7   8
ENDBRANCH   1   7
TORSDOF 7
ENDMDL
