MODEL 1
REMARK VINA RESULT:    -4.915      0.000      0.000
REMARK INTER + INTRA:          -6.391
REMARK INTER:                  -6.065
REMARK INTRA:                  -0.326
REMARK UNBOUND:                -0.326
REMARK SMILES COc1cc(-c2oc3cc(O)cc(O)c3c(=O)c2O)ccc1O
REMARK SMILES IDX 6 1 18 2 16 3 17 4 15 5 13 6 12 7 10 8 9 9 8 10 7 11 5 12
REMARK SMILES IDX 3 13 22 14 4 15 21 16 20 17 2 18 1 19 23 20 19 22 14 24
REMARK SMILES IDX 11 26
REMARK H PARENT 23 21 19 23 14 25 11 27
REMARK Flexibility Score: inf
ROOT
ATOM      1  C   UNL     1      21.622  -0.146 -25.134  1.00  0.00     0.180 A 
ATOM      2  C   UNL     1      22.880   0.363 -25.499  1.00  0.00     0.208 A 
ATOM      3  C   UNL     1      23.997   0.050 -24.710  1.00  0.00     0.238 A 
ATOM      4  O   UNL     1      25.131   0.446 -25.084  1.00  0.00    -0.285 OA
ATOM      5  C   UNL     1      23.836  -0.721 -23.532  1.00  0.00     0.111 A 
ATOM      6  C   UNL     1      24.891  -1.062 -22.632  1.00  0.00     0.134 A 
ATOM      7  C   UNL     1      24.629  -1.919 -21.556  1.00  0.00     0.093 A 
ATOM      8  C   UNL     1      23.344  -2.398 -21.310  1.00  0.00     0.123 A 
ATOM      9  C   UNL     1      22.295  -2.027 -22.151  1.00  0.00     0.094 A 
ATOM     10  C   UNL     1      22.529  -1.204 -23.256  1.00  0.00     0.146 A 
ATOM     11  O   UNL     1      21.506  -0.894 -24.043  1.00  0.00    -0.452 OA
ENDROOT
BRANCH   1  12
ATOM     12  C   UNL     1      20.399   0.128 -25.924  1.00  0.00     0.025 A 
ATOM     13  C   UNL     1      18.743  -0.623 -27.556  1.00  0.00     0.161 A 
ATOM     14  C   UNL     1      18.116   0.629 -27.487  1.00  0.00     0.157 A 
ATOM     15  C   UNL     1      19.891  -0.864 -26.776  1.00  0.00     0.062 A 
ATOM     16  C   UNL     1      18.634   1.629 -26.653  1.00  0.00     0.051 A 
ATOM     17  C   UNL     1      19.770   1.383 -25.881  1.00  0.00     0.016 A 
BRANCH  13  18
ATOM     18  O   UNL     1      18.200  -1.596 -28.409  1.00  0.00    -0.493 OA
ATOM     19  C   UNL     1      18.596  -2.963 -28.430  1.00  0.00     0.278 C 
ENDBRANCH  13  18
BRANCH  14  20
ATOM     20  O   UNL     1      16.979   0.875 -28.255  1.00  0.00    -0.504 OA
ATOM     21  H   UNL     1      16.052   0.640 -27.920  1.00  0.00     0.293 HD
ENDBRANCH  14  20
ENDBRANCH   1  12
BRANCH   2  22
ATOM     22  O   UNL     1      23.007   1.184 -26.623  1.00  0.00    -0.502 OA
ATOM     23  H   UNL     1      22.253   1.777 -26.951  1.00  0.00     0.293 HD
ENDBRANCH   2  22
BRANCH   6  24
ATOM     24  O   UNL     1      26.195  -0.570 -22.732  1.00  0.00    -0.507 OA
ATOM     25  H   UNL     1      26.919  -0.965 -23.313  1.00  0.00     0.293 HD
ENDBRANCH   6  24
BRANCH   8  26
ATOM     26  O   UNL     1      23.119  -3.235 -20.219  1.00  0.00    -0.508 OA
ATOM     27  H   UNL     1      22.688  -4.145 -20.329  1.00  0.00     0.293 HD
ENDBRANCH   8  26
TORSDOF 6
ENDMDL
MODEL 2
REMARK VINA RESULT:    -4.914      7.860     10.057
REMARK INTER + INTRA:          -6.389
REMARK INTER:                  -6.024
REMARK INTRA:                  -0.364
REMARK UNBOUND:                -0.326
REMARK SMILES COc1cc(-c2oc3cc(O)cc(O)c3c(=O)c2O)ccc1O
REMARK SMILES IDX 6 1 18 2 16 3 17 4 15 5 13 6 12 7 10 8 9 9 8 10 7 11 5 12
REMARK SMILES IDX 3 13 22 14 4 15 21 16 20 17 2 18 1 19 23 20 19 22 14 24
REMARK SMILES IDX 11 26
REMARK H PARENT 23 21 19 23 14 25 11 27
REMARK Flexibility Score: inf
ROOT
ATOM      1  C   UNL     1      24.780  -5.406 -31.734  1.00  0.00     0.180 A 
ATOM      2  C   UNL     1      25.786  -6.313 -31.356  1.00  0.00     0.208 A 
ATOM      3  C   UNL     1      25.420  -7.606 -30.952  1.00  0.00     0.238 A 
ATOM      4  O   UNL     1      26.329  -8.436 -30.687  1.00  0.00    -0.285 OA
ATOM      5  C   UNL     1      24.051  -7.961 -30.875  1.00  0.00     0.111 A 
ATOM      6  C   UNL     1      23.563  -9.229 -30.436  1.00  0.00     0.134 A 
ATOM      7  C   UNL     1      22.191  -9.501 -30.504  1.00  0.00     0.093 A 
ATOM      8  C   UNL     1      21.284  -8.535 -30.933  1.00  0.00     0.123 A 
ATOM      9  C   UNL     1      21.744  -7.274 -31.312  1.00  0.00     0.094 A 
ATOM     10  C   UNL     1      23.110  -6.983 -31.293  1.00  0.00     0.146 A 
ATOM     11  O   UNL     1      23.506  -5.777 -31.683  1.00  0.00    -0.452 OA
ENDROOT
BRANCH   1  12
ATOM     12  C   UNL     1      25.088  -4.029 -32.185  1.00  0.00     0.025 A 
ATOM     13  C   UNL     1      25.603  -1.706 -31.630  1.00  0.00     0.161 A 
ATOM     14  C   UNL     1      25.615  -1.389 -32.995  1.00  0.00     0.157 A 
ATOM     15  C   UNL     1      25.330  -3.029 -31.230  1.00  0.00     0.062 A 
ATOM     16  C   UNL     1      25.352  -2.381 -33.949  1.00  0.00     0.051 A 
ATOM     17  C   UNL     1      25.084  -3.690 -33.547  1.00  0.00     0.016 A 
BRANCH  13  18
ATOM     18  O   UNL     1      25.863  -0.683 -30.705  1.00  0.00    -0.493 OA
ATOM     19  C   UNL     1      25.564  -0.757 -29.315  1.00  0.00     0.278 C 
ENDBRANCH  13  18
BRANCH  14  20
ATOM     20  O   UNL     1      25.885  -0.081 -33.398  1.00  0.00    -0.504 OA
ATOM     21  H   UNL     1      25.922   0.174 -34.378  1.00  0.00     0.293 HD
ENDBRANCH  14  20
ENDBRANCH   1  12
BRANCH   2  22
ATOM     22  O   UNL     1      27.127  -5.920 -31.366  1.00  0.00    -0.502 OA
ATOM     23  H   UNL     1      27.417  -4.971 -31.161  1.00  0.00     0.293 HD
ENDBRANCH   2  22
BRANCH   6  24
ATOM     24  O   UNL     1      24.371 -10.238 -29.905  1.00  0.00    -0.507 OA
ATOM     25  H   UNL     1      24.708 -10.268 -28.954  1.00  0.00     0.293 HD
ENDBRANCH   6  24
BRANCH   8  26
ATOM     26  O   UNL     1      19.924  -8.836 -30.970  1.00  0.00    -0.508 OA
ATOM     27  H   UNL     1      19.585  -9.778 -30.814  1.00  0.00     0.293 HD
ENDBRANCH   8  26
TORSDOF 6
ENDMDL
MODEL 3
REMARK VINA RESULT:    -4.708      1.217      2.808
REMARK INTER + INTRA:          -6.135
REMARK INTER:                  -5.879
REMARK INTRA:                  -0.256
REMARK UNBOUND:                -0.326
REMARK SMILES COc1cc(-c2oc3cc(O)cc(O)c3c(=O)c2O)ccc1O
REMARK SMILES IDX 6 1 18 2 16 3 17 4 15 5 13 6 12 7 10 8 9 9 8 10 7 11 5 12
REMARK SMILES IDX 3 13 22 14 4 15 21 16 20 17 2 18 1 19 23 20 19 22 14 24
REMARK SMILES IDX 11 26
REMARK H PARENT 23 21 19 23 14 25 11 27
REMARK Flexibility Score: inf
ROOT
ATOM      1  C   UNL     1      21.366  -0.804 -24.596  1.00  0.00     0.180 A 
ATOM      2  C   UNL     1      21.100  -1.761 -23.602  1.00  0.00     0.208 A 
ATOM      3  C   UNL     1      22.151  -2.206 -22.785  1.00  0.00     0.238 A 
ATOM      4  O   UNL     1      21.892  -3.006 -21.849  1.00  0.00    -0.285 OA
ATOM      5  C   UNL     1      23.468  -1.732 -23.008  1.00  0.00     0.111 A 
ATOM      6  C   UNL     1      24.617  -2.147 -22.271  1.00  0.00     0.134 A 
ATOM      7  C   UNL     1      25.851  -1.529 -22.511  1.00  0.00     0.093 A 
ATOM      8  C   UNL     1      25.992  -0.559 -23.501  1.00  0.00     0.123 A 
ATOM      9  C   UNL     1      24.886  -0.185 -24.265  1.00  0.00     0.094 A 
ATOM     10  C   UNL     1      23.634  -0.754 -24.024  1.00  0.00     0.146 A 
ATOM     11  O   UNL     1      22.604  -0.352 -24.761  1.00  0.00    -0.452 OA
ENDROOT
BRANCH   1  12
ATOM     12  C   UNL     1      20.308  -0.276 -25.487  1.00  0.00     0.025 A 
ATOM     13  C   UNL     1      18.744  -0.636 -27.331  1.00  0.00     0.161 A 
ATOM     14  C   UNL     1      18.338   0.702 -27.240  1.00  0.00     0.157 A 
ATOM     15  C   UNL     1      19.737  -1.117 -26.455  1.00  0.00     0.062 A 
ATOM     16  C   UNL     1      18.921   1.551 -26.289  1.00  0.00     0.051 A 
ATOM     17  C   UNL     1      19.903   1.068 -25.423  1.00  0.00     0.016 A 
BRANCH  13  18
ATOM     18  O   UNL     1      18.143  -1.452 -28.302  1.00  0.00    -0.493 OA
ATOM     19  C   UNL     1      18.448  -2.828 -28.500  1.00  0.00     0.278 C 
ENDBRANCH  13  18
BRANCH  14  20
ATOM     20  O   UNL     1      17.355   1.186 -28.103  1.00  0.00    -0.504 OA
ATOM     21  H   UNL     1      16.371   1.123 -27.874  1.00  0.00     0.293 HD
ENDBRANCH  14  20
ENDBRANCH   1  12
BRANCH   2  22
ATOM     22  O   UNL     1      19.809  -2.273 -23.447  1.00  0.00    -0.502 OA
ATOM     23  H   UNL     1      19.260  -2.120 -22.609  1.00  0.00     0.293 HD
ENDBRANCH   2  22
BRANCH   6  24
ATOM     24  O   UNL     1      24.610  -3.171 -21.319  1.00  0.00    -0.507 OA
ATOM     25  H   UNL     1      23.838  -3.383 -20.705  1.00  0.00     0.293 HD
ENDBRANCH   6  24
BRANCH   8  26
ATOM     26  O   UNL     1      27.239   0.021 -23.723  1.00  0.00    -0.508 OA
ATOM     27  H   UNL     1      27.505   0.893 -23.281  1.00  0.00     0.293 HD
ENDBRANCH   8  26
TORSDOF 6
ENDMDL
MODEL 4
REMARK VINA RESULT:    -4.698      1.547      7.335
REMARK INTER + INTRA:          -6.123
REMARK INTER:                  -5.748
REMARK INTRA:                  -0.374
REMARK UNBOUND:                -0.326
REMARK SMILES COc1cc(-c2oc3cc(O)cc(O)c3c(=O)c2O)ccc1O
REMARK SMILES IDX 6 1 18 2 16 3 17 4 15 5 13 6 12 7 10 8 9 9 8 10 7 11 5 12
REMARK SMILES IDX 3 13 22 14 4 15 21 16 20 17 2 18 1 19 23 20 19 22 14 24
REMARK SMILES IDX 11 26
REMARK H PARENT 23 21 19 23 14 25 11 27
REMARK Flexibility Score: inf
ROOT
ATOM      1  C   UNL     1      20.962  -1.619 -24.987  1.00  0.00     0.180 A 
ATOM      2  C   UNL     1      20.620  -2.738 -25.764  1.00  0.00     0.208 A 
ATOM      3  C   UNL     1      19.759  -2.570 -26.860  1.00  0.00     0.238 A 
ATOM      4  O   UNL     1      19.517  -3.561 -27.596  1.00  0.00    -0.285 OA
ATOM      5  C   UNL     1      19.205  -1.295 -27.132  1.00  0.00     0.111 A 
ATOM      6  C   UNL     1      18.286  -1.017 -28.190  1.00  0.00     0.134 A 
ATOM      7  C   UNL     1      17.889   0.305 -28.428  1.00  0.00     0.093 A 
ATOM      8  C   UNL     1      18.324   1.348 -27.612  1.00  0.00     0.123 A 
ATOM      9  C   UNL     1      19.178   1.080 -26.543  1.00  0.00     0.094 A 
ATOM     10  C   UNL     1      19.624  -0.222 -26.302  1.00  0.00     0.146 A 
ATOM     11  O   UNL     1      20.454  -0.429 -25.286  1.00  0.00    -0.452 OA
ENDROOT
BRANCH   1  12
ATOM     12  C   UNL     1      21.875  -1.714 -23.825  1.00  0.00     0.025 A 
ATOM     13  C   UNL     1      24.134  -1.530 -22.909  1.00  0.00     0.161 A 
ATOM     14  C   UNL     1      23.654  -1.941 -21.659  1.00  0.00     0.157 A 
ATOM     15  C   UNL     1      23.239  -1.426 -23.992  1.00  0.00     0.062 A 
ATOM     16  C   UNL     1      22.298  -2.250 -21.493  1.00  0.00     0.051 A 
ATOM     17  C   UNL     1      21.415  -2.144 -22.569  1.00  0.00     0.016 A 
BRANCH  13  18
ATOM     18  O   UNL     1      25.501  -1.238 -23.037  1.00  0.00    -0.493 OA
ATOM     19  C   UNL     1      26.024  -0.124 -23.754  1.00  0.00     0.278 C 
ENDBRANCH  13  18
BRANCH  14  20
ATOM     20  O   UNL     1      24.534  -2.046 -20.582  1.00  0.00    -0.504 OA
ATOM     21  H   UNL     1      24.479  -1.417 -19.789  1.00  0.00     0.293 HD
ENDBRANCH  14  20
ENDBRANCH   1  12
BRANCH   2  22
ATOM     22  O   UNL     1      21.116  -4.002 -25.434  1.00  0.00    -0.502 OA
ATOM     23  H   UNL     1      20.801  -4.515 -24.618  1.00  0.00     0.293 HD
ENDBRANCH   2  22
BRANCH   6  24
ATOM     24  O   UNL     1      17.718  -1.994 -29.011  1.00  0.00    -0.507 OA
ATOM     25  H   UNL     1      17.360  -1.831 -29.940  1.00  0.00     0.293 HD
ENDBRANCH   6  24
BRANCH   8  26
ATOM     26  O   UNL     1      17.893   2.648 -27.869  1.00  0.00    -0.508 OA
ATOM     27  H   UNL     1      17.829   3.341 -27.132  1.00  0.00     0.293 HD
ENDBRANCH   8  26
TORSDOF 6
ENDMDL
MODEL 5
REMARK VINA RESULT:    -4.695      8.649     12.484
REMARK INTER + INTRA:          -6.118
REMARK INTER:                  -5.781
REMARK INTRA:                  -0.337
REMARK UNBOUND:                -0.326
REMARK SMILES COc1cc(-c2oc3cc(O)cc(O)c3c(=O)c2O)ccc1O
REMARK SMILES IDX 6 1 18 2 16 3 17 4 15 5 13 6 12 7 10 8 9 9 8 10 7 11 5 12
REMARK SMILES IDX 3 13 22 14 4 15 21 16 20 17 2 18 1 19 23 20 19 22 14 24
REMARK SMILES IDX 11 26
REMARK H PARENT 23 21 19 23 14 25 11 27
REMARK Flexibility Score: inf
ROOT
ATOM      1  C   UNL     1      21.924  -3.513 -34.636  1.00  0.00     0.180 A 
ATOM      2  C   UNL     1      21.460  -4.732 -34.114  1.00  0.00     0.208 A 
ATOM      3  C   UNL     1      20.402  -5.391 -34.759  1.00  0.00     0.238 A 
ATOM      4  O   UNL     1      20.042  -6.518 -34.331  1.00  0.00    -0.285 OA
ATOM      5  C   UNL     1      19.782  -4.795 -35.885  1.00  0.00     0.111 A 
ATOM      6  C   UNL     1      18.672  -5.352 -36.590  1.00  0.00     0.134 A 
ATOM      7  C   UNL     1      18.210  -4.724 -37.755  1.00  0.00     0.093 A 
ATOM      8  C   UNL     1      18.774  -3.532 -38.204  1.00  0.00     0.123 A 
ATOM      9  C   UNL     1      19.823  -2.950 -37.491  1.00  0.00     0.094 A 
ATOM     10  C   UNL     1      20.332  -3.571 -36.348  1.00  0.00     0.146 A 
ATOM     11  O   UNL     1      21.345  -2.994 -35.712  1.00  0.00    -0.452 OA
ENDROOT
BRANCH   1  12
ATOM     12  C   UNL     1      23.045  -2.766 -34.020  1.00  0.00     0.025 A 
ATOM     13  C   UNL     1      23.836  -0.812 -32.783  1.00  0.00     0.161 A 
ATOM     14  C   UNL     1      25.151  -1.285 -32.889  1.00  0.00     0.157 A 
ATOM     15  C   UNL     1      22.787  -1.555 -33.359  1.00  0.00     0.062 A 
ATOM     16  C   UNL     1      25.415  -2.482 -33.567  1.00  0.00     0.051 A 
ATOM     17  C   UNL     1      24.371  -3.215 -34.133  1.00  0.00     0.016 A 
BRANCH  13  18
ATOM     18  O   UNL     1      23.613   0.396 -32.103  1.00  0.00    -0.493 OA
ATOM     19  C   UNL     1      23.138   1.590 -32.715  1.00  0.00     0.278 C 
ENDBRANCH  13  18
BRANCH  14  20
ATOM     20  O   UNL     1      26.195  -0.555 -32.320  1.00  0.00    -0.504 OA
ATOM     21  H   UNL     1      26.428   0.376 -32.643  1.00  0.00     0.293 HD
ENDBRANCH  14  20
ENDBRANCH   1  12
BRANCH   2  22
ATOM     22  O   UNL     1      22.035  -5.266 -32.957  1.00  0.00    -0.502 OA
ATOM     23  H   UNL     1      21.612  -6.028 -32.441  1.00  0.00     0.293 HD
ENDBRANCH   2  22
BRANCH   6  24
ATOM     24  O   UNL     1      17.976  -6.492 -36.181  1.00  0.00    -0.507 OA
ATOM     25  H   UNL     1      18.342  -7.432 -36.201  1.00  0.00     0.293 HD
ENDBRANCH   6  24
BRANCH   8  26
ATOM     26  O   UNL     1      18.277  -2.927 -39.357  1.00  0.00    -0.508 OA
ATOM     27  H   UNL     1      18.760  -3.000 -40.245  1.00  0.00     0.293 HD
ENDBRANCH   8  26
TORSDOF 6
ENDMDL
MODEL 6
REMARK VINA RESULT:    -4.658      8.828     11.864
REMARK INTER + INTRA:          -6.073
REMARK INTER:                  -5.695
REMARK INTRA:                  -0.378
REMARK UNBOUND:                -0.326
REMARK SMILES COc1cc(-c2oc3cc(O)cc(O)c3c(=O)c2O)ccc1O
REMARK SMILES IDX 6 1 18 2 16 3 17 4 15 5 13 6 12 7 10 8 9 9 8 10 7 11 5 12
REMARK SMILES IDX 3 13 22 14 4 15 21 16 20 17 2 18 1 19 23 20 19 22 14 24
REMARK SMILES IDX 11 26
REMARK H PARENT 23 21 19 23 14 25 11 27
REMARK Flexibility Score: inf
ROOT
ATOM      1  C   UNL     1      22.822  -3.514 -33.902  1.00  0.00     0.180 A 
ATOM      2  C   UNL     1      22.632  -2.166 -33.553  1.00  0.00     0.208 A 
ATOM      3  C   UNL     1      21.690  -1.404 -34.261  1.00  0.00     0.238 A 
ATOM      4  O   UNL     1      21.471  -0.221 -33.895  1.00  0.00    -0.285 OA
ATOM      5  C   UNL     1      20.988  -1.983 -35.348  1.00  0.00     0.111 A 
ATOM      6  C   UNL     1      20.042  -1.293 -36.165  1.00  0.00     0.134 A 
ATOM      7  C   UNL     1      19.332  -1.999 -37.144  1.00  0.00     0.093 A 
ATOM      8  C   UNL     1      19.576  -3.350 -37.379  1.00  0.00     0.123 A 
ATOM      9  C   UNL     1      20.538  -4.021 -36.624  1.00  0.00     0.094 A 
ATOM     10  C   UNL     1      21.235  -3.356 -35.613  1.00  0.00     0.146 A 
ATOM     11  O   UNL     1      22.126  -4.039 -34.904  1.00  0.00    -0.452 OA
ENDROOT
BRANCH   1  12
ATOM     12  C   UNL     1      23.788  -4.384 -33.193  1.00  0.00     0.025 A 
ATOM     13  C   UNL     1      24.235  -6.038 -31.449  1.00  0.00     0.161 A 
ATOM     14  C   UNL     1      25.597  -6.008 -31.779  1.00  0.00     0.157 A 
ATOM     15  C   UNL     1      23.335  -5.216 -32.156  1.00  0.00     0.062 A 
ATOM     16  C   UNL     1      26.055  -5.163 -32.799  1.00  0.00     0.051 A 
ATOM     17  C   UNL     1      25.159  -4.353 -33.497  1.00  0.00     0.016 A 
BRANCH  13  18
ATOM     18  O   UNL     1      23.816  -6.891 -30.416  1.00  0.00    -0.493 OA
ATOM     19  C   UNL     1      23.240  -8.178 -30.616  1.00  0.00     0.278 C 
ENDBRANCH  13  18
BRANCH  14  20
ATOM     20  O   UNL     1      26.493  -6.820 -31.084  1.00  0.00    -0.504 OA
ATOM     21  H   UNL     1      26.681  -7.772 -31.374  1.00  0.00     0.293 HD
ENDBRANCH  14  20
ENDBRANCH   1  12
BRANCH   2  22
ATOM     22  O   UNL     1      23.389  -1.592 -32.527  1.00  0.00    -0.502 OA
ATOM     23  H   UNL     1      23.391  -1.958 -31.583  1.00  0.00     0.293 HD
ENDBRANCH   2  22
BRANCH   6  24
ATOM     24  O   UNL     1      19.783   0.078 -36.076  1.00  0.00    -0.507 OA
ATOM     25  H   UNL     1      18.916   0.483 -35.756  1.00  0.00     0.293 HD
ENDBRANCH   6  24
BRANCH   8  26
ATOM     26  O   UNL     1      18.862  -4.015 -38.374  1.00  0.00    -0.508 OA
ATOM     27  H   UNL     1      18.247  -3.518 -39.008  1.00  0.00     0.293 HD
ENDBRANCH   8  26
TORSDOF 6
ENDMDL
MODEL 7
REMARK VINA RESULT:    -4.657      1.883      6.385
REMARK INTER + INTRA:          -6.072
REMARK INTER:                  -5.712
REMARK INTRA:                  -0.360
REMARK UNBOUND:                -0.326
REMARK SMILES COc1cc(-c2oc3cc(O)cc(O)c3c(=O)c2O)ccc1O
REMARK SMILES IDX 6 1 18 2 16 3 17 4 15 5 13 6 12 7 10 8 9 9 8 10 7 11 5 12
REMARK SMILES IDX 3 13 22 14 4 15 21 16 20 17 2 18 1 19 23 20 19 22 14 24
REMARK SMILES IDX 11 26
REMARK H PARENT 23 21 19 23 14 25 11 27
REMARK Flexibility Score: inf
ROOT
ATOM      1  C   UNL     1      21.818  -0.786 -24.591  1.00  0.00     0.180 A 
ATOM      2  C   UNL     1      22.811   0.135 -24.964  1.00  0.00     0.208 A 
ATOM      3  C   UNL     1      22.510   1.108 -25.930  1.00  0.00     0.238 A 
ATOM      4  O   UNL     1      23.378   1.975 -26.205  1.00  0.00    -0.285 OA
ATOM      5  C   UNL     1      21.237   1.113 -26.553  1.00  0.00     0.111 A 
ATOM      6  C   UNL     1      20.837   2.025 -27.577  1.00  0.00     0.134 A 
ATOM      7  C   UNL     1      19.516   2.002 -28.043  1.00  0.00     0.093 A 
ATOM      8  C   UNL     1      18.601   1.064 -27.571  1.00  0.00     0.123 A 
ATOM      9  C   UNL     1      18.996   0.133 -26.610  1.00  0.00     0.094 A 
ATOM     10  C   UNL     1      20.295   0.154 -26.096  1.00  0.00     0.146 A 
ATOM     11  O   UNL     1      20.623  -0.736 -25.168  1.00  0.00    -0.452 OA
ENDROOT
BRANCH   1  12
ATOM     12  C   UNL     1      22.055  -1.832 -23.569  1.00  0.00     0.025 A 
ATOM     13  C   UNL     1      22.411  -4.187 -23.021  1.00  0.00     0.161 A 
ATOM     14  C   UNL     1      22.447  -3.858 -21.659  1.00  0.00     0.157 A 
ATOM     15  C   UNL     1      22.207  -3.168 -23.972  1.00  0.00     0.062 A 
ATOM     16  C   UNL     1      22.274  -2.529 -21.252  1.00  0.00     0.051 A 
ATOM     17  C   UNL     1      22.074  -1.523 -22.199  1.00  0.00     0.016 A 
BRANCH  13  18
ATOM     18  O   UNL     1      22.580  -5.531 -23.388  1.00  0.00    -0.493 OA
ATOM     19  C   UNL     1      21.513  -6.425 -23.690  1.00  0.00     0.278 C 
ENDBRANCH  13  18
BRANCH  14  20
ATOM     20  O   UNL     1      22.650  -4.861 -20.711  1.00  0.00    -0.504 OA
ATOM     21  H   UNL     1      23.224  -5.671 -20.912  1.00  0.00     0.293 HD
ENDBRANCH  14  20
ENDBRANCH   1  12
BRANCH   2  22
ATOM     22  O   UNL     1      24.085   0.066 -24.393  1.00  0.00    -0.502 OA
ATOM     23  H   UNL     1      24.924   0.316 -24.903  1.00  0.00     0.293 HD
ENDBRANCH   2  22
BRANCH   6  24
ATOM     24  O   UNL     1      21.695   2.946 -28.184  1.00  0.00    -0.507 OA
ATOM     25  H   UNL     1      21.656   3.946 -28.053  1.00  0.00     0.293 HD
ENDBRANCH   6  24
BRANCH   8  26
ATOM     26  O   UNL     1      17.300   1.060 -28.071  1.00  0.00    -0.508 OA
ATOM     27  H   UNL     1      16.502   0.884 -27.472  1.00  0.00     0.293 HD
ENDBRANCH   8  26
TORSDOF 6
ENDMDL
MODEL 8
REMARK VINA RESULT:    -4.653      2.416      3.326
REMARK INTER + INTRA:          -6.066
REMARK INTER:                  -6.460
REMARK INTRA:                   0.393
REMARK UNBOUND:                -0.326
REMARK SMILES COc1cc(-c2oc3cc(O)cc(O)c3c(=O)c2O)ccc1O
REMARK SMILES IDX 6 1 18 2 16 3 17 4 15 5 13 6 12 7 10 8 9 9 8 10 7 11 5 12
REMARK SMILES IDX 3 13 22 14 4 15 21 16 20 17 2 18 1 19 23 20 19 22 14 24
REMARK SMILES IDX 11 26
REMARK H PARENT 23 21 19 23 14 25 11 27
REMARK Flexibility Score: inf
ROOT
ATOM      1  C   UNL     1      20.356  -1.866 -25.195  1.00  0.00     0.180 A 
ATOM      2  C   UNL     1      20.402  -3.155 -25.755  1.00  0.00     0.208 A 
ATOM      3  C   UNL     1      21.010  -4.191 -25.030  1.00  0.00     0.238 A 
ATOM      4  O   UNL     1      20.981  -5.357 -25.504  1.00  0.00    -0.285 OA
ATOM      5  C   UNL     1      21.616  -3.917 -23.780  1.00  0.00     0.111 A 
ATOM      6  C   UNL     1      22.300  -4.881 -22.979  1.00  0.00     0.134 A 
ATOM      7  C   UNL     1      22.767  -4.516 -21.709  1.00  0.00     0.093 A 
ATOM      8  C   UNL     1      22.632  -3.212 -21.238  1.00  0.00     0.123 A 
ATOM      9  C   UNL     1      22.014  -2.248 -22.035  1.00  0.00     0.094 A 
ATOM     10  C   UNL     1      21.503  -2.589 -23.289  1.00  0.00     0.146 A 
ATOM     11  O   UNL     1      20.903  -1.645 -24.006  1.00  0.00    -0.452 OA
ENDROOT
BRANCH   1  12
ATOM     12  C   UNL     1      19.719  -0.725 -25.892  1.00  0.00     0.025 A 
ATOM     13  C   UNL     1      18.249   0.097 -27.664  1.00  0.00     0.161 A 
ATOM     14  C   UNL     1      18.538   1.414 -27.283  1.00  0.00     0.157 A 
ATOM     15  C   UNL     1      18.851  -0.970 -26.968  1.00  0.00     0.062 A 
ATOM     16  C   UNL     1      19.421   1.663 -26.224  1.00  0.00     0.051 A 
ATOM     17  C   UNL     1      20.012   0.602 -25.537  1.00  0.00     0.016 A 
BRANCH  13  18
ATOM     18  O   UNL     1      17.366  -0.111 -28.735  1.00  0.00    -0.493 OA
ATOM     19  C   UNL     1      16.008  -0.514 -28.594  1.00  0.00     0.278 C 
ENDBRANCH  13  18
BRANCH  14  20
ATOM     20  O   UNL     1      17.945   2.476 -27.966  1.00  0.00    -0.504 OA
ATOM     21  H   UNL     1      17.104   2.925 -27.623  1.00  0.00     0.293 HD
ENDBRANCH  14  20
ENDBRANCH   1  12
BRANCH   2  22
ATOM     22  O   UNL     1      19.865  -3.389 -27.024  1.00  0.00    -0.502 OA
ATOM     23  H   UNL     1      19.401  -2.666 -27.561  1.00  0.00     0.293 HD
ENDBRANCH   2  22
BRANCH   6  24
ATOM     24  O   UNL     1      22.569  -6.190 -23.388  1.00  0.00    -0.507 OA
ATOM     25  H   UNL     1      22.563  -6.997 -22.782  1.00  0.00     0.293 HD
ENDBRANCH   6  24
BRANCH   8  26
ATOM     26  O   UNL     1      23.125  -2.882 -19.977  1.00  0.00    -0.508 OA
ATOM     27  H   UNL     1      22.978  -1.964 -19.574  1.00  0.00     0.293 HD
ENDBRANCH   8  26
TORSDOF 6
ENDMDL
MODEL 9
REMARK VINA RESULT:    -4.443      7.498     10.655
REMARK INTER + INTRA:          -5.808
REMARK INTER:                  -5.432
REMARK INTRA:                  -0.376
REMARK UNBOUND:                -0.326
REMARK SMILES COc1cc(-c2oc3cc(O)cc(O)c3c(=O)c2O)ccc1O
REMARK SMILES IDX 6 1 18 2 16 3 17 4 15 5 13 6 12 7 10 8 9 9 8 10 7 11 5 12
REMARK SMILES IDX 3 13 22 14 4 15 21 16 20 17 2 18 1 19 23 20 19 22 14 24
REMARK SMILES IDX 11 26
REMARK H PARENT 23 21 19 23 14 25 11 27
REMARK Flexibility Score: inf
ROOT
ATOM      1  C   UNL     1      23.920  -1.576 -33.135  1.00  0.00     0.180 A 
ATOM      2  C   UNL     1      24.575  -0.356 -33.372  1.00  0.00     0.208 A 
ATOM      3  C   UNL     1      23.817   0.764 -33.747  1.00  0.00     0.238 A 
ATOM      4  O   UNL     1      24.400   1.870 -33.885  1.00  0.00    -0.285 OA
ATOM      5  C   UNL     1      22.418   0.637 -33.937  1.00  0.00     0.111 A 
ATOM      6  C   UNL     1      21.556   1.694 -34.359  1.00  0.00     0.134 A 
ATOM      7  C   UNL     1      20.173   1.478 -34.409  1.00  0.00     0.093 A 
ATOM      8  C   UNL     1      19.626   0.231 -34.114  1.00  0.00     0.123 A 
ATOM      9  C   UNL     1      20.465  -0.824 -33.753  1.00  0.00     0.094 A 
ATOM     10  C   UNL     1      21.845  -0.631 -33.656  1.00  0.00     0.146 A 
ATOM     11  O   UNL     1      22.603  -1.657 -33.288  1.00  0.00    -0.452 OA
ENDROOT
BRANCH   1  12
ATOM     12  C   UNL     1      24.650  -2.797 -32.723  1.00  0.00     0.025 A 
ATOM     13  C   UNL     1      25.730  -4.102 -30.961  1.00  0.00     0.161 A 
ATOM     14  C   UNL     1      26.089  -5.071 -31.908  1.00  0.00     0.157 A 
ATOM     15  C   UNL     1      25.015  -2.962 -31.377  1.00  0.00     0.062 A 
ATOM     16  C   UNL     1      25.744  -4.899 -33.255  1.00  0.00     0.051 A 
ATOM     17  C   UNL     1      25.035  -3.768 -33.661  1.00  0.00     0.016 A 
BRANCH  13  18
ATOM     18  O   UNL     1      26.100  -4.306 -29.623  1.00  0.00    -0.493 OA
ATOM     19  C   UNL     1      27.200  -3.666 -28.984  1.00  0.00     0.278 C 
ENDBRANCH  13  18
BRANCH  14  20
ATOM     20  O   UNL     1      26.796  -6.203 -31.503  1.00  0.00    -0.504 OA
ATOM     21  H   UNL     1      26.412  -7.135 -31.612  1.00  0.00     0.293 HD
ENDBRANCH  14  20
ENDBRANCH   1  12
BRANCH   2  22
ATOM     22  O   UNL     1      25.965  -0.270 -33.254  1.00  0.00    -0.502 OA
ATOM     23  H   UNL     1      26.513   0.415 -33.761  1.00  0.00     0.293 HD
ENDBRANCH   2  22
BRANCH   6  24
ATOM     24  O   UNL     1      22.003   2.955 -34.763  1.00  0.00    -0.507 OA
ATOM     25  H   UNL     1      21.666   3.456 -35.572  1.00  0.00     0.293 HD
ENDBRANCH   6  24
BRANCH   8  26
ATOM     26  O   UNL     1      18.247   0.049 -34.191  1.00  0.00    -0.508 OA
ATOM     27  H   UNL     1      17.797  -0.231 -35.055  1.00  0.00     0.293 HD
ENDBRANCH   8  26
TORSDOF 6
ENDMDL
