MODEL 1
REMARK VINA RESULT:    18.375      0.000      0.000
REMARK INTER + INTRA:          48.905
REMARK INTER:                  48.454
REMARK INTRA:                   0.451
REMARK UNBOUND:                 0.451
REMARK SMILES CCCCCCCCCCCCCCCCCCCCCCCCCCCCCC(=O)[O-]
REMARK SMILES IDX 16 1 17 2 18 3 19 4 20 5 21 6 22 7 23 8 24 9 25 10 26 11
REMARK SMILES IDX 27 12 28 13 29 14 30 15 31 16 32 17 15 18 14 19 13 20 12 21
REMARK SMILES IDX 11 22 10 23 9 24 8 25 7 26 6 27 5 28 4 29 3 30 2 31 1 32
REMARK H PARENT
REMARK Flexibility Score: inf
ROOT
ATOM      1  C   UNL     1      27.409  47.339   7.287  1.00  0.00     0.000 C 
ENDROOT
BRANCH   1   2
ATOM      2  C   UNL     1      25.899  47.043   7.258  1.00  0.00     0.000 C 
BRANCH   2   3
ATOM      3  C   UNL     1      25.532  45.553   7.119  1.00  0.00     0.000 C 
BRANCH   3   4
ATOM      4  C   UNL     1      26.661  44.645   6.589  1.00  0.00     0.000 C 
BRANCH   4   5
ATOM      5  C   UNL     1      26.200  43.484   5.690  1.00  0.00     0.000 C 
BRANCH   5   6
ATOM      6  C   UNL     1      26.714  43.608   4.246  1.00  0.00     0.000 C 
BRANCH   6   7
ATOM      7  C   UNL     1      25.590  43.896   3.232  1.00  0.00     0.000 C 
BRANCH   7   8
ATOM      8  C   UNL     1      24.905  42.650   2.633  1.00  0.00     0.000 C 
BRANCH   8   9
ATOM      9  C   UNL     1      23.384  42.776   2.432  1.00  0.00     0.000 C 
BRANCH   9  10
ATOM     10  C   UNL     1      22.581  42.170   3.596  1.00  0.00     0.000 C 
BRANCH  10  11
ATOM     11  C   UNL     1      23.452  41.925   4.839  1.00  0.00     0.000 C 
BRANCH  11  12
ATOM     12  C   UNL     1      24.209  40.591   4.767  1.00  0.00     0.000 C 
BRANCH  12  13
ATOM     13  C   UNL     1      24.364  39.973   6.163  1.00  0.00     0.006 C 
BRANCH  13  14
ATOM     14  C   UNL     1      25.261  38.731   6.119  1.00  0.00     0.053 C 
BRANCH  14  15
ATOM     15  C   UNL     1      26.203  38.709   7.283  1.00  0.00     0.041 C 
ATOM     16  O   UNL     1      27.363  38.236   7.149  1.00  0.00    -0.550 OA
ATOM     17  O   UNL     1      25.793  39.184   8.523  1.00  0.00    -0.550 OA
ENDBRANCH  14  15
ENDBRANCH  13  14
ENDBRANCH  12  13
ENDBRANCH  11  12
ENDBRANCH  10  11
ENDBRANCH   9  10
ENDBRANCH   8   9
ENDBRANCH   7   8
ENDBRANCH   6   7
ENDBRANCH   5   6
ENDBRANCH   4   5
ENDBRANCH   3   4
ENDBRANCH   2   3
ENDBRANCH   1   2
BRANCH   1  18
ATOM     18  C   UNL     1      27.907  48.024   6.002  1.00  0.00     0.000 C 
BRANCH  18  19
ATOM     19  C   UNL     1      27.575  47.214   4.739  1.00  0.00     0.000 C 
BRANCH  19  20
ATOM     20  C   UNL     1      28.543  46.038   4.519  1.00  0.00     0.000 C 
BRANCH  20  21
ATOM     21  C   UNL     1      28.398  45.395   3.129  1.00  0.00     0.000 C 
BRANCH  21  22
ATOM     22  C   UNL     1      29.586  44.517   2.691  1.00  0.00     0.000 C 
BRANCH  22  23
ATOM     23  C   UNL     1      29.769  44.473   1.164  1.00  0.00     0.000 C 
BRANCH  23  24
ATOM     24  C   UNL     1      30.012  43.049   0.640  1.00  0.00    -0.000 C 
BRANCH  24  25
ATOM     25  C   UNL     1      30.728  43.031  -0.721  1.00  0.00    -0.000 C 
BRANCH  25  26
ATOM     26  C   UNL     1      32.119  42.379  -0.656  1.00  0.00    -0.000 C 
BRANCH  26  27
ATOM     27  C   UNL     1      33.289  43.357  -0.424  1.00  0.00    -0.000 C 
BRANCH  27  28
ATOM     28  C   UNL     1      34.689  42.776  -0.692  1.00  0.00    -0.000 C 
BRANCH  28  29
ATOM     29  C   UNL     1      35.810  43.814  -0.515  1.00  0.00    -0.000 C 
BRANCH  29  30
ATOM     30  C   UNL     1      36.648  44.011  -1.790  1.00  0.00    -0.000 C 
BRANCH  30  31
ATOM     31  C   UNL     1      38.158  43.752  -1.617  1.00  0.00    -0.003 C 
ATOM     32  C   UNL     1      38.581  42.353  -2.061  1.00  0.00     0.004 C 
ENDBRANCH  30  31
ENDBRANCH  29  30
ENDBRANCH  28  29
ENDBRANCH  27  28
ENDBRANCH  26  27
ENDBRANCH  25  26
ENDBRANCH  24  25
ENDBRANCH  23  24
ENDBRANCH  22  23
ENDBRANCH  21  22
ENDBRANCH  20  21
ENDBRANCH  19  20
ENDBRANCH  18  19
ENDBRANCH   1  18
TORSDOF 28
ENDMDL
MODEL 2
REMARK VINA RESULT:    18.939      3.812      8.957
REMARK INTER + INTRA:          50.391
REMARK INTER:                  49.833
REMARK INTRA:                   0.557
REMARK UNBOUND:                 0.451
REMARK SMILES CCCCCCCCCCCCCCCCCCCCCCCCCCCCCC(=O)[O-]
REMARK SMILES IDX 16 1 17 2 18 3 19 4 20 5 21 6 22 7 23 8 24 9 25 10 26 11
REMARK SMILES IDX 27 12 28 13 29 14 30 15 31 16 32 17 15 18 14 19 13 20 12 21
REMARK SMILES IDX 11 22 10 23 9 24 8 25 7 26 6 27 5 28 4 29 3 30 2 31 1 32
REMARK H PARENT
REMARK Flexibility Score: inf
ROOT
ATOM      1  C   UNL     1      25.784  44.821   6.430  1.00  0.00     0.000 C 
ENDROOT
BRANCH   1   2
ATOM      2  C   UNL     1      26.367  45.511   7.676  1.00  0.00     0.000 C 
BRANCH   2   3
ATOM      3  C   UNL     1      26.262  47.049   7.673  1.00  0.00     0.000 C 
BRANCH   3   4
ATOM      4  C   UNL     1      27.457  47.788   7.037  1.00  0.00     0.000 C 
BRANCH   4   5
ATOM      5  C   UNL     1      27.512  47.742   5.500  1.00  0.00     0.000 C 
BRANCH   5   6
ATOM      6  C   UNL     1      28.462  46.655   4.969  1.00  0.00     0.000 C 
BRANCH   6   7
ATOM      7  C   UNL     1      27.934  45.968   3.696  1.00  0.00     0.000 C 
BRANCH   7   8
ATOM      8  C   UNL     1      28.747  44.747   3.218  1.00  0.00     0.000 C 
BRANCH   8   9
ATOM      9  C   UNL     1      29.723  45.028   2.061  1.00  0.00     0.000 C 
BRANCH   9  10
ATOM     10  C   UNL     1      29.539  44.057   0.882  1.00  0.00     0.000 C 
BRANCH  10  11
ATOM     11  C   UNL     1      30.795  43.208   0.624  1.00  0.00     0.000 C 
BRANCH  11  12
ATOM     12  C   UNL     1      31.007  42.918  -0.869  1.00  0.00     0.000 C 
BRANCH  12  13
ATOM     13  C   UNL     1      29.797  42.186  -1.463  1.00  0.00     0.006 C 
BRANCH  13  14
ATOM     14  C   UNL     1      29.454  42.729  -2.855  1.00  0.00     0.053 C 
BRANCH  14  15
ATOM     15  C   UNL     1      28.709  41.708  -3.659  1.00  0.00     0.041 C 
ATOM     16  O   UNL     1      27.702  41.130  -3.171  1.00  0.00    -0.550 OA
ATOM     17  O   UNL     1      29.142  41.373  -4.937  1.00  0.00    -0.550 OA
ENDBRANCH  14  15
ENDBRANCH  13  14
ENDBRANCH  12  13
ENDBRANCH  11  12
ENDBRANCH  10  11
ENDBRANCH   9  10
ENDBRANCH   8   9
ENDBRANCH   7   8
ENDBRANCH   6   7
ENDBRANCH   5   6
ENDBRANCH   4   5
ENDBRANCH   3   4
ENDBRANCH   2   3
ENDBRANCH   1   2
BRANCH   1  18
ATOM     18  C   UNL     1      26.700  43.714   5.879  1.00  0.00     0.000 C 
BRANCH  18  19
ATOM     19  C   UNL     1      26.583  43.562   4.354  1.00  0.00     0.000 C 
BRANCH  19  20
ATOM     20  C   UNL     1      25.141  43.279   3.897  1.00  0.00     0.000 C 
BRANCH  20  21
ATOM     21  C   UNL     1      25.037  42.991   2.389  1.00  0.00     0.000 C 
BRANCH  21  22
ATOM     22  C   UNL     1      24.226  41.735   2.021  1.00  0.00     0.000 C 
BRANCH  22  23
ATOM     23  C   UNL     1      22.707  41.938   2.159  1.00  0.00     0.000 C 
BRANCH  23  24
ATOM     24  C   UNL     1      22.349  43.264   2.849  1.00  0.00    -0.000 C 
BRANCH  24  25
ATOM     25  C   UNL     1      22.434  43.178   4.382  1.00  0.00    -0.000 C 
BRANCH  25  26
ATOM     26  C   UNL     1      22.221  41.750   4.912  1.00  0.00    -0.000 C 
BRANCH  26  27
ATOM     27  C   UNL     1      23.254  41.280   5.958  1.00  0.00    -0.000 C 
BRANCH  27  28
ATOM     28  C   UNL     1      24.436  40.474   5.391  1.00  0.00    -0.000 C 
BRANCH  28  29
ATOM     29  C   UNL     1      25.337  39.885   6.490  1.00  0.00    -0.000 C 
BRANCH  29  30
ATOM     30  C   UNL     1      25.502  38.359   6.373  1.00  0.00    -0.000 C 
BRANCH  30  31
ATOM     31  C   UNL     1      26.928  37.841   6.640  1.00  0.00    -0.003 C 
ATOM     32  C   UNL     1      27.862  38.010   5.443  1.00  0.00     0.004 C 
ENDBRANCH  30  31
ENDBRANCH  29  30
ENDBRANCH  28  29
ENDBRANCH  27  28
ENDBRANCH  26  27
ENDBRANCH  25  26
ENDBRANCH  24  25
ENDBRANCH  23  24
ENDBRANCH  22  23
ENDBRANCH  21  22
ENDBRANCH  20  21
ENDBRANCH  19  20
ENDBRANCH  18  19
ENDBRANCH   1  18
TORSDOF 28
ENDMDL
MODEL 3
REMARK VINA RESULT:    19.093      1.082      2.616
REMARK INTER + INTRA:          50.798
REMARK INTER:                  51.434
REMARK INTRA:                  -0.636
REMARK UNBOUND:                 0.451
REMARK SMILES CCCCCCCCCCCCCCCCCCCCCCCCCCCCCC(=O)[O-]
REMARK SMILES IDX 16 1 17 2 18 3 19 4 20 5 21 6 22 7 23 8 24 9 25 10 26 11
REMARK SMILES IDX 27 12 28 13 29 14 30 15 31 16 32 17 15 18 14 19 13 20 12 21
REMARK SMILES IDX 11 22 10 23 9 24 8 25 7 26 6 27 5 28 4 29 3 30 2 31 1 32
REMARK H PARENT
REMARK Flexibility Score: inf
ROOT
ATOM      1  C   UNL     1      28.632  46.440   4.707  1.00  0.00     0.000 C 
ENDROOT
BRANCH   1   2
ATOM      2  C   UNL     1      27.457  47.270   5.255  1.00  0.00     0.000 C 
BRANCH   2   3
ATOM      3  C   UNL     1      27.167  47.072   6.756  1.00  0.00     0.000 C 
BRANCH   3   4
ATOM      4  C   UNL     1      26.354  45.809   7.107  1.00  0.00     0.000 C 
BRANCH   4   5
ATOM      5  C   UNL     1      25.875  44.983   5.900  1.00  0.00     0.000 C 
BRANCH   5   6
ATOM      6  C   UNL     1      26.806  43.802   5.578  1.00  0.00     0.000 C 
BRANCH   6   7
ATOM      7  C   UNL     1      26.241  42.873   4.487  1.00  0.00     0.000 C 
BRANCH   7   8
ATOM      8  C   UNL     1      25.433  43.574   3.375  1.00  0.00     0.000 C 
BRANCH   8   9
ATOM      9  C   UNL     1      24.656  42.629   2.441  1.00  0.00     0.000 C 
BRANCH   9  10
ATOM     10  C   UNL     1      23.246  42.305   2.966  1.00  0.00     0.000 C 
BRANCH  10  11
ATOM     11  C   UNL     1      23.140  42.469   4.491  1.00  0.00     0.000 C 
BRANCH  11  12
ATOM     12  C   UNL     1      23.058  41.120   5.219  1.00  0.00     0.000 C 
BRANCH  12  13
ATOM     13  C   UNL     1      24.458  40.533   5.445  1.00  0.00     0.006 C 
BRANCH  13  14
ATOM     14  C   UNL     1      24.502  39.691   6.724  1.00  0.00     0.053 C 
BRANCH  14  15
ATOM     15  C   UNL     1      25.607  38.682   6.663  1.00  0.00     0.041 C 
ATOM     16  O   UNL     1      26.500  38.667   7.551  1.00  0.00    -0.550 OA
ATOM     17  O   UNL     1      25.669  37.775   5.611  1.00  0.00    -0.550 OA
ENDBRANCH  14  15
ENDBRANCH  13  14
ENDBRANCH  12  13
ENDBRANCH  11  12
ENDBRANCH  10  11
ENDBRANCH   9  10
ENDBRANCH   8   9
ENDBRANCH   7   8
ENDBRANCH   6   7
ENDBRANCH   5   6
ENDBRANCH   4   5
ENDBRANCH   3   4
ENDBRANCH   2   3
ENDBRANCH   1   2
BRANCH   1  18
ATOM     18  C   UNL     1      28.224  45.528   3.538  1.00  0.00     0.000 C 
BRANCH  18  19
ATOM     19  C   UNL     1      29.314  44.503   3.185  1.00  0.00     0.000 C 
BRANCH  19  20
ATOM     20  C   UNL     1      28.999  43.725   1.896  1.00  0.00     0.000 C 
BRANCH  20  21
ATOM     21  C   UNL     1      29.876  44.156   0.707  1.00  0.00     0.000 C 
BRANCH  21  22
ATOM     22  C   UNL     1      30.509  42.999  -0.087  1.00  0.00     0.000 C 
BRANCH  22  23
ATOM     23  C   UNL     1      31.841  43.386  -0.754  1.00  0.00     0.000 C 
BRANCH  23  24
ATOM     24  C   UNL     1      33.063  42.943   0.066  1.00  0.00    -0.000 C 
BRANCH  24  25
ATOM     25  C   UNL     1      34.292  43.837  -0.170  1.00  0.00    -0.000 C 
BRANCH  25  26
ATOM     26  C   UNL     1      35.399  43.133  -0.973  1.00  0.00    -0.000 C 
BRANCH  26  27
ATOM     27  C   UNL     1      36.395  44.076  -1.678  1.00  0.00    -0.000 C 
BRANCH  27  28
ATOM     28  C   UNL     1      37.863  43.920  -1.240  1.00  0.00    -0.000 C 
BRANCH  28  29
ATOM     29  C   UNL     1      38.388  42.486  -1.416  1.00  0.00    -0.000 C 
BRANCH  29  30
ATOM     30  C   UNL     1      39.138  42.284  -2.745  1.00  0.00    -0.000 C 
BRANCH  30  31
ATOM     31  C   UNL     1      39.185  40.827  -3.245  1.00  0.00    -0.003 C 
ATOM     32  C   UNL     1      40.167  40.621  -4.397  1.00  0.00     0.004 C 
ENDBRANCH  30  31
ENDBRANCH  29  30
ENDBRANCH  28  29
ENDBRANCH  27  28
ENDBRANCH  26  27
ENDBRANCH  25  26
ENDBRANCH  24  25
ENDBRANCH  23  24
ENDBRANCH  22  23
ENDBRANCH  21  22
ENDBRANCH  20  21
ENDBRANCH  19  20
ENDBRANCH  18  19
ENDBRANCH   1  18
TORSDOF 28
ENDMDL
MODEL 4
REMARK VINA RESULT:    19.112      3.752      9.320
REMARK INTER + INTRA:          50.846
REMARK INTER:                  51.749
REMARK INTRA:                  -0.903
REMARK UNBOUND:                 0.451
REMARK SMILES CCCCCCCCCCCCCCCCCCCCCCCCCCCCCC(=O)[O-]
REMARK SMILES IDX 16 1 17 2 18 3 19 4 20 5 21 6 22 7 23 8 24 9 25 10 26 11
REMARK SMILES IDX 27 12 28 13 29 14 30 15 31 16 32 17 15 18 14 19 13 20 12 21
REMARK SMILES IDX 11 22 10 23 9 24 8 25 7 26 6 27 5 28 4 29 3 30 2 31 1 32
REMARK H PARENT
REMARK Flexibility Score: inf
ROOT
ATOM      1  C   UNL     1      25.994  44.633   5.848  1.00  0.00     0.000 C 
ENDROOT
BRANCH   1   2
ATOM      2  C   UNL     1      26.299  45.069   7.293  1.00  0.00     0.000 C 
BRANCH   2   3
ATOM      3  C   UNL     1      25.596  46.366   7.741  1.00  0.00     0.000 C 
BRANCH   3   4
ATOM      4  C   UNL     1      26.228  47.671   7.215  1.00  0.00     0.000 C 
BRANCH   4   5
ATOM      5  C   UNL     1      27.739  47.598   6.932  1.00  0.00     0.000 C 
BRANCH   5   6
ATOM      6  C   UNL     1      28.086  47.888   5.462  1.00  0.00     0.000 C 
BRANCH   6   7
ATOM      7  C   UNL     1      27.710  46.730   4.519  1.00  0.00     0.000 C 
BRANCH   7   8
ATOM      8  C   UNL     1      28.873  45.799   4.118  1.00  0.00     0.000 C 
BRANCH   8   9
ATOM      9  C   UNL     1      28.538  44.774   3.020  1.00  0.00     0.000 C 
BRANCH   9  10
ATOM     10  C   UNL     1      29.776  44.341   2.216  1.00  0.00     0.000 C 
BRANCH  10  11
ATOM     11  C   UNL     1      29.415  43.877   0.795  1.00  0.00     0.000 C 
BRANCH  11  12
ATOM     12  C   UNL     1      30.155  42.593   0.395  1.00  0.00     0.000 C 
BRANCH  12  13
ATOM     13  C   UNL     1      30.810  42.744  -0.985  1.00  0.00     0.006 C 
BRANCH  13  14
ATOM     14  C   UNL     1      29.838  43.371  -1.990  1.00  0.00     0.053 C 
BRANCH  14  15
ATOM     15  C   UNL     1      29.252  42.328  -2.890  1.00  0.00     0.041 C 
ATOM     16  O   UNL     1      29.643  42.230  -4.084  1.00  0.00    -0.550 OA
ATOM     17  O   UNL     1      28.254  41.481  -2.423  1.00  0.00    -0.550 OA
ENDBRANCH  14  15
ENDBRANCH  13  14
ENDBRANCH  12  13
ENDBRANCH  11  12
ENDBRANCH  10  11
ENDBRANCH   9  10
ENDBRANCH   8   9
ENDBRANCH   7   8
ENDBRANCH   6   7
ENDBRANCH   5   6
ENDBRANCH   4   5
ENDBRANCH   3   4
ENDBRANCH   2   3
ENDBRANCH   1   2
BRANCH   1  18
ATOM     18  C   UNL     1      26.767  43.371   5.430  1.00  0.00     0.000 C 
BRANCH  18  19
ATOM     19  C   UNL     1      26.135  42.671   4.217  1.00  0.00     0.000 C 
BRANCH  19  20
ATOM     20  C   UNL     1      25.895  43.631   3.039  1.00  0.00     0.000 C 
BRANCH  20  21
ATOM     21  C   UNL     1      24.412  43.727   2.637  1.00  0.00     0.000 C 
BRANCH  21  22
ATOM     22  C   UNL     1      23.785  42.409   2.145  1.00  0.00     0.000 C 
BRANCH  22  23
ATOM     23  C   UNL     1      22.601  41.948   3.012  1.00  0.00     0.000 C 
BRANCH  23  24
ATOM     24  C   UNL     1      22.794  42.278   4.501  1.00  0.00    -0.000 C 
BRANCH  24  25
ATOM     25  C   UNL     1      23.162  41.043   5.339  1.00  0.00    -0.000 C 
BRANCH  25  26
ATOM     26  C   UNL     1      24.606  40.569   5.102  1.00  0.00    -0.000 C 
BRANCH  26  27
ATOM     27  C   UNL     1      24.848  39.064   5.342  1.00  0.00    -0.000 C 
BRANCH  27  28
ATOM     28  C   UNL     1      26.100  38.729   6.172  1.00  0.00    -0.000 C 
BRANCH  28  29
ATOM     29  C   UNL     1      25.802  38.603   7.676  1.00  0.00    -0.000 C 
BRANCH  29  30
ATOM     30  C   UNL     1      25.219  39.894   8.279  1.00  0.00    -0.000 C 
BRANCH  30  31
ATOM     31  C   UNL     1      23.748  39.792   8.727  1.00  0.00    -0.003 C 
ATOM     32  C   UNL     1      23.526  40.257  10.165  1.00  0.00     0.004 C 
ENDBRANCH  30  31
ENDBRANCH  29  30
ENDBRANCH  28  29
ENDBRANCH  27  28
ENDBRANCH  26  27
ENDBRANCH  25  26
ENDBRANCH  24  25
ENDBRANCH  23  24
ENDBRANCH  22  23
ENDBRANCH  21  22
ENDBRANCH  20  21
ENDBRANCH  19  20
ENDBRANCH  18  19
ENDBRANCH   1  18
TORSDOF 28
ENDMDL
MODEL 5
REMARK VINA RESULT:    19.515      5.497      9.597
REMARK INTER + INTRA:          51.909
REMARK INTER:                  53.178
REMARK INTRA:                  -1.270
REMARK UNBOUND:                 0.451
REMARK SMILES CCCCCCCCCCCCCCCCCCCCCCCCCCCCCC(=O)[O-]
REMARK SMILES IDX 16 1 17 2 18 3 19 4 20 5 21 6 22 7 23 8 24 9 25 10 26 11
REMARK SMILES IDX 27 12 28 13 29 14 30 15 31 16 32 17 15 18 14 19 13 20 12 21
REMARK SMILES IDX 11 22 10 23 9 24 8 25 7 26 6 27 5 28 4 29 3 30 2 31 1 32
REMARK H PARENT
REMARK Flexibility Score: inf
ROOT
ATOM      1  C   UNL     1      28.001  47.763   5.849  1.00  0.00     0.000 C 
ENDROOT
BRANCH   1   2
ATOM      2  C   UNL     1      27.626  47.685   7.340  1.00  0.00     0.000 C 
BRANCH   2   3
ATOM      3  C   UNL     1      26.131  47.438   7.620  1.00  0.00     0.000 C 
BRANCH   3   4
ATOM      4  C   UNL     1      25.764  45.990   8.005  1.00  0.00     0.000 C 
BRANCH   4   5
ATOM      5  C   UNL     1      26.888  44.957   7.810  1.00  0.00     0.000 C 
BRANCH   5   6
ATOM      6  C   UNL     1      27.273  44.241   9.115  1.00  0.00     0.000 C 
BRANCH   6   7
ATOM      7  C   UNL     1      28.731  44.506   9.536  1.00  0.00     0.000 C 
BRANCH   7   8
ATOM      8  C   UNL     1      29.580  43.246   9.807  1.00  0.00     0.000 C 
BRANCH   8   9
ATOM      9  C   UNL     1      30.987  43.518  10.371  1.00  0.00     0.000 C 
BRANCH   9  10
ATOM     10  C   UNL     1      31.671  44.722   9.701  1.00  0.00     0.000 C 
BRANCH  10  11
ATOM     11  C   UNL     1      32.862  45.245  10.521  1.00  0.00     0.000 C 
BRANCH  11  12
ATOM     12  C   UNL     1      33.305  44.253  11.606  1.00  0.00     0.000 C 
BRANCH  12  13
ATOM     13  C   UNL     1      34.791  44.433  11.941  1.00  0.00     0.006 C 
BRANCH  13  14
ATOM     14  C   UNL     1      35.350  45.707  11.299  1.00  0.00     0.053 C 
BRANCH  14  15
ATOM     15  C   UNL     1      36.314  45.375  10.202  1.00  0.00     0.041 C 
ATOM     16  O   UNL     1      36.830  46.294   9.512  1.00  0.00    -0.550 OA
ATOM     17  O   UNL     1      36.623  44.049   9.920  1.00  0.00    -0.550 OA
ENDBRANCH  14  15
ENDBRANCH  13  14
ENDBRANCH  12  13
ENDBRANCH  11  12
ENDBRANCH  10  11
ENDBRANCH   9  10
ENDBRANCH   8   9
ENDBRANCH   7   8
ENDBRANCH   6   7
ENDBRANCH   5   6
ENDBRANCH   4   5
ENDBRANCH   3   4
ENDBRANCH   2   3
ENDBRANCH   1   2
BRANCH   1  18
ATOM     18  C   UNL     1      27.322  46.670   5.005  1.00  0.00     0.000 C 
BRANCH  18  19
ATOM     19  C   UNL     1      28.307  45.958   4.065  1.00  0.00     0.000 C 
BRANCH  19  20
ATOM     20  C   UNL     1      28.283  44.429   4.232  1.00  0.00     0.000 C 
BRANCH  20  21
ATOM     21  C   UNL     1      27.360  43.729   3.219  1.00  0.00     0.000 C 
BRANCH  21  22
ATOM     22  C   UNL     1      25.897  43.574   3.672  1.00  0.00     0.000 C 
BRANCH  22  23
ATOM     23  C   UNL     1      24.894  43.683   2.510  1.00  0.00     0.000 C 
BRANCH  23  24
ATOM     24  C   UNL     1      24.155  42.362   2.241  1.00  0.00    -0.000 C 
BRANCH  24  25
ATOM     25  C   UNL     1      22.650  42.451   2.547  1.00  0.00    -0.000 C 
BRANCH  25  26
ATOM     26  C   UNL     1      22.356  42.665   4.041  1.00  0.00    -0.000 C 
BRANCH  26  27
ATOM     27  C   UNL     1      22.879  41.555   4.976  1.00  0.00    -0.000 C 
BRANCH  27  28
ATOM     28  C   UNL     1      24.396  41.582   5.235  1.00  0.00    -0.000 C 
BRANCH  28  29
ATOM     29  C   UNL     1      25.014  40.176   5.308  1.00  0.00    -0.000 C 
BRANCH  29  30
ATOM     30  C   UNL     1      25.680  39.886   6.666  1.00  0.00    -0.000 C 
BRANCH  30  31
ATOM     31  C   UNL     1      25.846  38.391   6.998  1.00  0.00    -0.003 C 
ATOM     32  C   UNL     1      25.356  37.471   5.881  1.00  0.00     0.004 C 
ENDBRANCH  30  31
ENDBRANCH  29  30
ENDBRANCH  28  29
ENDBRANCH  27  28
ENDBRANCH  26  27
ENDBRANCH  25  26
ENDBRANCH  24  25
ENDBRANCH  23  24
ENDBRANCH  22  23
ENDBRANCH  21  22
ENDBRANCH  20  21
ENDBRANCH  19  20
ENDBRANCH  18  19
ENDBRANCH   1  18
TORSDOF 28
ENDMDL
MODEL 6
REMARK VINA RESULT:    19.520      2.707      4.322
REMARK INTER + INTRA:          51.923
REMARK INTER:                  54.575
REMARK INTRA:                  -2.652
REMARK UNBOUND:                 0.451
REMARK SMILES CCCCCCCCCCCCCCCCCCCCCCCCCCCCCC(=O)[O-]
REMARK SMILES IDX 16 1 17 2 18 3 19 4 20 5 21 6 22 7 23 8 24 9 25 10 26 11
REMARK SMILES IDX 27 12 28 13 29 14 30 15 31 16 32 17 15 18 14 19 13 20 12 21
REMARK SMILES IDX 11 22 10 23 9 24 8 25 7 26 6 27 5 28 4 29 3 30 2 31 1 32
REMARK H PARENT
REMARK Flexibility Score: inf
ROOT
ATOM      1  C   UNL     1      26.627  44.484   7.090  1.00  0.00     0.000 C 
ENDROOT
BRANCH   1   2
ATOM      2  C   UNL     1      26.772  43.582   5.851  1.00  0.00     0.000 C 
BRANCH   2   3
ATOM      3  C   UNL     1      25.746  43.848   4.732  1.00  0.00     0.000 C 
BRANCH   3   4
ATOM      4  C   UNL     1      25.715  42.795   3.606  1.00  0.00     0.000 C 
BRANCH   4   5
ATOM      5  C   UNL     1      24.785  43.127   2.426  1.00  0.00     0.000 C 
BRANCH   5   6
ATOM      6  C   UNL     1      23.566  42.192   2.345  1.00  0.00     0.000 C 
BRANCH   6   7
ATOM      7  C   UNL     1      22.396  42.655   3.233  1.00  0.00     0.000 C 
BRANCH   7   8
ATOM      8  C   UNL     1      22.577  42.411   4.746  1.00  0.00     0.000 C 
BRANCH   8   9
ATOM      9  C   UNL     1      22.881  40.954   5.139  1.00  0.00     0.000 C 
BRANCH   9  10
ATOM     10  C   UNL     1      23.952  40.848   6.238  1.00  0.00     0.000 C 
BRANCH  10  11
ATOM     11  C   UNL     1      23.458  40.055   7.459  1.00  0.00     0.000 C 
BRANCH  11  12
ATOM     12  C   UNL     1      24.603  39.345   8.196  1.00  0.00     0.000 C 
BRANCH  12  13
ATOM     13  C   UNL     1      25.938  39.557   7.470  1.00  0.00     0.006 C 
BRANCH  13  14
ATOM     14  C   UNL     1      26.499  38.230   6.950  1.00  0.00     0.053 C 
BRANCH  14  15
ATOM     15  C   UNL     1      25.643  37.681   5.851  1.00  0.00     0.041 C 
ATOM     16  O   UNL     1      24.947  36.649   6.045  1.00  0.00    -0.550 OA
ATOM     17  O   UNL     1      25.634  38.290   4.601  1.00  0.00    -0.550 OA
ENDBRANCH  14  15
ENDBRANCH  13  14
ENDBRANCH  12  13
ENDBRANCH  11  12
ENDBRANCH  10  11
ENDBRANCH   9  10
ENDBRANCH   8   9
ENDBRANCH   7   8
ENDBRANCH   6   7
ENDBRANCH   5   6
ENDBRANCH   4   5
ENDBRANCH   3   4
ENDBRANCH   2   3
ENDBRANCH   1   2
BRANCH   1  18
ATOM     18  C   UNL     1      25.788  45.744   6.815  1.00  0.00     0.000 C 
BRANCH  18  19
ATOM     19  C   UNL     1      26.339  46.984   7.536  1.00  0.00     0.000 C 
BRANCH  19  20
ATOM     20  C   UNL     1      27.526  47.621   6.793  1.00  0.00     0.000 C 
BRANCH  20  21
ATOM     21  C   UNL     1      27.490  47.366   5.276  1.00  0.00     0.000 C 
BRANCH  21  22
ATOM     22  C   UNL     1      28.680  46.560   4.724  1.00  0.00     0.000 C 
BRANCH  22  23
ATOM     23  C   UNL     1      28.328  45.762   3.456  1.00  0.00     0.000 C 
BRANCH  23  24
ATOM     24  C   UNL     1      28.816  44.306   3.519  1.00  0.00    -0.000 C 
BRANCH  24  25
ATOM     25  C   UNL     1      28.762  43.602   2.153  1.00  0.00    -0.000 C 
BRANCH  25  26
ATOM     26  C   UNL     1      29.918  44.011   1.225  1.00  0.00    -0.000 C 
BRANCH  26  27
ATOM     27  C   UNL     1      30.340  42.940   0.197  1.00  0.00    -0.000 C 
BRANCH  27  28
ATOM     28  C   UNL     1      30.900  43.492  -1.127  1.00  0.00    -0.000 C 
BRANCH  28  29
ATOM     29  C   UNL     1      30.060  43.080  -2.347  1.00  0.00    -0.000 C 
BRANCH  29  30
ATOM     30  C   UNL     1      28.955  42.067  -1.997  1.00  0.00    -0.000 C 
BRANCH  30  31
ATOM     31  C   UNL     1      28.170  41.523  -3.206  1.00  0.00    -0.003 C 
ATOM     32  C   UNL     1      28.978  41.541  -4.502  1.00  0.00     0.004 C 
ENDBRANCH  30  31
ENDBRANCH  29  30
ENDBRANCH  28  29
ENDBRANCH  27  28
ENDBRANCH  26  27
ENDBRANCH  25  26
ENDBRANCH  24  25
ENDBRANCH  23  24
ENDBRANCH  22  23
ENDBRANCH  21  22
ENDBRANCH  20  21
ENDBRANCH  19  20
ENDBRANCH  18  19
ENDBRANCH   1  18
TORSDOF 28
ENDMDL
MODEL 7
REMARK VINA RESULT:    19.674      2.824      4.911
REMARK INTER + INTRA:          52.330
REMARK INTER:                  51.109
REMARK INTRA:                   1.221
REMARK UNBOUND:                 0.451
REMARK SMILES CCCCCCCCCCCCCCCCCCCCCCCCCCCCCC(=O)[O-]
REMARK SMILES IDX 16 1 17 2 18 3 19 4 20 5 21 6 22 7 23 8 24 9 25 10 26 11
REMARK SMILES IDX 27 12 28 13 29 14 30 15 31 16 32 17 15 18 14 19 13 20 12 21
REMARK SMILES IDX 11 22 10 23 9 24 8 25 7 26 6 27 5 28 4 29 3 30 2 31 1 32
REMARK H PARENT
REMARK Flexibility Score: inf
ROOT
ATOM      1  C   UNL     1      26.378  43.446   5.361  1.00  0.00     0.000 C 
ENDROOT
BRANCH   1   2
ATOM      2  C   UNL     1      26.568  43.366   3.835  1.00  0.00     0.000 C 
BRANCH   2   3
ATOM      3  C   UNL     1      25.333  43.769   3.006  1.00  0.00     0.000 C 
BRANCH   3   4
ATOM      4  C   UNL     1      24.464  42.596   2.507  1.00  0.00     0.000 C 
BRANCH   4   5
ATOM      5  C   UNL     1      22.946  42.795   2.661  1.00  0.00     0.000 C 
BRANCH   5   6
ATOM      6  C   UNL     1      22.421  42.338   4.032  1.00  0.00     0.000 C 
BRANCH   6   7
ATOM      7  C   UNL     1      23.532  41.792   4.948  1.00  0.00     0.000 C 
BRANCH   7   8
ATOM      8  C   UNL     1      24.295  40.567   4.404  1.00  0.00     0.000 C 
BRANCH   8   9
ATOM      9  C   UNL     1      25.333  39.965   5.369  1.00  0.00     0.000 C 
BRANCH   9  10
ATOM     10  C   UNL     1      25.241  38.431   5.456  1.00  0.00     0.000 C 
BRANCH  10  11
ATOM     11  C   UNL     1      26.399  37.824   6.265  1.00  0.00     0.000 C 
BRANCH  11  12
ATOM     12  C   UNL     1      26.504  38.422   7.675  1.00  0.00     0.000 C 
BRANCH  12  13
ATOM     13  C   UNL     1      25.596  39.650   7.818  1.00  0.00     0.006 C 
BRANCH  13  14
ATOM     14  C   UNL     1      24.317  39.304   8.588  1.00  0.00     0.053 C 
BRANCH  14  15
ATOM     15  C   UNL     1      23.967  40.387   9.561  1.00  0.00     0.041 C 
ATOM     16  O   UNL     1      24.821  41.260   9.870  1.00  0.00    -0.550 OA
ATOM     17  O   UNL     1      22.708  40.419  10.149  1.00  0.00    -0.550 OA
ENDBRANCH  14  15
ENDBRANCH  13  14
ENDBRANCH  12  13
ENDBRANCH  11  12
ENDBRANCH  10  11
ENDBRANCH   9  10
ENDBRANCH   8   9
ENDBRANCH   7   8
ENDBRANCH   6   7
ENDBRANCH   5   6
ENDBRANCH   4   5
ENDBRANCH   3   4
ENDBRANCH   2   3
ENDBRANCH   1   2
BRANCH   1  18
ATOM     18  C   UNL     1      25.753  44.776   5.815  1.00  0.00     0.000 C 
BRANCH  18  19
ATOM     19  C   UNL     1      26.321  45.263   7.157  1.00  0.00     0.000 C 
BRANCH  19  20
ATOM     20  C   UNL     1      26.271  46.794   7.299  1.00  0.00     0.000 C 
BRANCH  20  21
ATOM     21  C   UNL     1      27.476  47.496   6.648  1.00  0.00     0.000 C 
BRANCH  21  22
ATOM     22  C   UNL     1      27.594  47.305   5.124  1.00  0.00     0.000 C 
BRANCH  22  23
ATOM     23  C   UNL     1      28.605  46.214   4.732  1.00  0.00     0.000 C 
BRANCH  23  24
ATOM     24  C   UNL     1      28.314  45.608   3.349  1.00  0.00    -0.000 C 
BRANCH  24  25
ATOM     25  C   UNL     1      29.358  44.560   2.929  1.00  0.00    -0.000 C 
BRANCH  25  26
ATOM     26  C   UNL     1      29.604  44.538   1.410  1.00  0.00    -0.000 C 
BRANCH  26  27
ATOM     27  C   UNL     1      30.193  43.221   0.863  1.00  0.00    -0.000 C 
BRANCH  27  28
ATOM     28  C   UNL     1      30.611  43.259  -0.617  1.00  0.00    -0.000 C 
BRANCH  28  29
ATOM     29  C   UNL     1      29.499  42.779  -1.564  1.00  0.00    -0.000 C 
BRANCH  29  30
ATOM     30  C   UNL     1      29.942  42.743  -3.038  1.00  0.00    -0.000 C 
BRANCH  30  31
ATOM     31  C   UNL     1      29.106  41.816  -3.941  1.00  0.00    -0.003 C 
ATOM     32  C   UNL     1      27.876  41.245  -3.239  1.00  0.00     0.004 C 
ENDBRANCH  30  31
ENDBRANCH  29  30
ENDBRANCH  28  29
ENDBRANCH  27  28
ENDBRANCH  26  27
ENDBRANCH  25  26
ENDBRANCH  24  25
ENDBRANCH  23  24
ENDBRANCH  22  23
ENDBRANCH  21  22
ENDBRANCH  20  21
ENDBRANCH  19  20
ENDBRANCH  18  19
ENDBRANCH   1  18
TORSDOF 28
ENDMDL
MODEL 8
REMARK VINA RESULT:    19.720      2.730      3.622
REMARK INTER + INTRA:          52.451
REMARK INTER:                  52.744
REMARK INTRA:                  -0.293
REMARK UNBOUND:                 0.451
REMARK SMILES CCCCCCCCCCCCCCCCCCCCCCCCCCCCCC(=O)[O-]
REMARK SMILES IDX 16 1 17 2 18 3 19 4 20 5 21 6 22 7 23 8 24 9 25 10 26 11
REMARK SMILES IDX 27 12 28 13 29 14 30 15 31 16 32 17 15 18 14 19 13 20 12 21
REMARK SMILES IDX 11 22 10 23 9 24 8 25 7 26 6 27 5 28 4 29 3 30 2 31 1 32
REMARK H PARENT
REMARK Flexibility Score: inf
ROOT
ATOM      1  C   UNL     1      25.602  46.353   7.806  1.00  0.00     0.000 C 
ENDROOT
BRANCH   1   2
ATOM      2  C   UNL     1      26.377  45.159   7.220  1.00  0.00     0.000 C 
BRANCH   2   3
ATOM      3  C   UNL     1      25.831  44.626   5.881  1.00  0.00     0.000 C 
BRANCH   3   4
ATOM      4  C   UNL     1      26.549  43.378   5.327  1.00  0.00     0.000 C 
BRANCH   4   5
ATOM      5  C   UNL     1      26.490  43.214   3.798  1.00  0.00     0.000 C 
BRANCH   5   6
ATOM      6  C   UNL     1      25.079  43.434   3.228  1.00  0.00     0.000 C 
BRANCH   6   7
ATOM      7  C   UNL     1      24.631  42.301   2.286  1.00  0.00     0.000 C 
BRANCH   7   8
ATOM      8  C   UNL     1      23.105  42.134   2.132  1.00  0.00     0.000 C 
BRANCH   8   9
ATOM      9  C   UNL     1      22.276  42.557   3.358  1.00  0.00     0.000 C 
BRANCH   9  10
ATOM     10  C   UNL     1      23.096  42.546   4.660  1.00  0.00     0.000 C 
BRANCH  10  11
ATOM     11  C   UNL     1      22.837  41.284   5.500  1.00  0.00     0.000 C 
BRANCH  11  12
ATOM     12  C   UNL     1      24.121  40.484   5.762  1.00  0.00     0.000 C 
BRANCH  12  13
ATOM     13  C   UNL     1      24.034  39.728   7.095  1.00  0.00     0.006 C 
BRANCH  13  14
ATOM     14  C   UNL     1      25.399  39.159   7.496  1.00  0.00     0.053 C 
BRANCH  14  15
ATOM     15  C   UNL     1      25.959  38.295   6.410  1.00  0.00     0.041 C 
ATOM     16  O   UNL     1      27.034  38.615   5.837  1.00  0.00    -0.550 OA
ATOM     17  O   UNL     1      25.283  37.148   6.009  1.00  0.00    -0.550 OA
ENDBRANCH  14  15
ENDBRANCH  13  14
ENDBRANCH  12  13
ENDBRANCH  11  12
ENDBRANCH  10  11
ENDBRANCH   9  10
ENDBRANCH   8   9
ENDBRANCH   7   8
ENDBRANCH   6   7
ENDBRANCH   5   6
ENDBRANCH   4   5
ENDBRANCH   3   4
ENDBRANCH   2   3
ENDBRANCH   1   2
BRANCH   1  18
ATOM     18  C   UNL     1      26.158  47.710   7.342  1.00  0.00     0.000 C 
BRANCH  18  19
ATOM     19  C   UNL     1      27.576  47.596   6.761  1.00  0.00     0.000 C 
BRANCH  19  20
ATOM     20  C   UNL     1      27.582  47.520   5.225  1.00  0.00     0.000 C 
BRANCH  20  21
ATOM     21  C   UNL     1      28.596  46.500   4.679  1.00  0.00     0.000 C 
BRANCH  21  22
ATOM     22  C   UNL     1      28.136  45.731   3.427  1.00  0.00     0.000 C 
BRANCH  22  23
ATOM     23  C   UNL     1      29.001  44.495   3.129  1.00  0.00     0.000 C 
BRANCH  23  24
ATOM     24  C   UNL     1      29.672  44.561   1.747  1.00  0.00    -0.000 C 
BRANCH  24  25
ATOM     25  C   UNL     1      29.998  43.170   1.179  1.00  0.00    -0.000 C 
BRANCH  25  26
ATOM     26  C   UNL     1      30.698  43.233  -0.190  1.00  0.00    -0.000 C 
BRANCH  26  27
ATOM     27  C   UNL     1      30.098  42.312  -1.273  1.00  0.00    -0.000 C 
BRANCH  27  28
ATOM     28  C   UNL     1      29.345  43.039  -2.402  1.00  0.00    -0.000 C 
BRANCH  28  29
ATOM     29  C   UNL     1      28.532  42.080  -3.289  1.00  0.00    -0.000 C 
BRANCH  29  30
ATOM     30  C   UNL     1      29.362  41.483  -4.439  1.00  0.00    -0.000 C 
BRANCH  30  31
ATOM     31  C   UNL     1      30.435  42.425  -5.019  1.00  0.00    -0.003 C 
ATOM     32  C   UNL     1      30.524  42.366  -6.543  1.00  0.00     0.004 C 
ENDBRANCH  30  31
ENDBRANCH  29  30
ENDBRANCH  28  29
ENDBRANCH  27  28
ENDBRANCH  26  27
ENDBRANCH  25  26
ENDBRANCH  24  25
ENDBRANCH  23  24
ENDBRANCH  22  23
ENDBRANCH  21  22
ENDBRANCH  20  21
ENDBRANCH  19  20
ENDBRANCH  18  19
ENDBRANCH   1  18
TORSDOF 28
ENDMDL
MODEL 9
REMARK VINA RESULT:    19.903      4.273      8.649
REMARK INTER + INTRA:          52.932
REMARK INTER:                  54.653
REMARK INTRA:                  -1.721
REMARK UNBOUND:                 0.451
REMARK SMILES CCCCCCCCCCCCCCCCCCCCCCCCCCCCCC(=O)[O-]
REMARK SMILES IDX 16 1 17 2 18 3 19 4 20 5 21 6 22 7 23 8 24 9 25 10 26 11
REMARK SMILES IDX 27 12 28 13 29 14 30 15 31 16 32 17 15 18 14 19 13 20 12 21
REMARK SMILES IDX 11 22 10 23 9 24 8 25 7 26 6 27 5 28 4 29 3 30 2 31 1 32
REMARK H PARENT
REMARK Flexibility Score: inf
ROOT
ATOM      1  C   UNL     1      27.759  47.080   4.738  1.00  0.00     0.000 C 
ENDROOT
BRANCH   1   2
ATOM      2  C   UNL     1      27.495  47.633   6.150  1.00  0.00     0.000 C 
BRANCH   2   3
ATOM      3  C   UNL     1      26.652  46.715   7.058  1.00  0.00     0.000 C 
BRANCH   3   4
ATOM      4  C   UNL     1      26.054  45.474   6.365  1.00  0.00     0.000 C 
BRANCH   4   5
ATOM      5  C   UNL     1      27.074  44.395   5.961  1.00  0.00     0.000 C 
BRANCH   5   6
ATOM      6  C   UNL     1      26.619  43.569   4.747  1.00  0.00     0.000 C 
BRANCH   6   7
ATOM      7  C   UNL     1      27.278  44.024   3.431  1.00  0.00     0.000 C 
BRANCH   7   8
ATOM      8  C   UNL     1      28.809  43.854   3.365  1.00  0.00     0.000 C 
BRANCH   8   9
ATOM      9  C   UNL     1      29.534  44.838   2.428  1.00  0.00     0.000 C 
BRANCH   9  10
ATOM     10  C   UNL     1      29.488  44.396   0.955  1.00  0.00     0.000 C 
BRANCH  10  11
ATOM     11  C   UNL     1      30.463  43.243   0.662  1.00  0.00     0.000 C 
BRANCH  11  12
ATOM     12  C   UNL     1      30.593  42.956  -0.840  1.00  0.00     0.000 C 
BRANCH  12  13
ATOM     13  C   UNL     1      29.513  41.970  -1.306  1.00  0.00     0.006 C 
BRANCH  13  14
ATOM     14  C   UNL     1      28.749  42.520  -2.515  1.00  0.00     0.053 C 
BRANCH  14  15
ATOM     15  C   UNL     1      29.559  42.383  -3.767  1.00  0.00     0.041 C 
ATOM     16  O   UNL     1      30.590  43.086  -3.935  1.00  0.00    -0.550 OA
ATOM     17  O   UNL     1      29.162  41.498  -4.764  1.00  0.00    -0.550 OA
ENDBRANCH  14  15
ENDBRANCH  13  14
ENDBRANCH  12  13
ENDBRANCH  11  12
ENDBRANCH  10  11
ENDBRANCH   9  10
ENDBRANCH   8   9
ENDBRANCH   7   8
ENDBRANCH   6   7
ENDBRANCH   5   6
ENDBRANCH   4   5
ENDBRANCH   3   4
ENDBRANCH   2   3
ENDBRANCH   1   2
BRANCH   1  18
ATOM     18  C   UNL     1      26.794  47.651   3.685  1.00  0.00     0.000 C 
BRANCH  18  19
ATOM     19  C   UNL     1      26.582  46.692   2.503  1.00  0.00     0.000 C 
BRANCH  19  20
ATOM     20  C   UNL     1      25.380  47.088   1.628  1.00  0.00     0.000 C 
BRANCH  20  21
ATOM     21  C   UNL     1      24.504  45.886   1.234  1.00  0.00     0.000 C 
BRANCH  21  22
ATOM     22  C   UNL     1      24.265  44.859   2.357  1.00  0.00     0.000 C 
BRANCH  22  23
ATOM     23  C   UNL     1      24.505  43.408   1.905  1.00  0.00     0.000 C 
BRANCH  23  24
ATOM     24  C   UNL     1      23.442  42.438   2.445  1.00  0.00    -0.000 C 
BRANCH  24  25
ATOM     25  C   UNL     1      22.859  42.887   3.796  1.00  0.00    -0.000 C 
BRANCH  25  26
ATOM     26  C   UNL     1      23.212  41.930   4.947  1.00  0.00    -0.000 C 
BRANCH  26  27
ATOM     27  C   UNL     1      24.437  41.026   4.693  1.00  0.00    -0.000 C 
BRANCH  27  28
ATOM     28  C   UNL     1      25.199  40.591   5.957  1.00  0.00    -0.000 C 
BRANCH  28  29
ATOM     29  C   UNL     1      24.643  39.296   6.572  1.00  0.00    -0.000 C 
BRANCH  29  30
ATOM     30  C   UNL     1      25.605  38.103   6.423  1.00  0.00    -0.000 C 
BRANCH  30  31
ATOM     31  C   UNL     1      27.088  38.433   6.682  1.00  0.00    -0.003 C 
ATOM     32  C   UNL     1      27.991  38.100   5.496  1.00  0.00     0.004 C 
ENDBRANCH  30  31
ENDBRANCH  29  30
ENDBRANCH  28  29
ENDBRANCH  27  28
ENDBRANCH  26  27
ENDBRANCH  25  26
ENDBRANCH  24  25
ENDBRANCH  23  24
ENDBRANCH  22  23
ENDBRANCH  21  22
ENDBRANCH  20  21
ENDBRANCH  19  20
ENDBRANCH  18  19
ENDBRANCH   1  18
TORSDOF 28
ENDMDL
