MODEL 1
REMARK VINA RESULT:    -5.515      0.000      0.000
REMARK INTER + INTRA:          -5.515
REMARK INTER:                  -5.515
REMARK INTRA:                   0.000
REMARK UNBOUND:                 0.000
REMARK SMILES CC(C)=C1CC[C@@H](C)CC1=O
REMARK SMILES IDX 8 1 7 2 6 3 5 4 4 5 2 6 1 7 3 8 10 9 11 10 9 11
REMARK H PARENT
REMARK Flexibility Score: inf
ROOT
ATOM      1  C   UNL     1      19.104  18.949  32.337  1.00  0.00     0.008 C 
ATOM      2  C   UNL     1      18.216  20.195  32.407  1.00  0.00    -0.006 C 
ATOM      3  C   UNL     1      18.118  20.869  31.029  1.00  0.00     0.008 C 
ATOM      4  C   UNL     1      17.151  22.059  31.058  1.00  0.00     0.039 C 
ATOM      5  C   UNL     1      17.475  23.049  32.169  1.00  0.00    -0.006 C 
ATOM      6  C   UNL     1      17.231  24.384  32.025  1.00  0.00    -0.070 C 
ATOM      7  C   UNL     1      16.611  24.935  30.761  1.00  0.00     0.039 C 
ATOM      8  C   UNL     1      17.600  25.381  33.098  1.00  0.00     0.039 C 
ATOM      9  C   UNL     1      17.961  22.457  33.452  1.00  0.00     0.159 C 
ATOM     10  O   UNL     1      17.702  22.997  34.561  1.00  0.00    -0.295 OA
ATOM     11  C   UNL     1      18.767  21.191  33.439  1.00  0.00     0.084 C 
ENDROOT
TORSDOF 0
ENDMDL
MODEL 2
REMARK VINA RESULT:    -5.032      1.789      2.798
REMARK INTER + INTRA:          -5.032
REMARK INTER:                  -5.032
REMARK INTRA:                   0.000
REMARK UNBOUND:                 0.000
REMARK SMILES CC(C)=C1CC[C@@H](C)CC1=O
REMARK SMILES IDX 8 1 7 2 6 3 5 4 4 5 2 6 1 7 3 8 10 9 11 10 9 11
REMARK H PARENT
REMARK Flexibility Score: inf
ROOT
ATOM      1  C   UNL     1      18.411  17.511  31.760  1.00  0.00     0.008 C 
ATOM      2  C   UNL     1      18.556  19.024  31.956  1.00  0.00    -0.006 C 
ATOM      3  C   UNL     1      18.875  19.353  33.423  1.00  0.00     0.008 C 
ATOM      4  C   UNL     1      19.125  20.853  33.618  1.00  0.00     0.039 C 
ATOM      5  C   UNL     1      17.997  21.711  33.059  1.00  0.00    -0.006 C 
ATOM      6  C   UNL     1      17.665  22.906  33.629  1.00  0.00    -0.070 C 
ATOM      7  C   UNL     1      18.416  23.439  34.829  1.00  0.00     0.039 C 
ATOM      8  C   UNL     1      16.512  23.738  33.118  1.00  0.00     0.039 C 
ATOM      9  C   UNL     1      17.366  21.222  31.797  1.00  0.00     0.159 C 
ATOM     10  O   UNL     1      16.909  22.025  30.941  1.00  0.00    -0.295 OA
ATOM     11  C   UNL     1      17.273  19.749  31.524  1.00  0.00     0.084 C 
ENDROOT
TORSDOF 0
ENDMDL
MODEL 3
REMARK VINA RESULT:    -4.922      1.182      1.865
REMARK INTER + INTRA:          -4.922
REMARK INTER:                  -4.922
REMARK INTRA:                   0.000
REMARK UNBOUND:                 0.000
REMARK SMILES CC(C)=C1CC[C@@H](C)CC1=O
REMARK SMILES IDX 8 1 7 2 6 3 5 4 4 5 2 6 1 7 3 8 10 9 11 10 9 11
REMARK H PARENT
REMARK Flexibility Score: inf
ROOT
ATOM      1  C   UNL     1      17.178  20.223  31.617  1.00  0.00     0.008 C 
ATOM      2  C   UNL     1      16.962  21.605  32.242  1.00  0.00    -0.006 C 
ATOM      3  C   UNL     1      17.027  22.701  31.166  1.00  0.00     0.008 C 
ATOM      4  C   UNL     1      16.711  24.082  31.756  1.00  0.00     0.039 C 
ATOM      5  C   UNL     1      17.568  24.406  32.973  1.00  0.00    -0.006 C 
ATOM      6  C   UNL     1      17.938  25.688  33.259  1.00  0.00    -0.070 C 
ATOM      7  C   UNL     1      17.498  26.844  32.389  1.00  0.00     0.039 C 
ATOM      8  C   UNL     1      18.834  26.016  34.431  1.00  0.00     0.039 C 
ATOM      9  C   UNL     1      17.872  23.262  33.884  1.00  0.00     0.159 C 
ATOM     10  O   UNL     1      18.010  23.433  35.125  1.00  0.00    -0.295 OA
ATOM     11  C   UNL     1      18.013  21.875  33.328  1.00  0.00     0.084 C 
ENDROOT
TORSDOF 0
ENDMDL
MODEL 4
REMARK VINA RESULT:    -4.921      1.562      4.508
REMARK INTER + INTRA:          -4.921
REMARK INTER:                  -4.921
REMARK INTRA:                   0.000
REMARK UNBOUND:                 0.000
REMARK SMILES CC(C)=C1CC[C@@H](C)CC1=O
REMARK SMILES IDX 8 1 7 2 6 3 5 4 4 5 2 6 1 7 3 8 10 9 11 10 9 11
REMARK H PARENT
REMARK Flexibility Score: inf
ROOT
ATOM      1  C   UNL     1      18.012  26.182  35.125  1.00  0.00     0.008 C 
ATOM      2  C   UNL     1      17.664  24.791  34.585  1.00  0.00    -0.006 C 
ATOM      3  C   UNL     1      18.778  23.786  34.920  1.00  0.00     0.008 C 
ATOM      4  C   UNL     1      18.401  22.367  34.478  1.00  0.00     0.039 C 
ATOM      5  C   UNL     1      17.978  22.304  33.016  1.00  0.00    -0.006 C 
ATOM      6  C   UNL     1      18.213  21.195  32.256  1.00  0.00    -0.070 C 
ATOM      7  C   UNL     1      18.889  19.973  32.839  1.00  0.00     0.039 C 
ATOM      8  C   UNL     1      17.849  21.141  30.791  1.00  0.00     0.039 C 
ATOM      9  C   UNL     1      17.196  23.470  32.510  1.00  0.00     0.159 C 
ATOM     10  O   UNL     1      16.315  23.331  31.619  1.00  0.00    -0.295 OA
ATOM     11  C   UNL     1      17.444  24.842  33.066  1.00  0.00     0.084 C 
ENDROOT
TORSDOF 0
ENDMDL
MODEL 5
REMARK VINA RESULT:    -4.770      1.816      2.669
REMARK INTER + INTRA:          -4.770
REMARK INTER:                  -4.770
REMARK INTRA:                   0.000
REMARK UNBOUND:                 0.000
REMARK SMILES CC(C)=C1CC[C@@H](C)CC1=O
REMARK SMILES IDX 8 1 7 2 6 3 5 4 4 5 2 6 1 7 3 8 10 9 11 10 9 11
REMARK H PARENT
REMARK Flexibility Score: inf
ROOT
ATOM      1  C   UNL     1      18.644  19.778  31.491  1.00  0.00     0.008 C 
ATOM      2  C   UNL     1      18.390  21.228  31.916  1.00  0.00    -0.006 C 
ATOM      3  C   UNL     1      18.174  21.317  33.435  1.00  0.00     0.008 C 
ATOM      4  C   UNL     1      18.021  22.774  33.892  1.00  0.00     0.039 C 
ATOM      5  C   UNL     1      16.953  23.523  33.106  1.00  0.00    -0.006 C 
ATOM      6  C   UNL     1      16.214  24.515  33.681  1.00  0.00    -0.070 C 
ATOM      7  C   UNL     1      16.435  24.926  35.120  1.00  0.00     0.039 C 
ATOM      8  C   UNL     1      15.114  25.227  32.928  1.00  0.00     0.039 C 
ATOM      9  C   UNL     1      16.852  23.187  31.654  1.00  0.00     0.159 C 
ATOM     10  O   UNL     1      16.509  24.052  30.805  1.00  0.00    -0.295 OA
ATOM     11  C   UNL     1      17.169  21.798  31.179  1.00  0.00     0.084 C 
ENDROOT
TORSDOF 0
ENDMDL
MODEL 6
REMARK VINA RESULT:    -4.708      1.441      4.137
REMARK INTER + INTRA:          -4.708
REMARK INTER:                  -4.708
REMARK INTRA:                   0.000
REMARK UNBOUND:                 0.000
REMARK SMILES CC(C)=C1CC[C@@H](C)CC1=O
REMARK SMILES IDX 8 1 7 2 6 3 5 4 4 5 2 6 1 7 3 8 10 9 11 10 9 11
REMARK H PARENT
REMARK Flexibility Score: inf
ROOT
ATOM      1  C   UNL     1      15.074  25.917  34.163  1.00  0.00     0.008 C 
ATOM      2  C   UNL     1      16.201  25.055  33.583  1.00  0.00    -0.006 C 
ATOM      3  C   UNL     1      15.720  24.307  32.330  1.00  0.00     0.008 C 
ATOM      4  C   UNL     1      16.863  23.520  31.677  1.00  0.00     0.039 C 
ATOM      5  C   UNL     1      17.581  22.607  32.662  1.00  0.00    -0.006 C 
ATOM      6  C   UNL     1      18.131  21.424  32.262  1.00  0.00    -0.070 C 
ATOM      7  C   UNL     1      18.067  20.977  30.819  1.00  0.00     0.039 C 
ATOM      8  C   UNL     1      18.797  20.485  33.241  1.00  0.00     0.039 C 
ATOM      9  C   UNL     1      17.744  23.139  34.048  1.00  0.00     0.159 C 
ATOM     10  O   UNL     1      18.748  22.842  34.749  1.00  0.00    -0.295 OA
ATOM     11  C   UNL     1      16.705  24.052  34.631  1.00  0.00     0.084 C 
ENDROOT
TORSDOF 0
ENDMDL
MODEL 7
REMARK VINA RESULT:    -4.563      9.207     10.123
REMARK INTER + INTRA:          -4.563
REMARK INTER:                  -4.563
REMARK INTRA:                   0.000
REMARK UNBOUND:                 0.000
REMARK SMILES CC(C)=C1CC[C@@H](C)CC1=O
REMARK SMILES IDX 8 1 7 2 6 3 5 4 4 5 2 6 1 7 3 8 10 9 11 10 9 11
REMARK H PARENT
REMARK Flexibility Score: inf
ROOT
ATOM      1  C   UNL     1      10.509  12.480  27.205  1.00  0.00     0.008 C 
ATOM      2  C   UNL     1      10.614  13.589  28.256  1.00  0.00    -0.006 C 
ATOM      3  C   UNL     1      10.125  14.928  27.681  1.00  0.00     0.008 C 
ATOM      4  C   UNL     1      10.126  16.028  28.750  1.00  0.00     0.039 C 
ATOM      5  C   UNL     1      11.468  16.153  29.460  1.00  0.00    -0.006 C 
ATOM      6  C   UNL     1      11.915  17.354  29.926  1.00  0.00    -0.070 C 
ATOM      7  C   UNL     1      11.088  18.612  29.775  1.00  0.00     0.039 C 
ATOM      8  C   UNL     1      13.268  17.500  30.581  1.00  0.00     0.039 C 
ATOM      9  C   UNL     1      12.196  14.874  29.711  1.00  0.00     0.159 C 
ATOM     10  O   UNL     1      12.927  14.726  30.728  1.00  0.00    -0.295 OA
ATOM     11  C   UNL     1      12.061  13.728  28.750  1.00  0.00     0.084 C 
ENDROOT
TORSDOF 0
ENDMDL
MODEL 8
REMARK VINA RESULT:    -4.561      1.639      4.783
REMARK INTER + INTRA:          -4.561
REMARK INTER:                  -4.561
REMARK INTRA:                   0.000
REMARK UNBOUND:                 0.000
REMARK SMILES CC(C)=C1CC[C@@H](C)CC1=O
REMARK SMILES IDX 8 1 7 2 6 3 5 4 4 5 2 6 1 7 3 8 10 9 11 10 9 11
REMARK H PARENT
REMARK Flexibility Score: inf
ROOT
ATOM      1  C   UNL     1      17.802  27.408  34.029  1.00  0.00     0.008 C 
ATOM      2  C   UNL     1      17.420  25.953  33.742  1.00  0.00    -0.006 C 
ATOM      3  C   UNL     1      18.410  24.990  34.416  1.00  0.00     0.008 C 
ATOM      4  C   UNL     1      17.985  23.528  34.226  1.00  0.00     0.039 C 
ATOM      5  C   UNL     1      17.734  23.179  32.764  1.00  0.00    -0.006 C 
ATOM      6  C   UNL     1      17.976  21.925  32.283  1.00  0.00    -0.070 C 
ATOM      7  C   UNL     1      18.487  20.823  33.184  1.00  0.00     0.039 C 
ATOM      8  C   UNL     1      17.784  21.582  30.824  1.00  0.00     0.039 C 
ATOM      9  C   UNL     1      17.104  24.248  31.934  1.00  0.00     0.159 C 
ATOM     10  O   UNL     1      16.327  23.966  30.983  1.00  0.00    -0.295 OA
ATOM     11  C   UNL     1      17.385  25.694  32.228  1.00  0.00     0.084 C 
ENDROOT
TORSDOF 0
ENDMDL
MODEL 9
REMARK VINA RESULT:    -4.036     18.831     19.646
REMARK INTER + INTRA:          -4.036
REMARK INTER:                  -4.036
REMARK INTRA:                   0.000
REMARK UNBOUND:                 0.000
REMARK SMILES CC(C)=C1CC[C@@H](C)CC1=O
REMARK SMILES IDX 8 1 7 2 6 3 5 4 4 5 2 6 1 7 3 8 10 9 11 10 9 11
REMARK H PARENT
REMARK Flexibility Score: inf
ROOT
ATOM      1  C   UNL     1       4.119  26.862  18.153  1.00  0.00     0.008 C 
ATOM      2  C   UNL     1       4.305  28.313  18.609  1.00  0.00    -0.006 C 
ATOM      3  C   UNL     1       5.762  28.567  19.027  1.00  0.00     0.008 C 
ATOM      4  C   UNL     1       5.991  30.040  19.389  1.00  0.00     0.039 C 
ATOM      5  C   UNL     1       4.991  30.550  20.419  1.00  0.00    -0.006 C 
ATOM      6  C   UNL     1       5.334  31.510  21.326  1.00  0.00    -0.070 C 
ATOM      7  C   UNL     1       6.717  32.122  21.335  1.00  0.00     0.039 C 
ATOM      8  C   UNL     1       4.369  31.984  22.387  1.00  0.00     0.039 C 
ATOM      9  C   UNL     1       3.599  30.024  20.296  1.00  0.00     0.159 C 
ATOM     10  O   UNL     1       2.603  30.727  20.616  1.00  0.00    -0.295 OA
ATOM     11  C   UNL     1       3.362  28.635  19.777  1.00  0.00     0.084 C 
ENDROOT
TORSDOF 0
ENDMDL
