MODEL 1
REMARK VINA RESULT:     6.816      0.000      0.000
REMARK INTER + INTRA:          15.027
REMARK INTER:                  10.601
REMARK INTRA:                   4.426
REMARK UNBOUND:                 4.426
REMARK SMILES C[C@@]12C[C@@]3(O)O[C@@H](O1)[C@]1(COC(=O)c4ccccc4)[C@H]3C[C@@]12O[C@@H]1O[C@@H](CO)[C@@H](O)[C@H](O)[C@H]1O
REMARK SMILES IDX 1 1 2 2 3 3 4 4 20 5 21 6 22 7 9 8 7 9 8 10 6 11 23 12 24 13
REMARK SMILES IDX 33 14 25 15 31 16 26 17 29 18 34 19 32 21 27 23 28 24 30 26
REMARK SMILES IDX 5 28 10 30 11 31 12 32 13 33 14 34 15 35 19 36 16 37 18 38
REMARK SMILES IDX 17 39
REMARK H PARENT 34 20 32 22 28 25 30 27 5 29
REMARK Flexibility Score: inf
ROOT
ATOM      1  C   UNL     1      18.454 161.213  34.147  1.00  0.00     0.046 C 
ATOM      2  C   UNL     1      19.616 160.479  34.817  1.00  0.00     0.104 C 
ATOM      3  C   UNL     1      20.880 160.440  33.877  1.00  0.00     0.104 C 
ATOM      4  C   UNL     1      21.916 159.583  34.682  1.00  0.00     0.175 C 
ATOM      5  C   UNL     1      21.252 158.263  35.190  1.00  0.00     0.070 C 
ATOM      6  C   UNL     1      19.949 157.937  34.453  1.00  0.00     0.050 C 
ATOM      7  C   UNL     1      19.285 159.018  35.320  1.00  0.00     0.115 C 
ATOM      8  C   UNL     1      20.425 158.854  36.331  1.00  0.00     0.096 C 
ATOM      9  C   UNL     1      20.977 160.253  36.575  1.00  0.00     0.267 C 
ATOM     10  O   UNL     1      20.051 161.156  35.983  1.00  0.00    -0.342 OA
ATOM     11  O   UNL     1      22.199 160.316  35.858  1.00  0.00    -0.320 OA
ENDROOT
BRANCH   7  12
ATOM     12  O   UNL     1      17.948 158.661  35.670  1.00  0.00    -0.339 OA
BRANCH  12  13
ATOM     13  C   UNL     1      17.090 159.749  35.991  1.00  0.00     0.282 C 
ATOM     14  C   UNL     1      16.214 160.110  34.764  1.00  0.00     0.202 C 
ATOM     15  O   UNL     1      16.270 159.437  37.109  1.00  0.00    -0.341 OA
ATOM     16  C   UNL     1      15.171 159.010  34.470  1.00  0.00     0.179 C 
ATOM     17  C   UNL     1      15.447 158.308  36.867  1.00  0.00     0.178 C 
ATOM     18  C   UNL     1      14.419 158.615  35.756  1.00  0.00     0.177 C 
BRANCH  14  19
ATOM     19  O   UNL     1      15.572 161.336  35.009  1.00  0.00    -0.385 OA
ATOM     20  H   UNL     1      14.747 161.134  35.524  1.00  0.00     0.211 HD
ENDBRANCH  14  19
BRANCH  16  21
ATOM     21  O   UNL     1      15.819 157.885  33.935  1.00  0.00    -0.387 OA
ATOM     22  H   UNL     1      15.201 157.480  33.272  1.00  0.00     0.211 HD
ENDBRANCH  16  21
BRANCH  17  23
ATOM     23  C   UNL     1      14.767 157.878  38.179  1.00  0.00     0.191 C 
BRANCH  23  24
ATOM     24  O   UNL     1      15.374 158.473  39.295  1.00  0.00    -0.394 OA
ATOM     25  H   UNL     1      15.048 159.411  39.333  1.00  0.00     0.210 HD
ENDBRANCH  23  24
ENDBRANCH  17  23
BRANCH  18  26
ATOM     26  O   UNL     1      13.572 159.662  36.161  1.00  0.00    -0.387 OA
ATOM     27  H   UNL     1      14.157 160.422  36.420  1.00  0.00     0.211 HD
ENDBRANCH  18  26
ENDBRANCH  12  13
ENDBRANCH   7  12
BRANCH   4  28
ATOM     28  O   UNL     1      23.076 159.345  33.931  1.00  0.00    -0.365 OA
ATOM     29  H   UNL     1      23.440 158.474  34.236  1.00  0.00     0.214 HD
ENDBRANCH   4  28
BRANCH   8  30
ATOM     30  C   UNL     1      20.252 157.948  37.565  1.00  0.00     0.249 C 
BRANCH  30  31
ATOM     31  O   UNL     1      21.428 157.980  38.374  1.00  0.00    -0.461 OA
BRANCH  31  32
ATOM     32  C   UNL     1      22.128 159.148  38.698  1.00  0.00     0.338 C 
ATOM     33  O   UNL     1      23.034 159.582  37.932  1.00  0.00    -0.246 OA
BRANCH  32  34
ATOM     34  C   UNL     1      21.797 159.878  39.942  1.00  0.00     0.060 A 
ATOM     35  C   UNL     1      22.056 161.257  40.045  1.00  0.00     0.015 A 
ATOM     36  C   UNL     1      21.238 159.204  41.045  1.00  0.00     0.015 A 
ATOM     37  C   UNL     1      21.758 161.947  41.224  1.00  0.00     0.001 A 
ATOM     38  C   UNL     1      20.940 159.899  42.220  1.00  0.00     0.001 A 
ATOM     39  C   UNL     1      21.199 161.269  42.311  1.00  0.00     0.000 A 
ENDBRANCH  32  34
ENDBRANCH  31  32
ENDBRANCH  30  31
ENDBRANCH   8  30
TORSDOF 12
ENDMDL
