MODEL 1
REMARK VINA RESULT:    -2.625      0.000      0.000
REMARK INTER + INTRA:          -2.625
REMARK INTER:                  -2.625
REMARK INTRA:                   0.000
REMARK UNBOUND:                 0.000
REMARK SMILES CC1(C)[C@@H]2CC[C@@]1(C)C(=O)C2
REMARK SMILES IDX 1 1 2 2 4 3 5 4 6 5 7 6 9 7 10 8 11 9 8 10 3 11
REMARK H PARENT
REMARK Flexibility Score: inf
ROOT
ATOM      1  C   UNL     1     124.878 129.722 120.895  1.00  0.00     0.012 C 
ATOM      2  C   UNL     1     125.881 128.983 119.957  1.00  0.00    -0.020 C 
ATOM      3  C   UNL     1     125.385 128.845 118.497  1.00  0.00     0.003 C 
ATOM      4  C   UNL     1     124.136 127.932 118.646  1.00  0.00     0.005 C 
ATOM      5  C   UNL     1     124.546 126.966 119.785  1.00  0.00     0.015 C 
ATOM      6  C   UNL     1     125.968 127.454 120.150  1.00  0.00     0.032 C 
ATOM      7  C   UNL     1     126.821 127.072 118.965  1.00  0.00     0.139 C 
ATOM      8  O   UNL     1     127.596 126.130 118.913  1.00  0.00    -0.299 OA
ATOM      9  C   UNL     1     126.483 127.977 117.821  1.00  0.00     0.080 C 
ATOM     10  C   UNL     1     126.487 126.965 121.506  1.00  0.00     0.020 C 
ATOM     11  C   UNL     1     127.242 129.735 120.087  1.00  0.00     0.012 C 
ENDROOT
TORSDOF 0
ENDMDL
MODEL 2
REMARK VINA RESULT:    -2.622     13.982     15.141
REMARK INTER + INTRA:          -2.622
REMARK INTER:                  -2.622
REMARK INTRA:                   0.000
REMARK UNBOUND:                 0.000
REMARK SMILES CC1(C)[C@@H]2CC[C@@]1(C)C(=O)C2
REMARK SMILES IDX 1 1 2 2 4 3 5 4 6 5 7 6 9 7 10 8 11 9 8 10 3 11
REMARK H PARENT
REMARK Flexibility Score: inf
ROOT
ATOM      1  C   UNL     1     129.673 114.195 120.891  1.00  0.00     0.012 C 
ATOM      2  C   UNL     1     128.919 113.192 119.965  1.00  0.00    -0.020 C 
ATOM      3  C   UNL     1     128.782 113.673 118.500  1.00  0.00     0.003 C 
ATOM      4  C   UNL     1     127.886 114.936 118.638  1.00  0.00     0.005 C 
ATOM      5  C   UNL     1     126.918 114.550 119.784  1.00  0.00     0.015 C 
ATOM      6  C   UNL     1     127.389 113.125 120.163  1.00  0.00     0.032 C 
ATOM      7  C   UNL     1     126.994 112.265 118.989  1.00  0.00     0.139 C 
ATOM      8  O   UNL     1     126.042 111.501 118.948  1.00  0.00    -0.299 OA
ATOM      9  C   UNL     1     127.899 112.579 117.839  1.00  0.00     0.080 C 
ATOM     10  C   UNL     1     126.898 112.627 121.527  1.00  0.00     0.020 C 
ATOM     11  C   UNL     1     129.654 111.823 120.107  1.00  0.00     0.012 C 
ENDROOT
TORSDOF 0
ENDMDL
MODEL 3
REMARK VINA RESULT:    -2.606     14.400     15.705
REMARK INTER + INTRA:          -2.606
REMARK INTER:                  -2.606
REMARK INTRA:                   0.000
REMARK UNBOUND:                 0.000
REMARK SMILES CC1(C)[C@@H]2CC[C@@]1(C)C(=O)C2
REMARK SMILES IDX 1 1 2 2 4 3 5 4 6 5 7 6 9 7 10 8 11 9 8 10 3 11
REMARK H PARENT
REMARK Flexibility Score: inf
ROOT
ATOM      1  C   UNL     1     129.216 110.741 118.544  1.00  0.00     0.012 C 
ATOM      2  C   UNL     1     128.353 112.039 118.497  1.00  0.00    -0.020 C 
ATOM      3  C   UNL     1     129.184 113.344 118.517  1.00  0.00     0.003 C 
ATOM      4  C   UNL     1     129.866 113.295 119.912  1.00  0.00     0.005 C 
ATOM      5  C   UNL     1     128.779 112.647 120.806  1.00  0.00     0.015 C 
ATOM      6  C   UNL     1     127.622 112.398 119.808  1.00  0.00     0.032 C 
ATOM      7  C   UNL     1     127.104 113.774 119.471  1.00  0.00     0.139 C 
ATOM      8  O   UNL     1     126.082 114.283 119.904  1.00  0.00    -0.299 OA
ATOM      9  C   UNL     1     128.106 114.461 118.595  1.00  0.00     0.080 C 
ATOM     10  C   UNL     1     126.558 111.407 120.292  1.00  0.00     0.020 C 
ATOM     11  C   UNL     1     127.425 111.906 117.249  1.00  0.00     0.012 C 
ENDROOT
TORSDOF 0
ENDMDL
MODEL 4
REMARK VINA RESULT:    -2.577      1.383      2.508
REMARK INTER + INTRA:          -2.577
REMARK INTER:                  -2.577
REMARK INTRA:                   0.000
REMARK UNBOUND:                 0.000
REMARK SMILES CC1(C)[C@@H]2CC[C@@]1(C)C(=O)C2
REMARK SMILES IDX 1 1 2 2 4 3 5 4 6 5 7 6 9 7 10 8 11 9 8 10 3 11
REMARK H PARENT
REMARK Flexibility Score: inf
ROOT
ATOM      1  C   UNL     1     128.329 129.172 118.685  1.00  0.00     0.012 C 
ATOM      2  C   UNL     1     127.014 128.340 118.578  1.00  0.00    -0.020 C 
ATOM      3  C   UNL     1     125.728 129.202 118.566  1.00  0.00     0.003 C 
ATOM      4  C   UNL     1     125.744 129.859 119.974  1.00  0.00     0.005 C 
ATOM      5  C   UNL     1     126.336 128.742 120.871  1.00  0.00     0.015 C 
ATOM      6  C   UNL     1     126.592 127.596 119.863  1.00  0.00     0.032 C 
ATOM      7  C   UNL     1     125.218 127.117 119.469  1.00  0.00     0.139 C 
ATOM      8  O   UNL     1     124.671 126.100 119.866  1.00  0.00    -0.299 OA
ATOM      9  C   UNL     1     124.585 128.149 118.587  1.00  0.00     0.080 C 
ATOM     10  C   UNL     1     127.542 126.502 120.363  1.00  0.00     0.020 C 
ATOM     11  C   UNL     1     127.169 127.431 117.319  1.00  0.00     0.012 C 
ENDROOT
TORSDOF 0
ENDMDL
MODEL 5
REMARK VINA RESULT:    -2.456     14.343     15.442
REMARK INTER + INTRA:          -2.456
REMARK INTER:                  -2.456
REMARK INTRA:                   0.000
REMARK UNBOUND:                 0.000
REMARK SMILES CC1(C)[C@@H]2CC[C@@]1(C)C(=O)C2
REMARK SMILES IDX 1 1 2 2 4 3 5 4 6 5 7 6 9 7 10 8 11 9 8 10 3 11
REMARK H PARENT
REMARK Flexibility Score: inf
ROOT
ATOM      1  C   UNL     1     127.684 115.110 119.674  1.00  0.00     0.012 C 
ATOM      2  C   UNL     1     128.617 113.883 119.906  1.00  0.00    -0.020 C 
ATOM      3  C   UNL     1     129.213 113.293 118.604  1.00  0.00     0.003 C 
ATOM      4  C   UNL     1     127.952 112.778 117.855  1.00  0.00     0.005 C 
ATOM      5  C   UNL     1     127.050 112.265 119.005  1.00  0.00     0.015 C 
ATOM      6  C   UNL     1     127.902 112.562 120.263  1.00  0.00     0.032 C 
ATOM      7  C   UNL     1     129.054 111.591 120.185  1.00  0.00     0.139 C 
ATOM      8  O   UNL     1     129.176 110.568 120.840  1.00  0.00    -0.299 OA
ATOM      9  C   UNL     1     129.978 112.032 119.093  1.00  0.00     0.080 C 
ATOM     10  C   UNL     1     127.125 112.541 121.584  1.00  0.00     0.020 C 
ATOM     11  C   UNL     1     129.697 114.338 120.937  1.00  0.00     0.012 C 
ENDROOT
TORSDOF 0
ENDMDL
MODEL 6
REMARK VINA RESULT:    -2.449      1.301      2.272
REMARK INTER + INTRA:          -2.449
REMARK INTER:                  -2.449
REMARK INTRA:                   0.000
REMARK UNBOUND:                 0.000
REMARK SMILES CC1(C)[C@@H]2CC[C@@]1(C)C(=O)C2
REMARK SMILES IDX 1 1 2 2 4 3 5 4 6 5 7 6 9 7 10 8 11 9 8 10 3 11
REMARK H PARENT
REMARK Flexibility Score: inf
ROOT
ATOM      1  C   UNL     1     124.069 127.334 119.548  1.00  0.00     0.012 C 
ATOM      2  C   UNL     1     125.164 128.408 119.831  1.00  0.00    -0.020 C 
ATOM      3  C   UNL     1     125.703 129.102 118.557  1.00  0.00     0.003 C 
ATOM      4  C   UNL     1     126.389 127.934 117.796  1.00  0.00     0.005 C 
ATOM      5  C   UNL     1     126.985 127.076 118.940  1.00  0.00     0.015 C 
ATOM      6  C   UNL     1     126.555 127.854 120.207  1.00  0.00     0.032 C 
ATOM      7  C   UNL     1     127.376 129.120 120.177  1.00  0.00     0.139 C 
ATOM      8  O   UNL     1     128.360 129.353 120.860  1.00  0.00    -0.299 OA
ATOM      9  C   UNL     1     126.847 130.007 119.093  1.00  0.00     0.080 C 
ATOM     10  C   UNL     1     126.643 127.056 121.512  1.00  0.00     0.020 C 
ATOM     11  C   UNL     1     124.553 129.397 120.872  1.00  0.00     0.012 C 
ENDROOT
TORSDOF 0
ENDMDL
MODEL 7
REMARK VINA RESULT:    -2.446      1.345      2.907
REMARK INTER + INTRA:          -2.446
REMARK INTER:                  -2.446
REMARK INTRA:                   0.000
REMARK UNBOUND:                 0.000
REMARK SMILES CC1(C)[C@@H]2CC[C@@]1(C)C(=O)C2
REMARK SMILES IDX 1 1 2 2 4 3 5 4 6 5 7 6 9 7 10 8 11 9 8 10 3 11
REMARK H PARENT
REMARK Flexibility Score: inf
ROOT
ATOM      1  C   UNL     1     124.103 127.915 118.842  1.00  0.00     0.012 C 
ATOM      2  C   UNL     1     125.474 127.754 119.567  1.00  0.00    -0.020 C 
ATOM      3  C   UNL     1     125.675 128.734 120.749  1.00  0.00     0.003 C 
ATOM      4  C   UNL     1     125.685 130.120 120.045  1.00  0.00     0.005 C 
ATOM      5  C   UNL     1     126.401 129.823 118.704  1.00  0.00     0.015 C 
ATOM      6  C   UNL     1     126.697 128.307 118.805  1.00  0.00     0.032 C 
ATOM      7  C   UNL     1     127.762 128.194 119.868  1.00  0.00     0.139 C 
ATOM      8  O   UNL     1     128.952 128.003 119.674  1.00  0.00    -0.299 OA
ATOM      9  C   UNL     1     127.136 128.462 121.202  1.00  0.00     0.080 C 
ATOM     10  C   UNL     1     127.037 127.629 117.473  1.00  0.00     0.020 C 
ATOM     11  C   UNL     1     125.584 126.252 119.974  1.00  0.00     0.012 C 
ENDROOT
TORSDOF 0
ENDMDL
MODEL 8
REMARK VINA RESULT:    -2.438     14.432     15.708
REMARK INTER + INTRA:          -2.438
REMARK INTER:                  -2.438
REMARK INTRA:                   0.000
REMARK UNBOUND:                 0.000
REMARK SMILES CC1(C)[C@@H]2CC[C@@]1(C)C(=O)C2
REMARK SMILES IDX 1 1 2 2 4 3 5 4 6 5 7 6 9 7 10 8 11 9 8 10 3 11
REMARK H PARENT
REMARK Flexibility Score: inf
ROOT
ATOM      1  C   UNL     1     127.896 114.980 118.708  1.00  0.00     0.012 C 
ATOM      2  C   UNL     1     127.708 113.648 119.496  1.00  0.00    -0.020 C 
ATOM      3  C   UNL     1     128.685 113.480 120.685  1.00  0.00     0.003 C 
ATOM      4  C   UNL     1     130.069 113.409 119.982  1.00  0.00     0.005 C 
ATOM      5  C   UNL     1     129.755 112.639 118.675  1.00  0.00     0.015 C 
ATOM      6  C   UNL     1     128.234 112.379 118.790  1.00  0.00     0.032 C 
ATOM      7  C   UNL     1     128.101 111.367 119.901  1.00  0.00     0.139 C 
ATOM      8  O   UNL     1     127.884 110.174 119.762  1.00  0.00    -0.299 OA
ATOM      9  C   UNL     1     128.383 112.047 121.205  1.00  0.00     0.080 C 
ATOM     10  C   UNL     1     127.546 111.993 117.476  1.00  0.00     0.020 C 
ATOM     11  C   UNL     1     126.204 113.588 119.909  1.00  0.00     0.012 C 
ENDROOT
TORSDOF 0
ENDMDL
MODEL 9
REMARK VINA RESULT:    -2.412     14.869     16.146
REMARK INTER + INTRA:          -2.412
REMARK INTER:                  -2.412
REMARK INTRA:                   0.000
REMARK UNBOUND:                 0.000
REMARK SMILES CC1(C)[C@@H]2CC[C@@]1(C)C(=O)C2
REMARK SMILES IDX 1 1 2 2 4 3 5 4 6 5 7 6 9 7 10 8 11 9 8 10 3 11
REMARK H PARENT
REMARK Flexibility Score: inf
ROOT
ATOM      1  C   UNL     1     127.301 111.743 117.100  1.00  0.00     0.012 C 
ATOM      2  C   UNL     1     127.420 111.896 118.647  1.00  0.00    -0.020 C 
ATOM      3  C   UNL     1     127.160 113.334 119.156  1.00  0.00     0.003 C 
ATOM      4  C   UNL     1     128.331 114.137 118.522  1.00  0.00     0.005 C 
ATOM      5  C   UNL     1     129.507 113.129 118.567  1.00  0.00     0.015 C 
ATOM      6  C   UNL     1     128.858 111.878 119.207  1.00  0.00     0.032 C 
ATOM      7  C   UNL     1     128.603 112.270 120.642  1.00  0.00     0.139 C 
ATOM      8  O   UNL     1     129.264 111.924 121.608  1.00  0.00    -0.299 OA
ATOM      9  C   UNL     1     127.465 113.243 120.677  1.00  0.00     0.080 C 
ATOM     10  C   UNL     1     129.649 110.579 119.021  1.00  0.00     0.020 C 
ATOM     11  C   UNL     1     126.465 110.830 119.270  1.00  0.00     0.012 C 
ENDROOT
TORSDOF 0
ENDMDL
