MODEL 1
REMARK VINA RESULT:    -5.456      0.000      0.000
REMARK INTER + INTRA:          -8.480
REMARK INTER:                  -7.529
REMARK INTRA:                  -0.950
REMARK UNBOUND:                -0.950
REMARK SMILES O=C([O-])[C@H]1O[C@H](Oc2cc3oc(-c4ccccc4)cc(=O)c3c(O)c2O)[C@H](O)[C@H](O)[C@H]1O
REMARK SMILES IDX 7 1 6 2 4 3 31 4 5 5 29 6 27 7 2 8 1 9 3 10 32 11 30 13
REMARK SMILES IDX 28 15 8 17 25 18 9 19 23 20 10 21 22 22 11 23 20 24 12 25
REMARK SMILES IDX 19 26 21 27 26 28 24 30 13 32 14 33 18 34 15 35 17 36 16 37
REMARK H PARENT 32 12 30 14 28 16 26 29 24 31
REMARK Flexibility Score: inf
ROOT
ATOM      1  O   UNL     1      -9.621  48.694  55.979  1.00  0.00    -0.458 OA
ENDROOT
BRANCH   1   2
ATOM      2  C   UNL     1      -8.773  47.558  55.782  1.00  0.00     0.339 C 
ATOM      3  C   UNL     1      -6.903  48.880  55.252  1.00  0.00     0.199 C 
ATOM      4  C   UNL     1      -6.148  48.502  56.549  1.00  0.00     0.180 C 
ATOM      5  O   UNL     1      -7.755  47.827  54.827  1.00  0.00    -0.328 OA
ATOM      6  C   UNL     1      -7.148  48.111  57.659  1.00  0.00     0.181 C 
ATOM      7  C   UNL     1      -8.170  47.092  57.127  1.00  0.00     0.214 C 
BRANCH   3   8
ATOM      8  C   UNL     1      -5.930  49.219  54.159  1.00  0.00     0.073 C 
ATOM      9  O   UNL     1      -6.272  49.153  52.945  1.00  0.00    -0.547 OA
ATOM     10  O   UNL     1      -4.639  49.619  54.483  1.00  0.00    -0.547 OA
ENDBRANCH   3   8
BRANCH   4  11
ATOM     11  O   UNL     1      -5.212  47.471  56.335  1.00  0.00    -0.387 OA
ATOM     12  H   UNL     1      -4.364  47.715  56.789  1.00  0.00     0.211 HD
ENDBRANCH   4  11
BRANCH   6  13
ATOM     13  O   UNL     1      -7.822  49.253  58.124  1.00  0.00    -0.387 OA
ATOM     14  H   UNL     1      -8.339  49.614  57.362  1.00  0.00     0.211 HD
ENDBRANCH   6  13
BRANCH   7  15
ATOM     15  O   UNL     1      -9.185  46.902  58.081  1.00  0.00    -0.384 OA
ATOM     16  H   UNL     1      -9.275  47.758  58.580  1.00  0.00     0.211 HD
ENDBRANCH   7  15
ENDBRANCH   1   2
BRANCH   1  17
ATOM     17  C   UNL     1     -10.489  49.271  55.033  1.00  0.00     0.172 A 
ATOM     18  C   UNL     1     -10.155  50.395  54.237  1.00  0.00     0.201 A 
ATOM     19  C   UNL     1     -11.741  48.673  54.894  1.00  0.00     0.098 A 
ATOM     20  C   UNL     1     -11.119  50.933  53.341  1.00  0.00     0.176 A 
ATOM     21  C   UNL     1     -12.689  49.183  54.010  1.00  0.00     0.146 A 
ATOM     22  C   UNL     1     -12.390  50.317  53.223  1.00  0.00     0.111 A 
ATOM     23  O   UNL     1     -13.876  48.591  53.928  1.00  0.00    -0.456 OA
ATOM     24  C   UNL     1     -13.399  50.783  52.350  1.00  0.00     0.197 A 
ATOM     25  C   UNL     1     -14.843  49.003  53.114  1.00  0.00     0.138 A 
ATOM     26  C   UNL     1     -14.627  50.121  52.297  1.00  0.00     0.100 A 
ATOM     27  O   UNL     1     -13.218  51.789  51.611  1.00  0.00    -0.289 OA
BRANCH  18  28
ATOM     28  O   UNL     1      -8.869  50.936  54.329  1.00  0.00    -0.502 OA
ATOM     29  H   UNL     1      -8.018  50.400  54.378  1.00  0.00     0.293 HD
ENDBRANCH  18  28
BRANCH  20  30
ATOM     30  O   UNL     1     -10.845  52.068  52.570  1.00  0.00    -0.504 OA
ATOM     31  H   UNL     1     -11.229  52.252  51.655  1.00  0.00     0.293 HD
ENDBRANCH  20  30
BRANCH  25  32
ATOM     32  C   UNL     1     -16.133  48.274  53.107  1.00  0.00     0.017 A 
ATOM     33  C   UNL     1     -16.826  48.079  54.315  1.00  0.00     0.012 A 
ATOM     34  C   UNL     1     -16.673  47.745  51.918  1.00  0.00     0.012 A 
ATOM     35  C   UNL     1     -18.042  47.389  54.331  1.00  0.00     0.001 A 
ATOM     36  C   UNL     1     -17.887  47.051  51.942  1.00  0.00     0.001 A 
ATOM     37  C   UNL     1     -18.572  46.876  53.146  1.00  0.00     0.000 A 
ENDBRANCH  25  32
ENDBRANCH   1  17
TORSDOF 9
ENDMDL
MODEL 2
REMARK VINA RESULT:    -4.912     14.981     18.814
REMARK INTER + INTRA:          -7.728
REMARK INTER:                  -6.372
REMARK INTRA:                  -1.357
REMARK UNBOUND:                -0.950
REMARK SMILES O=C([O-])[C@H]1O[C@H](Oc2cc3oc(-c4ccccc4)cc(=O)c3c(O)c2O)[C@H](O)[C@H](O)[C@H]1O
REMARK SMILES IDX 7 1 6 2 4 3 31 4 5 5 29 6 27 7 2 8 1 9 3 10 32 11 30 13
REMARK SMILES IDX 28 15 8 17 25 18 9 19 23 20 10 21 22 22 11 23 20 24 12 25
REMARK SMILES IDX 19 26 21 27 26 28 24 30 13 32 14 33 18 34 15 35 17 36 16 37
REMARK H PARENT 32 12 30 14 28 16 26 29 24 31
REMARK Flexibility Score: inf
ROOT
ATOM      1  O   UNL     1      -9.654  62.255  42.792  1.00  0.00    -0.458 OA
ENDROOT
BRANCH   1   2
ATOM      2  C   UNL     1     -10.503  63.103  42.012  1.00  0.00     0.339 C 
ATOM      3  C   UNL     1      -8.722  63.909  40.706  1.00  0.00     0.199 C 
ATOM      4  C   UNL     1      -9.214  63.197  39.423  1.00  0.00     0.180 C 
ATOM      5  O   UNL     1      -9.809  64.255  41.552  1.00  0.00    -0.328 OA
ATOM      6  C   UNL     1     -10.055  61.953  39.788  1.00  0.00     0.181 C 
ATOM      7  C   UNL     1     -11.123  62.314  40.835  1.00  0.00     0.214 C 
BRANCH   3   8
ATOM      8  C   UNL     1      -7.940  65.142  40.354  1.00  0.00     0.073 C 
ATOM      9  O   UNL     1      -6.690  65.089  40.185  1.00  0.00    -0.547 OA
ATOM     10  O   UNL     1      -8.597  66.357  40.204  1.00  0.00    -0.547 OA
ENDBRANCH   3   8
BRANCH   4  11
ATOM     11  O   UNL     1      -9.941  64.062  38.583  1.00  0.00    -0.387 OA
ATOM     12  H   UNL     1      -9.644  63.918  37.648  1.00  0.00     0.211 HD
ENDBRANCH   4  11
BRANCH   6  13
ATOM     13  O   UNL     1      -9.223  60.940  40.295  1.00  0.00    -0.387 OA
ATOM     14  H   UNL     1      -8.609  61.367  40.941  1.00  0.00     0.211 HD
ENDBRANCH   6  13
BRANCH   7  15
ATOM     15  O   UNL     1     -11.740  61.142  41.301  1.00  0.00    -0.384 OA
ATOM     16  H   UNL     1     -11.353  60.949  42.197  1.00  0.00     0.211 HD
ENDBRANCH   7  15
ENDBRANCH   1   2
BRANCH   1  17
ATOM     17  C   UNL     1      -9.798  61.946  44.158  1.00  0.00     0.172 A 
ATOM     18  C   UNL     1     -10.625  60.906  44.651  1.00  0.00     0.201 A 
ATOM     19  C   UNL     1      -9.065  62.728  45.051  1.00  0.00     0.098 A 
ATOM     20  C   UNL     1     -10.738  60.703  46.053  1.00  0.00     0.176 A 
ATOM     21  C   UNL     1      -9.159  62.530  46.426  1.00  0.00     0.146 A 
ATOM     22  C   UNL     1      -9.994  61.516  46.944  1.00  0.00     0.111 A 
ATOM     23  O   UNL     1      -8.457  63.314  47.238  1.00  0.00    -0.456 OA
ATOM     24  C   UNL     1     -10.043  61.372  48.349  1.00  0.00     0.197 A 
ATOM     25  C   UNL     1      -8.479  63.201  48.563  1.00  0.00     0.138 A 
ATOM     26  C   UNL     1      -9.282  62.218  49.157  1.00  0.00     0.100 A 
ATOM     27  O   UNL     1     -10.763  60.493  48.897  1.00  0.00    -0.289 OA
BRANCH  18  28
ATOM     28  O   UNL     1     -11.291  60.079  43.741  1.00  0.00    -0.502 OA
ATOM     29  H   UNL     1     -12.095  60.347  43.196  1.00  0.00     0.293 HD
ENDBRANCH  18  28
BRANCH  20  30
ATOM     30  O   UNL     1     -11.578  59.716  46.581  1.00  0.00    -0.504 OA
ATOM     31  H   UNL     1     -12.420  59.378  46.141  1.00  0.00     0.293 HD
ENDBRANCH  20  30
BRANCH  25  32
ATOM     32  C   UNL     1      -7.663  64.133  49.376  1.00  0.00     0.017 A 
ATOM     33  C   UNL     1      -8.088  64.478  50.672  1.00  0.00     0.012 A 
ATOM     34  C   UNL     1      -6.480  64.707  48.871  1.00  0.00     0.012 A 
ATOM     35  C   UNL     1      -7.336  65.360  51.453  1.00  0.00     0.001 A 
ATOM     36  C   UNL     1      -5.735  65.594  49.655  1.00  0.00     0.001 A 
ATOM     37  C   UNL     1      -6.160  65.917  50.946  1.00  0.00     0.000 A 
ENDBRANCH  25  32
ENDBRANCH   1  17
TORSDOF 9
ENDMDL
MODEL 3
REMARK VINA RESULT:    -4.392     13.922     16.719
REMARK INTER + INTRA:          -7.011
REMARK INTER:                  -5.799
REMARK INTRA:                  -1.212
REMARK UNBOUND:                -0.950
REMARK SMILES O=C([O-])[C@H]1O[C@H](Oc2cc3oc(-c4ccccc4)cc(=O)c3c(O)c2O)[C@H](O)[C@H](O)[C@H]1O
REMARK SMILES IDX 7 1 6 2 4 3 31 4 5 5 29 6 27 7 2 8 1 9 3 10 32 11 30 13
REMARK SMILES IDX 28 15 8 17 25 18 9 19 23 20 10 21 22 22 11 23 20 24 12 25
REMARK SMILES IDX 19 26 21 27 26 28 24 30 13 32 14 33 18 34 15 35 17 36 16 37
REMARK H PARENT 32 12 30 14 28 16 26 29 24 31
REMARK Flexibility Score: inf
ROOT
ATOM      1  O   UNL     1      -7.888  63.113  49.055  1.00  0.00    -0.458 OA
ENDROOT
BRANCH   1   2
ATOM      2  C   UNL     1      -8.183  64.290  49.813  1.00  0.00     0.339 C 
ATOM      3  C   UNL     1      -7.115  63.476  51.743  1.00  0.00     0.199 C 
ATOM      4  C   UNL     1      -5.966  64.511  51.659  1.00  0.00     0.180 C 
ATOM      5  O   UNL     1      -8.318  63.999  51.199  1.00  0.00    -0.328 OA
ATOM      6  C   UNL     1      -5.763  64.972  50.199  1.00  0.00     0.181 C 
ATOM      7  C   UNL     1      -7.109  65.375  49.570  1.00  0.00     0.214 C 
BRANCH   3   8
ATOM      8  C   UNL     1      -7.341  63.059  53.168  1.00  0.00     0.073 C 
ATOM      9  O   UNL     1      -8.033  63.771  53.948  1.00  0.00    -0.547 OA
ATOM     10  O   UNL     1      -6.790  61.872  53.636  1.00  0.00    -0.547 OA
ENDBRANCH   3   8
BRANCH   4  11
ATOM     11  O   UNL     1      -6.185  65.615  52.505  1.00  0.00    -0.387 OA
ATOM     12  H   UNL     1      -7.026  66.062  52.230  1.00  0.00     0.211 HD
ENDBRANCH   4  11
BRANCH   6  13
ATOM     13  O   UNL     1      -5.183  63.938  49.443  1.00  0.00    -0.387 OA
ATOM     14  H   UNL     1      -4.452  63.556  49.989  1.00  0.00     0.211 HD
ENDBRANCH   6  13
BRANCH   7  15
ATOM     15  O   UNL     1      -6.937  65.597  48.194  1.00  0.00    -0.384 OA
ATOM     16  H   UNL     1      -6.417  64.825  47.841  1.00  0.00     0.211 HD
ENDBRANCH   7  15
ENDBRANCH   1   2
BRANCH   1  17
ATOM     17  C   UNL     1      -8.748  62.451  48.159  1.00  0.00     0.172 A 
ATOM     18  C   UNL     1      -9.659  61.434  48.540  1.00  0.00     0.201 A 
ATOM     19  C   UNL     1      -8.676  62.847  46.824  1.00  0.00     0.098 A 
ATOM     20  C   UNL     1     -10.453  60.794  47.551  1.00  0.00     0.176 A 
ATOM     21  C   UNL     1      -9.458  62.236  45.847  1.00  0.00     0.146 A 
ATOM     22  C   UNL     1     -10.355  61.204  46.197  1.00  0.00     0.111 A 
ATOM     23  O   UNL     1      -9.338  62.635  44.585  1.00  0.00    -0.456 OA
ATOM     24  C   UNL     1     -11.116  60.626  45.156  1.00  0.00     0.197 A 
ATOM     25  C   UNL     1     -10.042  62.113  43.584  1.00  0.00     0.138 A 
ATOM     26  C   UNL     1     -10.957  61.085  43.847  1.00  0.00     0.100 A 
ATOM     27  O   UNL     1     -11.942  59.699  45.379  1.00  0.00    -0.289 OA
BRANCH  18  28
ATOM     28  O   UNL     1      -9.779  61.102  49.894  1.00  0.00    -0.502 OA
ATOM     29  H   UNL     1      -9.019  60.811  50.487  1.00  0.00     0.293 HD
ENDBRANCH  18  28
BRANCH  20  30
ATOM     30  O   UNL     1     -11.332  59.756  47.880  1.00  0.00    -0.504 OA
ATOM     31  H   UNL     1     -11.956  59.300  47.232  1.00  0.00     0.293 HD
ENDBRANCH  20  30
BRANCH  25  32
ATOM     32  C   UNL     1      -9.825  62.627  42.211  1.00  0.00     0.017 A 
ATOM     33  C   UNL     1      -9.609  64.002  42.011  1.00  0.00     0.012 A 
ATOM     34  C   UNL     1      -9.856  61.771  41.092  1.00  0.00     0.012 A 
ATOM     35  C   UNL     1      -9.407  64.508  40.723  1.00  0.00     0.001 A 
ATOM     36  C   UNL     1      -9.659  62.284  39.806  1.00  0.00     0.001 A 
ATOM     37  C   UNL     1      -9.431  63.650  39.622  1.00  0.00     0.000 A 
ENDBRANCH  25  32
ENDBRANCH   1  17
TORSDOF 9
ENDMDL
MODEL 4
REMARK VINA RESULT:    -4.300     14.908     18.994
REMARK INTER + INTRA:          -6.884
REMARK INTER:                  -5.547
REMARK INTRA:                  -1.337
REMARK UNBOUND:                -0.950
REMARK SMILES O=C([O-])[C@H]1O[C@H](Oc2cc3oc(-c4ccccc4)cc(=O)c3c(O)c2O)[C@H](O)[C@H](O)[C@H]1O
REMARK SMILES IDX 7 1 6 2 4 3 31 4 5 5 29 6 27 7 2 8 1 9 3 10 32 11 30 13
REMARK SMILES IDX 28 15 8 17 25 18 9 19 23 20 10 21 22 22 11 23 20 24 12 25
REMARK SMILES IDX 19 26 21 27 26 28 24 30 13 32 14 33 18 34 15 35 17 36 16 37
REMARK H PARENT 32 12 30 14 28 16 26 29 24 31
REMARK Flexibility Score: inf
ROOT
ATOM      1  O   UNL     1      -9.925  63.073  42.559  1.00  0.00    -0.458 OA
ENDROOT
BRANCH   1   2
ATOM      2  C   UNL     1      -9.321  62.454  41.418  1.00  0.00     0.339 C 
ATOM      3  C   UNL     1     -11.392  62.021  40.391  1.00  0.00     0.199 C 
ATOM      4  C   UNL     1     -11.148  63.041  39.252  1.00  0.00     0.180 C 
ATOM      5  O   UNL     1     -10.170  61.463  40.852  1.00  0.00    -0.328 OA
ATOM      6  C   UNL     1     -10.172  64.144  39.717  1.00  0.00     0.181 C 
ATOM      7  C   UNL     1      -8.926  63.519  40.369  1.00  0.00     0.214 C 
BRANCH   3   8
ATOM      8  C   UNL     1     -12.308  60.925  39.927  1.00  0.00     0.073 C 
ATOM      9  O   UNL     1     -12.243  59.770  40.433  1.00  0.00    -0.547 OA
ATOM     10  O   UNL     1     -13.243  61.183  38.932  1.00  0.00    -0.547 OA
ENDBRANCH   3   8
BRANCH   4  11
ATOM     11  O   UNL     1     -10.679  62.421  38.079  1.00  0.00    -0.387 OA
ATOM     12  H   UNL     1     -11.363  61.773  37.768  1.00  0.00     0.211 HD
ENDBRANCH   4  11
BRANCH   6  13
ATOM     13  O   UNL     1     -10.808  64.993  40.639  1.00  0.00    -0.387 OA
ATOM     14  H   UNL     1     -10.684  65.918  40.313  1.00  0.00     0.211 HD
ENDBRANCH   6  13
BRANCH   7  15
ATOM     15  O   UNL     1      -8.149  64.528  40.963  1.00  0.00    -0.384 OA
ATOM     16  H   UNL     1      -7.228  64.434  40.598  1.00  0.00     0.211 HD
ENDBRANCH   7  15
ENDBRANCH   1   2
BRANCH   1  17
ATOM     17  C   UNL     1      -9.950  62.572  43.874  1.00  0.00     0.172 A 
ATOM     18  C   UNL     1     -10.643  61.398  44.261  1.00  0.00     0.201 A 
ATOM     19  C   UNL     1      -9.235  63.297  44.827  1.00  0.00     0.098 A 
ATOM     20  C   UNL     1     -10.645  60.999  45.625  1.00  0.00     0.176 A 
ATOM     21  C   UNL     1      -9.219  62.909  46.164  1.00  0.00     0.146 A 
ATOM     22  C   UNL     1      -9.922  61.757  46.579  1.00  0.00     0.111 A 
ATOM     23  O   UNL     1      -8.540  63.644  47.039  1.00  0.00    -0.456 OA
ATOM     24  C   UNL     1      -9.865  61.423  47.952  1.00  0.00     0.197 A 
ATOM     25  C   UNL     1      -8.464  63.354  48.335  1.00  0.00     0.138 A 
ATOM     26  C   UNL     1      -9.133  62.226  48.828  1.00  0.00     0.100 A 
ATOM     27  O   UNL     1     -10.463  60.411  48.409  1.00  0.00    -0.289 OA
BRANCH  18  28
ATOM     28  O   UNL     1     -11.290  60.637  43.281  1.00  0.00    -0.502 OA
ATOM     29  H   UNL     1     -12.223  60.266  43.359  1.00  0.00     0.293 HD
ENDBRANCH  18  28
BRANCH  20  30
ATOM     30  O   UNL     1     -11.354  59.872  46.054  1.00  0.00    -0.504 OA
ATOM     31  H   UNL     1     -10.948  58.964  46.225  1.00  0.00     0.293 HD
ENDBRANCH  20  30
BRANCH  25  32
ATOM     32  C   UNL     1      -7.686  64.247  49.225  1.00  0.00     0.017 A 
ATOM     33  C   UNL     1      -6.497  64.832  48.753  1.00  0.00     0.012 A 
ATOM     34  C   UNL     1      -8.094  64.505  50.548  1.00  0.00     0.012 A 
ATOM     35  C   UNL     1      -5.744  65.673  49.579  1.00  0.00     0.001 A 
ATOM     36  C   UNL     1      -7.334  65.342  51.371  1.00  0.00     0.001 A 
ATOM     37  C   UNL     1      -6.163  65.928  50.886  1.00  0.00     0.000 A 
ENDBRANCH  25  32
ENDBRANCH   1  17
TORSDOF 9
ENDMDL
MODEL 5
REMARK VINA RESULT:    -3.330     14.015     16.733
REMARK INTER + INTRA:          -5.545
REMARK INTER:                  -4.126
REMARK INTRA:                  -1.419
REMARK UNBOUND:                -0.950
REMARK SMILES O=C([O-])[C@H]1O[C@H](Oc2cc3oc(-c4ccccc4)cc(=O)c3c(O)c2O)[C@H](O)[C@H](O)[C@H]1O
REMARK SMILES IDX 7 1 6 2 4 3 31 4 5 5 29 6 27 7 2 8 1 9 3 10 32 11 30 13
REMARK SMILES IDX 28 15 8 17 25 18 9 19 23 20 10 21 22 22 11 23 20 24 12 25
REMARK SMILES IDX 19 26 21 27 26 28 24 30 13 32 14 33 18 34 15 35 17 36 16 37
REMARK H PARENT 32 12 30 14 28 16 26 29 24 31
REMARK Flexibility Score: inf
ROOT
ATOM      1  O   UNL     1      -8.444  63.201  49.724  1.00  0.00    -0.458 OA
ENDROOT
BRANCH   1   2
ATOM      2  C   UNL     1      -7.156  62.900  50.270  1.00  0.00     0.339 C 
ATOM      3  C   UNL     1      -6.545  65.165  50.425  1.00  0.00     0.199 C 
ATOM      4  C   UNL     1      -6.567  65.164  51.972  1.00  0.00     0.180 C 
ATOM      5  O   UNL     1      -6.195  63.886  49.914  1.00  0.00    -0.328 OA
ATOM      6  C   UNL     1      -7.528  64.073  52.495  1.00  0.00     0.181 C 
ATOM      7  C   UNL     1      -7.243  62.729  51.804  1.00  0.00     0.214 C 
BRANCH   3   8
ATOM      8  C   UNL     1      -5.579  66.196  49.915  1.00  0.00     0.073 C 
ATOM      9  O   UNL     1      -5.167  67.123  50.667  1.00  0.00    -0.547 OA
ATOM     10  O   UNL     1      -5.125  66.129  48.603  1.00  0.00    -0.547 OA
ENDBRANCH   3   8
BRANCH   4  11
ATOM     11  O   UNL     1      -5.281  65.000  52.520  1.00  0.00    -0.387 OA
ATOM     12  H   UNL     1      -5.264  65.420  53.419  1.00  0.00     0.211 HD
ENDBRANCH   4  11
BRANCH   6  13
ATOM     13  O   UNL     1      -8.861  64.451  52.258  1.00  0.00    -0.387 OA
ATOM     14  H   UNL     1      -9.368  64.257  53.084  1.00  0.00     0.211 HD
ENDBRANCH   6  13
BRANCH   7  15
ATOM     15  O   UNL     1      -8.247  61.805  52.138  1.00  0.00    -0.384 OA
ATOM     16  H   UNL     1      -7.857  60.898  52.014  1.00  0.00     0.211 HD
ENDBRANCH   7  15
ENDBRANCH   1   2
BRANCH   1  17
ATOM     17  C   UNL     1      -9.102  62.513  48.687  1.00  0.00     0.172 A 
ATOM     18  C   UNL     1      -9.888  61.350  48.883  1.00  0.00     0.201 A 
ATOM     19  C   UNL     1      -8.952  63.037  47.403  1.00  0.00     0.098 A 
ATOM     20  C   UNL     1     -10.475  60.701  47.763  1.00  0.00     0.176 A 
ATOM     21  C   UNL     1      -9.532  62.416  46.300  1.00  0.00     0.146 A 
ATOM     22  C   UNL     1     -10.300  61.243  46.465  1.00  0.00     0.111 A 
ATOM     23  O   UNL     1      -9.344  62.942  45.094  1.00  0.00    -0.456 OA
ATOM     24  C   UNL     1     -10.857  60.665  45.303  1.00  0.00     0.197 A 
ATOM     25  C   UNL     1      -9.858  62.423  43.982  1.00  0.00     0.138 A 
ATOM     26  C   UNL     1     -10.634  61.259  44.060  1.00  0.00     0.100 A 
ATOM     27  O   UNL     1     -11.557  59.616  45.358  1.00  0.00    -0.289 OA
BRANCH  18  28
ATOM     28  O   UNL     1     -10.096  60.882  50.185  1.00  0.00    -0.502 OA
ATOM     29  H   UNL     1     -10.614  61.368  50.899  1.00  0.00     0.293 HD
ENDBRANCH  18  28
BRANCH  20  30
ATOM     30  O   UNL     1     -11.221  59.526  47.910  1.00  0.00    -0.504 OA
ATOM     31  H   UNL     1     -11.501  58.921  47.152  1.00  0.00     0.293 HD
ENDBRANCH  20  30
BRANCH  25  32
ATOM     32  C   UNL     1      -9.578  63.085  42.686  1.00  0.00     0.017 A 
ATOM     33  C   UNL     1      -9.380  64.478  42.647  1.00  0.00     0.012 A 
ATOM     34  C   UNL     1      -9.532  62.355  41.482  1.00  0.00     0.012 A 
ATOM     35  C   UNL     1      -9.121  65.122  41.434  1.00  0.00     0.001 A 
ATOM     36  C   UNL     1      -9.277  63.008  40.271  1.00  0.00     0.001 A 
ATOM     37  C   UNL     1      -9.069  64.388  40.248  1.00  0.00     0.000 A 
ENDBRANCH  25  32
ENDBRANCH   1  17
TORSDOF 9
ENDMDL
MODEL 6
REMARK VINA RESULT:    -3.243     15.513     18.418
REMARK INTER + INTRA:          -5.425
REMARK INTER:                  -4.571
REMARK INTRA:                  -0.854
REMARK UNBOUND:                -0.950
REMARK SMILES O=C([O-])[C@H]1O[C@H](Oc2cc3oc(-c4ccccc4)cc(=O)c3c(O)c2O)[C@H](O)[C@H](O)[C@H]1O
REMARK SMILES IDX 7 1 6 2 4 3 31 4 5 5 29 6 27 7 2 8 1 9 3 10 32 11 30 13
REMARK SMILES IDX 28 15 8 17 25 18 9 19 23 20 10 21 22 22 11 23 20 24 12 25
REMARK SMILES IDX 19 26 21 27 26 28 24 30 13 32 14 33 18 34 15 35 17 36 16 37
REMARK H PARENT 32 12 30 14 28 16 26 29 24 31
REMARK Flexibility Score: inf
ROOT
ATOM      1  O   UNL     1      -9.091  63.115  46.944  1.00  0.00    -0.458 OA
ENDROOT
BRANCH   1   2
ATOM      2  C   UNL     1      -8.582  62.254  47.968  1.00  0.00     0.339 C 
ATOM      3  C   UNL     1      -7.188  63.922  48.864  1.00  0.00     0.199 C 
ATOM      4  C   UNL     1      -8.011  64.041  50.170  1.00  0.00     0.180 C 
ATOM      5  O   UNL     1      -7.254  62.606  48.334  1.00  0.00    -0.328 OA
ATOM      6  C   UNL     1      -9.474  63.610  49.926  1.00  0.00     0.181 C 
ATOM      7  C   UNL     1      -9.521  62.257  49.196  1.00  0.00     0.214 C 
BRANCH   3   8
ATOM      8  C   UNL     1      -5.756  64.300  49.110  1.00  0.00     0.073 C 
ATOM      9  O   UNL     1      -5.435  65.498  49.351  1.00  0.00    -0.547 OA
ATOM     10  O   UNL     1      -4.769  63.322  49.081  1.00  0.00    -0.547 OA
ENDBRANCH   3   8
BRANCH   4  11
ATOM     11  O   UNL     1      -7.442  63.300  51.224  1.00  0.00    -0.387 OA
ATOM     12  H   UNL     1      -7.076  63.934  51.894  1.00  0.00     0.211 HD
ENDBRANCH   4  11
BRANCH   6  13
ATOM     13  O   UNL     1     -10.141  64.581  49.158  1.00  0.00    -0.387 OA
ATOM     14  H   UNL     1      -9.460  65.237  48.867  1.00  0.00     0.211 HD
ENDBRANCH   6  13
BRANCH   7  15
ATOM     15  O   UNL     1     -10.841  61.979  48.805  1.00  0.00    -0.384 OA
ATOM     16  H   UNL     1     -11.425  62.630  49.279  1.00  0.00     0.211 HD
ENDBRANCH   7  15
ENDBRANCH   1   2
BRANCH   1  17
ATOM     17  C   UNL     1      -9.443  62.747  45.632  1.00  0.00     0.172 A 
ATOM     18  C   UNL     1     -10.123  61.547  45.303  1.00  0.00     0.201 A 
ATOM     19  C   UNL     1      -9.090  63.640  44.622  1.00  0.00     0.098 A 
ATOM     20  C   UNL     1     -10.393  61.244  43.941  1.00  0.00     0.176 A 
ATOM     21  C   UNL     1      -9.361  63.360  43.285  1.00  0.00     0.146 A 
ATOM     22  C   UNL     1     -10.016  62.161  42.928  1.00  0.00     0.111 A 
ATOM     23  O   UNL     1      -8.987  64.234  42.356  1.00  0.00    -0.456 OA
ATOM     24  C   UNL     1     -10.257  61.940  41.553  1.00  0.00     0.197 A 
ATOM     25  C   UNL     1      -9.203  64.056  41.056  1.00  0.00     0.138 A 
ATOM     26  C   UNL     1      -9.849  62.892  40.618  1.00  0.00     0.100 A 
ATOM     27  O   UNL     1     -10.836  60.896  41.145  1.00  0.00    -0.289 OA
BRANCH  18  28
ATOM     28  O   UNL     1     -10.541  60.698  46.332  1.00  0.00    -0.502 OA
ATOM     29  H   UNL     1     -11.485  60.627  46.676  1.00  0.00     0.293 HD
ENDBRANCH  18  28
BRANCH  20  30
ATOM     30  O   UNL     1     -11.023  60.051  43.571  1.00  0.00    -0.504 OA
ATOM     31  H   UNL     1     -11.328  59.335  44.213  1.00  0.00     0.293 HD
ENDBRANCH  20  30
BRANCH  25  32
ATOM     32  C   UNL     1      -8.737  65.091  40.103  1.00  0.00     0.017 A 
ATOM     33  C   UNL     1      -7.896  66.123  40.557  1.00  0.00     0.012 A 
ATOM     34  C   UNL     1      -9.138  65.082  38.753  1.00  0.00     0.012 A 
ATOM     35  C   UNL     1      -7.449  67.112  39.676  1.00  0.00     0.001 A 
ATOM     36  C   UNL     1      -8.693  66.078  37.877  1.00  0.00     0.001 A 
ATOM     37  C   UNL     1      -7.846  67.089  38.338  1.00  0.00     0.000 A 
ENDBRANCH  25  32
ENDBRANCH   1  17
TORSDOF 9
ENDMDL
MODEL 7
REMARK VINA RESULT:    -2.631     16.680     20.519
REMARK INTER + INTRA:          -4.581
REMARK INTER:                  -3.679
REMARK INTRA:                  -0.902
REMARK UNBOUND:                -0.950
REMARK SMILES O=C([O-])[C@H]1O[C@H](Oc2cc3oc(-c4ccccc4)cc(=O)c3c(O)c2O)[C@H](O)[C@H](O)[C@H]1O
REMARK SMILES IDX 7 1 6 2 4 3 31 4 5 5 29 6 27 7 2 8 1 9 3 10 32 11 30 13
REMARK SMILES IDX 28 15 8 17 25 18 9 19 23 20 10 21 22 22 11 23 20 24 12 25
REMARK SMILES IDX 19 26 21 27 26 28 24 30 13 32 14 33 18 34 15 35 17 36 16 37
REMARK H PARENT 32 12 30 14 28 16 26 29 24 31
REMARK Flexibility Score: inf
ROOT
ATOM      1  O   UNL     1     -12.046  61.602  39.968  1.00  0.00    -0.458 OA
ENDROOT
BRANCH   1   2
ATOM      2  C   UNL     1     -13.305  61.151  40.477  1.00  0.00     0.339 C 
ATOM      3  C   UNL     1     -14.500  61.984  38.631  1.00  0.00     0.199 C 
ATOM      4  C   UNL     1     -14.855  60.572  38.103  1.00  0.00     0.180 C 
ATOM      5  O   UNL     1     -14.372  61.987  40.045  1.00  0.00    -0.328 OA
ATOM      6  C   UNL     1     -13.803  59.543  38.570  1.00  0.00     0.181 C 
ATOM      7  C   UNL     1     -13.553  59.677  40.082  1.00  0.00     0.214 C 
BRANCH   3   8
ATOM      8  C   UNL     1     -15.545  62.978  38.213  1.00  0.00     0.073 C 
ATOM      9  O   UNL     1     -15.275  64.210  38.144  1.00  0.00    -0.547 OA
ATOM     10  O   UNL     1     -16.825  62.541  37.892  1.00  0.00    -0.547 OA
ENDBRANCH   3   8
BRANCH   4  11
ATOM     11  O   UNL     1     -16.149  60.173  38.489  1.00  0.00    -0.387 OA
ATOM     12  H   UNL     1     -16.106  59.239  38.820  1.00  0.00     0.211 HD
ENDBRANCH   4  11
BRANCH   6  13
ATOM     13  O   UNL     1     -12.596  59.739  37.876  1.00  0.00    -0.387 OA
ATOM     14  H   UNL     1     -12.214  60.593  38.196  1.00  0.00     0.211 HD
ENDBRANCH   6  13
BRANCH   7  15
ATOM     15  O   UNL     1     -12.457  58.879  40.451  1.00  0.00    -0.384 OA
ATOM     16  H   UNL     1     -11.655  59.467  40.435  1.00  0.00     0.211 HD
ENDBRANCH   7  15
ENDBRANCH   1   2
BRANCH   1  17
ATOM     17  C   UNL     1     -11.219  62.595  40.527  1.00  0.00     0.172 A 
ATOM     18  C   UNL     1     -10.637  63.651  39.783  1.00  0.00     0.201 A 
ATOM     19  C   UNL     1     -10.981  62.503  41.898  1.00  0.00     0.098 A 
ATOM     20  C   UNL     1      -9.778  64.578  40.432  1.00  0.00     0.176 A 
ATOM     21  C   UNL     1     -10.151  63.413  42.547  1.00  0.00     0.146 A 
ATOM     22  C   UNL     1      -9.540  64.461  41.824  1.00  0.00     0.111 A 
ATOM     23  O   UNL     1      -9.939  63.273  43.852  1.00  0.00    -0.456 OA
ATOM     24  C   UNL     1      -8.708  65.346  42.546  1.00  0.00     0.197 A 
ATOM     25  C   UNL     1      -9.165  64.091  44.559  1.00  0.00     0.138 A 
ATOM     26  C   UNL     1      -8.522  65.158  43.916  1.00  0.00     0.100 A 
ATOM     27  O   UNL     1      -8.123  66.310  41.979  1.00  0.00    -0.289 OA
BRANCH  18  28
ATOM     28  O   UNL     1     -10.948  63.777  38.425  1.00  0.00    -0.502 OA
ATOM     29  H   UNL     1     -10.418  63.371  37.670  1.00  0.00     0.293 HD
ENDBRANCH  18  28
BRANCH  20  30
ATOM     30  O   UNL     1      -9.150  65.609  39.724  1.00  0.00    -0.504 OA
ATOM     31  H   UNL     1      -9.228  66.591  39.943  1.00  0.00     0.293 HD
ENDBRANCH  20  30
BRANCH  25  32
ATOM     32  C   UNL     1      -8.990  63.839  46.009  1.00  0.00     0.017 A 
ATOM     33  C   UNL     1      -8.925  62.515  46.479  1.00  0.00     0.012 A 
ATOM     34  C   UNL     1      -8.912  64.897  46.935  1.00  0.00     0.012 A 
ATOM     35  C   UNL     1      -8.766  62.255  47.844  1.00  0.00     0.001 A 
ATOM     36  C   UNL     1      -8.759  64.630  48.300  1.00  0.00     0.001 A 
ATOM     37  C   UNL     1      -8.682  63.311  48.753  1.00  0.00     0.000 A 
ENDBRANCH  25  32
ENDBRANCH   1  17
TORSDOF 9
ENDMDL
