MODEL 1
REMARK VINA RESULT:    11.140      0.000      0.000
REMARK INTER + INTRA:          19.280
REMARK INTER:                  16.350
REMARK INTRA:                   2.930
REMARK UNBOUND:                 2.930
REMARK SMILES C=C1CC=CC(C)(C)CC=C(C)CCC1
REMARK SMILES IDX 2 1 1 2 15 3 14 4 13 5 11 6 12 7 10 8 3 10 4 11 5 12 6 13
REMARK SMILES IDX 7 14 8 15 9 16
REMARK H PARENT
REMARK Flexibility Score: 60.00
ROOT
ATOM      1  C   UNL     1      -1.881   5.548 -11.976  1.00  0.00    -0.074 C 
ATOM      2  C   UNL     1      -2.769   4.920 -12.761  1.00  0.00     0.008 C 
ENDROOT
BRANCH   1   3
ATOM      3  C   UNL     1      -2.354   6.462 -10.868  1.00  0.00     0.031 C 
BRANCH   3   4
ATOM      4  C   UNL     1      -1.810   5.995  -9.503  1.00  0.00     0.009 C 
BRANCH   4   5
ATOM      5  C   UNL     1      -2.107   6.986  -8.358  1.00  0.00     0.030 C 
BRANCH   5   6
ATOM      6  C   UNL     1      -0.829   7.404  -7.654  1.00  0.00    -0.077 C 
ATOM      7  C   UNL     1      -0.771   8.760  -6.999  1.00  0.00     0.039 C 
ATOM      8  C   UNL     1       0.261   6.603  -7.568  1.00  0.00    -0.027 CG0
ATOM      9  G   UNL     1       0.423   5.247  -8.239  1.00  0.00     0.000 G0
ENDBRANCH   5   6
ENDBRANCH   4   5
ENDBRANCH   3   4
ENDBRANCH   1   3
BRANCH   1  10
ATOM     10  C   UNL     1      -0.404   5.252 -12.106  1.00  0.00     0.057 C 
BRANCH  10  11
ATOM     11  C   UNL     1       0.408   6.378 -11.512  1.00  0.00    -0.026 C 
ATOM     12  C   UNL     1       1.194   6.357 -10.410  1.00  0.00    -0.024 C 
BRANCH  12  13
ATOM     13  C   UNL     1       1.446   5.219  -9.412  1.00  0.00    -0.014 C 
ATOM     14  C   UNL     1       2.900   5.265  -8.874  1.00  0.00     0.016 C 
ATOM     15  C   UNL     1       1.316   3.877 -10.178  1.00  0.00     0.016 C 
BRANCH  13  16
ATOM     16  C   UNL     1       0.434   5.250  -8.222  1.00  0.00     0.038 CG0
ATOM     17  G   UNL     1       0.270   6.614  -7.570  1.00  0.00     0.000 G0
ENDBRANCH  13  16
ENDBRANCH  12  13
ENDBRANCH  10  11
ENDBRANCH   1  10
TORSDOF 0
ENDMDL
MODEL 2
REMARK VINA RESULT:    11.246      1.539      4.600
REMARK INTER + INTRA:          19.435
REMARK INTER:                  16.200
REMARK INTRA:                   3.235
REMARK UNBOUND:                 2.930
REMARK SMILES C=C1CC=CC(C)(C)CC=C(C)CCC1
REMARK SMILES IDX 2 1 1 2 15 3 14 4 13 5 11 6 12 7 10 8 3 10 4 11 5 12 6 13
REMARK SMILES IDX 7 14 8 15 9 16
REMARK H PARENT
REMARK Flexibility Score: 60.00
ROOT
ATOM      1  C   UNL     1      -0.614   7.411  -7.705  1.00  0.00    -0.074 C 
ATOM      2  C   UNL     1      -1.526   8.137  -7.040  1.00  0.00     0.008 C 
ENDROOT
BRANCH   1   3
ATOM      3  C   UNL     1       0.540   6.774  -6.965  1.00  0.00     0.031 C 
BRANCH   3   4
ATOM      4  C   UNL     1       1.135   5.607  -7.778  1.00  0.00     0.009 C 
BRANCH   4   5
ATOM      5  C   UNL     1       1.264   5.918  -9.284  1.00  0.00     0.030 C 
BRANCH   5   6
ATOM      6  C   UNL     1       1.139   4.655 -10.114  1.00  0.00    -0.077 C 
ATOM      7  C   UNL     1       1.806   3.395  -9.625  1.00  0.00     0.039 C 
ATOM      8  C   UNL     1       0.434   4.598 -11.272  1.00  0.00    -0.027 CG0
ATOM      9  G   UNL     1      -0.227   5.779 -11.967  1.00  0.00     0.000 G0
ENDBRANCH   5   6
ENDBRANCH   4   5
ENDBRANCH   3   4
ENDBRANCH   1   3
BRANCH   1  10
ATOM     10  C   UNL     1      -0.799   7.115  -9.176  1.00  0.00     0.057 C 
BRANCH  10  11
ATOM     11  C   UNL     1      -1.939   6.145  -9.373  1.00  0.00    -0.026 C 
ATOM     12  C   UNL     1      -2.340   5.540 -10.516  1.00  0.00    -0.024 C 
BRANCH  12  13
ATOM     13  C   UNL     1      -1.805   5.701 -11.946  1.00  0.00    -0.014 C 
ATOM     14  C   UNL     1      -2.395   6.967 -12.619  1.00  0.00     0.016 C 
ATOM     15  C   UNL     1      -2.312   4.496 -12.782  1.00  0.00     0.016 C 
BRANCH  13  16
ATOM     16  C   UNL     1      -0.244   5.753 -11.985  1.00  0.00     0.038 CG0
ATOM     17  G   UNL     1       0.441   4.594 -11.277  1.00  0.00     0.000 G0
ENDBRANCH  13  16
ENDBRANCH  12  13
ENDBRANCH  10  11
ENDBRANCH   1  10
TORSDOF 0
ENDMDL
MODEL 3
REMARK VINA RESULT:    11.851      1.129      4.009
REMARK INTER + INTRA:          20.324
REMARK INTER:                  16.248
REMARK INTRA:                   4.076
REMARK UNBOUND:                 2.930
REMARK SMILES C=C1CC=CC(C)(C)CC=C(C)CCC1
REMARK SMILES IDX 2 1 1 2 15 3 14 4 13 5 11 6 12 7 10 8 3 10 4 11 5 12 6 13
REMARK SMILES IDX 7 14 8 15 9 16
REMARK H PARENT
REMARK Flexibility Score: 60.00
ROOT
ATOM      1  C   UNL     1      -1.002   7.882  -7.401  1.00  0.00    -0.074 C 
ATOM      2  C   UNL     1      -1.248   9.091  -6.875  1.00  0.00     0.008 C 
ENDROOT
BRANCH   1   3
ATOM      3  C   UNL     1      -2.104   7.114  -8.095  1.00  0.00     0.031 C 
BRANCH   3   4
ATOM      4  C   UNL     1      -1.517   6.107  -9.105  1.00  0.00     0.009 C 
BRANCH   4   5
ATOM      5  C   UNL     1      -2.272   6.085 -10.451  1.00  0.00     0.030 C 
BRANCH   5   6
ATOM      6  C   UNL     1      -1.386   5.560 -11.564  1.00  0.00    -0.077 C 
ATOM      7  C   UNL     1      -2.032   4.943 -12.778  1.00  0.00     0.039 C 
ATOM      8  C   UNL     1      -0.032   5.640 -11.529  1.00  0.00    -0.027 CG0
ATOM      9  G   UNL     1       0.798   6.143 -10.358  1.00  0.00     0.000 G0
ENDBRANCH   5   6
ENDBRANCH   4   5
ENDBRANCH   3   4
ENDBRANCH   1   3
BRANCH   1  10
ATOM     10  C   UNL     1       0.405   7.330  -7.419  1.00  0.00     0.057 C 
BRANCH  10  11
ATOM     11  C   UNL     1       0.378   5.828  -7.269  1.00  0.00    -0.026 C 
ATOM     12  C   UNL     1       0.852   4.889  -8.122  1.00  0.00    -0.024 C 
BRANCH  12  13
ATOM     13  C   UNL     1       1.494   5.061  -9.506  1.00  0.00    -0.014 C 
ATOM     14  C   UNL     1       1.514   3.718 -10.279  1.00  0.00     0.016 C 
ATOM     15  C   UNL     1       2.980   5.455  -9.294  1.00  0.00     0.016 C 
BRANCH  13  16
ATOM     16  C   UNL     1       0.773   6.157 -10.353  1.00  0.00     0.038 CG0
ATOM     17  G   UNL     1      -0.025   5.619 -11.531  1.00  0.00     0.000 G0
ENDBRANCH  13  16
ENDBRANCH  12  13
ENDBRANCH  10  11
ENDBRANCH   1  10
TORSDOF 0
ENDMDL
MODEL 4
REMARK VINA RESULT:    13.933      1.041      3.416
REMARK INTER + INTRA:          23.379
REMARK INTER:                  21.430
REMARK INTRA:                   1.949
REMARK UNBOUND:                 2.930
REMARK SMILES C=C1CC=CC(C)(C)CC=C(C)CCC1
REMARK SMILES IDX 2 1 1 2 15 3 14 4 13 5 11 6 12 7 10 8 3 10 4 11 5 12 6 13
REMARK SMILES IDX 7 14 8 15 9 16
REMARK H PARENT
REMARK Flexibility Score: 60.00
ROOT
ATOM      1  C   UNL     1      -2.008   5.897 -12.173  1.00  0.00    -0.074 C 
ATOM      2  C   UNL     1      -3.206   5.498 -12.629  1.00  0.00     0.008 C 
ENDROOT
BRANCH   1   3
ATOM      3  C   UNL     1      -0.754   5.595 -12.961  1.00  0.00     0.031 C 
BRANCH   3   4
ATOM      4  C   UNL     1       0.452   5.403 -12.019  1.00  0.00     0.009 C 
BRANCH   4   5
ATOM      5  C   UNL     1       0.150   4.466 -10.829  1.00  0.00     0.030 C 
BRANCH   5   6
ATOM      6  C   UNL     1       1.259   4.524  -9.796  1.00  0.00    -0.077 C 
ATOM      7  C   UNL     1       2.131   3.311  -9.598  1.00  0.00     0.039 C 
ATOM      8  C   UNL     1       1.519   5.628  -9.053  1.00  0.00    -0.027 CG0
ATOM      9  G   UNL     1       0.696   6.908  -9.047  1.00  0.00     0.000 G0
ENDBRANCH   5   6
ENDBRANCH   4   5
ENDBRANCH   3   4
ENDBRANCH   1   3
BRANCH   1  10
ATOM     10  C   UNL     1      -1.912   6.760 -10.937  1.00  0.00     0.057 C 
BRANCH  10  11
ATOM     11  C   UNL     1      -2.234   5.947  -9.706  1.00  0.00    -0.026 C 
ATOM     12  C   UNL     1      -1.657   6.009  -8.483  1.00  0.00    -0.024 C 
BRANCH  12  13
ATOM     13  C   UNL     1      -0.480   6.868  -8.000  1.00  0.00    -0.014 C 
ATOM     14  C   UNL     1       0.033   6.381  -6.620  1.00  0.00     0.016 C 
ATOM     15  C   UNL     1      -1.004   8.310  -7.777  1.00  0.00     0.016 C 
BRANCH  13  16
ATOM     16  C   UNL     1       0.693   6.885  -9.032  1.00  0.00     0.038 CG0
ATOM     17  G   UNL     1       1.523   5.611  -9.063  1.00  0.00     0.000 G0
ENDBRANCH  13  16
ENDBRANCH  12  13
ENDBRANCH  10  11
ENDBRANCH   1  10
TORSDOF 0
ENDMDL
