MODEL 1
REMARK VINA RESULT:    -4.156      0.000      0.000
REMARK INTER + INTRA:          -7.546
REMARK INTER:                  -6.343
REMARK INTRA:                  -1.204
REMARK UNBOUND:                -1.204
REMARK SMILES CC(=O)CCC=C(C)CCC=C(C)CCC=C(C)C
REMARK SMILES IDX 10 1 11 2 12 3 13 4 14 5 15 6 16 7 18 8 17 9 19 10 9 11 7 12
REMARK SMILES IDX 6 13 8 14 5 15 4 16 2 17 3 18 1 19
REMARK H PARENT
REMARK Flexibility Score: inf
ROOT
ATOM      1  C   UNL     1      11.984   8.194   4.111  1.00  0.00     0.032 C 
ENDROOT
BRANCH   1   2
ATOM      2  C   UNL     1      12.514   8.305   2.702  1.00  0.00    -0.028 C 
ATOM      3  C   UNL     1      11.846   8.858   1.663  1.00  0.00    -0.077 C 
ATOM      4  C   UNL     1      10.503   9.523   1.834  1.00  0.00     0.039 C 
BRANCH   3   5
ATOM      5  C   UNL     1      12.481   8.846   0.288  1.00  0.00     0.034 C 
BRANCH   5   6
ATOM      6  C   UNL     1      11.514   8.319  -0.781  1.00  0.00     0.032 C 
BRANCH   6   7
ATOM      7  C   UNL     1      11.779   6.872  -1.125  1.00  0.00    -0.028 C 
ATOM      8  C   UNL     1      11.554   4.431  -0.979  1.00  0.00     0.039 C 
ATOM      9  C   UNL     1      11.143   5.820  -0.566  1.00  0.00    -0.080 C 
ATOM     10  C   UNL     1      10.027   5.999   0.438  1.00  0.00     0.039 C 
ENDBRANCH   6   7
ENDBRANCH   5   6
ENDBRANCH   3   5
ENDBRANCH   1   2
BRANCH   1  11
ATOM     11  C   UNL     1      12.745   9.123   5.068  1.00  0.00     0.034 C 
BRANCH  11  12
ATOM     12  C   UNL     1      11.803   9.960   5.917  1.00  0.00    -0.077 C 
ATOM     13  C   UNL     1      11.960  10.128   7.248  1.00  0.00    -0.028 C 
ATOM     14  C   UNL     1      10.624  10.617   5.246  1.00  0.00     0.039 C 
BRANCH  13  15
ATOM     15  C   UNL     1      13.114   9.561   8.043  1.00  0.00     0.035 C 
BRANCH  15  16
ATOM     16  C   UNL     1      12.737   9.315   9.510  1.00  0.00     0.079 C 
BRANCH  16  17
ATOM     17  C   UNL     1      12.101  10.532  10.136  1.00  0.00     0.130 C 
ATOM     18  O   UNL     1      11.025  10.423  10.705  1.00  0.00    -0.300 OA
ATOM     19  C   UNL     1      12.755  11.880  10.062  1.00  0.00     0.087 C 
ENDBRANCH  16  17
ENDBRANCH  15  16
ENDBRANCH  13  15
ENDBRANCH  11  12
ENDBRANCH   1  11
TORSDOF 9
ENDMDL
MODEL 2
REMARK VINA RESULT:    -3.906      2.774      7.493
REMARK INTER + INTRA:          -7.165
REMARK INTER:                  -5.816
REMARK INTRA:                  -1.349
REMARK UNBOUND:                -1.204
REMARK SMILES CC(=O)CCC=C(C)CCC=C(C)CCC=C(C)C
REMARK SMILES IDX 10 1 11 2 12 3 13 4 14 5 15 6 16 7 18 8 17 9 19 10 9 11 7 12
REMARK SMILES IDX 6 13 8 14 5 15 4 16 2 17 3 18 1 19
REMARK H PARENT
REMARK Flexibility Score: inf
ROOT
ATOM      1  C   UNL     1       9.742   9.968   0.702  1.00  0.00     0.032 C 
ENDROOT
BRANCH   1   2
ATOM      2  C   UNL     1      10.496   9.897   2.008  1.00  0.00    -0.028 C 
ATOM      3  C   UNL     1      11.558  10.668   2.333  1.00  0.00    -0.077 C 
ATOM      4  C   UNL     1      12.052  11.775   1.435  1.00  0.00     0.039 C 
BRANCH   3   5
ATOM      5  C   UNL     1      12.254  10.444   3.660  1.00  0.00     0.034 C 
BRANCH   5   6
ATOM      6  C   UNL     1      11.271   9.997   4.750  1.00  0.00     0.032 C 
BRANCH   6   7
ATOM      7  C   UNL     1      11.978   9.594   6.023  1.00  0.00    -0.028 C 
ATOM      8  C   UNL     1      12.696   9.758   8.365  1.00  0.00     0.039 C 
ATOM      9  C   UNL     1      11.891  10.259   7.195  1.00  0.00    -0.080 C 
ATOM     10  C   UNL     1      11.000  11.468   7.366  1.00  0.00     0.039 C 
ENDBRANCH   6   7
ENDBRANCH   5   6
ENDBRANCH   3   5
ENDBRANCH   1   2
BRANCH   1  11
ATOM     11  C   UNL     1      10.224   8.892  -0.280  1.00  0.00     0.034 C 
BRANCH  11  12
ATOM     12  C   UNL     1       9.626   7.530   0.028  1.00  0.00    -0.077 C 
ATOM     13  C   UNL     1      10.276   6.368  -0.201  1.00  0.00    -0.028 C 
ATOM     14  C   UNL     1       8.231   7.471   0.596  1.00  0.00     0.039 C 
BRANCH  13  15
ATOM     15  C   UNL     1      11.689   6.278  -0.729  1.00  0.00     0.035 C 
BRANCH  15  16
ATOM     16  C   UNL     1      12.700   5.969   0.384  1.00  0.00     0.079 C 
BRANCH  16  17
ATOM     17  C   UNL     1      12.856   7.128   1.336  1.00  0.00     0.130 C 
ATOM     18  O   UNL     1      13.124   8.237   0.897  1.00  0.00    -0.300 OA
ATOM     19  C   UNL     1      12.704   6.948   2.818  1.00  0.00     0.087 C 
ENDBRANCH  16  17
ENDBRANCH  15  16
ENDBRANCH  13  15
ENDBRANCH  11  12
ENDBRANCH   1  11
TORSDOF 9
ENDMDL
MODEL 3
REMARK VINA RESULT:    -3.641      1.532      2.038
REMARK INTER + INTRA:          -6.760
REMARK INTER:                  -5.913
REMARK INTRA:                  -0.848
REMARK UNBOUND:                -1.204
REMARK SMILES CC(=O)CCC=C(C)CCC=C(C)CCC=C(C)C
REMARK SMILES IDX 10 1 11 2 12 3 13 4 14 5 15 6 16 7 18 8 17 9 19 10 9 11 7 12
REMARK SMILES IDX 6 13 8 14 5 15 4 16 2 17 3 18 1 19
REMARK H PARENT
REMARK Flexibility Score: inf
ROOT
ATOM      1  C   UNL     1      11.739   8.860   5.291  1.00  0.00     0.032 C 
ENDROOT
BRANCH   1   2
ATOM      2  C   UNL     1      12.513   8.772   3.998  1.00  0.00    -0.028 C 
ATOM      3  C   UNL     1      12.310   9.560   2.918  1.00  0.00    -0.077 C 
ATOM      4  C   UNL     1      11.326  10.703   2.930  1.00  0.00     0.039 C 
BRANCH   3   5
ATOM      5  C   UNL     1      13.125   9.317   1.664  1.00  0.00     0.034 C 
BRANCH   5   6
ATOM      6  C   UNL     1      12.500   8.227   0.781  1.00  0.00     0.032 C 
BRANCH   6   7
ATOM      7  C   UNL     1      11.053   8.516   0.459  1.00  0.00    -0.028 C 
ATOM      8  C   UNL     1       8.649   8.069   0.233  1.00  0.00     0.039 C 
ATOM      9  C   UNL     1      10.035   7.650   0.651  1.00  0.00    -0.080 C 
ATOM     10  C   UNL     1      10.244   6.295   1.286  1.00  0.00     0.039 C 
ENDBRANCH   6   7
ENDBRANCH   5   6
ENDBRANCH   3   5
ENDBRANCH   1   2
BRANCH   1  11
ATOM     11  C   UNL     1      12.404   9.834   6.273  1.00  0.00     0.034 C 
BRANCH  11  12
ATOM     12  C   UNL     1      11.416  10.846   6.828  1.00  0.00    -0.077 C 
ATOM     13  C   UNL     1      11.728  11.726   7.805  1.00  0.00    -0.028 C 
ATOM     14  C   UNL     1      10.012  10.854   6.278  1.00  0.00     0.039 C 
BRANCH  13  15
ATOM     15  C   UNL     1      13.103  11.856   8.420  1.00  0.00     0.035 C 
BRANCH  15  16
ATOM     16  C   UNL     1      13.096  11.526   9.919  1.00  0.00     0.079 C 
BRANCH  16  17
ATOM     17  C   UNL     1      12.052  10.492  10.260  1.00  0.00     0.130 C 
ATOM     18  O   UNL     1      12.368   9.313  10.316  1.00  0.00    -0.300 OA
ATOM     19  C   UNL     1      10.625  10.879  10.518  1.00  0.00     0.087 C 
ENDBRANCH  16  17
ENDBRANCH  15  16
ENDBRANCH  13  15
ENDBRANCH  11  12
ENDBRANCH   1  11
TORSDOF 9
ENDMDL
MODEL 4
REMARK VINA RESULT:    -3.382     23.224     24.921
REMARK INTER + INTRA:          -6.365
REMARK INTER:                  -4.941
REMARK INTRA:                  -1.424
REMARK UNBOUND:                -1.204
REMARK SMILES CC(=O)CCC=C(C)CCC=C(C)CCC=C(C)C
REMARK SMILES IDX 10 1 11 2 12 3 13 4 14 5 15 6 16 7 18 8 17 9 19 10 9 11 7 12
REMARK SMILES IDX 6 13 8 14 5 15 4 16 2 17 3 18 1 19
REMARK H PARENT
REMARK Flexibility Score: inf
ROOT
ATOM      1  C   UNL     1      -2.032  -8.111  15.203  1.00  0.00     0.032 C 
ENDROOT
BRANCH   1   2
ATOM      2  C   UNL     1      -2.807  -7.481  16.335  1.00  0.00    -0.028 C 
ATOM      3  C   UNL     1      -4.156  -7.439  16.424  1.00  0.00    -0.077 C 
ATOM      4  C   UNL     1      -5.048  -8.121  15.417  1.00  0.00     0.039 C 
BRANCH   3   5
ATOM      5  C   UNL     1      -4.796  -6.719  17.592  1.00  0.00     0.034 C 
BRANCH   5   6
ATOM      6  C   UNL     1      -6.259  -6.354  17.303  1.00  0.00     0.032 C 
BRANCH   6   7
ATOM      7  C   UNL     1      -6.611  -4.973  17.806  1.00  0.00    -0.028 C 
ATOM      8  C   UNL     1      -7.036  -2.558  17.684  1.00  0.00     0.039 C 
ATOM      9  C   UNL     1      -6.726  -3.877  17.026  1.00  0.00    -0.080 C 
ATOM     10  C   UNL     1      -6.575  -3.943  15.524  1.00  0.00     0.039 C 
ENDBRANCH   6   7
ENDBRANCH   5   6
ENDBRANCH   3   5
ENDBRANCH   1   2
BRANCH   1  11
ATOM     11  C   UNL     1      -0.525  -8.115  15.493  1.00  0.00     0.034 C 
BRANCH  11  12
ATOM     12  C   UNL     1       0.218  -7.089  14.655  1.00  0.00    -0.077 C 
ATOM     13  C   UNL     1       0.897  -6.050  15.188  1.00  0.00    -0.028 C 
ATOM     14  C   UNL     1       0.179  -7.224  13.153  1.00  0.00     0.039 C 
BRANCH  13  15
ATOM     15  C   UNL     1       1.053  -5.814  16.673  1.00  0.00     0.035 C 
BRANCH  15  16
ATOM     16  C   UNL     1      -0.029  -4.875  17.223  1.00  0.00     0.079 C 
BRANCH  16  17
ATOM     17  C   UNL     1      -0.864  -5.544  18.286  1.00  0.00     0.130 C 
ATOM     18  O   UNL     1      -1.868  -4.987  18.704  1.00  0.00    -0.300 OA
ATOM     19  C   UNL     1      -0.479  -6.878  18.856  1.00  0.00     0.087 C 
ENDBRANCH  16  17
ENDBRANCH  15  16
ENDBRANCH  13  15
ENDBRANCH  11  12
ENDBRANCH   1  11
TORSDOF 9
ENDMDL
MODEL 5
REMARK VINA RESULT:    -3.240      2.958      8.060
REMARK INTER + INTRA:          -6.148
REMARK INTER:                  -5.049
REMARK INTRA:                  -1.099
REMARK UNBOUND:                -1.204
REMARK SMILES CC(=O)CCC=C(C)CCC=C(C)CCC=C(C)C
REMARK SMILES IDX 10 1 11 2 12 3 13 4 14 5 15 6 16 7 18 8 17 9 19 10 9 11 7 12
REMARK SMILES IDX 6 13 8 14 5 15 4 16 2 17 3 18 1 19
REMARK H PARENT
REMARK Flexibility Score: inf
ROOT
ATOM      1  C   UNL     1      12.082   9.061   4.019  1.00  0.00     0.032 C 
ENDROOT
BRANCH   1   2
ATOM      2  C   UNL     1      12.272  10.149   5.048  1.00  0.00    -0.028 C 
ATOM      3  C   UNL     1      11.439  10.389   6.086  1.00  0.00    -0.077 C 
ATOM      4  C   UNL     1      10.251   9.509   6.382  1.00  0.00     0.039 C 
BRANCH   3   5
ATOM      5  C   UNL     1      11.726  11.557   7.007  1.00  0.00     0.034 C 
BRANCH   5   6
ATOM      6  C   UNL     1      13.080  11.403   7.716  1.00  0.00     0.032 C 
BRANCH   6   7
ATOM      7  C   UNL     1      13.124  10.178   8.598  1.00  0.00    -0.028 C 
ATOM      8  C   UNL     1      12.559   8.739  10.505  1.00  0.00     0.039 C 
ATOM      9  C   UNL     1      12.364   9.996   9.700  1.00  0.00    -0.080 C 
ATOM     10  C   UNL     1      11.319  11.001  10.127  1.00  0.00     0.039 C 
ENDBRANCH   6   7
ENDBRANCH   5   6
ENDBRANCH   3   5
ENDBRANCH   1   2
BRANCH   1  11
ATOM     11  C   UNL     1      13.123   9.168   2.896  1.00  0.00     0.034 C 
BRANCH  11  12
ATOM     12  C   UNL     1      12.873   8.157   1.790  1.00  0.00    -0.077 C 
ATOM     13  C   UNL     1      12.649   8.507   0.504  1.00  0.00    -0.028 C 
ATOM     14  C   UNL     1      12.851   6.692   2.147  1.00  0.00     0.039 C 
BRANCH  13  15
ATOM     15  C   UNL     1      12.680   9.931  -0.003  1.00  0.00     0.035 C 
BRANCH  15  16
ATOM     16  C   UNL     1      11.287  10.425  -0.416  1.00  0.00     0.079 C 
BRANCH  16  17
ATOM     17  C   UNL     1      10.297  10.320   0.717  1.00  0.00     0.130 C 
ATOM     18  O   UNL     1       9.440   9.450   0.690  1.00  0.00    -0.300 OA
ATOM     19  C   UNL     1      10.332  11.274   1.875  1.00  0.00     0.087 C 
ENDBRANCH  16  17
ENDBRANCH  15  16
ENDBRANCH  13  15
ENDBRANCH  11  12
ENDBRANCH   1  11
TORSDOF 9
ENDMDL
MODEL 6
REMARK VINA RESULT:    -3.171      4.870      9.835
REMARK INTER + INTRA:          -6.042
REMARK INTER:                  -5.433
REMARK INTRA:                  -0.610
REMARK UNBOUND:                -1.204
REMARK SMILES CC(=O)CCC=C(C)CCC=C(C)CCC=C(C)C
REMARK SMILES IDX 10 1 11 2 12 3 13 4 14 5 15 6 16 7 18 8 17 9 19 10 9 11 7 12
REMARK SMILES IDX 6 13 8 14 5 15 4 16 2 17 3 18 1 19
REMARK H PARENT
REMARK Flexibility Score: inf
ROOT
ATOM      1  C   UNL     1      10.633   3.752  -0.908  1.00  0.00     0.032 C 
ENDROOT
BRANCH   1   2
ATOM      2  C   UNL     1      11.503   4.963  -0.674  1.00  0.00    -0.028 C 
ATOM      3  C   UNL     1      11.074   6.140  -0.165  1.00  0.00    -0.077 C 
ATOM      4  C   UNL     1       9.660   6.336   0.323  1.00  0.00     0.039 C 
BRANCH   3   5
ATOM      5  C   UNL     1      12.051   7.291  -0.041  1.00  0.00     0.034 C 
BRANCH   5   6
ATOM      6  C   UNL     1      11.378   8.552   0.517  1.00  0.00     0.032 C 
BRANCH   6   7
ATOM      7  C   UNL     1      11.607   8.710   2.002  1.00  0.00    -0.028 C 
ATOM      8  C   UNL     1      11.552   9.806   4.198  1.00  0.00     0.039 C 
ATOM      9  C   UNL     1      11.205   9.772   2.733  1.00  0.00    -0.080 C 
ATOM     10  C   UNL     1      10.405  10.904   2.130  1.00  0.00     0.039 C 
ENDBRANCH   6   7
ENDBRANCH   5   6
ENDBRANCH   3   5
ENDBRANCH   1   2
BRANCH   1  11
ATOM     11  C   UNL     1      11.480   2.490  -1.125  1.00  0.00     0.034 C 
BRANCH  11  12
ATOM     12  C   UNL     1      10.690   1.221  -0.856  1.00  0.00    -0.077 C 
ATOM     13  C   UNL     1      11.258   0.073  -0.425  1.00  0.00    -0.028 C 
ATOM     14  C   UNL     1       9.203   1.236  -1.104  1.00  0.00     0.039 C 
BRANCH  13  15
ATOM     15  C   UNL     1      12.727  -0.074  -0.100  1.00  0.00     0.035 C 
BRANCH  15  16
ATOM     16  C   UNL     1      13.119  -1.539   0.134  1.00  0.00     0.079 C 
BRANCH  16  17
ATOM     17  C   UNL     1      12.564  -2.067   1.434  1.00  0.00     0.130 C 
ATOM     18  O   UNL     1      12.552  -1.346   2.421  1.00  0.00    -0.300 OA
ATOM     19  C   UNL     1      12.038  -3.467   1.547  1.00  0.00     0.087 C 
ENDBRANCH  16  17
ENDBRANCH  15  16
ENDBRANCH  13  15
ENDBRANCH  11  12
ENDBRANCH   1  11
TORSDOF 9
ENDMDL
MODEL 7
REMARK VINA RESULT:    -3.096      4.089      7.558
REMARK INTER + INTRA:          -5.929
REMARK INTER:                  -5.058
REMARK INTRA:                  -0.871
REMARK UNBOUND:                -1.204
REMARK SMILES CC(=O)CCC=C(C)CCC=C(C)CCC=C(C)C
REMARK SMILES IDX 10 1 11 2 12 3 13 4 14 5 15 6 16 7 18 8 17 9 19 10 9 11 7 12
REMARK SMILES IDX 6 13 8 14 5 15 4 16 2 17 3 18 1 19
REMARK H PARENT
REMARK Flexibility Score: inf
ROOT
ATOM      1  C   UNL     1       9.605   4.680  -0.664  1.00  0.00     0.032 C 
ENDROOT
BRANCH   1   2
ATOM      2  C   UNL     1      10.607   3.565  -0.840  1.00  0.00    -0.028 C 
ATOM      3  C   UNL     1      10.294   2.259  -1.004  1.00  0.00    -0.077 C 
ATOM      4  C   UNL     1       8.868   1.784  -1.124  1.00  0.00     0.039 C 
BRANCH   3   5
ATOM      5  C   UNL     1      11.411   1.241  -1.110  1.00  0.00     0.034 C 
BRANCH   5   6
ATOM      6  C   UNL     1      11.455   0.314   0.113  1.00  0.00     0.032 C 
BRANCH   6   7
ATOM      7  C   UNL     1      12.021  -1.046  -0.223  1.00  0.00    -0.028 C 
ATOM      8  C   UNL     1      13.031  -3.245   0.193  1.00  0.00     0.039 C 
ATOM      9  C   UNL     1      12.445  -1.949   0.688  1.00  0.00    -0.080 C 
ATOM     10  C   UNL     1      12.327  -1.703   2.174  1.00  0.00     0.039 C 
ENDBRANCH   6   7
ENDBRANCH   5   6
ENDBRANCH   3   5
ENDBRANCH   1   2
BRANCH   1  11
ATOM     11  C   UNL     1      10.023   5.632   0.466  1.00  0.00     0.034 C 
BRANCH  11  12
ATOM     12  C   UNL     1       9.357   6.991   0.339  1.00  0.00    -0.077 C 
ATOM     13  C   UNL     1      10.048   8.151   0.283  1.00  0.00    -0.028 C 
ATOM     14  C   UNL     1       7.851   7.052   0.297  1.00  0.00     0.039 C 
BRANCH  13  15
ATOM     15  C   UNL     1      11.558   8.238   0.276  1.00  0.00     0.035 C 
BRANCH  15  16
ATOM     16  C   UNL     1      12.084   9.190   1.358  1.00  0.00     0.079 C 
BRANCH  16  17
ATOM     17  C   UNL     1      11.718   8.720   2.744  1.00  0.00     0.130 C 
ATOM     18  O   UNL     1      11.253   9.515   3.547  1.00  0.00    -0.300 OA
ATOM     19  C   UNL     1      11.927   7.295   3.165  1.00  0.00     0.087 C 
ENDBRANCH  16  17
ENDBRANCH  15  16
ENDBRANCH  13  15
ENDBRANCH  11  12
ENDBRANCH   1  11
TORSDOF 9
ENDMDL
MODEL 8
REMARK VINA RESULT:    -2.713     22.875     24.675
REMARK INTER + INTRA:          -5.343
REMARK INTER:                  -4.604
REMARK INTRA:                  -0.740
REMARK UNBOUND:                -1.204
REMARK SMILES CC(=O)CCC=C(C)CCC=C(C)CCC=C(C)C
REMARK SMILES IDX 10 1 11 2 12 3 13 4 14 5 15 6 16 7 18 8 17 9 19 10 9 11 7 12
REMARK SMILES IDX 6 13 8 14 5 15 4 16 2 17 3 18 1 19
REMARK H PARENT
REMARK Flexibility Score: inf
ROOT
ATOM      1  C   UNL     1      -2.460  -7.638  15.760  1.00  0.00     0.032 C 
ENDROOT
BRANCH   1   2
ATOM      2  C   UNL     1      -2.804  -6.488  16.674  1.00  0.00    -0.028 C 
ATOM      3  C   UNL     1      -3.260  -6.613  17.941  1.00  0.00    -0.077 C 
ATOM      4  C   UNL     1      -3.385  -7.953  18.621  1.00  0.00     0.039 C 
BRANCH   3   5
ATOM      5  C   UNL     1      -3.621  -5.366  18.722  1.00  0.00     0.034 C 
BRANCH   5   6
ATOM      6  C   UNL     1      -5.138  -5.128  18.747  1.00  0.00     0.032 C 
BRANCH   6   7
ATOM      7  C   UNL     1      -5.605  -4.311  17.565  1.00  0.00    -0.028 C 
ATOM      8  C   UNL     1      -6.628  -3.873  15.377  1.00  0.00     0.039 C 
ATOM      9  C   UNL     1      -6.272  -4.809  16.502  1.00  0.00    -0.080 C 
ATOM     10  C   UNL     1      -6.682  -6.261  16.421  1.00  0.00     0.039 C 
ENDBRANCH   6   7
ENDBRANCH   5   6
ENDBRANCH   3   5
ENDBRANCH   1   2
BRANCH   1  11
ATOM     11  C   UNL     1      -1.023  -8.125  15.992  1.00  0.00     0.034 C 
BRANCH  11  12
ATOM     12  C   UNL     1      -0.111  -7.783  14.826  1.00  0.00    -0.077 C 
ATOM     13  C   UNL     1       1.150  -7.324  14.982  1.00  0.00    -0.028 C 
ATOM     14  C   UNL     1      -0.647  -7.943  13.426  1.00  0.00     0.039 C 
BRANCH  13  15
ATOM     15  C   UNL     1       1.828  -7.153  16.323  1.00  0.00     0.035 C 
BRANCH  15  16
ATOM     16  C   UNL     1       0.899  -6.505  17.359  1.00  0.00     0.079 C 
BRANCH  16  17
ATOM     17  C   UNL     1       0.623  -5.058  17.034  1.00  0.00     0.130 C 
ATOM     18  O   UNL     1      -0.289  -4.476  17.604  1.00  0.00    -0.300 OA
ATOM     19  C   UNL     1       1.435  -4.317  16.012  1.00  0.00     0.087 C 
ENDBRANCH  16  17
ENDBRANCH  15  16
ENDBRANCH  13  15
ENDBRANCH  11  12
ENDBRANCH   1  11
TORSDOF 9
ENDMDL
MODEL 9
REMARK VINA RESULT:    -2.568     12.169     16.898
REMARK INTER + INTRA:          -5.122
REMARK INTER:                  -3.986
REMARK INTRA:                  -1.137
REMARK UNBOUND:                -1.204
REMARK SMILES CC(=O)CCC=C(C)CCC=C(C)CCC=C(C)C
REMARK SMILES IDX 10 1 11 2 12 3 13 4 14 5 15 6 16 7 18 8 17 9 19 10 9 11 7 12
REMARK SMILES IDX 6 13 8 14 5 15 4 16 2 17 3 18 1 19
REMARK H PARENT
REMARK Flexibility Score: inf
ROOT
ATOM      1  C   UNL     1       8.647  -7.052   2.329  1.00  0.00     0.032 C 
ENDROOT
BRANCH   1   2
ATOM      2  C   UNL     1      10.032  -6.463   2.448  1.00  0.00    -0.028 C 
ATOM      3  C   UNL     1      10.993  -6.904   3.292  1.00  0.00    -0.077 C 
ATOM      4  C   UNL     1      10.804  -8.125   4.157  1.00  0.00     0.039 C 
BRANCH   3   5
ATOM      5  C   UNL     1      12.320  -6.175   3.344  1.00  0.00     0.034 C 
BRANCH   5   6
ATOM      6  C   UNL     1      12.594  -5.398   2.049  1.00  0.00     0.032 C 
BRANCH   6   7
ATOM      7  C   UNL     1      12.588  -3.903   2.270  1.00  0.00    -0.028 C 
ATOM      8  C   UNL     1      12.435  -1.526   1.675  1.00  0.00     0.039 C 
ATOM      9  C   UNL     1      12.360  -2.984   1.307  1.00  0.00    -0.080 C 
ATOM     10  C   UNL     1      12.014  -3.378  -0.111  1.00  0.00     0.039 C 
ENDBRANCH   6   7
ENDBRANCH   5   6
ENDBRANCH   3   5
ENDBRANCH   1   2
BRANCH   1  11
ATOM     11  C   UNL     1       8.590  -8.125   1.233  1.00  0.00     0.034 C 
BRANCH  11  12
ATOM     12  C   UNL     1       8.907  -7.554  -0.138  1.00  0.00    -0.077 C 
ATOM     13  C   UNL     1       7.977  -7.384  -1.103  1.00  0.00    -0.028 C 
ATOM     14  C   UNL     1      10.335  -7.179  -0.447  1.00  0.00     0.039 C 
BRANCH  13  15
ATOM     15  C   UNL     1       6.505  -7.680  -0.921  1.00  0.00     0.035 C 
BRANCH  15  16
ATOM     16  C   UNL     1       5.714  -6.430  -0.510  1.00  0.00     0.079 C 
BRANCH  16  17
ATOM     17  C   UNL     1       4.892  -6.671   0.732  1.00  0.00     0.130 C 
ATOM     18  O   UNL     1       4.104  -5.817   1.108  1.00  0.00    -0.300 OA
ATOM     19  C   UNL     1       5.031  -7.936   1.527  1.00  0.00     0.087 C 
ENDBRANCH  16  17
ENDBRANCH  15  16
ENDBRANCH  13  15
ENDBRANCH  11  12
ENDBRANCH   1  11
TORSDOF 9
ENDMDL
