MODEL 1
REMARK VINA RESULT:    -5.700      0.000      0.000
REMARK INTER + INTRA:          -6.452
REMARK INTER:                  -6.033
REMARK INTRA:                  -0.419
REMARK UNBOUND:                -0.419
REMARK SMILES CC1=CC[C@@H]2[C@H]3[C@H](C(C)C)CC[C@]2(C)[C@@H]13
REMARK SMILES IDX 1 1 2 2 3 3 4 4 5 5 6 6 15 7 13 8 12 9 11 10 7 11 14 12 8 13
REMARK SMILES IDX 9 14 10 15
REMARK H PARENT
REMARK Flexibility Score: inf
ROOT
ATOM      1  C   UNL     1       5.937  -1.482  19.901  1.00  0.00     0.039 C 
ATOM      2  C   UNL     1       5.045  -2.572  19.388  1.00  0.00    -0.073 C 
ATOM      3  C   UNL     1       5.354  -3.881  19.574  1.00  0.00    -0.027 C 
ATOM      4  C   UNL     1       4.394  -4.950  19.042  1.00  0.00     0.031 C 
ATOM      5  C   UNL     1       3.185  -4.282  18.310  1.00  0.00     0.003 C 
ATOM      6  C   UNL     1       3.753  -3.191  17.371  1.00  0.00     0.004 C 
ATOM      7  C   UNL     1       3.761  -2.262  18.614  1.00  0.00     0.024 C 
ATOM      8  C   UNL     1       2.587  -3.122  19.143  1.00  0.00    -0.022 C 
ATOM      9  C   UNL     1       1.241  -2.672  18.495  1.00  0.00     0.008 C 
ATOM     10  C   UNL     1       1.423  -2.157  17.043  1.00  0.00     0.005 C 
ATOM     11  C   UNL     1       2.662  -2.782  16.334  1.00  0.00    -0.005 C 
ATOM     12  C   UNL     1       2.429  -3.311  20.671  1.00  0.00     0.012 C 
ENDROOT
BRANCH  11  13
ATOM     13  C   UNL     1       3.197  -1.881  15.178  1.00  0.00    -0.014 C 
ATOM     14  C   UNL     1       4.731  -1.946  15.082  1.00  0.00     0.007 C 
ATOM     15  C   UNL     1       2.740  -0.415  15.267  1.00  0.00     0.007 C 
ENDBRANCH  11  13
TORSDOF 1
ENDMDL
MODEL 2
REMARK VINA RESULT:    -5.487      1.998      5.433
REMARK INTER + INTRA:          -6.227
REMARK INTER:                  -5.942
REMARK INTRA:                  -0.285
REMARK UNBOUND:                -0.419
REMARK SMILES CC1=CC[C@@H]2[C@H]3[C@H](C(C)C)CC[C@]2(C)[C@@H]13
REMARK SMILES IDX 1 1 2 2 3 3 4 4 5 5 6 6 15 7 13 8 12 9 11 10 7 11 14 12 8 13
REMARK SMILES IDX 9 14 10 15
REMARK H PARENT
REMARK Flexibility Score: inf
ROOT
ATOM      1  C   UNL     1      -0.764   0.003  15.625  1.00  0.00     0.039 C 
ATOM      2  C   UNL     1       0.108  -1.075  15.055  1.00  0.00    -0.073 C 
ATOM      3  C   UNL     1      -0.333  -1.883  14.057  1.00  0.00    -0.027 C 
ATOM      4  C   UNL     1       0.610  -2.956  13.503  1.00  0.00     0.031 C 
ATOM      5  C   UNL     1       1.972  -2.932  14.268  1.00  0.00     0.003 C 
ATOM      6  C   UNL     1       1.656  -2.862  15.781  1.00  0.00     0.004 C 
ATOM      7  C   UNL     1       1.522  -1.329  15.584  1.00  0.00     0.024 C 
ATOM      8  C   UNL     1       2.520  -1.490  14.411  1.00  0.00    -0.022 C 
ATOM      9  C   UNL     1       3.986  -1.553  14.941  1.00  0.00     0.008 C 
ATOM     10  C   UNL     1       4.085  -2.230  16.335  1.00  0.00     0.005 C 
ATOM     11  C   UNL     1       2.932  -3.244  16.595  1.00  0.00    -0.005 C 
ATOM     12  C   UNL     1       2.410  -0.533  13.201  1.00  0.00     0.012 C 
ENDROOT
BRANCH  11  13
ATOM     13  C   UNL     1       2.668  -3.460  18.117  1.00  0.00    -0.014 C 
ATOM     14  C   UNL     1       3.670  -4.456  18.724  1.00  0.00     0.007 C 
ATOM     15  C   UNL     1       1.230  -3.900  18.444  1.00  0.00     0.007 C 
ENDBRANCH  11  13
TORSDOF 1
ENDMDL
MODEL 3
REMARK VINA RESULT:    -5.453      1.893      5.250
REMARK INTER + INTRA:          -6.190
REMARK INTER:                  -5.995
REMARK INTRA:                  -0.195
REMARK UNBOUND:                -0.419
REMARK SMILES CC1=CC[C@@H]2[C@H]3[C@H](C(C)C)CC[C@]2(C)[C@@H]13
REMARK SMILES IDX 1 1 2 2 3 3 4 4 5 5 6 6 15 7 13 8 12 9 11 10 7 11 14 12 8 13
REMARK SMILES IDX 9 14 10 15
REMARK H PARENT
REMARK Flexibility Score: inf
ROOT
ATOM      1  C   UNL     1      -0.836  -0.008  15.625  1.00  0.00     0.039 C 
ATOM      2  C   UNL     1       0.189  -1.084  15.433  1.00  0.00    -0.073 C 
ATOM      3  C   UNL     1       0.307  -1.743  14.251  1.00  0.00    -0.027 C 
ATOM      4  C   UNL     1       1.386  -2.820  14.109  1.00  0.00     0.031 C 
ATOM      5  C   UNL     1       2.170  -2.987  15.451  1.00  0.00     0.003 C 
ATOM      6  C   UNL     1       1.129  -3.056  16.594  1.00  0.00     0.004 C 
ATOM      7  C   UNL     1       1.134  -1.505  16.561  1.00  0.00     0.024 C 
ATOM      8  C   UNL     1       2.588  -1.617  16.039  1.00  0.00    -0.022 C 
ATOM      9  C   UNL     1       3.580  -1.852  17.221  1.00  0.00     0.008 C 
ATOM     10  C   UNL     1       2.948  -2.680  18.371  1.00  0.00     0.005 C 
ATOM     11  C   UNL     1       1.808  -3.623  17.879  1.00  0.00    -0.005 C 
ATOM     12  C   UNL     1       3.122  -0.529  15.078  1.00  0.00     0.012 C 
ENDROOT
BRANCH  11  13
ATOM     13  C   UNL     1       0.804  -3.979  19.018  1.00  0.00    -0.014 C 
ATOM     14  C   UNL     1       0.173  -2.715  19.625  1.00  0.00     0.007 C 
ATOM     15  C   UNL     1       1.410  -4.848  20.134  1.00  0.00     0.007 C 
ENDBRANCH  11  13
TORSDOF 1
ENDMDL
MODEL 4
REMARK VINA RESULT:    -5.379      1.530      4.987
REMARK INTER + INTRA:          -6.112
REMARK INTER:                  -5.891
REMARK INTRA:                  -0.221
REMARK UNBOUND:                -0.419
REMARK SMILES CC1=CC[C@@H]2[C@H]3[C@H](C(C)C)CC[C@]2(C)[C@@H]13
REMARK SMILES IDX 1 1 2 2 3 3 4 4 5 5 6 6 15 7 13 8 12 9 11 10 7 11 14 12 8 13
REMARK SMILES IDX 9 14 10 15
REMARK H PARENT
REMARK Flexibility Score: inf
ROOT
ATOM      1  C   UNL     1       1.928  -3.721  13.037  1.00  0.00     0.039 C 
ATOM      2  C   UNL     1       2.168  -2.586  13.985  1.00  0.00    -0.073 C 
ATOM      3  C   UNL     1       2.814  -1.459  13.587  1.00  0.00    -0.027 C 
ATOM      4  C   UNL     1       3.014  -0.325  14.597  1.00  0.00     0.031 C 
ATOM      5  C   UNL     1       2.428  -0.725  15.989  1.00  0.00     0.003 C 
ATOM      6  C   UNL     1       2.914  -2.161  16.305  1.00  0.00     0.004 C 
ATOM      7  C   UNL     1       1.718  -2.651  15.447  1.00  0.00     0.024 C 
ATOM      8  C   UNL     1       1.011  -1.335  15.856  1.00  0.00    -0.022 C 
ATOM      9  C   UNL     1       0.379  -1.469  17.277  1.00  0.00     0.008 C 
ATOM     10  C   UNL     1       1.201  -2.401  18.207  1.00  0.00     0.005 C 
ATOM     11  C   UNL     1       2.711  -2.453  17.824  1.00  0.00    -0.005 C 
ATOM     12  C   UNL     1       0.014  -0.684  14.868  1.00  0.00     0.012 C 
ENDROOT
BRANCH  11  13
ATOM     13  C   UNL     1       3.398  -3.767  18.310  1.00  0.00    -0.014 C 
ATOM     14  C   UNL     1       2.562  -4.468  19.394  1.00  0.00     0.007 C 
ATOM     15  C   UNL     1       4.840  -3.569  18.809  1.00  0.00     0.007 C 
ENDBRANCH  11  13
TORSDOF 1
ENDMDL
MODEL 5
REMARK VINA RESULT:    -5.257      1.685      4.350
REMARK INTER + INTRA:          -5.983
REMARK INTER:                  -5.561
REMARK INTRA:                  -0.422
REMARK UNBOUND:                -0.419
REMARK SMILES CC1=CC[C@@H]2[C@H]3[C@H](C(C)C)CC[C@]2(C)[C@@H]13
REMARK SMILES IDX 1 1 2 2 3 3 4 4 5 5 6 6 15 7 13 8 12 9 11 10 7 11 14 12 8 13
REMARK SMILES IDX 9 14 10 15
REMARK H PARENT
REMARK Flexibility Score: inf
ROOT
ATOM      1  C   UNL     1       0.499  -2.716  22.093  1.00  0.00     0.039 C 
ATOM      2  C   UNL     1       0.881  -3.378  20.804  1.00  0.00    -0.073 C 
ATOM      3  C   UNL     1       0.132  -4.380  20.277  1.00  0.00    -0.027 C 
ATOM      4  C   UNL     1       0.563  -5.006  18.947  1.00  0.00     0.031 C 
ATOM      5  C   UNL     1       1.887  -4.350  18.440  1.00  0.00     0.003 C 
ATOM      6  C   UNL     1       2.865  -4.285  19.638  1.00  0.00     0.004 C 
ATOM      7  C   UNL     1       2.141  -2.972  20.034  1.00  0.00     0.024 C 
ATOM      8  C   UNL     1       1.826  -2.804  18.527  1.00  0.00    -0.022 C 
ATOM      9  C   UNL     1       3.053  -2.204  17.773  1.00  0.00     0.008 C 
ATOM     10  C   UNL     1       4.406  -2.651  18.387  1.00  0.00     0.005 C 
ATOM     11  C   UNL     1       4.312  -4.027  19.112  1.00  0.00    -0.005 C 
ATOM     12  C   UNL     1       0.518  -2.090  18.112  1.00  0.00     0.012 C 
ENDROOT
BRANCH  11  13
ATOM     13  C   UNL     1       5.417  -4.199  20.199  1.00  0.00    -0.014 C 
ATOM     14  C   UNL     1       4.974  -5.178  21.299  1.00  0.00     0.007 C 
ATOM     15  C   UNL     1       5.880  -2.876  20.832  1.00  0.00     0.007 C 
ENDBRANCH  11  13
TORSDOF 1
ENDMDL
MODEL 6
REMARK VINA RESULT:    -5.243      1.357      3.358
REMARK INTER + INTRA:          -5.968
REMARK INTER:                  -5.676
REMARK INTRA:                  -0.292
REMARK UNBOUND:                -0.419
REMARK SMILES CC1=CC[C@@H]2[C@H]3[C@H](C(C)C)CC[C@]2(C)[C@@H]13
REMARK SMILES IDX 1 1 2 2 3 3 4 4 5 5 6 6 15 7 13 8 12 9 11 10 7 11 14 12 8 13
REMARK SMILES IDX 9 14 10 15
REMARK H PARENT
REMARK Flexibility Score: inf
ROOT
ATOM      1  C   UNL     1       4.922  -5.348  20.122  1.00  0.00     0.039 C 
ATOM      2  C   UNL     1       5.076  -3.931  19.659  1.00  0.00    -0.073 C 
ATOM      3  C   UNL     1       5.596  -2.976  20.472  1.00  0.00    -0.027 C 
ATOM      4  C   UNL     1       5.745  -1.549  19.936  1.00  0.00     0.031 C 
ATOM      5  C   UNL     1       5.203  -1.457  18.473  1.00  0.00     0.003 C 
ATOM      6  C   UNL     1       3.834  -2.176  18.437  1.00  0.00     0.004 C 
ATOM      7  C   UNL     1       4.637  -3.491  18.259  1.00  0.00     0.024 C 
ATOM      8  C   UNL     1       5.732  -2.619  17.596  1.00  0.00    -0.022 C 
ATOM      9  C   UNL     1       5.377  -2.332  16.104  1.00  0.00     0.008 C 
ATOM     10  C   UNL     1       3.846  -2.228  15.866  1.00  0.00     0.005 C 
ATOM     11  C   UNL     1       3.070  -1.770  17.137  1.00  0.00    -0.005 C 
ATOM     12  C   UNL     1       7.213  -3.042  17.740  1.00  0.00     0.012 C 
ENDROOT
BRANCH  11  13
ATOM     13  C   UNL     1       1.578  -2.226  17.114  1.00  0.00    -0.014 C 
ATOM     14  C   UNL     1       0.703  -1.240  16.323  1.00  0.00     0.007 C 
ATOM     15  C   UNL     1       0.975  -2.455  18.511  1.00  0.00     0.007 C 
ENDBRANCH  11  13
TORSDOF 1
ENDMDL
MODEL 7
REMARK VINA RESULT:    -5.099      3.419      5.786
REMARK INTER + INTRA:          -5.815
REMARK INTER:                  -5.593
REMARK INTRA:                  -0.222
REMARK UNBOUND:                -0.419
REMARK SMILES CC1=CC[C@@H]2[C@H]3[C@H](C(C)C)CC[C@]2(C)[C@@H]13
REMARK SMILES IDX 1 1 2 2 3 3 4 4 5 5 6 6 15 7 13 8 12 9 11 10 7 11 14 12 8 13
REMARK SMILES IDX 9 14 10 15
REMARK H PARENT
REMARK Flexibility Score: inf
ROOT
ATOM      1  C   UNL     1       1.834  -3.505  17.178  1.00  0.00     0.039 C 
ATOM      2  C   UNL     1       1.269  -2.491  16.229  1.00  0.00    -0.073 C 
ATOM      3  C   UNL     1       0.536  -1.439  16.677  1.00  0.00    -0.027 C 
ATOM      4  C   UNL     1      -0.000  -0.426  15.661  1.00  0.00     0.031 C 
ATOM      5  C   UNL     1       0.397  -0.847  14.209  1.00  0.00     0.003 C 
ATOM      6  C   UNL     1       0.089  -2.356  14.060  1.00  0.00     0.004 C 
ATOM      7  C   UNL     1       1.472  -2.605  14.716  1.00  0.00     0.024 C 
ATOM      8  C   UNL     1       1.893  -1.239  14.120  1.00  0.00    -0.022 C 
ATOM      9  C   UNL     1       2.290  -1.394  12.619  1.00  0.00     0.008 C 
ATOM     10  C   UNL     1       1.474  -2.500  11.899  1.00  0.00     0.005 C 
ATOM     11  C   UNL     1       0.076  -2.734  12.546  1.00  0.00    -0.005 C 
ATOM     12  C   UNL     1       2.931  -0.381  14.881  1.00  0.00     0.012 C 
ENDROOT
BRANCH  11  13
ATOM     13  C   UNL     1      -0.476  -4.164  12.258  1.00  0.00    -0.014 C 
ATOM     14  C   UNL     1      -0.346  -4.526  10.769  1.00  0.00     0.007 C 
ATOM     15  C   UNL     1      -1.927  -4.379  12.723  1.00  0.00     0.007 C 
ENDBRANCH  11  13
TORSDOF 1
ENDMDL
MODEL 8
REMARK VINA RESULT:    -5.043      4.475      6.511
REMARK INTER + INTRA:          -5.757
REMARK INTER:                  -5.481
REMARK INTRA:                  -0.277
REMARK UNBOUND:                -0.419
REMARK SMILES CC1=CC[C@@H]2[C@H]3[C@H](C(C)C)CC[C@]2(C)[C@@H]13
REMARK SMILES IDX 1 1 2 2 3 3 4 4 5 5 6 6 15 7 13 8 12 9 11 10 7 11 14 12 8 13
REMARK SMILES IDX 9 14 10 15
REMARK H PARENT
REMARK Flexibility Score: inf
ROOT
ATOM      1  C   UNL     1       3.232  -1.160  11.887  1.00  0.00     0.039 C 
ATOM      2  C   UNL     1       2.380  -1.879  12.889  1.00  0.00    -0.073 C 
ATOM      3  C   UNL     1       2.862  -2.211  14.115  1.00  0.00    -0.027 C 
ATOM      4  C   UNL     1       1.938  -2.930  15.102  1.00  0.00     0.031 C 
ATOM      5  C   UNL     1       0.540  -3.188  14.453  1.00  0.00     0.003 C 
ATOM      6  C   UNL     1       0.783  -3.761  13.036  1.00  0.00     0.004 C 
ATOM      7  C   UNL     1       0.940  -2.290  12.572  1.00  0.00     0.024 C 
ATOM      8  C   UNL     1      -0.001  -1.920  13.745  1.00  0.00    -0.022 C 
ATOM      9  C   UNL     1      -1.492  -2.156  13.350  1.00  0.00     0.008 C 
ATOM     10  C   UNL     1      -1.665  -3.347  12.369  1.00  0.00     0.005 C 
ATOM     11  C   UNL     1      -0.535  -4.410  12.508  1.00  0.00    -0.005 C 
ATOM     12  C   UNL     1       0.176  -0.550  14.442  1.00  0.00     0.012 C 
ENDROOT
BRANCH  11  13
ATOM     13  C   UNL     1      -0.347  -5.246  11.204  1.00  0.00    -0.014 C 
ATOM     14  C   UNL     1      -0.716  -4.427   9.956  1.00  0.00     0.007 C 
ATOM     15  C   UNL     1      -1.116  -6.579  11.202  1.00  0.00     0.007 C 
ENDBRANCH  11  13
TORSDOF 1
ENDMDL
MODEL 9
REMARK VINA RESULT:    -5.030      2.020      2.735
REMARK INTER + INTRA:          -5.743
REMARK INTER:                  -5.495
REMARK INTRA:                  -0.248
REMARK UNBOUND:                -0.419
REMARK SMILES CC1=CC[C@@H]2[C@H]3[C@H](C(C)C)CC[C@]2(C)[C@@H]13
REMARK SMILES IDX 1 1 2 2 3 3 4 4 5 5 6 6 15 7 13 8 12 9 11 10 7 11 14 12 8 13
REMARK SMILES IDX 9 14 10 15
REMARK H PARENT
REMARK Flexibility Score: inf
ROOT
ATOM      1  C   UNL     1       3.741  -3.442  21.843  1.00  0.00     0.039 C 
ATOM      2  C   UNL     1       2.543  -3.895  21.064  1.00  0.00    -0.073 C 
ATOM      3  C   UNL     1       1.947  -5.088  21.318  1.00  0.00    -0.027 C 
ATOM      4  C   UNL     1       0.715  -5.488  20.501  1.00  0.00     0.031 C 
ATOM      5  C   UNL     1       0.383  -4.389  19.441  1.00  0.00     0.003 C 
ATOM      6  C   UNL     1       1.707  -4.004  18.739  1.00  0.00     0.004 C 
ATOM      7  C   UNL     1       1.951  -3.047  19.935  1.00  0.00     0.024 C 
ATOM      8  C   UNL     1       0.410  -2.971  20.064  1.00  0.00    -0.022 C 
ATOM      9  C   UNL     1      -0.178  -1.954  19.037  1.00  0.00     0.008 C 
ATOM     10  C   UNL     1       0.640  -1.899  17.720  1.00  0.00     0.005 C 
ATOM     11  C   UNL     1       1.389  -3.232  17.420  1.00  0.00    -0.005 C 
ATOM     12  C   UNL     1      -0.214  -2.766  21.464  1.00  0.00     0.012 C 
ENDROOT
BRANCH  11  13
ATOM     13  C   UNL     1       2.629  -3.018  16.499  1.00  0.00    -0.014 C 
ATOM     14  C   UNL     1       3.460  -1.806  16.951  1.00  0.00     0.007 C 
ATOM     15  C   UNL     1       2.282  -2.887  15.006  1.00  0.00     0.007 C 
ENDBRANCH  11  13
TORSDOF 1
ENDMDL
