MODEL 1
REMARK VINA RESULT:    -7.082      0.000      0.000
REMARK INTER + INTRA:          -7.082
REMARK INTER:                  -7.082
REMARK INTRA:                   0.000
REMARK UNBOUND:                 0.000
REMARK SMILES C[NH+]1CCN(C2=[NH+]c3ccccc3Oc3ccc(Cl)cc32)CC1
REMARK SMILES IDX 7 1 6 2 21 3 5 4 8 5 9 6 13 7 10 8 12 9 14 10 11 11 15 12
REMARK SMILES IDX 16 13 17 14 18 15 20 16 19 17 4 18 22 19 3 20 23 21 2 22
REMARK SMILES IDX 1 23
REMARK H PARENT 7 24 2 25
REMARK Flexibility Score: inf
ROOT
ATOM      1  N   UNL     1     139.458 130.355 148.056  1.00  0.00    -0.237 N 
ATOM      2  C   UNL     1     140.503 130.584 147.306  1.00  0.00     0.286 C 
ATOM      3  C   UNL     1     141.562 131.572 147.649  1.00  0.00     0.108 A 
ATOM      4  N   UNL     1     140.625 129.858 146.068  1.00  0.00    -0.250 N 
ATOM      5  C   UNL     1     139.130 130.970 149.314  1.00  0.00     0.168 A 
ATOM      6  C   UNL     1     137.771 131.141 149.635  1.00  0.00     0.056 A 
ATOM      7  C   UNL     1     140.101 131.222 150.305  1.00  0.00     0.173 A 
ATOM      8  C   UNL     1     137.385 131.563 150.909  1.00  0.00     0.005 A 
ATOM      9  C   UNL     1     139.702 131.611 151.590  1.00  0.00     0.052 A 
ATOM     10  O   UNL     1     141.465 131.103 150.053  1.00  0.00    -0.452 OA
ATOM     11  C   UNL     1     138.351 131.791 151.889  1.00  0.00     0.004 A 
ATOM     12  C   UNL     1     142.070 131.708 148.957  1.00  0.00     0.143 A 
ATOM     13  C   UNL     1     143.210 132.487 149.186  1.00  0.00     0.049 A 
ATOM     14  C   UNL     1     143.817 133.183 148.141  1.00  0.00     0.024 A 
ATOM     15  C   UNL     1     143.291 133.098 146.852  1.00  0.00     0.042 A 
ATOM     16  C   UNL     1     142.175 132.293 146.606  1.00  0.00     0.041 A 
ATOM     17  Cl  UNL     1     144.046 133.977 145.535  1.00  0.00    -0.084 Cl
ATOM     18  C   UNL     1     139.630 130.036 145.007  1.00  0.00     0.298 C 
ATOM     19  C   UNL     1     141.867 129.156 145.738  1.00  0.00     0.298 C 
ATOM     20  C   UNL     1     139.371 128.694 144.313  1.00  0.00     0.308 C 
ATOM     21  C   UNL     1     141.541 127.841 145.020  1.00  0.00     0.308 C 
ATOM     22  N   UNL     1     140.641 128.076 143.870  1.00  0.00    -0.331 N 
ATOM     23  C   UNL     1     140.367 126.806 143.176  1.00  0.00     0.332 C 
ATOM     24  H   UNL     1     138.754 129.671 147.695  1.00  0.00     0.312 HD
ATOM     25  H   UNL     1     141.114 128.716 143.189  1.00  0.00     0.348 HD
ENDROOT
TORSDOF 0
ENDMDL
MODEL 2
REMARK VINA RESULT:    -7.072      3.744      6.152
REMARK INTER + INTRA:          -7.072
REMARK INTER:                  -7.072
REMARK INTRA:                   0.000
REMARK UNBOUND:                 0.000
REMARK SMILES C[NH+]1CCN(C2=[NH+]c3ccccc3Oc3ccc(Cl)cc32)CC1
REMARK SMILES IDX 7 1 6 2 21 3 5 4 8 5 9 6 13 7 10 8 12 9 14 10 11 11 15 12
REMARK SMILES IDX 16 13 17 14 18 15 20 16 19 17 4 18 22 19 3 20 23 21 2 22
REMARK SMILES IDX 1 23
REMARK H PARENT 7 24 2 25
REMARK Flexibility Score: inf
ROOT
ATOM      1  N   UNL     1     139.886 133.125 147.341  1.00  0.00    -0.237 N 
ATOM      2  C   UNL     1     139.025 132.619 148.184  1.00  0.00     0.286 C 
ATOM      3  C   UNL     1     139.407 131.748 149.327  1.00  0.00     0.108 A 
ATOM      4  N   UNL     1     137.627 132.899 147.978  1.00  0.00    -0.250 N 
ATOM      5  C   UNL     1     141.316 132.966 147.348  1.00  0.00     0.168 A 
ATOM      6  C   UNL     1     141.989 132.970 146.113  1.00  0.00     0.056 A 
ATOM      7  C   UNL     1     142.073 133.004 148.537  1.00  0.00     0.173 A 
ATOM      8  C   UNL     1     143.384 133.000 146.060  1.00  0.00     0.005 A 
ATOM      9  C   UNL     1     143.470 133.069 148.473  1.00  0.00     0.052 A 
ATOM     10  O   UNL     1     141.478 132.973 149.795  1.00  0.00    -0.452 OA
ATOM     11  C   UNL     1     144.125 133.058 147.240  1.00  0.00     0.004 A 
ATOM     12  C   UNL     1     140.526 132.019 150.140  1.00  0.00     0.143 A 
ATOM     13  C   UNL     1     140.717 131.304 151.329  1.00  0.00     0.049 A 
ATOM     14  C   UNL     1     139.841 130.280 151.690  1.00  0.00     0.024 A 
ATOM     15  C   UNL     1     138.759 129.969 150.867  1.00  0.00     0.042 A 
ATOM     16  C   UNL     1     138.540 130.701 149.697  1.00  0.00     0.041 A 
ATOM     17  Cl  UNL     1     137.659 128.677 151.314  1.00  0.00    -0.084 Cl
ATOM     18  C   UNL     1     136.951 132.434 146.763  1.00  0.00     0.298 C 
ATOM     19  C   UNL     1     136.801 133.400 149.079  1.00  0.00     0.298 C 
ATOM     20  C   UNL     1     135.942 133.489 146.299  1.00  0.00     0.308 C 
ATOM     21  C   UNL     1     135.795 134.425 148.543  1.00  0.00     0.308 C 
ATOM     22  N   UNL     1     135.034 133.873 147.402  1.00  0.00    -0.331 N 
ATOM     23  C   UNL     1     134.051 134.861 146.924  1.00  0.00     0.332 C 
ATOM     24  H   UNL     1     139.502 133.688 146.548  1.00  0.00     0.312 HD
ATOM     25  H   UNL     1     134.504 133.026 147.719  1.00  0.00     0.348 HD
ENDROOT
TORSDOF 0
ENDMDL
MODEL 3
REMARK VINA RESULT:    -6.892      3.418      4.636
REMARK INTER + INTRA:          -6.892
REMARK INTER:                  -6.892
REMARK INTRA:                   0.000
REMARK UNBOUND:                 0.000
REMARK SMILES C[NH+]1CCN(C2=[NH+]c3ccccc3Oc3ccc(Cl)cc32)CC1
REMARK SMILES IDX 7 1 6 2 21 3 5 4 8 5 9 6 13 7 10 8 12 9 14 10 11 11 15 12
REMARK SMILES IDX 16 13 17 14 18 15 20 16 19 17 4 18 22 19 3 20 23 21 2 22
REMARK SMILES IDX 1 23
REMARK H PARENT 7 24 2 25
REMARK Flexibility Score: inf
ROOT
ATOM      1  N   UNL     1     138.883 132.692 146.579  1.00  0.00    -0.237 N 
ATOM      2  C   UNL     1     139.125 131.743 147.442  1.00  0.00     0.286 C 
ATOM      3  C   UNL     1     138.968 131.907 148.913  1.00  0.00     0.108 A 
ATOM      4  N   UNL     1     139.597 130.475 146.946  1.00  0.00    -0.250 N 
ATOM      5  C   UNL     1     138.422 134.028 146.850  1.00  0.00     0.168 A 
ATOM      6  C   UNL     1     138.839 135.061 145.992  1.00  0.00     0.056 A 
ATOM      7  C   UNL     1     137.428 134.301 147.812  1.00  0.00     0.173 A 
ATOM      8  C   UNL     1     138.287 136.340 146.092  1.00  0.00     0.005 A 
ATOM      9  C   UNL     1     136.856 135.577 147.883  1.00  0.00     0.052 A 
ATOM     10  O   UNL     1     136.987 133.338 148.716  1.00  0.00    -0.452 OA
ATOM     11  C   UNL     1     137.290 136.596 147.033  1.00  0.00     0.004 A 
ATOM     12  C   UNL     1     137.869 132.583 149.481  1.00  0.00     0.143 A 
ATOM     13  C   UNL     1     137.649 132.521 150.863  1.00  0.00     0.049 A 
ATOM     14  C   UNL     1     138.542 131.846 151.695  1.00  0.00     0.024 A 
ATOM     15  C   UNL     1     139.661 131.218 151.148  1.00  0.00     0.042 A 
ATOM     16  C   UNL     1     139.869 131.243 149.767  1.00  0.00     0.041 A 
ATOM     17  Cl  UNL     1     140.791 130.374 152.192  1.00  0.00    -0.084 Cl
ATOM     18  C   UNL     1     140.883 130.387 146.249  1.00  0.00     0.298 C 
ATOM     19  C   UNL     1     138.949 129.229 147.361  1.00  0.00     0.298 C 
ATOM     20  C   UNL     1     140.779 129.376 145.102  1.00  0.00     0.308 C 
ATOM     21  C   UNL     1     138.906 128.252 146.180  1.00  0.00     0.308 C 
ATOM     22  N   UNL     1     140.249 128.082 145.585  1.00  0.00    -0.331 N 
ATOM     23  C   UNL     1     140.190 127.116 144.474  1.00  0.00     0.332 C 
ATOM     24  H   UNL     1     139.070 132.480 145.572  1.00  0.00     0.312 HD
ATOM     25  H   UNL     1     140.899 127.695 146.310  1.00  0.00     0.348 HD
ENDROOT
TORSDOF 0
ENDMDL
MODEL 4
REMARK VINA RESULT:    -6.684     12.694     14.196
REMARK INTER + INTRA:          -6.684
REMARK INTER:                  -6.684
REMARK INTRA:                   0.000
REMARK UNBOUND:                 0.000
REMARK SMILES C[NH+]1CCN(C2=[NH+]c3ccccc3Oc3ccc(Cl)cc32)CC1
REMARK SMILES IDX 7 1 6 2 21 3 5 4 8 5 9 6 13 7 10 8 12 9 14 10 11 11 15 12
REMARK SMILES IDX 16 13 17 14 18 15 20 16 19 17 4 18 22 19 3 20 23 21 2 22
REMARK SMILES IDX 1 23
REMARK H PARENT 7 24 2 25
REMARK Flexibility Score: inf
ROOT
ATOM      1  N   UNL     1     135.228 140.861 142.721  1.00  0.00    -0.237 N 
ATOM      2  C   UNL     1     134.101 140.355 143.146  1.00  0.00     0.286 C 
ATOM      3  C   UNL     1     132.765 140.878 142.755  1.00  0.00     0.108 A 
ATOM      4  N   UNL     1     134.156 139.245 144.064  1.00  0.00    -0.250 N 
ATOM      5  C   UNL     1     135.408 141.968 141.821  1.00  0.00     0.168 A 
ATOM      6  C   UNL     1     136.545 142.780 141.986  1.00  0.00     0.056 A 
ATOM      7  C   UNL     1     134.604 142.147 140.677  1.00  0.00     0.173 A 
ATOM      8  C   UNL     1     136.870 143.755 141.041  1.00  0.00     0.005 A 
ATOM      9  C   UNL     1     134.958 143.104 139.717  1.00  0.00     0.052 A 
ATOM     10  O   UNL     1     133.448 141.402 140.460  1.00  0.00    -0.452 OA
ATOM     11  C   UNL     1     136.081 143.912 139.902  1.00  0.00     0.004 A 
ATOM     12  C   UNL     1     132.464 141.264 141.433  1.00  0.00     0.143 A 
ATOM     13  C   UNL     1     131.140 141.538 141.069  1.00  0.00     0.049 A 
ATOM     14  C   UNL     1     130.119 141.494 142.018  1.00  0.00     0.024 A 
ATOM     15  C   UNL     1     130.413 141.165 143.340  1.00  0.00     0.042 A 
ATOM     16  C   UNL     1     131.726 140.853 143.706  1.00  0.00     0.041 A 
ATOM     17  Cl  UNL     1     129.133 141.116 144.539  1.00  0.00    -0.084 Cl
ATOM     18  C   UNL     1     134.763 139.411 145.387  1.00  0.00     0.298 C 
ATOM     19  C   UNL     1     133.375 138.033 143.808  1.00  0.00     0.298 C 
ATOM     20  C   UNL     1     135.527 138.138 145.766  1.00  0.00     0.308 C 
ATOM     21  C   UNL     1     134.181 136.801 144.237  1.00  0.00     0.308 C 
ATOM     22  N   UNL     1     134.665 136.943 145.628  1.00  0.00    -0.331 N 
ATOM     23  C   UNL     1     135.407 135.737 146.030  1.00  0.00     0.332 C 
ATOM     24  H   UNL     1     136.110 140.441 143.096  1.00  0.00     0.312 HD
ATOM     25  H   UNL     1     133.842 137.039 146.269  1.00  0.00     0.348 HD
ENDROOT
TORSDOF 0
ENDMDL
MODEL 5
REMARK VINA RESULT:    -6.560     15.044     16.278
REMARK INTER + INTRA:          -6.560
REMARK INTER:                  -6.560
REMARK INTRA:                   0.000
REMARK UNBOUND:                 0.000
REMARK SMILES C[NH+]1CCN(C2=[NH+]c3ccccc3Oc3ccc(Cl)cc32)CC1
REMARK SMILES IDX 7 1 6 2 21 3 5 4 8 5 9 6 13 7 10 8 12 9 14 10 11 11 15 12
REMARK SMILES IDX 16 13 17 14 18 15 20 16 19 17 4 18 22 19 3 20 23 21 2 22
REMARK SMILES IDX 1 23
REMARK H PARENT 7 24 2 25
REMARK Flexibility Score: inf
ROOT
ATOM      1  N   UNL     1     130.894 141.456 142.984  1.00  0.00    -0.237 N 
ATOM      2  C   UNL     1     131.499 141.367 141.829  1.00  0.00     0.286 C 
ATOM      3  C   UNL     1     130.789 141.396 140.523  1.00  0.00     0.108 A 
ATOM      4  N   UNL     1     132.931 141.204 141.822  1.00  0.00    -0.250 N 
ATOM      5  C   UNL     1     129.484 141.608 143.225  1.00  0.00     0.168 A 
ATOM      6  C   UNL     1     128.946 141.036 144.392  1.00  0.00     0.056 A 
ATOM      7  C   UNL     1     128.674 142.461 142.448  1.00  0.00     0.173 A 
ATOM      8  C   UNL     1     127.628 141.299 144.774  1.00  0.00     0.005 A 
ATOM      9  C   UNL     1     127.366 142.746 142.857  1.00  0.00     0.052 A 
ATOM     10  O   UNL     1     129.128 143.039 141.266  1.00  0.00    -0.452 OA
ATOM     11  C   UNL     1     126.841 142.160 144.010  1.00  0.00     0.004 A 
ATOM     12  C   UNL     1     129.731 142.291 140.260  1.00  0.00     0.143 A 
ATOM     13  C   UNL     1     129.244 142.434 138.955  1.00  0.00     0.049 A 
ATOM     14  C   UNL     1     129.754 141.654 137.918  1.00  0.00     0.024 A 
ATOM     15  C   UNL     1     130.764 140.728 138.176  1.00  0.00     0.042 A 
ATOM     16  C   UNL     1     131.282 140.604 139.468  1.00  0.00     0.041 A 
ATOM     17  Cl  UNL     1     131.403 139.739 136.875  1.00  0.00    -0.084 Cl
ATOM     18  C   UNL     1     133.542 140.010 142.413  1.00  0.00     0.298 C 
ATOM     19  C   UNL     1     133.771 142.073 140.995  1.00  0.00     0.298 C 
ATOM     20  C   UNL     1     134.848 140.395 143.117  1.00  0.00     0.308 C 
ATOM     21  C   UNL     1     135.072 142.393 141.741  1.00  0.00     0.308 C 
ATOM     22  N   UNL     1     135.733 141.155 142.207  1.00  0.00    -0.331 N 
ATOM     23  C   UNL     1     136.995 141.484 142.892  1.00  0.00     0.332 C 
ATOM     24  H   UNL     1     131.489 141.380 143.841  1.00  0.00     0.312 HD
ATOM     25  H   UNL     1     135.967 140.558 141.379  1.00  0.00     0.348 HD
ENDROOT
TORSDOF 0
ENDMDL
MODEL 6
REMARK VINA RESULT:    -6.483      4.099      5.913
REMARK INTER + INTRA:          -6.483
REMARK INTER:                  -6.483
REMARK INTRA:                   0.000
REMARK UNBOUND:                 0.000
REMARK SMILES C[NH+]1CCN(C2=[NH+]c3ccccc3Oc3ccc(Cl)cc32)CC1
REMARK SMILES IDX 7 1 6 2 21 3 5 4 8 5 9 6 13 7 10 8 12 9 14 10 11 11 15 12
REMARK SMILES IDX 16 13 17 14 18 15 20 16 19 17 4 18 22 19 3 20 23 21 2 22
REMARK SMILES IDX 1 23
REMARK H PARENT 7 24 2 25
REMARK Flexibility Score: inf
ROOT
ATOM      1  N   UNL     1     136.805 133.444 148.696  1.00  0.00    -0.237 N 
ATOM      2  C   UNL     1     137.965 133.125 148.188  1.00  0.00     0.286 C 
ATOM      3  C   UNL     1     138.418 133.553 146.837  1.00  0.00     0.108 A 
ATOM      4  N   UNL     1     138.844 132.290 148.967  1.00  0.00    -0.250 N 
ATOM      5  C   UNL     1     135.775 134.248 148.093  1.00  0.00     0.168 A 
ATOM      6  C   UNL     1     134.436 133.957 148.410  1.00  0.00     0.056 A 
ATOM      7  C   UNL     1     136.064 135.421 147.366  1.00  0.00     0.173 A 
ATOM      8  C   UNL     1     133.405 134.807 148.004  1.00  0.00     0.005 A 
ATOM      9  C   UNL     1     135.027 136.285 146.993  1.00  0.00     0.052 A 
ATOM     10  O   UNL     1     137.361 135.760 146.991  1.00  0.00    -0.452 OA
ATOM     11  C   UNL     1     133.701 135.975 147.302  1.00  0.00     0.004 A 
ATOM     12  C   UNL     1     138.205 134.858 146.350  1.00  0.00     0.143 A 
ATOM     13  C   UNL     1     138.838 135.278 145.173  1.00  0.00     0.049 A 
ATOM     14  C   UNL     1     139.633 134.396 144.442  1.00  0.00     0.024 A 
ATOM     15  C   UNL     1     139.809 133.086 144.887  1.00  0.00     0.042 A 
ATOM     16  C   UNL     1     139.211 132.669 146.079  1.00  0.00     0.041 A 
ATOM     17  Cl  UNL     1     140.803 131.972 143.966  1.00  0.00    -0.084 Cl
ATOM     18  C   UNL     1     138.445 130.925 149.320  1.00  0.00     0.298 C 
ATOM     19  C   UNL     1     140.239 132.680 149.183  1.00  0.00     0.298 C 
ATOM     20  C   UNL     1     138.927 130.597 150.737  1.00  0.00     0.308 C 
ATOM     21  C   UNL     1     140.667 132.297 150.605  1.00  0.00     0.308 C 
ATOM     22  N   UNL     1     140.373 130.874 150.880  1.00  0.00    -0.331 N 
ATOM     23  C   UNL     1     140.822 130.520 152.238  1.00  0.00     0.332 C 
ATOM     24  H   UNL     1     136.572 133.051 149.637  1.00  0.00     0.312 HD
ATOM     25  H   UNL     1     140.904 130.276 150.203  1.00  0.00     0.348 HD
ENDROOT
TORSDOF 0
ENDMDL
MODEL 7
REMARK VINA RESULT:    -6.403      5.964      7.977
REMARK INTER + INTRA:          -6.403
REMARK INTER:                  -6.403
REMARK INTRA:                   0.000
REMARK UNBOUND:                 0.000
REMARK SMILES C[NH+]1CCN(C2=[NH+]c3ccccc3Oc3ccc(Cl)cc32)CC1
REMARK SMILES IDX 7 1 6 2 21 3 5 4 8 5 9 6 13 7 10 8 12 9 14 10 11 11 15 12
REMARK SMILES IDX 16 13 17 14 18 15 20 16 19 17 4 18 22 19 3 20 23 21 2 22
REMARK SMILES IDX 1 23
REMARK H PARENT 7 24 2 25
REMARK Flexibility Score: inf
ROOT
ATOM      1  N   UNL     1     134.640 133.145 147.357  1.00  0.00    -0.237 N 
ATOM      2  C   UNL     1     135.626 133.967 147.598  1.00  0.00     0.286 C 
ATOM      3  C   UNL     1     135.754 135.308 146.964  1.00  0.00     0.108 A 
ATOM      4  N   UNL     1     136.660 133.543 148.506  1.00  0.00    -0.250 N 
ATOM      5  C   UNL     1     133.518 133.355 146.482  1.00  0.00     0.168 A 
ATOM      6  C   UNL     1     132.964 132.237 145.833  1.00  0.00     0.056 A 
ATOM      7  C   UNL     1     132.841 134.590 146.407  1.00  0.00     0.173 A 
ATOM      8  C   UNL     1     131.770 132.345 145.117  1.00  0.00     0.005 A 
ATOM      9  C   UNL     1     131.626 134.681 145.716  1.00  0.00     0.052 A 
ATOM     10  O   UNL     1     133.342 135.746 146.998  1.00  0.00    -0.452 OA
ATOM     11  C   UNL     1     131.097 133.565 145.065  1.00  0.00     0.004 A 
ATOM     12  C   UNL     1     134.652 136.171 146.799  1.00  0.00     0.143 A 
ATOM     13  C   UNL     1     134.857 137.499 146.404  1.00  0.00     0.049 A 
ATOM     14  C   UNL     1     136.139 137.963 146.113  1.00  0.00     0.024 A 
ATOM     15  C   UNL     1     137.231 137.102 146.222  1.00  0.00     0.042 A 
ATOM     16  C   UNL     1     137.042 135.786 146.651  1.00  0.00     0.041 A 
ATOM     17  Cl  UNL     1     138.845 137.680 145.849  1.00  0.00    -0.084 Cl
ATOM     18  C   UNL     1     137.497 132.383 148.183  1.00  0.00     0.298 C 
ATOM     19  C   UNL     1     137.075 134.405 149.614  1.00  0.00     0.298 C 
ATOM     20  C   UNL     1     137.791 131.588 149.460  1.00  0.00     0.308 C 
ATOM     21  C   UNL     1     137.383 133.548 150.848  1.00  0.00     0.308 C 
ATOM     22  N   UNL     1     138.337 132.468 150.516  1.00  0.00    -0.331 N 
ATOM     23  C   UNL     1     138.645 131.678 151.720  1.00  0.00     0.332 C 
ATOM     24  H   UNL     1     134.674 132.210 147.824  1.00  0.00     0.312 HD
ATOM     25  H   UNL     1     139.234 132.894 150.177  1.00  0.00     0.348 HD
ENDROOT
TORSDOF 0
ENDMDL
MODEL 8
REMARK VINA RESULT:    -6.364      3.456      5.236
REMARK INTER + INTRA:          -6.364
REMARK INTER:                  -6.364
REMARK INTRA:                   0.000
REMARK UNBOUND:                 0.000
REMARK SMILES C[NH+]1CCN(C2=[NH+]c3ccccc3Oc3ccc(Cl)cc32)CC1
REMARK SMILES IDX 7 1 6 2 21 3 5 4 8 5 9 6 13 7 10 8 12 9 14 10 11 11 15 12
REMARK SMILES IDX 16 13 17 14 18 15 20 16 19 17 4 18 22 19 3 20 23 21 2 22
REMARK SMILES IDX 1 23
REMARK H PARENT 7 24 2 25
REMARK Flexibility Score: inf
ROOT
ATOM      1  N   UNL     1     138.781 133.732 147.344  1.00  0.00    -0.237 N 
ATOM      2  C   UNL     1     139.486 132.878 148.038  1.00  0.00     0.286 C 
ATOM      3  C   UNL     1     138.998 132.233 149.287  1.00  0.00     0.108 A 
ATOM      4  N   UNL     1     140.817 132.566 147.585  1.00  0.00    -0.250 N 
ATOM      5  C   UNL     1     137.447 134.196 147.617  1.00  0.00     0.168 A 
ATOM      6  C   UNL     1     137.109 135.507 147.235  1.00  0.00     0.056 A 
ATOM      7  C   UNL     1     136.427 133.333 148.067  1.00  0.00     0.173 A 
ATOM      8  C   UNL     1     135.788 135.954 147.307  1.00  0.00     0.005 A 
ATOM      9  C   UNL     1     135.100 133.779 148.103  1.00  0.00     0.052 A 
ATOM     10  O   UNL     1     136.689 132.032 148.489  1.00  0.00    -0.452 OA
ATOM     11  C   UNL     1     134.782 135.088 147.734  1.00  0.00     0.004 A 
ATOM     12  C   UNL     1     137.683 131.743 149.418  1.00  0.00     0.143 A 
ATOM     13  C   UNL     1     137.338 130.951 150.520  1.00  0.00     0.049 A 
ATOM     14  C   UNL     1     138.268 130.690 151.526  1.00  0.00     0.024 A 
ATOM     15  C   UNL     1     139.558 131.214 151.432  1.00  0.00     0.042 A 
ATOM     16  C   UNL     1     139.922 131.975 150.318  1.00  0.00     0.041 A 
ATOM     17  Cl  UNL     1     140.729 130.895 152.699  1.00  0.00    -0.084 Cl
ATOM     18  C   UNL     1     141.843 133.610 147.532  1.00  0.00     0.298 C 
ATOM     19  C   UNL     1     141.241 131.172 147.436  1.00  0.00     0.298 C 
ATOM     20  C   UNL     1     142.727 133.401 146.297  1.00  0.00     0.308 C 
ATOM     21  C   UNL     1     142.145 131.037 146.206  1.00  0.00     0.308 C 
ATOM     22  N   UNL     1     143.251 132.018 146.252  1.00  0.00    -0.331 N 
ATOM     23  C   UNL     1     144.125 131.849 145.078  1.00  0.00     0.332 C 
ATOM     24  H   UNL     1     139.240 134.158 146.506  1.00  0.00     0.312 HD
ATOM     25  H   UNL     1     143.830 131.843 147.107  1.00  0.00     0.348 HD
ENDROOT
TORSDOF 0
ENDMDL
MODEL 9
REMARK VINA RESULT:    -6.323      2.635      4.724
REMARK INTER + INTRA:          -6.323
REMARK INTER:                  -6.323
REMARK INTRA:                   0.000
REMARK UNBOUND:                 0.000
REMARK SMILES C[NH+]1CCN(C2=[NH+]c3ccccc3Oc3ccc(Cl)cc32)CC1
REMARK SMILES IDX 7 1 6 2 21 3 5 4 8 5 9 6 13 7 10 8 12 9 14 10 11 11 15 12
REMARK SMILES IDX 16 13 17 14 18 15 20 16 19 17 4 18 22 19 3 20 23 21 2 22
REMARK SMILES IDX 1 23
REMARK H PARENT 7 24 2 25
REMARK Flexibility Score: inf
ROOT
ATOM      1  N   UNL     1     141.271 131.884 148.113  1.00  0.00    -0.237 N 
ATOM      2  C   UNL     1     141.291 131.340 146.926  1.00  0.00     0.286 C 
ATOM      3  C   UNL     1     140.543 130.103 146.574  1.00  0.00     0.108 A 
ATOM      4  N   UNL     1     142.104 131.956 145.908  1.00  0.00    -0.250 N 
ATOM      5  C   UNL     1     140.548 131.433 149.272  1.00  0.00     0.168 A 
ATOM      6  C   UNL     1     141.110 131.669 150.539  1.00  0.00     0.056 A 
ATOM      7  C   UNL     1     139.225 130.949 149.193  1.00  0.00     0.173 A 
ATOM      8  C   UNL     1     140.380 131.420 151.703  1.00  0.00     0.005 A 
ATOM      9  C   UNL     1     138.489 130.735 150.365  1.00  0.00     0.052 A 
ATOM     10  O   UNL     1     138.612 130.664 147.976  1.00  0.00    -0.452 OA
ATOM     11  C   UNL     1     139.066 130.960 151.616  1.00  0.00     0.004 A 
ATOM     12  C   UNL     1     139.221 129.873 147.008  1.00  0.00     0.143 A 
ATOM     13  C   UNL     1     138.485 128.809 146.474  1.00  0.00     0.049 A 
ATOM     14  C   UNL     1     139.066 127.932 145.558  1.00  0.00     0.024 A 
ATOM     15  C   UNL     1     140.390 128.119 145.161  1.00  0.00     0.042 A 
ATOM     16  C   UNL     1     141.122 129.201 145.660  1.00  0.00     0.041 A 
ATOM     17  Cl  UNL     1     141.128 127.015 144.015  1.00  0.00    -0.084 Cl
ATOM     18  C   UNL     1     143.558 132.034 146.071  1.00  0.00     0.298 C 
ATOM     19  C   UNL     1     141.539 132.262 144.592  1.00  0.00     0.298 C 
ATOM     20  C   UNL     1     144.068 133.368 145.516  1.00  0.00     0.308 C 
ATOM     21  C   UNL     1     142.111 133.589 144.081  1.00  0.00     0.308 C 
ATOM     22  N   UNL     1     143.590 133.582 144.132  1.00  0.00    -0.331 N 
ATOM     23  C   UNL     1     144.119 134.852 143.606  1.00  0.00     0.332 C 
ATOM     24  H   UNL     1     141.871 132.728 148.261  1.00  0.00     0.312 HD
ATOM     25  H   UNL     1     143.950 132.809 143.522  1.00  0.00     0.348 HD
ENDROOT
TORSDOF 0
ENDMDL
