MODEL 1
REMARK VINA RESULT:    -2.006      0.000      0.000
REMARK INTER + INTRA:          -5.164
REMARK INTER:                  -3.648
REMARK INTRA:                  -1.516
REMARK UNBOUND:                -1.516
REMARK SMILES CCCCCC=CCC=CCCCCCCCC(=O)[O-]
REMARK SMILES IDX 11 1 12 2 13 3 14 4 15 5 16 6 17 7 18 8 19 9 20 10 10 11
REMARK SMILES IDX 9 12 8 13 7 14 6 15 5 16 4 17 3 18 2 19 1 20
REMARK H PARENT
REMARK Flexibility Score: inf
ROOT
ATOM      1  C   UNL     1      28.757  16.828  11.400  1.00  0.00     0.027 C 
ENDROOT
BRANCH   1   2
ATOM      2  C   UNL     1      28.258  15.463  10.899  1.00  0.00     0.004 C 
BRANCH   2   3
ATOM      3  C   UNL     1      28.763  14.272  11.739  1.00  0.00     0.000 C 
BRANCH   3   4
ATOM      4  C   UNL     1      29.115  14.683  13.178  1.00  0.00     0.000 C 
BRANCH   4   5
ATOM      5  C   UNL     1      27.912  14.595  14.133  1.00  0.00     0.000 C 
BRANCH   5   6
ATOM      6  C   UNL     1      27.507  15.961  14.708  1.00  0.00     0.006 C 
BRANCH   6   7
ATOM      7  C   UNL     1      26.365  16.579  13.896  1.00  0.00     0.053 C 
BRANCH   7   8
ATOM      8  C   UNL     1      25.037  16.134  14.420  1.00  0.00     0.041 C 
ATOM      9  O   UNL     1      24.383  15.240  13.816  1.00  0.00    -0.550 OA
ATOM     10  O   UNL     1      24.509  16.716  15.567  1.00  0.00    -0.550 OA
ENDBRANCH   7   8
ENDBRANCH   6   7
ENDBRANCH   5   6
ENDBRANCH   4   5
ENDBRANCH   3   4
ENDBRANCH   2   3
ENDBRANCH   1   2
BRANCH   1  11
ATOM     11  C   UNL     1      28.233  17.976  10.577  1.00  0.00    -0.031 C 
ATOM     12  C   UNL     1      27.524  19.010  11.066  1.00  0.00    -0.027 C 
BRANCH  12  13
ATOM     13  C   UNL     1      27.226  19.234  12.528  1.00  0.00     0.054 C 
BRANCH  13  14
ATOM     14  C   UNL     1      28.223  20.171  13.166  1.00  0.00    -0.027 C 
ATOM     15  C   UNL     1      29.340  19.788  13.813  1.00  0.00    -0.031 C 
BRANCH  15  16
ATOM     16  C   UNL     1      29.758  18.357  14.053  1.00  0.00     0.027 C 
BRANCH  16  17
ATOM     17  C   UNL     1      30.710  18.231  15.251  1.00  0.00     0.004 C 
BRANCH  17  18
ATOM     18  C   UNL     1      31.058  19.572  15.924  1.00  0.00     0.000 C 
BRANCH  18  19
ATOM     19  C   UNL     1      30.508  19.698  17.363  1.00  0.00    -0.003 C 
ATOM     20  C   UNL     1      31.142  20.859  18.125  1.00  0.00     0.004 C 
ENDBRANCH  18  19
ENDBRANCH  17  18
ENDBRANCH  16  17
ENDBRANCH  15  16
ENDBRANCH  13  14
ENDBRANCH  12  13
ENDBRANCH   1  11
TORSDOF 14
ENDMDL
MODEL 2
REMARK VINA RESULT:    -1.958      2.511      5.698
REMARK INTER + INTRA:          -5.076
REMARK INTER:                  -3.262
REMARK INTRA:                  -1.814
REMARK UNBOUND:                -1.516
REMARK SMILES CCCCCC=CCC=CCCCCCCCC(=O)[O-]
REMARK SMILES IDX 11 1 12 2 13 3 14 4 15 5 16 6 17 7 18 8 19 9 20 10 10 11
REMARK SMILES IDX 9 12 8 13 7 14 6 15 5 16 4 17 3 18 2 19 1 20
REMARK H PARENT
REMARK Flexibility Score: inf
ROOT
ATOM      1  C   UNL     1      28.679  17.577  11.209  1.00  0.00     0.027 C 
ENDROOT
BRANCH   1   2
ATOM      2  C   UNL     1      27.866  18.854  11.474  1.00  0.00     0.004 C 
BRANCH   2   3
ATOM      3  C   UNL     1      27.602  19.120  12.971  1.00  0.00     0.000 C 
BRANCH   3   4
ATOM      4  C   UNL     1      28.682  20.013  13.603  1.00  0.00     0.000 C 
BRANCH   4   5
ATOM      5  C   UNL     1      29.991  19.255  13.881  1.00  0.00     0.000 C 
BRANCH   5   6
ATOM      6  C   UNL     1      30.136  18.837  15.352  1.00  0.00     0.006 C 
BRANCH   6   7
ATOM      7  C   UNL     1      31.187  19.695  16.064  1.00  0.00     0.053 C 
BRANCH   7   8
ATOM      8  C   UNL     1      30.799  19.938  17.489  1.00  0.00     0.041 C 
ATOM      9  O   UNL     1      30.141  19.070  18.124  1.00  0.00    -0.550 OA
ATOM     10  O   UNL     1      31.147  21.130  18.112  1.00  0.00    -0.550 OA
ENDBRANCH   7   8
ENDBRANCH   6   7
ENDBRANCH   5   6
ENDBRANCH   4   5
ENDBRANCH   3   4
ENDBRANCH   2   3
ENDBRANCH   1   2
BRANCH   1  11
ATOM     11  C   UNL     1      27.841  16.464  10.636  1.00  0.00    -0.031 C 
ATOM     12  C   UNL     1      28.172  15.160  10.665  1.00  0.00    -0.027 C 
BRANCH  12  13
ATOM     13  C   UNL     1      29.386  14.597  11.363  1.00  0.00     0.054 C 
BRANCH  13  14
ATOM     14  C   UNL     1      29.010  13.790  12.582  1.00  0.00    -0.027 C 
ATOM     15  C   UNL     1      28.687  14.308  13.782  1.00  0.00    -0.031 C 
BRANCH  15  16
ATOM     16  C   UNL     1      28.695  15.779  14.124  1.00  0.00     0.027 C 
BRANCH  16  17
ATOM     17  C   UNL     1      27.289  16.297  14.464  1.00  0.00     0.004 C 
BRANCH  17  18
ATOM     18  C   UNL     1      26.146  15.440  13.888  1.00  0.00     0.000 C 
BRANCH  18  19
ATOM     19  C   UNL     1      24.740  15.998  14.206  1.00  0.00    -0.003 C 
ATOM     20  C   UNL     1      24.703  16.752  15.532  1.00  0.00     0.004 C 
ENDBRANCH  18  19
ENDBRANCH  17  18
ENDBRANCH  16  17
ENDBRANCH  15  16
ENDBRANCH  13  14
ENDBRANCH  12  13
ENDBRANCH   1  11
TORSDOF 14
ENDMDL
MODEL 3
REMARK VINA RESULT:    -1.638      5.097      8.499
REMARK INTER + INTRA:          -4.495
REMARK INTER:                  -3.329
REMARK INTRA:                  -1.166
REMARK UNBOUND:                -1.516
REMARK SMILES CCCCCC=CCC=CCCCCCCCC(=O)[O-]
REMARK SMILES IDX 11 1 12 2 13 3 14 4 15 5 16 6 17 7 18 8 19 9 20 10 10 11
REMARK SMILES IDX 9 12 8 13 7 14 6 15 5 16 4 17 3 18 2 19 1 20
REMARK H PARENT
REMARK Flexibility Score: inf
ROOT
ATOM      1  C   UNL     1      32.552  19.349  14.633  1.00  0.00     0.027 C 
ENDROOT
BRANCH   1   2
ATOM      2  C   UNL     1      33.717  20.218  15.136  1.00  0.00     0.004 C 
BRANCH   2   3
ATOM      3  C   UNL     1      34.836  20.418  14.093  1.00  0.00     0.000 C 
BRANCH   3   4
ATOM      4  C   UNL     1      35.966  21.319  14.617  1.00  0.00     0.000 C 
BRANCH   4   5
ATOM      5  C   UNL     1      35.716  22.810  14.338  1.00  0.00     0.000 C 
BRANCH   5   6
ATOM      6  C   UNL     1      35.257  23.580  15.585  1.00  0.00     0.006 C 
BRANCH   6   7
ATOM      7  C   UNL     1      35.020  25.058  15.260  1.00  0.00     0.053 C 
BRANCH   7   8
ATOM      8  C   UNL     1      33.700  25.517  15.794  1.00  0.00     0.041 C 
ATOM      9  O   UNL     1      33.460  25.454  17.030  1.00  0.00    -0.550 OA
ATOM     10  O   UNL     1      32.726  25.998  14.927  1.00  0.00    -0.550 OA
ENDBRANCH   7   8
ENDBRANCH   6   7
ENDBRANCH   5   6
ENDBRANCH   4   5
ENDBRANCH   3   4
ENDBRANCH   2   3
ENDBRANCH   1   2
BRANCH   1  11
ATOM     11  C   UNL     1      31.313  19.495  15.479  1.00  0.00    -0.031 C 
ATOM     12  C   UNL     1      30.092  19.046  15.134  1.00  0.00    -0.027 C 
BRANCH  12  13
ATOM     13  C   UNL     1      29.790  18.242  13.894  1.00  0.00     0.054 C 
BRANCH  13  14
ATOM     14  C   UNL     1      28.541  18.729  13.199  1.00  0.00    -0.027 C 
ATOM     15  C   UNL     1      28.034  18.208  12.066  1.00  0.00    -0.031 C 
BRANCH  15  16
ATOM     16  C   UNL     1      28.655  17.083  11.272  1.00  0.00     0.027 C 
BRANCH  16  17
ATOM     17  C   UNL     1      28.020  15.725  11.608  1.00  0.00     0.004 C 
BRANCH  17  18
ATOM     18  C   UNL     1      28.852  14.863  12.576  1.00  0.00     0.000 C 
BRANCH  18  19
ATOM     19  C   UNL     1      28.209  14.715  13.973  1.00  0.00    -0.003 C 
ATOM     20  C   UNL     1      26.918  15.518  14.104  1.00  0.00     0.004 C 
ENDBRANCH  18  19
ENDBRANCH  17  18
ENDBRANCH  16  17
ENDBRANCH  15  16
ENDBRANCH  13  14
ENDBRANCH  12  13
ENDBRANCH   1  11
TORSDOF 14
ENDMDL
MODEL 4
REMARK VINA RESULT:    -1.616      2.707      5.555
REMARK INTER + INTRA:          -4.454
REMARK INTER:                  -2.574
REMARK INTRA:                  -1.881
REMARK UNBOUND:                -1.516
REMARK SMILES CCCCCC=CCC=CCCCCCCCC(=O)[O-]
REMARK SMILES IDX 11 1 12 2 13 3 14 4 15 5 16 6 17 7 18 8 19 9 20 10 10 11
REMARK SMILES IDX 9 12 8 13 7 14 6 15 5 16 4 17 3 18 2 19 1 20
REMARK H PARENT
REMARK Flexibility Score: inf
ROOT
ATOM      1  C   UNL     1      28.242  15.698  10.969  1.00  0.00     0.027 C 
ENDROOT
BRANCH   1   2
ATOM      2  C   UNL     1      28.639  17.174  11.133  1.00  0.00     0.004 C 
BRANCH   2   3
ATOM      3  C   UNL     1      27.454  18.153  10.994  1.00  0.00     0.000 C 
BRANCH   3   4
ATOM      4  C   UNL     1      27.699  19.473  11.745  1.00  0.00     0.000 C 
BRANCH   4   5
ATOM      5  C   UNL     1      27.975  19.262  13.243  1.00  0.00     0.000 C 
BRANCH   5   6
ATOM      6  C   UNL     1      29.364  19.761  13.669  1.00  0.00     0.006 C 
BRANCH   6   7
ATOM      7  C   UNL     1      30.079  18.719  14.534  1.00  0.00     0.053 C 
BRANCH   7   8
ATOM      8  C   UNL     1      31.000  19.379  15.511  1.00  0.00     0.041 C 
ATOM      9  O   UNL     1      32.212  19.561  15.217  1.00  0.00    -0.550 OA
ATOM     10  O   UNL     1      30.526  19.780  16.755  1.00  0.00    -0.550 OA
ENDBRANCH   7   8
ENDBRANCH   6   7
ENDBRANCH   5   6
ENDBRANCH   4   5
ENDBRANCH   3   4
ENDBRANCH   2   3
ENDBRANCH   1   2
BRANCH   1  11
ATOM     11  C   UNL     1      29.315  14.752  11.443  1.00  0.00    -0.031 C 
ATOM     12  C   UNL     1      29.307  14.114  12.628  1.00  0.00    -0.027 C 
BRANCH  12  13
ATOM     13  C   UNL     1      28.175  14.166  13.625  1.00  0.00     0.054 C 
BRANCH  13  14
ATOM     14  C   UNL     1      28.159  15.469  14.387  1.00  0.00    -0.027 C 
ATOM     15  C   UNL     1      27.146  16.356  14.381  1.00  0.00    -0.031 C 
BRANCH  15  16
ATOM     16  C   UNL     1      25.877  16.221  13.573  1.00  0.00     0.027 C 
BRANCH  16  17
ATOM     17  C   UNL     1      24.656  15.943  14.463  1.00  0.00     0.004 C 
BRANCH  17  18
ATOM     18  C   UNL     1      24.820  16.411  15.921  1.00  0.00     0.000 C 
BRANCH  18  19
ATOM     19  C   UNL     1      23.854  17.552  16.312  1.00  0.00    -0.003 C 
ATOM     20  C   UNL     1      23.975  17.933  17.785  1.00  0.00     0.004 C 
ENDBRANCH  18  19
ENDBRANCH  17  18
ENDBRANCH  16  17
ENDBRANCH  15  16
ENDBRANCH  13  14
ENDBRANCH  12  13
ENDBRANCH   1  11
TORSDOF 14
ENDMDL
MODEL 5
REMARK VINA RESULT:    -1.540      5.211      8.584
REMARK INTER + INTRA:          -4.317
REMARK INTER:                  -3.101
REMARK INTRA:                  -1.216
REMARK UNBOUND:                -1.516
REMARK SMILES CCCCCC=CCC=CCCCCCCCC(=O)[O-]
REMARK SMILES IDX 11 1 12 2 13 3 14 4 15 5 16 6 17 7 18 8 19 9 20 10 10 11
REMARK SMILES IDX 9 12 8 13 7 14 6 15 5 16 4 17 3 18 2 19 1 20
REMARK H PARENT
REMARK Flexibility Score: inf
ROOT
ATOM      1  C   UNL     1      32.108  18.935  15.051  1.00  0.00     0.027 C 
ENDROOT
BRANCH   1   2
ATOM      2  C   UNL     1      33.095  20.080  15.329  1.00  0.00     0.004 C 
BRANCH   2   3
ATOM      3  C   UNL     1      34.281  20.130  14.343  1.00  0.00     0.000 C 
BRANCH   3   4
ATOM      4  C   UNL     1      35.415  21.040  14.843  1.00  0.00     0.000 C 
BRANCH   4   5
ATOM      5  C   UNL     1      35.776  22.146  13.838  1.00  0.00     0.000 C 
BRANCH   5   6
ATOM      6  C   UNL     1      35.896  23.530  14.494  1.00  0.00     0.006 C 
BRANCH   6   7
ATOM      7  C   UNL     1      34.896  23.680  15.644  1.00  0.00     0.053 C 
BRANCH   7   8
ATOM      8  C   UNL     1      34.432  25.097  15.765  1.00  0.00     0.041 C 
ATOM      9  O   UNL     1      33.379  25.472  15.181  1.00  0.00    -0.550 OA
ATOM     10  O   UNL     1      35.169  26.011  16.509  1.00  0.00    -0.550 OA
ENDBRANCH   7   8
ENDBRANCH   6   7
ENDBRANCH   5   6
ENDBRANCH   4   5
ENDBRANCH   3   4
ENDBRANCH   2   3
ENDBRANCH   1   2
BRANCH   1  11
ATOM     11  C   UNL     1      30.717  19.428  14.748  1.00  0.00    -0.031 C 
ATOM     12  C   UNL     1      29.649  18.635  14.542  1.00  0.00    -0.027 C 
BRANCH  12  13
ATOM     13  C   UNL     1      29.656  17.132  14.678  1.00  0.00     0.054 C 
BRANCH  13  14
ATOM     14  C   UNL     1      28.262  16.556  14.614  1.00  0.00    -0.027 C 
ATOM     15  C   UNL     1      27.930  15.400  14.011  1.00  0.00    -0.031 C 
BRANCH  15  16
ATOM     16  C   UNL     1      28.886  14.509  13.253  1.00  0.00     0.027 C 
BRANCH  16  17
ATOM     17  C   UNL     1      28.922  14.849  11.755  1.00  0.00     0.004 C 
BRANCH  17  18
ATOM     18  C   UNL     1      27.895  15.914  11.326  1.00  0.00     0.000 C 
BRANCH  18  19
ATOM     19  C   UNL     1      28.532  17.284  10.996  1.00  0.00    -0.003 C 
ATOM     20  C   UNL     1      27.662  18.451  11.454  1.00  0.00     0.004 C 
ENDBRANCH  18  19
ENDBRANCH  17  18
ENDBRANCH  16  17
ENDBRANCH  15  16
ENDBRANCH  13  14
ENDBRANCH  12  13
ENDBRANCH   1  11
TORSDOF 14
ENDMDL
MODEL 6
REMARK VINA RESULT:    -1.441      5.339      8.840
REMARK INTER + INTRA:          -4.136
REMARK INTER:                  -2.999
REMARK INTRA:                  -1.137
REMARK UNBOUND:                -1.516
REMARK SMILES CCCCCC=CCC=CCCCCCCCC(=O)[O-]
REMARK SMILES IDX 11 1 12 2 13 3 14 4 15 5 16 6 17 7 18 8 19 9 20 10 10 11
REMARK SMILES IDX 9 12 8 13 7 14 6 15 5 16 4 17 3 18 2 19 1 20
REMARK H PARENT
REMARK Flexibility Score: inf
ROOT
ATOM      1  C   UNL     1      32.762  19.369  14.804  1.00  0.00     0.027 C 
ENDROOT
BRANCH   1   2
ATOM      2  C   UNL     1      33.887  20.330  15.221  1.00  0.00     0.004 C 
BRANCH   2   3
ATOM      3  C   UNL     1      34.982  20.503  14.148  1.00  0.00     0.000 C 
BRANCH   3   4
ATOM      4  C   UNL     1      36.056  21.518  14.573  1.00  0.00     0.000 C 
BRANCH   4   5
ATOM      5  C   UNL     1      36.008  22.815  13.747  1.00  0.00     0.000 C 
BRANCH   5   6
ATOM      6  C   UNL     1      35.968  24.077  14.622  1.00  0.00     0.006 C 
BRANCH   6   7
ATOM      7  C   UNL     1      34.666  24.143  15.427  1.00  0.00     0.053 C 
BRANCH   7   8
ATOM      8  C   UNL     1      34.950  24.339  16.883  1.00  0.00     0.041 C 
ATOM      9  O   UNL     1      35.811  23.624  17.463  1.00  0.00    -0.550 OA
ATOM     10  O   UNL     1      34.252  25.299  17.606  1.00  0.00    -0.550 OA
ENDBRANCH   7   8
ENDBRANCH   6   7
ENDBRANCH   5   6
ENDBRANCH   4   5
ENDBRANCH   3   4
ENDBRANCH   2   3
ENDBRANCH   1   2
BRANCH   1  11
ATOM     11  C   UNL     1      31.435  19.725  15.423  1.00  0.00    -0.031 C 
ATOM     12  C   UNL     1      30.287  19.052  15.219  1.00  0.00    -0.027 C 
BRANCH  12  13
ATOM     13  C   UNL     1      30.168  17.778  14.419  1.00  0.00     0.054 C 
BRANCH  13  14
ATOM     14  C   UNL     1      28.829  17.111  14.623  1.00  0.00    -0.027 C 
ATOM     15  C   UNL     1      27.824  17.106  13.728  1.00  0.00    -0.031 C 
BRANCH  15  16
ATOM     16  C   UNL     1      27.847  17.809  12.391  1.00  0.00     0.027 C 
BRANCH  16  17
ATOM     17  C   UNL     1      28.550  16.971  11.313  1.00  0.00     0.004 C 
BRANCH  17  18
ATOM     18  C   UNL     1      28.038  15.522  11.208  1.00  0.00     0.000 C 
BRANCH  18  19
ATOM     19  C   UNL     1      29.103  14.465  11.578  1.00  0.00    -0.003 C 
ATOM     20  C   UNL     1      28.887  13.889  12.975  1.00  0.00     0.004 C 
ENDBRANCH  18  19
ENDBRANCH  17  18
ENDBRANCH  16  17
ENDBRANCH  15  16
ENDBRANCH  13  14
ENDBRANCH  12  13
ENDBRANCH   1  11
TORSDOF 14
ENDMDL
MODEL 7
REMARK VINA RESULT:    -1.335      4.896      7.837
REMARK INTER + INTRA:          -3.943
REMARK INTER:                  -2.841
REMARK INTRA:                  -1.102
REMARK UNBOUND:                -1.516
REMARK SMILES CCCCCC=CCC=CCCCCCCCC(=O)[O-]
REMARK SMILES IDX 11 1 12 2 13 3 14 4 15 5 16 6 17 7 18 8 19 9 20 10 10 11
REMARK SMILES IDX 9 12 8 13 7 14 6 15 5 16 4 17 3 18 2 19 1 20
REMARK H PARENT
REMARK Flexibility Score: inf
ROOT
ATOM      1  C   UNL     1      29.793  18.800  14.321  1.00  0.00     0.027 C 
ENDROOT
BRANCH   1   2
ATOM      2  C   UNL     1      30.892  19.407  15.209  1.00  0.00     0.004 C 
BRANCH   2   3
ATOM      3  C   UNL     1      32.323  19.114  14.711  1.00  0.00     0.000 C 
BRANCH   3   4
ATOM      4  C   UNL     1      33.326  20.188  15.164  1.00  0.00     0.000 C 
BRANCH   4   5
ATOM      5  C   UNL     1      34.504  20.349  14.188  1.00  0.00     0.000 C 
BRANCH   5   6
ATOM      6  C   UNL     1      35.674  21.140  14.793  1.00  0.00     0.006 C 
BRANCH   6   7
ATOM      7  C   UNL     1      35.936  22.422  13.997  1.00  0.00     0.053 C 
BRANCH   7   8
ATOM      8  C   UNL     1      35.552  23.630  14.792  1.00  0.00     0.041 C 
ATOM      9  O   UNL     1      35.901  24.780  14.409  1.00  0.00    -0.550 OA
ATOM     10  O   UNL     1      34.822  23.489  15.967  1.00  0.00    -0.550 OA
ENDBRANCH   7   8
ENDBRANCH   6   7
ENDBRANCH   5   6
ENDBRANCH   4   5
ENDBRANCH   3   4
ENDBRANCH   2   3
ENDBRANCH   1   2
BRANCH   1  11
ATOM     11  C   UNL     1      28.975  19.849  13.613  1.00  0.00    -0.031 C 
ATOM     12  C   UNL     1      28.049  19.592  12.670  1.00  0.00    -0.027 C 
BRANCH  12  13
ATOM     13  C   UNL     1      27.614  18.211  12.245  1.00  0.00     0.054 C 
BRANCH  13  14
ATOM     14  C   UNL     1      28.521  17.640  11.181  1.00  0.00    -0.027 C 
ATOM     15  C   UNL     1      28.726  16.327  10.964  1.00  0.00    -0.031 C 
BRANCH  15  16
ATOM     16  C   UNL     1      28.124  15.207  11.779  1.00  0.00     0.027 C 
BRANCH  16  17
ATOM     17  C   UNL     1      28.598  15.241  13.240  1.00  0.00     0.004 C 
BRANCH  17  18
ATOM     18  C   UNL     1      27.472  15.044  14.272  1.00  0.00     0.000 C 
BRANCH  18  19
ATOM     19  C   UNL     1      26.072  15.417  13.733  1.00  0.00    -0.003 C 
ATOM     20  C   UNL     1      25.304  16.322  14.691  1.00  0.00     0.004 C 
ENDBRANCH  18  19
ENDBRANCH  17  18
ENDBRANCH  16  17
ENDBRANCH  15  16
ENDBRANCH  13  14
ENDBRANCH  12  13
ENDBRANCH   1  11
TORSDOF 14
ENDMDL
MODEL 8
REMARK VINA RESULT:    -1.285      1.811      2.421
REMARK INTER + INTRA:          -3.852
REMARK INTER:                  -3.076
REMARK INTRA:                  -0.776
REMARK UNBOUND:                -1.516
REMARK SMILES CCCCCC=CCC=CCCCCCCCC(=O)[O-]
REMARK SMILES IDX 11 1 12 2 13 3 14 4 15 5 16 6 17 7 18 8 19 9 20 10 10 11
REMARK SMILES IDX 9 12 8 13 7 14 6 15 5 16 4 17 3 18 2 19 1 20
REMARK H PARENT
REMARK Flexibility Score: inf
ROOT
ATOM      1  C   UNL     1      28.660  17.376  11.310  1.00  0.00     0.027 C 
ENDROOT
BRANCH   1   2
ATOM      2  C   UNL     1      28.066  16.002  10.959  1.00  0.00     0.004 C 
BRANCH   2   3
ATOM      3  C   UNL     1      29.079  14.843  11.069  1.00  0.00     0.000 C 
BRANCH   3   4
ATOM      4  C   UNL     1      28.920  14.055  12.380  1.00  0.00     0.000 C 
BRANCH   4   5
ATOM      5  C   UNL     1      28.802  14.967  13.612  1.00  0.00     0.000 C 
BRANCH   5   6
ATOM      6  C   UNL     1      27.424  14.883  14.286  1.00  0.00     0.006 C 
BRANCH   6   7
ATOM      7  C   UNL     1      26.752  16.258  14.332  1.00  0.00     0.053 C 
BRANCH   7   8
ATOM      8  C   UNL     1      25.270  16.122  14.488  1.00  0.00     0.041 C 
ATOM      9  O   UNL     1      24.664  16.769  15.386  1.00  0.00    -0.550 OA
ATOM     10  O   UNL     1      24.557  15.269  13.655  1.00  0.00    -0.550 OA
ENDBRANCH   7   8
ENDBRANCH   6   7
ENDBRANCH   5   6
ENDBRANCH   4   5
ENDBRANCH   3   4
ENDBRANCH   2   3
ENDBRANCH   1   2
BRANCH   1  11
ATOM     11  C   UNL     1      27.602  18.422  11.549  1.00  0.00    -0.031 C 
ATOM     12  C   UNL     1      27.684  19.401  12.469  1.00  0.00    -0.027 C 
BRANCH  12  13
ATOM     13  C   UNL     1      28.890  19.666  13.337  1.00  0.00     0.054 C 
BRANCH  13  14
ATOM     14  C   UNL     1      29.370  18.412  14.028  1.00  0.00    -0.027 C 
ATOM     15  C   UNL     1      30.404  18.352  14.888  1.00  0.00    -0.031 C 
BRANCH  15  16
ATOM     16  C   UNL     1      31.288  19.516  15.268  1.00  0.00     0.027 C 
BRANCH  16  17
ATOM     17  C   UNL     1      32.732  19.323  14.779  1.00  0.00     0.004 C 
BRANCH  17  18
ATOM     18  C   UNL     1      33.690  20.461  15.179  1.00  0.00     0.000 C 
BRANCH  18  19
ATOM     19  C   UNL     1      34.978  20.508  14.327  1.00  0.00    -0.003 C 
ATOM     20  C   UNL     1      35.671  21.866  14.401  1.00  0.00     0.004 C 
ENDBRANCH  18  19
ENDBRANCH  17  18
ENDBRANCH  16  17
ENDBRANCH  15  16
ENDBRANCH  13  14
ENDBRANCH  12  13
ENDBRANCH   1  11
TORSDOF 14
ENDMDL
MODEL 9
REMARK VINA RESULT:    -1.156      5.078      8.214
REMARK INTER + INTRA:          -3.618
REMARK INTER:                  -2.424
REMARK INTRA:                  -1.194
REMARK UNBOUND:                -1.516
REMARK SMILES CCCCCC=CCC=CCCCCCCCC(=O)[O-]
REMARK SMILES IDX 11 1 12 2 13 3 14 4 15 5 16 6 17 7 18 8 19 9 20 10 10 11
REMARK SMILES IDX 9 12 8 13 7 14 6 15 5 16 4 17 3 18 2 19 1 20
REMARK H PARENT
REMARK Flexibility Score: inf
ROOT
ATOM      1  C   UNL     1      30.252  18.820  14.580  1.00  0.00     0.027 C 
ENDROOT
BRANCH   1   2
ATOM      2  C   UNL     1      31.410  19.471  15.353  1.00  0.00     0.004 C 
BRANCH   2   3
ATOM      3  C   UNL     1      32.780  19.320  14.661  1.00  0.00     0.000 C 
BRANCH   3   4
ATOM      4  C   UNL     1      33.806  20.346  15.169  1.00  0.00     0.000 C 
BRANCH   4   5
ATOM      5  C   UNL     1      34.981  20.543  14.198  1.00  0.00     0.000 C 
BRANCH   5   6
ATOM      6  C   UNL     1      36.015  21.557  14.712  1.00  0.00     0.006 C 
BRANCH   6   7
ATOM      7  C   UNL     1      35.910  22.881  13.947  1.00  0.00     0.053 C 
BRANCH   7   8
ATOM      8  C   UNL     1      35.587  24.008  14.876  1.00  0.00     0.041 C 
ATOM      9  O   UNL     1      35.154  23.770  16.036  1.00  0.00    -0.550 OA
ATOM     10  O   UNL     1      35.746  25.324  14.458  1.00  0.00    -0.550 OA
ENDBRANCH   7   8
ENDBRANCH   6   7
ENDBRANCH   5   6
ENDBRANCH   4   5
ENDBRANCH   3   4
ENDBRANCH   2   3
ENDBRANCH   1   2
BRANCH   1  11
ATOM     11  C   UNL     1      29.283  19.832  14.025  1.00  0.00    -0.031 C 
ATOM     12  C   UNL     1      28.345  19.568  13.096  1.00  0.00    -0.027 C 
BRANCH  12  13
ATOM     13  C   UNL     1      28.051  18.198  12.537  1.00  0.00     0.054 C 
BRANCH  13  14
ATOM     14  C   UNL     1      27.074  17.437  13.402  1.00  0.00    -0.027 C 
ATOM     15  C   UNL     1      27.362  16.317  14.091  1.00  0.00    -0.031 C 
BRANCH  15  16
ATOM     16  C   UNL     1      28.694  15.605  14.076  1.00  0.00     0.027 C 
BRANCH  16  17
ATOM     17  C   UNL     1      28.548  14.124  13.693  1.00  0.00     0.004 C 
BRANCH  17  18
ATOM     18  C   UNL     1      28.946  13.807  12.239  1.00  0.00     0.000 C 
BRANCH  18  19
ATOM     19  C   UNL     1      29.152  15.069  11.370  1.00  0.00    -0.003 C 
ATOM     20  C   UNL     1      27.952  15.355  10.472  1.00  0.00     0.004 C 
ENDBRANCH  18  19
ENDBRANCH  17  18
ENDBRANCH  16  17
ENDBRANCH  15  16
ENDBRANCH  13  14
ENDBRANCH  12  13
ENDBRANCH   1  11
TORSDOF 14
ENDMDL
