MODEL 1
REMARK VINA RESULT:    -3.780      0.000      0.000
REMARK INTER + INTRA:          -5.153
REMARK INTER:                  -5.327
REMARK INTRA:                   0.174
REMARK UNBOUND:                 0.174
REMARK SMILES CC1=CCC(=C(C)C)C(=O)CC(C)=CCC1
REMARK SMILES IDX 12 1 14 2 13 3 15 4 16 5 2 6 1 7 3 8 11 10 9 11 10 12 5 13
REMARK SMILES IDX 6 14 7 15 8 16 4 17
REMARK H PARENT
REMARK Flexibility Score: 60.00
ROOT
ATOM      1  C   UNL     1     -20.027  -3.749   9.128  1.00  0.00    -0.070 C 
ATOM      2  C   UNL     1     -18.678  -3.693   9.066  1.00  0.00    -0.027 C 
ATOM      3  C   UNL     1     -20.761  -4.370   7.965  1.00  0.00     0.039 C 
ENDROOT
BRANCH   2   4
ATOM      4  C   UNL     1     -17.775  -3.026  10.082  1.00  0.00     0.032 C 
BRANCH   4   5
ATOM      5  C   UNL     1     -17.627  -1.499   9.914  1.00  0.00     0.034 C 
BRANCH   5   6
ATOM      6  C   UNL     1     -17.877  -0.731  11.199  1.00  0.00    -0.077 C 
ATOM      7  C   UNL     1     -16.865  -0.873  12.309  1.00  0.00     0.039 C 
ATOM      8  C   UNL     1     -18.980   0.019  11.439  1.00  0.00    -0.023 CG0
ATOM      9  G   UNL     1     -20.110   0.318  10.474  1.00  0.00     0.000 G0
ENDBRANCH   5   6
ENDBRANCH   4   5
ENDBRANCH   2   4
BRANCH   1  10
ATOM     10  C   UNL     1     -20.834  -3.139  10.256  1.00  0.00     0.111 C 
BRANCH  10  11
ATOM     11  C   UNL     1     -21.429  -1.814   9.859  1.00  0.00     0.163 C 
ATOM     12  O   UNL     1     -21.996  -1.728   8.737  1.00  0.00    -0.294 OA
BRANCH  11  13
ATOM     13  C   UNL     1     -21.315  -0.596  10.717  1.00  0.00    -0.002 C 
ATOM     14  C   UNL     1     -22.299  -0.277  11.612  1.00  0.00    -0.069 C 
ATOM     15  C   UNL     1     -22.292   1.027  12.379  1.00  0.00     0.039 C 
ATOM     16  C   UNL     1     -23.454  -1.219  11.878  1.00  0.00     0.039 C 
BRANCH  13  17
ATOM     17  C   UNL     1     -20.117   0.310  10.484  1.00  0.00     0.066 CG0
ATOM     18  G   UNL     1     -18.979   0.018  11.440  1.00  0.00     0.000 G0
ENDBRANCH  13  17
ENDBRANCH  11  13
ENDBRANCH  10  11
ENDBRANCH   1  10
TORSDOF 0
ENDMDL
MODEL 2
REMARK VINA RESULT:    -3.747      2.086      4.163
REMARK INTER + INTRA:          -5.106
REMARK INTER:                  -5.314
REMARK INTRA:                   0.208
REMARK UNBOUND:                 0.174
REMARK SMILES CC1=CCC(=C(C)C)C(=O)CC(C)=CCC1
REMARK SMILES IDX 12 1 14 2 13 3 15 4 16 5 2 6 1 7 3 8 11 10 9 11 10 12 5 13
REMARK SMILES IDX 6 14 7 15 8 16 4 17
REMARK H PARENT
REMARK Flexibility Score: 60.00
ROOT
ATOM      1  C   UNL     1     -17.594  -1.106  10.950  1.00  0.00    -0.070 C 
ATOM      2  C   UNL     1     -17.276  -2.371  10.596  1.00  0.00    -0.027 C 
ATOM      3  C   UNL     1     -17.152  -0.622  12.308  1.00  0.00     0.039 C 
ENDROOT
BRANCH   2   4
ATOM      4  C   UNL     1     -17.710  -3.068   9.324  1.00  0.00     0.032 C 
BRANCH   4   5
ATOM      5  C   UNL     1     -18.949  -3.975   9.472  1.00  0.00     0.034 C 
BRANCH   5   6
ATOM      6  C   UNL     1     -19.916  -3.860   8.308  1.00  0.00    -0.077 C 
ATOM      7  C   UNL     1     -19.627  -4.678   7.073  1.00  0.00     0.039 C 
ATOM      8  C   UNL     1     -20.980  -3.022   8.278  1.00  0.00    -0.023 CG0
ATOM      9  G   UNL     1     -21.471  -2.128   9.399  1.00  0.00     0.000 G0
ENDBRANCH   5   6
ENDBRANCH   4   5
ENDBRANCH   2   4
BRANCH   1  10
ATOM     10  C   UNL     1     -18.446  -0.193  10.092  1.00  0.00     0.111 C 
BRANCH  10  11
ATOM     11  C   UNL     1     -19.912  -0.355  10.395  1.00  0.00     0.163 C 
ATOM     12  O   UNL     1     -20.289  -0.227  11.592  1.00  0.00    -0.294 OA
BRANCH  11  13
ATOM     13  C   UNL     1     -20.911  -0.718   9.347  1.00  0.00    -0.002 C 
ATOM     14  C   UNL     1     -21.340   0.210   8.438  1.00  0.00    -0.069 C 
ATOM     15  C   UNL     1     -22.463  -0.079   7.467  1.00  0.00     0.039 C 
ATOM     16  C   UNL     1     -20.707   1.583   8.360  1.00  0.00     0.039 C 
BRANCH  13  17
ATOM     17  C   UNL     1     -21.494  -2.122   9.397  1.00  0.00     0.066 CG0
ATOM     18  G   UNL     1     -20.978  -2.999   8.274  1.00  0.00     0.000 G0
ENDBRANCH  13  17
ENDBRANCH  11  13
ENDBRANCH  10  11
ENDBRANCH   1  10
TORSDOF 0
ENDMDL
MODEL 3
REMARK VINA RESULT:    -3.637      1.717      3.715
REMARK INTER + INTRA:          -4.951
REMARK INTER:                  -5.807
REMARK INTRA:                   0.857
REMARK UNBOUND:                 0.174
REMARK SMILES CC1=CCC(=C(C)C)C(=O)CC(C)=CCC1
REMARK SMILES IDX 12 1 14 2 13 3 15 4 16 5 2 6 1 7 3 8 11 10 9 11 10 12 5 13
REMARK SMILES IDX 6 14 7 15 8 16 4 17
REMARK H PARENT
REMARK Flexibility Score: 60.00
ROOT
ATOM      1  C   UNL     1     -17.653  -1.019  10.994  1.00  0.00    -0.070 C 
ATOM      2  C   UNL     1     -17.283  -2.241  10.550  1.00  0.00    -0.027 C 
ATOM      3  C   UNL     1     -17.001  -0.496  12.249  1.00  0.00     0.039 C 
ENDROOT
BRANCH   2   4
ATOM      4  C   UNL     1     -17.888  -2.974   9.372  1.00  0.00     0.032 C 
BRANCH   4   5
ATOM      5  C   UNL     1     -18.846  -4.123   9.747  1.00  0.00     0.034 C 
BRANCH   5   6
ATOM      6  C   UNL     1     -20.303  -3.802   9.468  1.00  0.00    -0.077 C 
ATOM      7  C   UNL     1     -20.915  -4.359   8.206  1.00  0.00     0.039 C 
ATOM      8  C   UNL     1     -21.068  -2.992  10.239  1.00  0.00    -0.023 CG0
ATOM      9  G   UNL     1     -20.676  -2.340  11.550  1.00  0.00     0.000 G0
ENDBRANCH   5   6
ENDBRANCH   4   5
ENDBRANCH   2   4
BRANCH   1  10
ATOM     10  C   UNL     1     -18.750  -0.197  10.347  1.00  0.00     0.111 C 
BRANCH  10  11
ATOM     11  C   UNL     1     -19.861   0.107  11.318  1.00  0.00     0.163 C 
ATOM     12  O   UNL     1     -19.792   1.176  11.983  1.00  0.00    -0.294 OA
BRANCH  11  13
ATOM     13  C   UNL     1     -20.995  -0.834  11.559  1.00  0.00    -0.002 C 
ATOM     14  C   UNL     1     -22.243  -0.363  11.860  1.00  0.00    -0.069 C 
ATOM     15  C   UNL     1     -23.371  -1.287  12.264  1.00  0.00     0.039 C 
ATOM     16  C   UNL     1     -22.558   1.116  11.805  1.00  0.00     0.039 C 
BRANCH  13  17
ATOM     17  C   UNL     1     -20.678  -2.322  11.548  1.00  0.00     0.066 CG0
ATOM     18  G   UNL     1     -21.064  -2.983  10.241  1.00  0.00     0.000 G0
ENDBRANCH  13  17
ENDBRANCH  11  13
ENDBRANCH  10  11
ENDBRANCH   1  10
TORSDOF 0
ENDMDL
MODEL 4
REMARK VINA RESULT:    -3.499      1.486      2.155
REMARK INTER + INTRA:          -4.757
REMARK INTER:                  -4.996
REMARK INTRA:                   0.239
REMARK UNBOUND:                 0.174
REMARK SMILES CC1=CCC(=C(C)C)C(=O)CC(C)=CCC1
REMARK SMILES IDX 12 1 14 2 13 3 15 4 16 5 2 6 1 7 3 8 11 10 9 11 10 12 5 13
REMARK SMILES IDX 6 14 7 15 8 16 4 17
REMARK H PARENT
REMARK Flexibility Score: 60.00
ROOT
ATOM      1  C   UNL     1     -18.847  -3.299   8.983  1.00  0.00    -0.070 C 
ATOM      2  C   UNL     1     -17.766  -2.812   9.632  1.00  0.00    -0.027 C 
ATOM      3  C   UNL     1     -18.736  -4.667   8.356  1.00  0.00     0.039 C 
ENDROOT
BRANCH   2   4
ATOM      4  C   UNL     1     -17.649  -1.431  10.240  1.00  0.00     0.032 C 
BRANCH   4   5
ATOM      5  C   UNL     1     -18.473  -1.217  11.527  1.00  0.00     0.034 C 
BRANCH   5   6
ATOM      6  C   UNL     1     -19.336   0.030  11.482  1.00  0.00    -0.077 C 
ATOM      7  C   UNL     1     -18.640   1.362  11.346  1.00  0.00     0.039 C 
ATOM      8  C   UNL     1     -20.684   0.032  11.626  1.00  0.00    -0.023 CG0
ATOM      9  G   UNL     1     -21.591  -1.175  11.755  1.00  0.00     0.000 G0
ENDBRANCH   5   6
ENDBRANCH   4   5
ENDBRANCH   2   4
BRANCH   1  10
ATOM     10  C   UNL     1     -20.120  -2.505   8.776  1.00  0.00     0.111 C 
BRANCH  10  11
ATOM     11  C   UNL     1     -21.144  -2.812   9.837  1.00  0.00     0.163 C 
ATOM     12  O   UNL     1     -21.293  -4.014  10.189  1.00  0.00    -0.294 OA
BRANCH  11  13
ATOM     13  C   UNL     1     -22.021  -1.761  10.433  1.00  0.00    -0.002 C 
ATOM     14  C   UNL     1     -23.112  -1.293   9.753  1.00  0.00    -0.069 C 
ATOM     15  C   UNL     1     -23.927  -0.121  10.256  1.00  0.00     0.039 C 
ATOM     16  C   UNL     1     -23.559  -1.928   8.454  1.00  0.00     0.039 C 
BRANCH  13  17
ATOM     17  C   UNL     1     -21.596  -1.175  11.770  1.00  0.00     0.066 CG0
ATOM     18  G   UNL     1     -20.703   0.039  11.609  1.00  0.00     0.000 G0
ENDBRANCH  13  17
ENDBRANCH  11  13
ENDBRANCH  10  11
ENDBRANCH   1  10
TORSDOF 0
ENDMDL
MODEL 5
REMARK VINA RESULT:    -3.354      2.121      4.025
REMARK INTER + INTRA:          -4.553
REMARK INTER:                  -4.806
REMARK INTRA:                   0.253
REMARK UNBOUND:                 0.174
REMARK SMILES CC1=CCC(=C(C)C)C(=O)CC(C)=CCC1
REMARK SMILES IDX 12 1 14 2 13 3 15 4 16 5 2 6 1 7 3 8 11 10 9 11 10 12 5 13
REMARK SMILES IDX 6 14 7 15 8 16 4 17
REMARK H PARENT
REMARK Flexibility Score: 60.00
ROOT
ATOM      1  C   UNL     1     -18.729  -2.332  10.194  1.00  0.00    -0.070 C 
ATOM      2  C   UNL     1     -18.602  -3.349   9.312  1.00  0.00    -0.027 C 
ATOM      3  C   UNL     1     -17.579  -1.365  10.326  1.00  0.00     0.039 C 
ENDROOT
BRANCH   2   4
ATOM      4  C   UNL     1     -19.598  -4.470   9.107  1.00  0.00     0.032 C 
BRANCH   4   5
ATOM      5  C   UNL     1     -21.044  -4.009   8.831  1.00  0.00     0.034 C 
BRANCH   5   6
ATOM      6  C   UNL     1     -21.161  -3.103   7.620  1.00  0.00    -0.077 C 
ATOM      7  C   UNL     1     -20.725  -3.656   6.285  1.00  0.00     0.039 C 
ATOM      8  C   UNL     1     -21.566  -1.810   7.668  1.00  0.00    -0.023 CG0
ATOM      9  G   UNL     1     -22.064  -1.053   8.883  1.00  0.00     0.000 G0
ENDBRANCH   5   6
ENDBRANCH   4   5
ENDBRANCH   2   4
BRANCH   1  10
ATOM     10  C   UNL     1     -19.922  -2.174  11.113  1.00  0.00     0.111 C 
BRANCH  10  11
ATOM     11  C   UNL     1     -20.577  -0.828  10.947  1.00  0.00     0.163 C 
ATOM     12  O   UNL     1     -20.826  -0.156  11.985  1.00  0.00    -0.294 OA
BRANCH  11  13
ATOM     13  C   UNL     1     -20.990  -0.297   9.614  1.00  0.00    -0.002 C 
ATOM     14  C   UNL     1     -20.461   0.868   9.130  1.00  0.00    -0.069 C 
ATOM     15  C   UNL     1     -20.972   1.514   7.861  1.00  0.00     0.039 C 
ATOM     16  C   UNL     1     -19.331   1.574   9.848  1.00  0.00     0.039 C 
BRANCH  13  17
ATOM     17  C   UNL     1     -22.083  -1.051   8.873  1.00  0.00     0.066 CG0
ATOM     18  G   UNL     1     -21.547  -1.815   7.679  1.00  0.00     0.000 G0
ENDBRANCH  13  17
ENDBRANCH  11  13
ENDBRANCH  10  11
ENDBRANCH   1  10
TORSDOF 0
ENDMDL
MODEL 6
REMARK VINA RESULT:    -3.131      1.760      4.764
REMARK INTER + INTRA:          -4.238
REMARK INTER:                  -4.728
REMARK INTRA:                   0.490
REMARK UNBOUND:                 0.174
REMARK SMILES CC1=CCC(=C(C)C)C(=O)CC(C)=CCC1
REMARK SMILES IDX 12 1 14 2 13 3 15 4 16 5 2 6 1 7 3 8 11 10 9 11 10 12 5 13
REMARK SMILES IDX 6 14 7 15 8 16 4 17
REMARK H PARENT
REMARK Flexibility Score: 60.00
ROOT
ATOM      1  C   UNL     1     -18.052  -0.603  11.064  1.00  0.00    -0.070 C 
ATOM      2  C   UNL     1     -19.058   0.261  11.325  1.00  0.00    -0.027 C 
ATOM      3  C   UNL     1     -16.951  -0.732  12.086  1.00  0.00     0.039 C 
ENDROOT
BRANCH   2   4
ATOM      4  C   UNL     1     -20.196   0.601  10.386  1.00  0.00     0.032 C 
BRANCH   4   5
ATOM      5  C   UNL     1     -21.606   0.338  10.956  1.00  0.00     0.034 C 
BRANCH   5   6
ATOM      6  C   UNL     1     -21.824  -1.107  11.368  1.00  0.00    -0.077 C 
ATOM      7  C   UNL     1     -22.276  -1.372  12.782  1.00  0.00     0.039 C 
ATOM      8  C   UNL     1     -21.573  -2.175  10.572  1.00  0.00    -0.023 CG0
ATOM      9  G   UNL     1     -21.133  -2.150   9.122  1.00  0.00     0.000 G0
ENDBRANCH   5   6
ENDBRANCH   4   5
ENDBRANCH   2   4
BRANCH   1  10
ATOM     10  C   UNL     1     -17.931  -1.370   9.763  1.00  0.00     0.111 C 
BRANCH  10  11
ATOM     11  C   UNL     1     -18.703  -2.663   9.808  1.00  0.00     0.163 C 
ATOM     12  O   UNL     1     -18.326  -3.552  10.618  1.00  0.00    -0.294 OA
BRANCH  11  13
ATOM     13  C   UNL     1     -19.847  -2.945   8.890  1.00  0.00    -0.002 C 
ATOM     14  C   UNL     1     -19.705  -3.813   7.842  1.00  0.00    -0.069 C 
ATOM     15  C   UNL     1     -20.790  -4.000   6.805  1.00  0.00     0.039 C 
ATOM     16  C   UNL     1     -18.444  -4.632   7.666  1.00  0.00     0.039 C 
BRANCH  13  17
ATOM     17  C   UNL     1     -21.130  -2.161   9.116  1.00  0.00     0.066 CG0
ATOM     18  G   UNL     1     -21.574  -2.188  10.564  1.00  0.00     0.000 G0
ENDBRANCH  13  17
ENDBRANCH  11  13
ENDBRANCH  10  11
ENDBRANCH   1  10
TORSDOF 0
ENDMDL
MODEL 7
REMARK VINA RESULT:    -2.976     13.589     14.773
REMARK INTER + INTRA:          -4.020
REMARK INTER:                  -4.227
REMARK INTRA:                   0.207
REMARK UNBOUND:                 0.174
REMARK SMILES CC1=CCC(=C(C)C)C(=O)CC(C)=CCC1
REMARK SMILES IDX 12 1 14 2 13 3 15 4 16 5 2 6 1 7 3 8 11 10 9 11 10 12 5 13
REMARK SMILES IDX 6 14 7 15 8 16 4 17
REMARK H PARENT
REMARK Flexibility Score: 60.00
ROOT
ATOM      1  C   UNL     1      -5.365  -3.592  10.998  1.00  0.00    -0.070 C 
ATOM      2  C   UNL     1      -5.182  -4.132   9.773  1.00  0.00    -0.027 C 
ATOM      3  C   UNL     1      -4.191  -3.576  11.945  1.00  0.00     0.039 C 
ENDROOT
BRANCH   2   4
ATOM      4  C   UNL     1      -6.255  -4.327   8.724  1.00  0.00     0.032 C 
BRANCH   4   5
ATOM      5  C   UNL     1      -6.854  -3.022   8.159  1.00  0.00     0.034 C 
BRANCH   5   6
ATOM      6  C   UNL     1      -5.805  -1.970   7.849  1.00  0.00    -0.077 C 
ATOM      7  C   UNL     1      -4.821  -2.265   6.744  1.00  0.00     0.039 C 
ATOM      8  C   UNL     1      -5.652  -0.815   8.543  1.00  0.00    -0.023 CG0
ATOM      9  G   UNL     1      -6.526  -0.304   9.670  1.00  0.00     0.000 G0
ENDBRANCH   5   6
ENDBRANCH   4   5
ENDBRANCH   2   4
BRANCH   1  10
ATOM     10  C   UNL     1      -6.707  -3.092  11.494  1.00  0.00     0.111 C 
BRANCH  10  11
ATOM     11  C   UNL     1      -6.647  -1.640  11.888  1.00  0.00     0.163 C 
ATOM     12  O   UNL     1      -7.260  -1.281  12.929  1.00  0.00    -0.294 OA
BRANCH  11  13
ATOM     13  C   UNL     1      -5.943  -0.614  11.061  1.00  0.00    -0.002 C 
ATOM     14  C   UNL     1      -4.872   0.074  11.562  1.00  0.00    -0.069 C 
ATOM     15  C   UNL     1      -4.239   1.226  10.813  1.00  0.00     0.039 C 
ATOM     16  C   UNL     1      -4.265  -0.287  12.901  1.00  0.00     0.039 C 
BRANCH  13  17
ATOM     17  C   UNL     1      -6.526  -0.305   9.691  1.00  0.00     0.066 CG0
ATOM     18  G   UNL     1      -5.651  -0.818   8.565  1.00  0.00     0.000 G0
ENDBRANCH  13  17
ENDBRANCH  11  13
ENDBRANCH  10  11
ENDBRANCH   1  10
TORSDOF 0
ENDMDL
MODEL 8
REMARK VINA RESULT:    -2.948      1.862      3.370
REMARK INTER + INTRA:          -3.980
REMARK INTER:                  -4.464
REMARK INTRA:                   0.485
REMARK UNBOUND:                 0.174
REMARK SMILES CC1=CCC(=C(C)C)C(=O)CC(C)=CCC1
REMARK SMILES IDX 12 1 14 2 13 3 15 4 16 5 2 6 1 7 3 8 11 10 9 11 10 12 5 13
REMARK SMILES IDX 6 14 7 15 8 16 4 17
REMARK H PARENT
REMARK Flexibility Score: 60.00
ROOT
ATOM      1  C   UNL     1     -19.187  -4.587   8.941  1.00  0.00    -0.070 C 
ATOM      2  C   UNL     1     -18.500  -3.974   9.931  1.00  0.00    -0.027 C 
ATOM      3  C   UNL     1     -19.478  -6.059   9.092  1.00  0.00     0.039 C 
ENDROOT
BRANCH   2   4
ATOM      4  C   UNL     1     -18.029  -2.536   9.920  1.00  0.00     0.032 C 
BRANCH   4   5
ATOM      5  C   UNL     1     -18.803  -1.594  10.866  1.00  0.00     0.034 C 
BRANCH   5   6
ATOM      6  C   UNL     1     -19.895  -0.808  10.164  1.00  0.00    -0.077 C 
ATOM      7  C   UNL     1     -19.594   0.619   9.778  1.00  0.00     0.039 C 
ATOM      8  C   UNL     1     -21.143  -1.280   9.924  1.00  0.00    -0.023 CG0
ATOM      9  G   UNL     1     -21.662  -2.675  10.205  1.00  0.00     0.000 G0
ENDBRANCH   5   6
ENDBRANCH   4   5
ENDBRANCH   2   4
BRANCH   1  10
ATOM     10  C   UNL     1     -19.592  -3.892   7.658  1.00  0.00     0.111 C 
BRANCH  10  11
ATOM     11  C   UNL     1     -20.926  -3.207   7.795  1.00  0.00     0.163 C 
ATOM     12  O   UNL     1     -21.232  -2.326   6.946  1.00  0.00    -0.294 OA
BRANCH  11  13
ATOM     13  C   UNL     1     -21.860  -3.490   8.925  1.00  0.00    -0.002 C 
ATOM     14  C   UNL     1     -22.886  -4.383   8.778  1.00  0.00    -0.069 C 
ATOM     15  C   UNL     1     -23.940  -4.574   9.846  1.00  0.00     0.039 C 
ATOM     16  C   UNL     1     -23.018  -5.227   7.529  1.00  0.00     0.039 C 
BRANCH  13  17
ATOM     17  C   UNL     1     -21.677  -2.680  10.199  1.00  0.00     0.066 CG0
ATOM     18  G   UNL     1     -21.150  -1.286   9.924  1.00  0.00     0.000 G0
ENDBRANCH  13  17
ENDBRANCH  11  13
ENDBRANCH  10  11
ENDBRANCH   1  10
TORSDOF 0
ENDMDL
MODEL 9
REMARK VINA RESULT:    -2.856      2.301      4.899
REMARK INTER + INTRA:          -3.851
REMARK INTER:                  -4.284
REMARK INTRA:                   0.433
REMARK UNBOUND:                 0.174
REMARK SMILES CC1=CCC(=C(C)C)C(=O)CC(C)=CCC1
REMARK SMILES IDX 12 1 14 2 13 3 15 4 16 5 2 6 1 7 3 8 11 10 9 11 10 12 5 13
REMARK SMILES IDX 6 14 7 15 8 16 4 17
REMARK H PARENT
REMARK Flexibility Score: 60.00
ROOT
ATOM      1  C   UNL     1     -18.525  -2.667  10.211  1.00  0.00    -0.070 C 
ATOM      2  C   UNL     1     -19.208  -1.827  11.020  1.00  0.00    -0.027 C 
ATOM      3  C   UNL     1     -17.401  -2.092   9.385  1.00  0.00     0.039 C 
ENDROOT
BRANCH   2   4
ATOM      4  C   UNL     1     -20.421  -2.190  11.849  1.00  0.00     0.032 C 
BRANCH   4   5
ATOM      5  C   UNL     1     -21.728  -1.485  11.428  1.00  0.00     0.034 C 
BRANCH   5   6
ATOM      6  C   UNL     1     -21.958  -1.501   9.928  1.00  0.00    -0.077 C 
ATOM      7  C   UNL     1     -21.927  -0.180   9.200  1.00  0.00     0.039 C 
ATOM      8  C   UNL     1     -22.258  -2.613   9.212  1.00  0.00    -0.023 CG0
ATOM      9  G   UNL     1     -22.325  -4.038   9.723  1.00  0.00     0.000 G0
ENDBRANCH   5   6
ENDBRANCH   4   5
ENDBRANCH   2   4
BRANCH   1  10
ATOM     10  C   UNL     1     -18.892  -4.125  10.026  1.00  0.00     0.111 C 
BRANCH  10  11
ATOM     11  C   UNL     1     -19.897  -4.309   8.920  1.00  0.00     0.163 C 
ATOM     12  O   UNL     1     -19.607  -3.870   7.775  1.00  0.00    -0.294 OA
BRANCH  11  13
ATOM     13  C   UNL     1     -21.235  -4.931   9.149  1.00  0.00    -0.002 C 
ATOM     14  C   UNL     1     -21.479  -6.223   8.774  1.00  0.00    -0.069 C 
ATOM     15  C   UNL     1     -22.863  -6.831   8.846  1.00  0.00     0.039 C 
ATOM     16  C   UNL     1     -20.368  -7.115   8.262  1.00  0.00     0.039 C 
BRANCH  13  17
ATOM     17  C   UNL     1     -22.327  -4.042   9.723  1.00  0.00     0.066 CG0
ATOM     18  G   UNL     1     -22.240  -2.618   9.210  1.00  0.00     0.000 G0
ENDBRANCH  13  17
ENDBRANCH  11  13
ENDBRANCH  10  11
ENDBRANCH   1  10
TORSDOF 0
ENDMDL
