MODEL 1
REMARK VINA RESULT:    -4.196      0.000      0.000
REMARK INTER + INTRA:          -5.653
REMARK INTER:                  -5.913
REMARK INTRA:                   0.259
REMARK UNBOUND:                 0.259
REMARK SMILES CC1=CCC(=C(C)C)C(=O)CC(C)=CCC1
REMARK SMILES IDX 12 1 14 2 13 3 15 4 16 5 2 6 1 7 3 8 11 10 9 11 10 12 5 13
REMARK SMILES IDX 6 14 7 15 8 16 4 17
REMARK H PARENT
REMARK Flexibility Score: 60.00
ROOT
ATOM      1  C   UNL     1     -11.734 -34.628  32.059  1.00  0.00    -0.070 C 
ATOM      2  C   UNL     1     -11.750 -35.971  32.204  1.00  0.00    -0.027 C 
ATOM      3  C   UNL     1     -10.825 -33.830  32.959  1.00  0.00     0.039 C 
ENDROOT
BRANCH   2   4
ATOM      4  C   UNL     1     -12.660 -36.929  31.467  1.00  0.00     0.032 C 
BRANCH   4   5
ATOM      5  C   UNL     1     -12.168 -37.339  30.063  1.00  0.00     0.034 C 
BRANCH   5   6
ATOM      6  C   UNL     1     -13.242 -37.218  28.995  1.00  0.00    -0.077 C 
ATOM      7  C   UNL     1     -14.365 -38.223  29.014  1.00  0.00     0.039 C 
ATOM      8  C   UNL     1     -13.219 -36.312  27.987  1.00  0.00    -0.023 CG0
ATOM      9  G   UNL     1     -12.207 -35.203  27.777  1.00  0.00     0.000 G0
ENDBRANCH   5   6
ENDBRANCH   4   5
ENDBRANCH   2   4
BRANCH   1  10
ATOM     10  C   UNL     1     -12.650 -33.884  31.107  1.00  0.00     0.111 C 
BRANCH  10  11
ATOM     11  C   UNL     1     -11.977 -33.613  29.787  1.00  0.00     0.163 C 
ATOM     12  O   UNL     1     -10.842 -33.064  29.801  1.00  0.00    -0.294 OA
BRANCH  11  13
ATOM     13  C   UNL     1     -12.629 -33.913  28.478  1.00  0.00    -0.002 C 
ATOM     14  C   UNL     1     -13.619 -33.106  27.988  1.00  0.00    -0.069 C 
ATOM     15  C   UNL     1     -13.979 -31.805  28.671  1.00  0.00     0.039 C 
ATOM     16  C   UNL     1     -14.406 -33.468  26.748  1.00  0.00     0.039 C 
BRANCH  13  17
ATOM     17  C   UNL     1     -12.213 -35.192  27.771  1.00  0.00     0.066 CG0
ATOM     18  G   UNL     1     -13.208 -36.317  27.981  1.00  0.00     0.000 G0
ENDBRANCH  13  17
ENDBRANCH  11  13
ENDBRANCH  10  11
ENDBRANCH   1  10
TORSDOF 0
ENDMDL
MODEL 2
REMARK VINA RESULT:    -4.176      1.697      3.598
REMARK INTER + INTRA:          -5.625
REMARK INTER:                  -6.543
REMARK INTRA:                   0.918
REMARK UNBOUND:                 0.259
REMARK SMILES CC1=CCC(=C(C)C)C(=O)CC(C)=CCC1
REMARK SMILES IDX 12 1 14 2 13 3 15 4 16 5 2 6 1 7 3 8 11 10 9 11 10 12 5 13
REMARK SMILES IDX 6 14 7 15 8 16 4 17
REMARK H PARENT
REMARK Flexibility Score: 60.00
ROOT
ATOM      1  C   UNL     1     -12.937 -36.477  30.101  1.00  0.00    -0.070 C 
ATOM      2  C   UNL     1     -11.900 -37.028  30.769  1.00  0.00    -0.027 C 
ATOM      3  C   UNL     1     -13.433 -37.181  28.863  1.00  0.00     0.039 C 
ENDROOT
BRANCH   2   4
ATOM      4  C   UNL     1     -11.202 -36.425  31.968  1.00  0.00     0.032 C 
BRANCH   4   5
ATOM      5  C   UNL     1      -9.880 -35.695  31.649  1.00  0.00     0.034 C 
BRANCH   5   6
ATOM      6  C   UNL     1     -10.050 -34.193  31.491  1.00  0.00    -0.077 C 
ATOM      7  C   UNL     1      -9.903 -33.338  32.724  1.00  0.00     0.039 C 
ATOM      8  C   UNL     1     -10.392 -33.581  30.331  1.00  0.00    -0.023 CG0
ATOM      9  G   UNL     1     -10.574 -34.230  28.973  1.00  0.00     0.000 G0
ENDBRANCH   5   6
ENDBRANCH   4   5
ENDBRANCH   2   4
BRANCH   1  10
ATOM     10  C   UNL     1     -13.558 -35.147  30.479  1.00  0.00     0.111 C 
BRANCH  10  11
ATOM     11  C   UNL     1     -13.076 -34.035  29.585  1.00  0.00     0.163 C 
ATOM     12  O   UNL     1     -13.608 -32.899  29.711  1.00  0.00    -0.294 OA
BRANCH  11  13
ATOM     13  C   UNL     1     -12.045 -34.247  28.526  1.00  0.00    -0.002 C 
ATOM     14  C   UNL     1     -12.412 -34.524  27.238  1.00  0.00    -0.069 C 
ATOM     15  C   UNL     1     -13.861 -34.471  26.807  1.00  0.00     0.039 C 
ATOM     16  C   UNL     1     -11.397 -34.899  26.180  1.00  0.00     0.039 C 
BRANCH  13  17
ATOM     17  C   UNL     1     -10.588 -34.235  28.960  1.00  0.00     0.066 CG0
ATOM     18  G   UNL     1     -10.397 -33.595  30.322  1.00  0.00     0.000 G0
ENDBRANCH  13  17
ENDBRANCH  11  13
ENDBRANCH  10  11
ENDBRANCH   1  10
TORSDOF 0
ENDMDL
MODEL 3
REMARK VINA RESULT:    -4.149      1.375      3.727
REMARK INTER + INTRA:          -5.587
REMARK INTER:                  -6.059
REMARK INTRA:                   0.472
REMARK UNBOUND:                 0.259
REMARK SMILES CC1=CCC(=C(C)C)C(=O)CC(C)=CCC1
REMARK SMILES IDX 12 1 14 2 13 3 15 4 16 5 2 6 1 7 3 8 11 10 9 11 10 12 5 13
REMARK SMILES IDX 6 14 7 15 8 16 4 17
REMARK H PARENT
REMARK Flexibility Score: 60.00
ROOT
ATOM      1  C   UNL     1     -12.633 -34.810  31.904  1.00  0.00    -0.070 C 
ATOM      2  C   UNL     1     -12.382 -33.640  31.276  1.00  0.00    -0.027 C 
ATOM      3  C   UNL     1     -13.922 -34.935  32.676  1.00  0.00     0.039 C 
ENDROOT
BRANCH   2   4
ATOM      4  C   UNL     1     -11.109 -33.288  30.538  1.00  0.00     0.032 C 
BRANCH   4   5
ATOM      5  C   UNL     1     -11.266 -33.143  29.009  1.00  0.00     0.034 C 
BRANCH   5   6
ATOM      6  C   UNL     1     -12.660 -33.490  28.516  1.00  0.00    -0.077 C 
ATOM      7  C   UNL     1     -13.671 -32.374  28.432  1.00  0.00     0.039 C 
ATOM      8  C   UNL     1     -13.074 -34.744  28.214  1.00  0.00    -0.023 CG0
ATOM      9  G   UNL     1     -12.236 -36.008  28.208  1.00  0.00     0.000 G0
ENDBRANCH   5   6
ENDBRANCH   4   5
ENDBRANCH   2   4
BRANCH   1  10
ATOM     10  C   UNL     1     -11.645 -35.959  31.947  1.00  0.00     0.111 C 
BRANCH  10  11
ATOM     11  C   UNL     1     -11.286 -36.434  30.564  1.00  0.00     0.163 C 
ATOM     12  O   UNL     1     -10.065 -36.498  30.257  1.00  0.00    -0.294 OA
BRANCH  11  13
ATOM     13  C   UNL     1     -12.317 -36.768  29.537  1.00  0.00    -0.002 C 
ATOM     14  C   UNL     1     -13.222 -37.770  29.755  1.00  0.00    -0.069 C 
ATOM     15  C   UNL     1     -13.314 -38.466  31.094  1.00  0.00     0.039 C 
ATOM     16  C   UNL     1     -14.174 -38.237  28.675  1.00  0.00     0.039 C 
BRANCH  13  17
ATOM     17  C   UNL     1     -12.254 -36.016  28.218  1.00  0.00     0.066 CG0
ATOM     18  G   UNL     1     -13.085 -34.748  28.235  1.00  0.00     0.000 G0
ENDBRANCH  13  17
ENDBRANCH  11  13
ENDBRANCH  10  11
ENDBRANCH   1  10
TORSDOF 0
ENDMDL
MODEL 4
REMARK VINA RESULT:    -4.133      2.313      3.531
REMARK INTER + INTRA:          -5.565
REMARK INTER:                  -6.526
REMARK INTRA:                   0.962
REMARK UNBOUND:                 0.259
REMARK SMILES CC1=CCC(=C(C)C)C(=O)CC(C)=CCC1
REMARK SMILES IDX 12 1 14 2 13 3 15 4 16 5 2 6 1 7 3 8 11 10 9 11 10 12 5 13
REMARK SMILES IDX 6 14 7 15 8 16 4 17
REMARK H PARENT
REMARK Flexibility Score: 60.00
ROOT
ATOM      1  C   UNL     1     -11.297 -34.665  29.123  1.00  0.00    -0.070 C 
ATOM      2  C   UNL     1     -10.764 -35.715  29.786  1.00  0.00    -0.027 C 
ATOM      3  C   UNL     1     -11.381 -34.748  27.619  1.00  0.00     0.039 C 
ENDROOT
BRANCH   2   4
ATOM      4  C   UNL     1     -10.506 -35.780  31.275  1.00  0.00     0.032 C 
BRANCH   4   5
ATOM      5  C   UNL     1     -11.282 -36.887  32.020  1.00  0.00     0.034 C 
BRANCH   5   6
ATOM      6  C   UNL     1     -12.734 -36.992  31.586  1.00  0.00    -0.077 C 
ATOM      7  C   UNL     1     -13.197 -38.303  31.003  1.00  0.00     0.039 C 
ATOM      8  C   UNL     1     -13.620 -35.967  31.625  1.00  0.00    -0.023 CG0
ATOM      9  G   UNL     1     -13.386 -34.577  32.182  1.00  0.00     0.000 G0
ENDBRANCH   5   6
ENDBRANCH   4   5
ENDBRANCH   2   4
BRANCH   1  10
ATOM     10  C   UNL     1     -11.726 -33.381  29.805  1.00  0.00     0.111 C 
BRANCH  10  11
ATOM     11  C   UNL     1     -13.223 -33.298  29.941  1.00  0.00     0.163 C 
ATOM     12  O   UNL     1     -13.897 -33.001  28.918  1.00  0.00    -0.294 OA
BRANCH  11  13
ATOM     13  C   UNL     1     -13.922 -33.491  31.246  1.00  0.00    -0.002 C 
ATOM     14  C   UNL     1     -14.941 -32.662  31.624  1.00  0.00    -0.069 C 
ATOM     15  C   UNL     1     -15.500 -31.625  30.676  1.00  0.00     0.039 C 
ATOM     16  C   UNL     1     -15.561 -32.732  33.003  1.00  0.00     0.039 C 
BRANCH  13  17
ATOM     17  C   UNL     1     -13.390 -34.580  32.165  1.00  0.00     0.066 CG0
ATOM     18  G   UNL     1     -13.629 -35.971  31.611  1.00  0.00     0.000 G0
ENDBRANCH  13  17
ENDBRANCH  11  13
ENDBRANCH  10  11
ENDBRANCH   1  10
TORSDOF 0
ENDMDL
MODEL 5
REMARK VINA RESULT:    -4.050      1.764      3.597
REMARK INTER + INTRA:          -5.448
REMARK INTER:                  -6.864
REMARK INTRA:                   1.416
REMARK UNBOUND:                 0.259
REMARK SMILES CC1=CCC(=C(C)C)C(=O)CC(C)=CCC1
REMARK SMILES IDX 12 1 14 2 13 3 15 4 16 5 2 6 1 7 3 8 11 10 9 11 10 12 5 13
REMARK SMILES IDX 6 14 7 15 8 16 4 17
REMARK H PARENT
REMARK Flexibility Score: 60.00
ROOT
ATOM      1  C   UNL     1     -10.691 -33.608  31.989  1.00  0.00    -0.070 C 
ATOM      2  C   UNL     1     -10.169 -33.167  30.824  1.00  0.00    -0.027 C 
ATOM      3  C   UNL     1      -9.875 -33.424  33.244  1.00  0.00     0.039 C 
ENDROOT
BRANCH   2   4
ATOM      4  C   UNL     1     -10.787 -33.347  29.454  1.00  0.00     0.032 C 
BRANCH   4   5
ATOM      5  C   UNL     1     -10.370 -34.639  28.721  1.00  0.00     0.034 C 
BRANCH   5   6
ATOM      6  C   UNL     1     -11.418 -35.132  27.737  1.00  0.00    -0.077 C 
ATOM      7  C   UNL     1     -10.986 -35.364  26.311  1.00  0.00     0.039 C 
ATOM      8  C   UNL     1     -12.727 -35.309  28.040  1.00  0.00    -0.023 CG0
ATOM      9  G   UNL     1     -13.380 -35.156  29.399  1.00  0.00     0.000 G0
ENDBRANCH   5   6
ENDBRANCH   4   5
ENDBRANCH   2   4
BRANCH   1  10
ATOM     10  C   UNL     1     -12.005 -34.358  32.080  1.00  0.00     0.111 C 
BRANCH  10  11
ATOM     11  C   UNL     1     -11.921 -35.709  31.421  1.00  0.00     0.163 C 
ATOM     12  O   UNL     1     -10.935 -36.445  31.697  1.00  0.00    -0.294 OA
BRANCH  11  13
ATOM     13  C   UNL     1     -12.922 -36.174  30.416  1.00  0.00    -0.002 C 
ATOM     14  C   UNL     1     -13.316 -37.483  30.374  1.00  0.00    -0.069 C 
ATOM     15  C   UNL     1     -12.877 -38.467  31.436  1.00  0.00     0.039 C 
ATOM     16  C   UNL     1     -14.204 -38.017  29.272  1.00  0.00     0.039 C 
BRANCH  13  17
ATOM     17  C   UNL     1     -13.404 -35.159  29.392  1.00  0.00     0.066 CG0
ATOM     18  G   UNL     1     -12.735 -35.337  28.043  1.00  0.00     0.000 G0
ENDBRANCH  13  17
ENDBRANCH  11  13
ENDBRANCH  10  11
ENDBRANCH   1  10
TORSDOF 0
ENDMDL
MODEL 6
REMARK VINA RESULT:    -3.984      1.822      3.537
REMARK INTER + INTRA:          -5.355
REMARK INTER:                  -6.641
REMARK INTRA:                   1.286
REMARK UNBOUND:                 0.259
REMARK SMILES CC1=CCC(=C(C)C)C(=O)CC(C)=CCC1
REMARK SMILES IDX 12 1 14 2 13 3 15 4 16 5 2 6 1 7 3 8 11 10 9 11 10 12 5 13
REMARK SMILES IDX 6 14 7 15 8 16 4 17
REMARK H PARENT
REMARK Flexibility Score: 60.00
ROOT
ATOM      1  C   UNL     1     -12.389 -37.396  30.624  1.00  0.00    -0.070 C 
ATOM      2  C   UNL     1     -13.353 -37.434  29.678  1.00  0.00    -0.027 C 
ATOM      3  C   UNL     1     -12.668 -38.068  31.944  1.00  0.00     0.039 C 
ENDROOT
BRANCH   2   4
ATOM      4  C   UNL     1     -13.301 -36.740  28.335  1.00  0.00     0.032 C 
BRANCH   4   5
ATOM      5  C   UNL     1     -13.253 -35.198  28.404  1.00  0.00     0.034 C 
BRANCH   5   6
ATOM      6  C   UNL     1     -11.977 -34.613  27.825  1.00  0.00    -0.077 C 
ATOM      7  C   UNL     1     -11.573 -35.047  26.439  1.00  0.00     0.039 C 
ATOM      8  C   UNL     1     -11.143 -33.783  28.498  1.00  0.00    -0.023 CG0
ATOM      9  G   UNL     1     -11.350 -33.204  29.883  1.00  0.00     0.000 G0
ENDBRANCH   5   6
ENDBRANCH   4   5
ENDBRANCH   2   4
BRANCH   1  10
ATOM     10  C   UNL     1     -11.088 -36.636  30.456  1.00  0.00     0.111 C 
BRANCH  10  11
ATOM     11  C   UNL     1     -11.086 -35.357  31.251  1.00  0.00     0.163 C 
ATOM     12  O   UNL     1     -10.380 -35.307  32.294  1.00  0.00    -0.294 OA
BRANCH  11  13
ATOM     13  C   UNL     1     -11.931 -34.182  30.883  1.00  0.00    -0.002 C 
ATOM     14  C   UNL     1     -13.209 -34.064  31.354  1.00  0.00    -0.069 C 
ATOM     15  C   UNL     1     -13.757 -35.028  32.383  1.00  0.00     0.039 C 
ATOM     16  C   UNL     1     -14.141 -32.972  30.875  1.00  0.00     0.039 C 
BRANCH  13  17
ATOM     17  C   UNL     1     -11.344 -33.186  29.896  1.00  0.00     0.066 CG0
ATOM     18  G   UNL     1     -11.144 -33.787  28.518  1.00  0.00     0.000 G0
ENDBRANCH  13  17
ENDBRANCH  11  13
ENDBRANCH  10  11
ENDBRANCH   1  10
TORSDOF 0
ENDMDL
MODEL 7
REMARK VINA RESULT:    -3.966      1.835      4.292
REMARK INTER + INTRA:          -5.330
REMARK INTER:                  -6.473
REMARK INTRA:                   1.143
REMARK UNBOUND:                 0.259
REMARK SMILES CC1=CCC(=C(C)C)C(=O)CC(C)=CCC1
REMARK SMILES IDX 12 1 14 2 13 3 15 4 16 5 2 6 1 7 3 8 11 10 9 11 10 12 5 13
REMARK SMILES IDX 6 14 7 15 8 16 4 17
REMARK H PARENT
REMARK Flexibility Score: 60.00
ROOT
ATOM      1  C   UNL     1     -13.180 -33.228  29.307  1.00  0.00    -0.070 C 
ATOM      2  C   UNL     1     -13.994 -33.144  30.382  1.00  0.00    -0.027 C 
ATOM      3  C   UNL     1     -13.802 -33.108  27.939  1.00  0.00     0.039 C 
ENDROOT
BRANCH   2   4
ATOM      4  C   UNL     1     -13.577 -33.336  31.824  1.00  0.00     0.032 C 
BRANCH   4   5
ATOM      5  C   UNL     1     -12.923 -34.700  32.132  1.00  0.00     0.034 C 
BRANCH   5   6
ATOM      6  C   UNL     1     -11.434 -34.599  32.414  1.00  0.00    -0.077 C 
ATOM      7  C   UNL     1     -10.972 -33.524  33.366  1.00  0.00     0.039 C 
ATOM      8  C   UNL     1     -10.489 -35.363  31.814  1.00  0.00    -0.023 CG0
ATOM      9  G   UNL     1     -10.717 -36.507  30.846  1.00  0.00     0.000 G0
ENDBRANCH   5   6
ENDBRANCH   4   5
ENDBRANCH   2   4
BRANCH   1  10
ATOM     10  C   UNL     1     -11.698 -33.528  29.408  1.00  0.00     0.111 C 
BRANCH  10  11
ATOM     11  C   UNL     1     -11.377 -34.915  28.916  1.00  0.00     0.163 C 
ATOM     12  O   UNL     1     -10.880 -35.036  27.763  1.00  0.00    -0.294 OA
BRANCH  11  13
ATOM     13  C   UNL     1     -11.683 -36.140  29.713  1.00  0.00    -0.002 C 
ATOM     14  C   UNL     1     -12.830 -36.851  29.491  1.00  0.00    -0.069 C 
ATOM     15  C   UNL     1     -13.746 -36.519  28.334  1.00  0.00     0.039 C 
ATOM     16  C   UNL     1     -13.244 -38.000  30.384  1.00  0.00     0.039 C 
BRANCH  13  17
ATOM     17  C   UNL     1     -10.720 -36.499  30.832  1.00  0.00     0.066 CG0
ATOM     18  G   UNL     1     -10.505 -35.352  31.800  1.00  0.00     0.000 G0
ENDBRANCH  13  17
ENDBRANCH  11  13
ENDBRANCH  10  11
ENDBRANCH   1  10
TORSDOF 0
ENDMDL
MODEL 8
REMARK VINA RESULT:    -3.877      1.691      3.399
REMARK INTER + INTRA:          -5.205
REMARK INTER:                  -5.710
REMARK INTRA:                   0.505
REMARK UNBOUND:                 0.259
REMARK SMILES CC1=CCC(=C(C)C)C(=O)CC(C)=CCC1
REMARK SMILES IDX 12 1 14 2 13 3 15 4 16 5 2 6 1 7 3 8 11 10 9 11 10 12 5 13
REMARK SMILES IDX 6 14 7 15 8 16 4 17
REMARK H PARENT
REMARK Flexibility Score: 60.00
ROOT
ATOM      1  C   UNL     1     -13.020 -36.932  29.605  1.00  0.00    -0.070 C 
ATOM      2  C   UNL     1     -13.297 -37.099  30.917  1.00  0.00    -0.027 C 
ATOM      3  C   UNL     1     -14.007 -37.472  28.601  1.00  0.00     0.039 C 
ENDROOT
BRANCH   2   4
ATOM      4  C   UNL     1     -12.390 -36.718  32.067  1.00  0.00     0.032 C 
BRANCH   4   5
ATOM      5  C   UNL     1     -12.081 -35.209  32.174  1.00  0.00     0.034 C 
BRANCH   5   6
ATOM      6  C   UNL     1     -13.290 -34.331  31.905  1.00  0.00    -0.077 C 
ATOM      7  C   UNL     1     -14.442 -34.408  32.875  1.00  0.00     0.039 C 
ATOM      8  C   UNL     1     -13.431 -33.536  30.816  1.00  0.00    -0.023 CG0
ATOM      9  G   UNL     1     -12.406 -33.288  29.727  1.00  0.00     0.000 G0
ENDBRANCH   5   6
ENDBRANCH   4   5
ENDBRANCH   2   4
BRANCH   1  10
ATOM     10  C   UNL     1     -11.731 -36.316  29.099  1.00  0.00     0.111 C 
BRANCH  10  11
ATOM     11  C   UNL     1     -11.994 -35.229  28.091  1.00  0.00     0.163 C 
ATOM     12  O   UNL     1     -11.497 -35.354  26.939  1.00  0.00    -0.294 OA
BRANCH  11  13
ATOM     13  C   UNL     1     -12.761 -33.993  28.426  1.00  0.00    -0.002 C 
ATOM     14  C   UNL     1     -13.686 -33.485  27.556  1.00  0.00    -0.069 C 
ATOM     15  C   UNL     1     -14.077 -34.237  26.303  1.00  0.00     0.039 C 
ATOM     16  C   UNL     1     -14.363 -32.154  27.794  1.00  0.00     0.039 C 
BRANCH  13  17
ATOM     17  C   UNL     1     -12.402 -33.280  29.721  1.00  0.00     0.066 CG0
ATOM     18  G   UNL     1     -13.418 -33.532  30.818  1.00  0.00     0.000 G0
ENDBRANCH  13  17
ENDBRANCH  11  13
ENDBRANCH  10  11
ENDBRANCH   1  10
TORSDOF 0
ENDMDL
MODEL 9
REMARK VINA RESULT:    -3.487      2.216      3.555
REMARK INTER + INTRA:          -4.655
REMARK INTER:                  -5.204
REMARK INTRA:                   0.549
REMARK UNBOUND:                 0.259
REMARK SMILES CC1=CCC(=C(C)C)C(=O)CC(C)=CCC1
REMARK SMILES IDX 12 1 14 2 13 3 15 4 16 5 2 6 1 7 3 8 11 10 9 11 10 12 5 13
REMARK SMILES IDX 6 14 7 15 8 16 4 17
REMARK H PARENT
REMARK Flexibility Score: 60.00
ROOT
ATOM      1  C   UNL     1     -10.437 -34.795  31.860  1.00  0.00    -0.070 C 
ATOM      2  C   UNL     1      -9.881 -34.372  30.703  1.00  0.00    -0.027 C 
ATOM      3  C   UNL     1      -9.987 -36.122  32.417  1.00  0.00     0.039 C 
ENDROOT
BRANCH   2   4
ATOM      4  C   UNL     1     -10.269 -33.125  29.940  1.00  0.00     0.032 C 
BRANCH   4   5
ATOM      5  C   UNL     1     -10.901 -33.383  28.556  1.00  0.00     0.034 C 
BRANCH   5   6
ATOM      6  C   UNL     1     -11.972 -34.460  28.579  1.00  0.00    -0.077 C 
ATOM      7  C   UNL     1     -11.689 -35.745  27.844  1.00  0.00     0.039 C 
ATOM      8  C   UNL     1     -13.189 -34.314  29.157  1.00  0.00    -0.023 CG0
ATOM      9  G   UNL     1     -13.685 -33.127  29.960  1.00  0.00     0.000 G0
ENDBRANCH   5   6
ENDBRANCH   4   5
ENDBRANCH   2   4
BRANCH   1  10
ATOM     10  C   UNL     1     -11.551 -34.050  32.568  1.00  0.00     0.111 C 
BRANCH  10  11
ATOM     11  C   UNL     1     -12.903 -34.418  32.017  1.00  0.00     0.163 C 
ATOM     12  O   UNL     1     -13.232 -35.635  32.012  1.00  0.00    -0.294 OA
BRANCH  11  13
ATOM     13  C   UNL     1     -13.831 -33.408  31.427  1.00  0.00    -0.002 C 
ATOM     14  C   UNL     1     -14.813 -32.832  32.186  1.00  0.00    -0.069 C 
ATOM     15  C   UNL     1     -14.895 -33.075  33.676  1.00  0.00     0.039 C 
ATOM     16  C   UNL     1     -15.864 -31.927  31.581  1.00  0.00     0.039 C 
BRANCH  13  17
ATOM     17  C   UNL     1     -13.696 -33.124  29.939  1.00  0.00     0.066 CG0
ATOM     18  G   UNL     1     -13.195 -34.328  29.166  1.00  0.00     0.000 G0
ENDBRANCH  13  17
ENDBRANCH  11  13
ENDBRANCH  10  11
ENDBRANCH   1  10
TORSDOF 0
ENDMDL
