MODEL 1
REMARK VINA RESULT:    -3.327      0.000      0.000
REMARK INTER + INTRA:          -3.942
REMARK INTER:                  -3.911
REMARK INTRA:                  -0.031
REMARK UNBOUND:                -0.031
REMARK SMILES O=C([O-])CCC(=O)[O-]
REMARK SMILES IDX 4 1 2 2 1 3 3 4 5 5 6 6 7 7 8 8
REMARK H PARENT
REMARK Flexibility Score: inf
ROOT
ATOM      1  C   UNL     1      36.503  23.765 221.211  1.00  0.00     0.059 C 
ENDROOT
BRANCH   1   2
ATOM      2  C   UNL     1      35.944  24.091 219.859  1.00  0.00     0.042 C 
ATOM      3  O   UNL     1      36.716  24.239 218.875  1.00  0.00    -0.550 OA
ATOM      4  O   UNL     1      34.571  24.190 219.679  1.00  0.00    -0.550 OA
ENDBRANCH   1   2
BRANCH   1   5
ATOM      5  C   UNL     1      35.483  24.031 222.323  1.00  0.00     0.059 C 
BRANCH   5   6
ATOM      6  C   UNL     1      36.130  24.039 223.676  1.00  0.00     0.042 C 
ATOM      7  O   UNL     1      36.849  23.071 224.039  1.00  0.00    -0.550 OA
ATOM      8  O   UNL     1      35.972  25.133 224.517  1.00  0.00    -0.550 OA
ENDBRANCH   5   6
ENDBRANCH   1   5
TORSDOF 3
ENDMDL
MODEL 2
REMARK VINA RESULT:    -3.280      0.287      1.173
REMARK INTER + INTRA:          -3.886
REMARK INTER:                  -3.853
REMARK INTRA:                  -0.034
REMARK UNBOUND:                -0.031
REMARK SMILES O=C([O-])CCC(=O)[O-]
REMARK SMILES IDX 4 1 2 2 1 3 3 4 5 5 6 6 7 7 8 8
REMARK H PARENT
REMARK Flexibility Score: inf
ROOT
ATOM      1  C   UNL     1      36.360  23.794 221.290  1.00  0.00     0.059 C 
ENDROOT
BRANCH   1   2
ATOM      2  C   UNL     1      35.711  24.105 219.975  1.00  0.00     0.042 C 
ATOM      3  O   UNL     1      34.457  24.096 219.871  1.00  0.00    -0.550 OA
ATOM      4  O   UNL     1      36.491  24.445 218.877  1.00  0.00    -0.550 OA
ENDBRANCH   1   2
BRANCH   1   5
ATOM      5  C   UNL     1      35.416  24.069 222.465  1.00  0.00     0.059 C 
BRANCH   5   6
ATOM      6  C   UNL     1      36.169  24.257 223.747  1.00  0.00     0.042 C 
ATOM      7  O   UNL     1      37.143  23.509 224.025  1.00  0.00    -0.550 OA
ATOM      8  O   UNL     1      35.822  25.285 224.614  1.00  0.00    -0.550 OA
ENDBRANCH   5   6
ENDBRANCH   1   5
TORSDOF 3
ENDMDL
MODEL 3
REMARK VINA RESULT:    -3.247      0.816      4.239
REMARK INTER + INTRA:          -3.848
REMARK INTER:                  -3.802
REMARK INTRA:                  -0.046
REMARK UNBOUND:                -0.031
REMARK SMILES O=C([O-])CCC(=O)[O-]
REMARK SMILES IDX 4 1 2 2 1 3 3 4 5 5 6 6 7 7 8 8
REMARK H PARENT
REMARK Flexibility Score: inf
ROOT
ATOM      1  C   UNL     1      35.762  23.903 222.442  1.00  0.00     0.059 C 
ENDROOT
BRANCH   1   2
ATOM      2  C   UNL     1      36.454  24.697 223.508  1.00  0.00     0.042 C 
ATOM      3  O   UNL     1      35.790  25.206 224.449  1.00  0.00    -0.550 OA
ATOM      4  O   UNL     1      37.835  24.842 223.483  1.00  0.00    -0.550 OA
ENDBRANCH   1   2
BRANCH   1   5
ATOM      5  C   UNL     1      36.638  23.750 221.194  1.00  0.00     0.059 C 
BRANCH   5   6
ATOM      6  C   UNL     1      35.899  24.140 219.949  1.00  0.00     0.042 C 
ATOM      7  O   UNL     1      36.533  24.476 218.915  1.00  0.00    -0.550 OA
ATOM      8  O   UNL     1      34.511  24.092 219.920  1.00  0.00    -0.550 OA
ENDBRANCH   5   6
ENDBRANCH   1   5
TORSDOF 3
ENDMDL
MODEL 4
REMARK VINA RESULT:    -3.103      1.056      4.211
REMARK INTER + INTRA:          -3.678
REMARK INTER:                  -3.560
REMARK INTRA:                  -0.118
REMARK UNBOUND:                -0.031
REMARK SMILES O=C([O-])CCC(=O)[O-]
REMARK SMILES IDX 4 1 2 2 1 3 3 4 5 5 6 6 7 7 8 8
REMARK H PARENT
REMARK Flexibility Score: inf
ROOT
ATOM      1  C   UNL     1      36.306  24.645 222.969  1.00  0.00     0.059 C 
ENDROOT
BRANCH   1   2
ATOM      2  C   UNL     1      36.764  23.683 224.024  1.00  0.00     0.042 C 
ATOM      3  O   UNL     1      36.859  22.456 223.762  1.00  0.00    -0.550 OA
ATOM      4  O   UNL     1      37.124  24.149 225.281  1.00  0.00    -0.550 OA
ENDBRANCH   1   2
BRANCH   1   5
ATOM      5  C   UNL     1      35.366  23.973 221.962  1.00  0.00     0.059 C 
BRANCH   5   6
ATOM      6  C   UNL     1      35.946  23.973 220.579  1.00  0.00     0.042 C 
ATOM      7  O   UNL     1      35.247  24.342 219.599  1.00  0.00    -0.550 OA
ATOM      8  O   UNL     1      37.271  23.607 220.380  1.00  0.00    -0.550 OA
ENDBRANCH   5   6
ENDBRANCH   1   5
TORSDOF 3
ENDMDL
MODEL 5
REMARK VINA RESULT:    -2.885      2.547      3.661
REMARK INTER + INTRA:          -3.422
REMARK INTER:                  -3.337
REMARK INTRA:                  -0.085
REMARK UNBOUND:                -0.031
REMARK SMILES O=C([O-])CCC(=O)[O-]
REMARK SMILES IDX 4 1 2 2 1 3 3 4 5 5 6 6 7 7 8 8
REMARK H PARENT
REMARK Flexibility Score: inf
ROOT
ATOM      1  C   UNL     1      38.374  23.564 223.890  1.00  0.00     0.059 C 
ENDROOT
BRANCH   1   2
ATOM      2  C   UNL     1      39.323  23.690 222.737  1.00  0.00     0.042 C 
ATOM      3  O   UNL     1      38.954  23.368 221.577  1.00  0.00    -0.550 OA
ATOM      4  O   UNL     1      40.598  24.200 222.938  1.00  0.00    -0.550 OA
ENDBRANCH   1   2
BRANCH   1   5
ATOM      5  C   UNL     1      37.031  22.968 223.454  1.00  0.00     0.059 C 
BRANCH   5   6
ATOM      6  C   UNL     1      35.975  24.023 223.322  1.00  0.00     0.042 C 
ATOM      7  O   UNL     1      35.894  24.948 224.173  1.00  0.00    -0.550 OA
ATOM      8  O   UNL     1      35.107  24.009 222.237  1.00  0.00    -0.550 OA
ENDBRANCH   5   6
ENDBRANCH   1   5
TORSDOF 3
ENDMDL
MODEL 6
REMARK VINA RESULT:    -2.869      3.026      3.706
REMARK INTER + INTRA:          -3.403
REMARK INTER:                  -3.284
REMARK INTRA:                  -0.119
REMARK UNBOUND:                -0.031
REMARK SMILES O=C([O-])CCC(=O)[O-]
REMARK SMILES IDX 4 1 2 2 1 3 3 4 5 5 6 6 7 7 8 8
REMARK H PARENT
REMARK Flexibility Score: inf
ROOT
ATOM      1  C   UNL     1      38.821  24.590 224.222  1.00  0.00     0.059 C 
ENDROOT
BRANCH   1   2
ATOM      2  C   UNL     1      39.517  24.044 223.012  1.00  0.00     0.042 C 
ATOM      3  O   UNL     1      40.775  24.037 222.956  1.00  0.00    -0.550 OA
ATOM      4  O   UNL     1      38.778  23.507 221.967  1.00  0.00    -0.550 OA
ENDBRANCH   1   2
BRANCH   1   5
ATOM      5  C   UNL     1      37.753  25.622 223.842  1.00  0.00     0.059 C 
BRANCH   5   6
ATOM      6  C   UNL     1      36.378  25.160 224.221  1.00  0.00     0.042 C 
ATOM      7  O   UNL     1      35.793  24.283 223.533  1.00  0.00    -0.550 OA
ATOM      8  O   UNL     1      35.761  25.669 225.356  1.00  0.00    -0.550 OA
ENDBRANCH   5   6
ENDBRANCH   1   5
TORSDOF 3
ENDMDL
MODEL 7
REMARK VINA RESULT:    -2.851      2.027      2.410
REMARK INTER + INTRA:          -3.382
REMARK INTER:                  -3.314
REMARK INTRA:                  -0.069
REMARK UNBOUND:                -0.031
REMARK SMILES O=C([O-])CCC(=O)[O-]
REMARK SMILES IDX 4 1 2 2 1 3 3 4 5 5 6 6 7 7 8 8
REMARK H PARENT
REMARK Flexibility Score: inf
ROOT
ATOM      1  C   UNL     1      35.962  24.412 223.350  1.00  0.00     0.059 C 
ENDROOT
BRANCH   1   2
ATOM      2  C   UNL     1      35.633  23.948 221.963  1.00  0.00     0.042 C 
ATOM      3  O   UNL     1      36.556  23.635 221.166  1.00  0.00    -0.550 OA
ATOM      4  O   UNL     1      34.309  23.824 221.566  1.00  0.00    -0.550 OA
ENDBRANCH   1   2
BRANCH   1   5
ATOM      5  C   UNL     1      37.299  23.841 223.835  1.00  0.00     0.059 C 
BRANCH   5   6
ATOM      6  C   UNL     1      38.391  24.866 223.776  1.00  0.00     0.042 C 
ATOM      7  O   UNL     1      39.524  24.559 223.319  1.00  0.00    -0.550 OA
ATOM      8  O   UNL     1      38.145  26.169 224.188  1.00  0.00    -0.550 OA
ENDBRANCH   5   6
ENDBRANCH   1   5
TORSDOF 3
ENDMDL
MODEL 8
REMARK VINA RESULT:    -2.833      1.996      4.019
REMARK INTER + INTRA:          -3.360
REMARK INTER:                  -3.178
REMARK INTRA:                  -0.182
REMARK UNBOUND:                -0.031
REMARK SMILES O=C([O-])CCC(=O)[O-]
REMARK SMILES IDX 4 1 2 2 1 3 3 4 5 5 6 6 7 7 8 8
REMARK H PARENT
REMARK Flexibility Score: inf
ROOT
ATOM      1  C   UNL     1      37.718  23.947 224.417  1.00  0.00     0.059 C 
ENDROOT
BRANCH   1   2
ATOM      2  C   UNL     1      37.181  25.344 224.489  1.00  0.00     0.042 C 
ATOM      3  O   UNL     1      37.807  26.291 223.945  1.00  0.00    -0.550 OA
ATOM      4  O   UNL     1      35.970  25.592 225.122  1.00  0.00    -0.550 OA
ENDBRANCH   1   2
BRANCH   1   5
ATOM      5  C   UNL     1      36.733  22.997 223.728  1.00  0.00     0.059 C 
BRANCH   5   6
ATOM      6  C   UNL     1      36.390  23.464 222.345  1.00  0.00     0.042 C 
ATOM      7  O   UNL     1      35.213  23.813 222.068  1.00  0.00    -0.550 OA
ATOM      8  O   UNL     1      37.381  23.554 221.376  1.00  0.00    -0.550 OA
ENDBRANCH   5   6
ENDBRANCH   1   5
TORSDOF 3
ENDMDL
MODEL 9
REMARK VINA RESULT:    -2.821      2.559      3.725
REMARK INTER + INTRA:          -3.347
REMARK INTER:                  -3.243
REMARK INTRA:                  -0.104
REMARK UNBOUND:                -0.031
REMARK SMILES O=C([O-])CCC(=O)[O-]
REMARK SMILES IDX 4 1 2 2 1 3 3 4 5 5 6 6 7 7 8 8
REMARK H PARENT
REMARK Flexibility Score: inf
ROOT
ATOM      1  C   UNL     1      37.203  23.207 223.505  1.00  0.00     0.059 C 
ENDROOT
BRANCH   1   2
ATOM      2  C   UNL     1      35.988  24.070 223.348  1.00  0.00     0.042 C 
ATOM      3  O   UNL     1      35.743  24.976 224.187  1.00  0.00    -0.550 OA
ATOM      4  O   UNL     1      35.151  23.901 222.253  1.00  0.00    -0.550 OA
ENDBRANCH   1   2
BRANCH   1   5
ATOM      5  C   UNL     1      38.325  23.631 222.551  1.00  0.00     0.059 C 
BRANCH   5   6
ATOM      6  C   UNL     1      39.447  24.305 223.282  1.00  0.00     0.042 C 
ATOM      7  O   UNL     1      39.199  25.137 224.194  1.00  0.00    -0.550 OA
ATOM      8  O   UNL     1      40.765  23.981 222.985  1.00  0.00    -0.550 OA
ENDBRANCH   5   6
ENDBRANCH   1   5
TORSDOF 3
ENDMDL
