MODEL 1
REMARK VINA RESULT:    -4.379      0.000      0.000
REMARK INTER + INTRA:          -4.891
REMARK INTER:                  -4.891
REMARK INTRA:                   0.000
REMARK UNBOUND:                 0.000
REMARK SMILES Oc1cc(O)c2c(c1)CCc1cc(O)c(O)cc1-2
REMARK SMILES IDX 10 1 9 2 7 3 6 4 18 5 17 6 15 7 13 8 12 9 11 10 4 11 3 12
REMARK SMILES IDX 2 13 8 14 14 15 5 17 1 19 16 21
REMARK H PARENT 14 16 5 18 1 20 16 22
REMARK Flexibility Score: inf
ROOT
ATOM      1  C   UNL     1     123.110 126.361 106.789  1.00  0.00     0.041 C 
ATOM      2  C   UNL     1     123.301 125.318 105.681  1.00  0.00     0.041 C 
ATOM      3  C   UNL     1     124.340 124.301 106.084  1.00  0.00    -0.032 A 
ATOM      4  C   UNL     1     125.464 124.699 106.849  1.00  0.00     0.027 A 
ATOM      5  C   UNL     1     125.594 126.149 107.207  1.00  0.00    -0.007 A 
ATOM      6  C   UNL     1     126.838 126.756 107.473  1.00  0.00     0.059 A 
ATOM      7  C   UNL     1     126.915 128.115 107.808  1.00  0.00     0.158 A 
ATOM      8  C   UNL     1     125.748 128.891 107.856  1.00  0.00     0.157 A 
ATOM      9  C   UNL     1     124.517 128.314 107.537  1.00  0.00     0.054 A 
ATOM     10  C   UNL     1     124.437 126.960 107.180  1.00  0.00    -0.036 A 
ATOM     11  C   UNL     1     126.368 123.705 107.298  1.00  0.00     0.127 A 
ATOM     12  C   UNL     1     126.211 122.377 106.878  1.00  0.00     0.093 A 
ATOM     13  C   UNL     1     125.141 122.010 106.057  1.00  0.00     0.119 A 
ATOM     14  C   UNL     1     124.206 122.969 105.669  1.00  0.00     0.050 A 
ENDROOT
BRANCH   8  15
ATOM     15  O   UNL     1     125.793 130.241 108.204  1.00  0.00    -0.504 OA
ATOM     16  H   UNL     1     126.551 130.630 108.752  1.00  0.00     0.293 HD
ENDBRANCH   8  15
BRANCH  11  17
ATOM     17  O   UNL     1     127.393 124.014 108.192  1.00  0.00    -0.507 OA
ATOM     18  H   UNL     1     127.208 124.455 109.085  1.00  0.00     0.293 HD
ENDBRANCH  11  17
BRANCH  13  19
ATOM     19  O   UNL     1     124.989 120.691 105.633  1.00  0.00    -0.508 OA
ATOM     20  H   UNL     1     125.510 120.324 104.846  1.00  0.00     0.293 HD
ENDBRANCH  13  19
BRANCH   7  21
ATOM     21  O   UNL     1     128.151 128.697 108.088  1.00  0.00    -0.504 OA
ATOM     22  H   UNL     1     128.986 128.446 107.571  1.00  0.00     0.293 HD
ENDBRANCH   7  21
TORSDOF 4
ENDMDL
MODEL 2
REMARK VINA RESULT:    -4.348      2.686      4.619
REMARK INTER + INTRA:          -4.856
REMARK INTER:                  -4.856
REMARK INTRA:                   0.000
REMARK UNBOUND:                 0.000
REMARK SMILES Oc1cc(O)c2c(c1)CCc1cc(O)c(O)cc1-2
REMARK SMILES IDX 10 1 9 2 7 3 6 4 18 5 17 6 15 7 13 8 12 9 11 10 4 11 3 12
REMARK SMILES IDX 2 13 8 14 14 15 5 17 1 19 16 21
REMARK H PARENT 14 16 5 18 1 20 16 22
REMARK Flexibility Score: inf
ROOT
ATOM      1  C   UNL     1     123.561 123.747 105.618  1.00  0.00     0.041 C 
ATOM      2  C   UNL     1     122.511 123.510 106.712  1.00  0.00     0.041 C 
ATOM      3  C   UNL     1     122.028 124.825 107.276  1.00  0.00    -0.032 A 
ATOM      4  C   UNL     1     122.927 125.910 107.414  1.00  0.00     0.027 A 
ATOM      5  C   UNL     1     124.356 125.697 107.016  1.00  0.00    -0.007 A 
ATOM      6  C   UNL     1     125.416 126.447 107.564  1.00  0.00     0.059 A 
ATOM      7  C   UNL     1     126.739 126.218 107.162  1.00  0.00     0.158 A 
ATOM      8  C   UNL     1     127.022 125.215 106.223  1.00  0.00     0.157 A 
ATOM      9  C   UNL     1     125.986 124.427 105.717  1.00  0.00     0.054 A 
ATOM     10  C   UNL     1     124.663 124.637 106.133  1.00  0.00    -0.036 A 
ATOM     11  C   UNL     1     122.421 127.160 107.850  1.00  0.00     0.127 A 
ATOM     12  C   UNL     1     121.084 127.269 108.256  1.00  0.00     0.093 A 
ATOM     13  C   UNL     1     120.226 126.168 108.189  1.00  0.00     0.119 A 
ATOM     14  C   UNL     1     120.696 124.953 107.693  1.00  0.00     0.050 A 
ENDROOT
BRANCH   8  15
ATOM     15  O   UNL     1     128.326 124.978 105.790  1.00  0.00    -0.504 OA
ATOM     16  H   UNL     1     128.769 125.547 105.080  1.00  0.00     0.293 HD
ENDBRANCH   8  15
BRANCH  11  17
ATOM     17  O   UNL     1     123.220 128.303 107.843  1.00  0.00    -0.507 OA
ATOM     18  H   UNL     1     123.652 128.657 108.687  1.00  0.00     0.293 HD
ENDBRANCH  11  17
BRANCH  13  19
ATOM     19  O   UNL     1     118.898 126.275 108.600  1.00  0.00    -0.508 OA
ATOM     20  H   UNL     1     118.249 125.506 108.498  1.00  0.00     0.293 HD
ENDBRANCH  13  19
BRANCH   7  21
ATOM     21  O   UNL     1     127.776 126.981 107.698  1.00  0.00    -0.504 OA
ATOM     22  H   UNL     1     127.597 127.737 108.350  1.00  0.00     0.293 HD
ENDBRANCH   7  21
TORSDOF 4
ENDMDL
MODEL 3
REMARK VINA RESULT:    -4.344      2.684      6.491
REMARK INTER + INTRA:          -4.851
REMARK INTER:                  -4.851
REMARK INTRA:                   0.000
REMARK UNBOUND:                 0.000
REMARK SMILES Oc1cc(O)c2c(c1)CCc1cc(O)c(O)cc1-2
REMARK SMILES IDX 10 1 9 2 7 3 6 4 18 5 17 6 15 7 13 8 12 9 11 10 4 11 3 12
REMARK SMILES IDX 2 13 8 14 14 15 5 17 1 19 16 21
REMARK H PARENT 14 16 5 18 1 20 16 22
REMARK Flexibility Score: inf
ROOT
ATOM      1  C   UNL     1     125.974 122.718 106.730  1.00  0.00     0.041 C 
ATOM      2  C   UNL     1     125.743 123.776 105.644  1.00  0.00     0.041 C 
ATOM      3  C   UNL     1     124.722 124.790 106.100  1.00  0.00    -0.032 A 
ATOM      4  C   UNL     1     123.627 124.382 106.901  1.00  0.00     0.027 A 
ATOM      5  C   UNL     1     123.508 122.928 107.244  1.00  0.00    -0.007 A 
ATOM      6  C   UNL     1     122.274 122.319 107.548  1.00  0.00     0.059 A 
ATOM      7  C   UNL     1     122.206 120.956 107.868  1.00  0.00     0.158 A 
ATOM      8  C   UNL     1     123.372 120.177 107.861  1.00  0.00     0.157 A 
ATOM      9  C   UNL     1     124.592 120.757 107.504  1.00  0.00     0.054 A 
ATOM     10  C   UNL     1     124.661 122.115 107.162  1.00  0.00    -0.036 A 
ATOM     11  C   UNL     1     122.743 125.372 107.397  1.00  0.00     0.127 A 
ATOM     12  C   UNL     1     122.887 126.706 106.990  1.00  0.00     0.093 A 
ATOM     13  C   UNL     1     123.926 127.082 106.134  1.00  0.00     0.119 A 
ATOM     14  C   UNL     1     124.844 126.127 105.698  1.00  0.00     0.050 A 
ENDROOT
BRANCH   8  15
ATOM     15  O   UNL     1     123.338 118.823 108.192  1.00  0.00    -0.504 OA
ATOM     16  H   UNL     1     123.029 118.499 109.101  1.00  0.00     0.293 HD
ENDBRANCH   8  15
BRANCH  11  17
ATOM     17  O   UNL     1     121.752 125.052 108.324  1.00  0.00    -0.507 OA
ATOM     18  H   UNL     1     121.080 125.739 108.646  1.00  0.00     0.293 HD
ENDBRANCH  11  17
BRANCH  13  19
ATOM     19  O   UNL     1     124.064 128.406 105.723  1.00  0.00    -0.508 OA
ATOM     20  H   UNL     1     124.274 128.643 104.761  1.00  0.00     0.293 HD
ENDBRANCH  13  19
BRANCH   7  21
ATOM     21  O   UNL     1     120.980 120.372 108.186  1.00  0.00    -0.504 OA
ATOM     22  H   UNL     1     120.884 119.728 108.963  1.00  0.00     0.293 HD
ENDBRANCH   7  21
TORSDOF 4
ENDMDL
MODEL 4
REMARK VINA RESULT:    -4.334      3.074      4.626
REMARK INTER + INTRA:          -4.841
REMARK INTER:                  -4.841
REMARK INTRA:                   0.000
REMARK UNBOUND:                 0.000
REMARK SMILES Oc1cc(O)c2c(c1)CCc1cc(O)c(O)cc1-2
REMARK SMILES IDX 10 1 9 2 7 3 6 4 18 5 17 6 15 7 13 8 12 9 11 10 4 11 3 12
REMARK SMILES IDX 2 13 8 14 14 15 5 17 1 19 16 21
REMARK H PARENT 14 16 5 18 1 20 16 22
REMARK Flexibility Score: inf
ROOT
ATOM      1  C   UNL     1     122.609 123.025 106.745  1.00  0.00     0.041 C 
ATOM      2  C   UNL     1     123.658 123.265 105.652  1.00  0.00     0.041 C 
ATOM      3  C   UNL     1     124.686 124.268 106.116  1.00  0.00    -0.032 A 
ATOM      4  C   UNL     1     124.298 125.352 106.940  1.00  0.00     0.027 A 
ATOM      5  C   UNL     1     122.849 125.479 107.301  1.00  0.00    -0.007 A 
ATOM      6  C   UNL     1     122.255 126.713 107.634  1.00  0.00     0.059 A 
ATOM      7  C   UNL     1     120.896 126.788 107.969  1.00  0.00     0.158 A 
ATOM      8  C   UNL     1     120.106 125.629 107.949  1.00  0.00     0.157 A 
ATOM      9  C   UNL     1     120.670 124.411 107.564  1.00  0.00     0.054 A 
ATOM     10  C   UNL     1     122.024 124.335 107.207  1.00  0.00    -0.036 A 
ATOM     11  C   UNL     1     125.301 126.217 107.443  1.00  0.00     0.127 A 
ATOM     12  C   UNL     1     126.629 126.068 107.018  1.00  0.00     0.093 A 
ATOM     13  C   UNL     1     126.986 125.042 106.140  1.00  0.00     0.119 A 
ATOM     14  C   UNL     1     126.018 124.141 105.698  1.00  0.00     0.050 A 
ENDROOT
BRANCH   8  15
ATOM     15  O   UNL     1     118.755 125.670 108.296  1.00  0.00    -0.504 OA
ATOM     16  H   UNL     1     118.280 124.874 108.701  1.00  0.00     0.293 HD
ENDBRANCH   8  15
BRANCH  11  17
ATOM     17  O   UNL     1     125.001 127.195 108.391  1.00  0.00    -0.507 OA
ATOM     18  H   UNL     1     124.124 127.702 108.375  1.00  0.00     0.293 HD
ENDBRANCH  11  17
BRANCH  13  19
ATOM     19  O   UNL     1     128.305 124.899 105.713  1.00  0.00    -0.508 OA
ATOM     20  H   UNL     1     128.928 125.693 105.642  1.00  0.00     0.293 HD
ENDBRANCH  13  19
BRANCH   7  21
ATOM     21  O   UNL     1     120.327 128.013 108.315  1.00  0.00    -0.504 OA
ATOM     22  H   UNL     1     120.348 128.358 109.268  1.00  0.00     0.293 HD
ENDBRANCH   7  21
TORSDOF 4
ENDMDL
MODEL 5
REMARK VINA RESULT:    -4.325      3.032      4.589
REMARK INTER + INTRA:          -4.831
REMARK INTER:                  -4.831
REMARK INTRA:                   0.000
REMARK UNBOUND:                 0.000
REMARK SMILES Oc1cc(O)c2c(c1)CCc1cc(O)c(O)cc1-2
REMARK SMILES IDX 10 1 9 2 7 3 6 4 18 5 17 6 15 7 13 8 12 9 11 10 4 11 3 12
REMARK SMILES IDX 2 13 8 14 14 15 5 17 1 19 16 21
REMARK H PARENT 14 16 5 18 1 20 16 22
REMARK Flexibility Score: inf
ROOT
ATOM      1  C   UNL     1     126.371 125.946 106.740  1.00  0.00     0.041 C 
ATOM      2  C   UNL     1     125.324 125.704 105.646  1.00  0.00     0.041 C 
ATOM      3  C   UNL     1     124.290 124.707 106.112  1.00  0.00    -0.032 A 
ATOM      4  C   UNL     1     124.672 123.626 106.943  1.00  0.00     0.027 A 
ATOM      5  C   UNL     1     126.120 123.495 107.308  1.00  0.00    -0.007 A 
ATOM      6  C   UNL     1     126.708 122.261 107.648  1.00  0.00     0.059 A 
ATOM      7  C   UNL     1     128.066 122.182 107.988  1.00  0.00     0.158 A 
ATOM      8  C   UNL     1     128.861 123.338 107.965  1.00  0.00     0.157 A 
ATOM      9  C   UNL     1     128.302 124.556 107.572  1.00  0.00     0.054 A 
ATOM     10  C   UNL     1     126.949 124.635 107.211  1.00  0.00    -0.036 A 
ATOM     11  C   UNL     1     123.664 122.767 107.446  1.00  0.00     0.127 A 
ATOM     12  C   UNL     1     122.338 122.919 107.018  1.00  0.00     0.093 A 
ATOM     13  C   UNL     1     121.987 123.943 106.134  1.00  0.00     0.119 A 
ATOM     14  C   UNL     1     122.960 124.837 105.690  1.00  0.00     0.050 A 
ENDROOT
BRANCH   8  15
ATOM     15  O   UNL     1     130.210 123.293 108.315  1.00  0.00    -0.504 OA
ATOM     16  H   UNL     1     130.705 122.418 108.436  1.00  0.00     0.293 HD
ENDBRANCH   8  15
BRANCH  11  17
ATOM     17  O   UNL     1     123.958 121.793 108.400  1.00  0.00    -0.507 OA
ATOM     18  H   UNL     1     123.507 121.780 109.307  1.00  0.00     0.293 HD
ENDBRANCH  11  17
BRANCH  13  19
ATOM     19  O   UNL     1     120.671 124.089 105.702  1.00  0.00    -0.508 OA
ATOM     20  H   UNL     1     120.192 123.350 105.202  1.00  0.00     0.293 HD
ENDBRANCH  13  19
BRANCH   7  21
ATOM     21  O   UNL     1     128.630 120.956 108.341  1.00  0.00    -0.504 OA
ATOM     22  H   UNL     1     129.532 120.663 107.984  1.00  0.00     0.293 HD
ENDBRANCH   7  21
TORSDOF 4
ENDMDL
MODEL 6
REMARK VINA RESULT:    -4.306      0.867      5.459
REMARK INTER + INTRA:          -4.810
REMARK INTER:                  -4.810
REMARK INTRA:                   0.000
REMARK UNBOUND:                 0.000
REMARK SMILES Oc1cc(O)c2c(c1)CCc1cc(O)c(O)cc1-2
REMARK SMILES IDX 10 1 9 2 7 3 6 4 18 5 17 6 15 7 13 8 12 9 11 10 4 11 3 12
REMARK SMILES IDX 2 13 8 14 14 15 5 17 1 19 16 21
REMARK H PARENT 14 16 5 18 1 20 16 22
REMARK Flexibility Score: inf
ROOT
ATOM      1  C   UNL     1     123.542 125.551 105.627  1.00  0.00     0.041 C 
ATOM      2  C   UNL     1     123.309 126.563 106.756  1.00  0.00     0.041 C 
ATOM      3  C   UNL     1     124.625 127.099 107.267  1.00  0.00    -0.032 A 
ATOM      4  C   UNL     1     125.758 126.253 107.331  1.00  0.00     0.027 A 
ATOM      5  C   UNL     1     125.595 124.824 106.910  1.00  0.00    -0.007 A 
ATOM      6  C   UNL     1     126.421 123.790 107.396  1.00  0.00     0.059 A 
ATOM      7  C   UNL     1     126.237 122.466 106.974  1.00  0.00     0.158 A 
ATOM      8  C   UNL     1     125.204 122.155 106.078  1.00  0.00     0.157 A 
ATOM      9  C   UNL     1     124.342 123.161 105.636  1.00  0.00     0.054 A 
ATOM     10  C   UNL     1     124.509 124.483 106.072  1.00  0.00    -0.036 A 
ATOM     11  C   UNL     1     127.002 126.810 107.718  1.00  0.00     0.127 A 
ATOM     12  C   UNL     1     127.066 128.143 108.149  1.00  0.00     0.093 A 
ATOM     13  C   UNL     1     125.923 128.946 108.156  1.00  0.00     0.119 A 
ATOM     14  C   UNL     1     124.709 128.427 107.709  1.00  0.00     0.050 A 
ENDROOT
BRANCH   8  15
ATOM     15  O   UNL     1     125.009 120.850 105.627  1.00  0.00    -0.504 OA
ATOM     16  H   UNL     1     125.368 120.047 106.130  1.00  0.00     0.293 HD
ENDBRANCH   8  15
BRANCH  11  17
ATOM     17  O   UNL     1     128.180 126.069 107.636  1.00  0.00    -0.507 OA
ATOM     18  H   UNL     1     128.403 125.345 108.308  1.00  0.00     0.293 HD
ENDBRANCH  11  17
BRANCH  13  19
ATOM     19  O   UNL     1     125.986 130.268 108.593  1.00  0.00    -0.508 OA
ATOM     20  H   UNL     1     125.194 130.718 109.035  1.00  0.00     0.293 HD
ENDBRANCH  13  19
BRANCH   7  21
ATOM     21  O   UNL     1     127.076 121.458 107.448  1.00  0.00    -0.504 OA
ATOM     22  H   UNL     1     127.771 121.637 108.164  1.00  0.00     0.293 HD
ENDBRANCH   7  21
TORSDOF 4
ENDMDL
MODEL 7
REMARK VINA RESULT:    -4.299      2.738      3.889
REMARK INTER + INTRA:          -4.802
REMARK INTER:                  -4.802
REMARK INTRA:                   0.000
REMARK UNBOUND:                 0.000
REMARK SMILES Oc1cc(O)c2c(c1)CCc1cc(O)c(O)cc1-2
REMARK SMILES IDX 10 1 9 2 7 3 6 4 18 5 17 6 15 7 13 8 12 9 11 10 4 11 3 12
REMARK SMILES IDX 2 13 8 14 14 15 5 17 1 19 16 21
REMARK H PARENT 14 16 5 18 1 20 16 22
REMARK Flexibility Score: inf
ROOT
ATOM      1  C   UNL     1     125.879 123.824 105.626  1.00  0.00     0.041 C 
ATOM      2  C   UNL     1     126.154 122.814 106.747  1.00  0.00     0.041 C 
ATOM      3  C   UNL     1     124.871 122.156 107.194  1.00  0.00    -0.032 A 
ATOM      4  C   UNL     1     123.666 122.900 107.225  1.00  0.00     0.027 A 
ATOM      5  C   UNL     1     123.720 124.346 106.833  1.00  0.00    -0.007 A 
ATOM      6  C   UNL     1     122.788 125.294 107.299  1.00  0.00     0.059 A 
ATOM      7  C   UNL     1     122.872 126.636 106.906  1.00  0.00     0.158 A 
ATOM      8  C   UNL     1     123.909 127.053 106.058  1.00  0.00     0.157 A 
ATOM      9  C   UNL     1     124.872 126.135 105.637  1.00  0.00     0.054 A 
ATOM     10  C   UNL     1     124.805 124.795 106.046  1.00  0.00    -0.036 A 
ATOM     11  C   UNL     1     122.461 122.229 107.550  1.00  0.00     0.127 A 
ATOM     12  C   UNL     1     122.496 120.888 107.958  1.00  0.00     0.093 A 
ATOM     13  C   UNL     1     123.704 120.187 108.001  1.00  0.00     0.119 A 
ATOM     14  C   UNL     1     124.885 120.819 107.612  1.00  0.00     0.050 A 
ENDROOT
BRANCH   8  15
ATOM     15  O   UNL     1     124.007 128.379 105.636  1.00  0.00    -0.504 OA
ATOM     16  H   UNL     1     124.686 129.019 106.028  1.00  0.00     0.293 HD
ENDBRANCH   8  15
BRANCH  11  17
ATOM     17  O   UNL     1     121.227 122.867 107.431  1.00  0.00    -0.507 OA
ATOM     18  H   UNL     1     120.354 122.353 107.474  1.00  0.00     0.293 HD
ENDBRANCH  11  17
BRANCH  13  19
ATOM     19  O   UNL     1     123.740 118.857 108.414  1.00  0.00    -0.508 OA
ATOM     20  H   UNL     1     123.555 118.595 109.374  1.00  0.00     0.293 HD
ENDBRANCH  13  19
BRANCH   7  21
ATOM     21  O   UNL     1     121.930 127.559 107.360  1.00  0.00    -0.504 OA
ATOM     22  H   UNL     1     122.146 128.547 107.432  1.00  0.00     0.293 HD
ENDBRANCH   7  21
TORSDOF 4
ENDMDL
MODEL 8
REMARK VINA RESULT:    -4.270      2.836      4.966
REMARK INTER + INTRA:          -4.769
REMARK INTER:                  -4.769
REMARK INTRA:                   0.000
REMARK UNBOUND:                 0.000
REMARK SMILES Oc1cc(O)c2c(c1)CCc1cc(O)c(O)cc1-2
REMARK SMILES IDX 10 1 9 2 7 3 6 4 18 5 17 6 15 7 13 8 12 9 11 10 4 11 3 12
REMARK SMILES IDX 2 13 8 14 14 15 5 17 1 19 16 21
REMARK H PARENT 14 16 5 18 1 20 16 22
REMARK Flexibility Score: inf
ROOT
ATOM      1  C   UNL     1     125.171 125.829 105.622  1.00  0.00     0.041 C 
ATOM      2  C   UNL     1     126.181 126.111 106.741  1.00  0.00     0.041 C 
ATOM      3  C   UNL     1     126.839 124.832 107.196  1.00  0.00    -0.032 A 
ATOM      4  C   UNL     1     126.097 123.626 107.233  1.00  0.00     0.027 A 
ATOM      5  C   UNL     1     124.651 123.677 106.841  1.00  0.00    -0.007 A 
ATOM      6  C   UNL     1     123.704 122.746 107.313  1.00  0.00     0.059 A 
ATOM      7  C   UNL     1     122.362 122.826 106.919  1.00  0.00     0.158 A 
ATOM      8  C   UNL     1     121.943 123.858 106.066  1.00  0.00     0.157 A 
ATOM      9  C   UNL     1     122.861 124.820 105.639  1.00  0.00     0.054 A 
ATOM     10  C   UNL     1     124.201 124.757 106.049  1.00  0.00    -0.036 A 
ATOM     11  C   UNL     1     126.769 122.424 107.566  1.00  0.00     0.127 A 
ATOM     12  C   UNL     1     128.110 122.463 107.974  1.00  0.00     0.093 A 
ATOM     13  C   UNL     1     128.810 123.672 108.009  1.00  0.00     0.119 A 
ATOM     14  C   UNL     1     128.177 124.850 107.614  1.00  0.00     0.050 A 
ENDROOT
BRANCH   8  15
ATOM     15  O   UNL     1     120.618 123.953 105.643  1.00  0.00    -0.504 OA
ATOM     16  H   UNL     1     119.946 123.214 105.811  1.00  0.00     0.293 HD
ENDBRANCH   8  15
BRANCH  11  17
ATOM     17  O   UNL     1     126.133 121.188 107.454  1.00  0.00    -0.507 OA
ATOM     18  H   UNL     1     125.993 120.585 108.256  1.00  0.00     0.293 HD
ENDBRANCH  11  17
BRANCH  13  19
ATOM     19  O   UNL     1     130.140 123.711 108.422  1.00  0.00    -0.508 OA
ATOM     20  H   UNL     1     130.902 123.569 107.770  1.00  0.00     0.293 HD
ENDBRANCH  13  19
BRANCH   7  21
ATOM     21  O   UNL     1     121.439 121.887 107.379  1.00  0.00    -0.504 OA
ATOM     22  H   UNL     1     120.460 121.934 107.123  1.00  0.00     0.293 HD
ENDBRANCH   7  21
TORSDOF 4
ENDMDL
MODEL 9
REMARK VINA RESULT:    -4.228      2.845      5.596
REMARK INTER + INTRA:          -4.722
REMARK INTER:                  -4.722
REMARK INTRA:                   0.000
REMARK UNBOUND:                 0.000
REMARK SMILES Oc1cc(O)c2c(c1)CCc1cc(O)c(O)cc1-2
REMARK SMILES IDX 10 1 9 2 7 3 6 4 18 5 17 6 15 7 13 8 12 9 11 10 4 11 3 12
REMARK SMILES IDX 2 13 8 14 14 15 5 17 1 19 16 21
REMARK H PARENT 14 16 5 18 1 20 16 22
REMARK Flexibility Score: inf
ROOT
ATOM      1  C   UNL     1     126.711 125.523 106.813  1.00  0.00     0.041 C 
ATOM      2  C   UNL     1     125.473 126.066 106.089  1.00  0.00     0.041 C 
ATOM      3  C   UNL     1     124.260 125.993 106.984  1.00  0.00    -0.032 A 
ATOM      4  C   UNL     1     124.105 124.909 107.882  1.00  0.00     0.027 A 
ATOM      5  C   UNL     1     125.157 123.841 107.885  1.00  0.00    -0.007 A 
ATOM      6  C   UNL     1     124.895 122.519 108.296  1.00  0.00     0.059 A 
ATOM      7  C   UNL     1     125.908 121.551 108.287  1.00  0.00     0.158 A 
ATOM      8  C   UNL     1     127.194 121.888 107.841  1.00  0.00     0.157 A 
ATOM      9  C   UNL     1     127.451 123.180 107.377  1.00  0.00     0.054 A 
ATOM     10  C   UNL     1     126.435 124.146 107.363  1.00  0.00    -0.036 A 
ATOM     11  C   UNL     1     123.010 124.922 108.781  1.00  0.00     0.127 A 
ATOM     12  C   UNL     1     122.037 125.927 108.683  1.00  0.00     0.093 A 
ATOM     13  C   UNL     1     122.160 126.949 107.737  1.00  0.00     0.119 A 
ATOM     14  C   UNL     1     123.273 126.984 106.897  1.00  0.00     0.050 A 
ENDROOT
BRANCH   8  15
ATOM     15  O   UNL     1     128.227 120.950 107.839  1.00  0.00    -0.504 OA
ATOM     16  H   UNL     1     129.199 121.221 107.753  1.00  0.00     0.293 HD
ENDBRANCH   8  15
BRANCH  11  17
ATOM     17  O   UNL     1     122.901 123.974 109.797  1.00  0.00    -0.507 OA
ATOM     18  H   UNL     1     122.095 123.938 110.410  1.00  0.00     0.293 HD
ENDBRANCH  11  17
BRANCH  13  19
ATOM     19  O   UNL     1     121.189 127.943 107.635  1.00  0.00    -0.508 OA
ATOM     20  H   UNL     1     120.204 127.733 107.735  1.00  0.00     0.293 HD
ENDBRANCH  13  19
BRANCH   7  21
ATOM     21  O   UNL     1     125.638 120.251 108.714  1.00  0.00    -0.504 OA
ATOM     22  H   UNL     1     126.003 119.892 109.589  1.00  0.00     0.293 HD
ENDBRANCH   7  21
TORSDOF 4
ENDMDL
