MODEL 1
REMARK VINA RESULT:    -5.004      0.000      0.000
REMARK INTER + INTRA:          -9.998
REMARK INTER:                  -8.807
REMARK INTRA:                  -1.191
REMARK UNBOUND:                -1.191
REMARK SMILES CCCCCCCCCCCCCCC(=O)[O-]
REMARK SMILES IDX 9 1 10 2 11 3 12 4 13 5 14 6 15 7 16 8 17 9 8 10 7 11 6 12
REMARK SMILES IDX 5 13 4 14 3 15 2 16 1 17
REMARK H PARENT
REMARK Flexibility Score: inf
ROOT
ATOM      1  C   UNL     1      -4.653  36.239  22.127  1.00  0.00     0.000 C 
ENDROOT
BRANCH   1   2
ATOM      2  C   UNL     1      -5.397  35.556  23.287  1.00  0.00     0.000 C 
BRANCH   2   3
ATOM      3  C   UNL     1      -5.927  36.563  24.322  1.00  0.00     0.000 C 
BRANCH   3   4
ATOM      4  C   UNL     1      -4.804  37.381  24.980  1.00  0.00     0.000 C 
BRANCH   4   5
ATOM      5  C   UNL     1      -4.986  38.898  24.792  1.00  0.00     0.006 C 
BRANCH   5   6
ATOM      6  C   UNL     1      -5.899  39.229  23.604  1.00  0.00     0.053 C 
BRANCH   6   7
ATOM      7  C   UNL     1      -5.161  39.943  22.513  1.00  0.00     0.041 C 
ATOM      8  O   UNL     1      -3.920  39.781  22.378  1.00  0.00    -0.550 OA
ATOM      9  O   UNL     1      -5.839  40.812  21.667  1.00  0.00    -0.550 OA
ENDBRANCH   6   7
ENDBRANCH   5   6
ENDBRANCH   4   5
ENDBRANCH   3   4
ENDBRANCH   2   3
ENDBRANCH   1   2
BRANCH   1  10
ATOM     10  C   UNL     1      -5.564  36.503  20.915  1.00  0.00     0.000 C 
BRANCH  10  11
ATOM     11  C   UNL     1      -4.926  37.459  19.894  1.00  0.00    -0.000 C 
BRANCH  11  12
ATOM     12  C   UNL     1      -3.556  36.974  19.399  1.00  0.00    -0.000 C 
BRANCH  12  13
ATOM     13  C   UNL     1      -2.659  38.158  19.018  1.00  0.00    -0.000 C 
BRANCH  13  14
ATOM     14  C   UNL     1      -1.747  37.803  17.837  1.00  0.00    -0.000 C 
BRANCH  14  15
ATOM     15  C   UNL     1      -2.474  36.896  16.834  1.00  0.00    -0.000 C 
BRANCH  15  16
ATOM     16  C   UNL     1      -2.218  37.305  15.375  1.00  0.00    -0.003 C 
ATOM     17  C   UNL     1      -3.357  38.137  14.787  1.00  0.00     0.004 C 
ENDBRANCH  15  16
ENDBRANCH  14  15
ENDBRANCH  13  14
ENDBRANCH  12  13
ENDBRANCH  11  12
ENDBRANCH  10  11
ENDBRANCH   1  10
TORSDOF 13
ENDMDL
MODEL 2
REMARK VINA RESULT:    -4.854      2.891      6.695
REMARK INTER + INTRA:          -9.734
REMARK INTER:                  -8.326
REMARK INTRA:                  -1.408
REMARK UNBOUND:                -1.191
REMARK SMILES CCCCCCCCCCCCCCC(=O)[O-]
REMARK SMILES IDX 9 1 10 2 11 3 12 4 13 5 14 6 15 7 16 8 17 9 8 10 7 11 6 12
REMARK SMILES IDX 5 13 4 14 3 15 2 16 1 17
REMARK H PARENT
REMARK Flexibility Score: inf
ROOT
ATOM      1  C   UNL     1      -5.539  36.582  20.180  1.00  0.00     0.000 C 
ENDROOT
BRANCH   1   2
ATOM      2  C   UNL     1      -4.073  37.032  20.292  1.00  0.00     0.000 C 
BRANCH   2   3
ATOM      3  C   UNL     1      -3.627  37.894  19.097  1.00  0.00     0.000 C 
BRANCH   3   4
ATOM      4  C   UNL     1      -2.103  37.877  18.893  1.00  0.00     0.000 C 
BRANCH   4   5
ATOM      5  C   UNL     1      -1.703  37.890  17.407  1.00  0.00     0.006 C 
BRANCH   5   6
ATOM      6  C   UNL     1      -2.777  37.258  16.513  1.00  0.00     0.053 C 
BRANCH   6   7
ATOM      7  C   UNL     1      -2.786  37.858  15.140  1.00  0.00     0.041 C 
ATOM      8  O   UNL     1      -3.562  38.812  14.870  1.00  0.00    -0.550 OA
ATOM      9  O   UNL     1      -1.959  37.342  14.149  1.00  0.00    -0.550 OA
ENDBRANCH   6   7
ENDBRANCH   5   6
ENDBRANCH   4   5
ENDBRANCH   3   4
ENDBRANCH   2   3
ENDBRANCH   1   2
BRANCH   1  10
ATOM     10  C   UNL     1      -6.124  36.136  21.532  1.00  0.00     0.000 C 
BRANCH  10  11
ATOM     11  C   UNL     1      -5.063  36.071  22.642  1.00  0.00    -0.000 C 
BRANCH  11  12
ATOM     12  C   UNL     1      -5.677  35.953  24.045  1.00  0.00    -0.000 C 
BRANCH  12  13
ATOM     13  C   UNL     1      -5.233  37.118  24.938  1.00  0.00    -0.000 C 
BRANCH  13  14
ATOM     14  C   UNL     1      -5.762  38.455  24.405  1.00  0.00    -0.000 C 
BRANCH  14  15
ATOM     15  C   UNL     1      -4.615  39.452  24.184  1.00  0.00    -0.000 C 
BRANCH  15  16
ATOM     16  C   UNL     1      -4.332  39.706  22.695  1.00  0.00    -0.003 C 
ATOM     17  C   UNL     1      -5.530  40.307  21.961  1.00  0.00     0.004 C 
ENDBRANCH  15  16
ENDBRANCH  14  15
ENDBRANCH  13  14
ENDBRANCH  12  13
ENDBRANCH  11  12
ENDBRANCH  10  11
ENDBRANCH   1  10
TORSDOF 13
ENDMDL
MODEL 3
REMARK VINA RESULT:    -4.798      2.510      6.094
REMARK INTER + INTRA:          -9.635
REMARK INTER:                  -7.889
REMARK INTRA:                  -1.746
REMARK UNBOUND:                -1.191
REMARK SMILES CCCCCCCCCCCCCCC(=O)[O-]
REMARK SMILES IDX 9 1 10 2 11 3 12 4 13 5 14 6 15 7 16 8 17 9 8 10 7 11 6 12
REMARK SMILES IDX 5 13 4 14 3 15 2 16 1 17
REMARK H PARENT
REMARK Flexibility Score: inf
ROOT
ATOM      1  C   UNL     1      -4.861  36.072  22.352  1.00  0.00     0.000 C 
ENDROOT
BRANCH   1   2
ATOM      2  C   UNL     1      -5.843  36.504  21.250  1.00  0.00     0.000 C 
BRANCH   2   3
ATOM      3  C   UNL     1      -5.223  36.430  19.845  1.00  0.00     0.000 C 
BRANCH   3   4
ATOM      4  C   UNL     1      -3.760  36.903  19.818  1.00  0.00     0.000 C 
BRANCH   4   5
ATOM      5  C   UNL     1      -3.549  38.127  18.909  1.00  0.00     0.006 C 
BRANCH   5   6
ATOM      6  C   UNL     1      -2.203  38.077  18.174  1.00  0.00     0.053 C 
BRANCH   6   7
ATOM      7  C   UNL     1      -2.357  37.613  16.758  1.00  0.00     0.041 C 
ATOM      8  O   UNL     1      -1.898  36.495  16.405  1.00  0.00    -0.550 OA
ATOM      9  O   UNL     1      -2.979  38.429  15.821  1.00  0.00    -0.550 OA
ENDBRANCH   6   7
ENDBRANCH   5   6
ENDBRANCH   4   5
ENDBRANCH   3   4
ENDBRANCH   2   3
ENDBRANCH   1   2
BRANCH   1  10
ATOM     10  C   UNL     1      -5.563  35.361  23.523  1.00  0.00     0.000 C 
BRANCH  10  11
ATOM     11  C   UNL     1      -6.091  36.343  24.581  1.00  0.00    -0.000 C 
BRANCH  11  12
ATOM     12  C   UNL     1      -4.965  37.081  25.321  1.00  0.00    -0.000 C 
BRANCH  12  13
ATOM     13  C   UNL     1      -5.375  38.522  25.647  1.00  0.00    -0.000 C 
BRANCH  13  14
ATOM     14  C   UNL     1      -5.466  39.371  24.372  1.00  0.00    -0.000 C 
BRANCH  14  15
ATOM     15  C   UNL     1      -4.101  39.470  23.677  1.00  0.00    -0.000 C 
BRANCH  15  16
ATOM     16  C   UNL     1      -4.223  39.752  22.172  1.00  0.00    -0.003 C 
ATOM     17  C   UNL     1      -5.620  40.224  21.772  1.00  0.00     0.004 C 
ENDBRANCH  15  16
ENDBRANCH  14  15
ENDBRANCH  13  14
ENDBRANCH  12  13
ENDBRANCH  11  12
ENDBRANCH  10  11
ENDBRANCH   1  10
TORSDOF 13
ENDMDL
MODEL 4
REMARK VINA RESULT:    -4.689      1.405      2.421
REMARK INTER + INTRA:          -9.444
REMARK INTER:                  -8.619
REMARK INTRA:                  -0.825
REMARK UNBOUND:                -1.191
REMARK SMILES CCCCCCCCCCCCCCC(=O)[O-]
REMARK SMILES IDX 9 1 10 2 11 3 12 4 13 5 14 6 15 7 16 8 17 9 8 10 7 11 6 12
REMARK SMILES IDX 5 13 4 14 3 15 2 16 1 17
REMARK H PARENT
REMARK Flexibility Score: inf
ROOT
ATOM      1  C   UNL     1      -5.250  38.090  21.303  1.00  0.00     0.000 C 
ENDROOT
BRANCH   1   2
ATOM      2  C   UNL     1      -5.688  36.619  21.386  1.00  0.00     0.000 C 
BRANCH   2   3
ATOM      3  C   UNL     1      -4.875  35.818  22.418  1.00  0.00     0.000 C 
BRANCH   3   4
ATOM      4  C   UNL     1      -5.737  35.317  23.589  1.00  0.00     0.000 C 
BRANCH   4   5
ATOM      5  C   UNL     1      -5.986  36.402  24.651  1.00  0.00     0.006 C 
BRANCH   5   6
ATOM      6  C   UNL     1      -4.707  37.176  24.998  1.00  0.00     0.053 C 
BRANCH   6   7
ATOM      7  C   UNL     1      -4.991  38.615  25.305  1.00  0.00     0.041 C 
ATOM      8  O   UNL     1      -5.421  38.947  26.440  1.00  0.00    -0.550 OA
ATOM      9  O   UNL     1      -4.810  39.585  24.326  1.00  0.00    -0.550 OA
ENDBRANCH   6   7
ENDBRANCH   5   6
ENDBRANCH   4   5
ENDBRANCH   3   4
ENDBRANCH   2   3
ENDBRANCH   1   2
BRANCH   1  10
ATOM     10  C   UNL     1      -4.806  38.495  19.885  1.00  0.00     0.000 C 
BRANCH  10  11
ATOM     11  C   UNL     1      -3.452  37.883  19.493  1.00  0.00    -0.000 C 
BRANCH  11  12
ATOM     12  C   UNL     1      -3.062  38.183  18.038  1.00  0.00    -0.000 C 
BRANCH  12  13
ATOM     13  C   UNL     1      -1.722  37.528  17.682  1.00  0.00    -0.000 C 
BRANCH  13  14
ATOM     14  C   UNL     1      -1.854  36.641  16.438  1.00  0.00    -0.000 C 
BRANCH  14  15
ATOM     15  C   UNL     1      -1.792  37.480  15.154  1.00  0.00    -0.000 C 
BRANCH  15  16
ATOM     16  C   UNL     1      -3.124  37.486  14.387  1.00  0.00    -0.003 C 
ATOM     17  C   UNL     1      -3.727  38.885  14.264  1.00  0.00     0.004 C 
ENDBRANCH  15  16
ENDBRANCH  14  15
ENDBRANCH  13  14
ENDBRANCH  12  13
ENDBRANCH  11  12
ENDBRANCH  10  11
ENDBRANCH   1  10
TORSDOF 13
ENDMDL
MODEL 5
REMARK VINA RESULT:    -4.657      1.946      2.760
REMARK INTER + INTRA:          -9.387
REMARK INTER:                  -8.291
REMARK INTRA:                  -1.096
REMARK UNBOUND:                -1.191
REMARK SMILES CCCCCCCCCCCCCCC(=O)[O-]
REMARK SMILES IDX 9 1 10 2 11 3 12 4 13 5 14 6 15 7 16 8 17 9 8 10 7 11 6 12
REMARK SMILES IDX 5 13 4 14 3 15 2 16 1 17
REMARK H PARENT
REMARK Flexibility Score: inf
ROOT
ATOM      1  C   UNL     1      -5.302  36.985  20.647  1.00  0.00     0.000 C 
ENDROOT
BRANCH   1   2
ATOM      2  C   UNL     1      -5.198  38.516  20.553  1.00  0.00     0.000 C 
BRANCH   2   3
ATOM      3  C   UNL     1      -4.236  39.108  21.598  1.00  0.00     0.000 C 
BRANCH   3   4
ATOM      4  C   UNL     1      -4.899  40.189  22.466  1.00  0.00     0.000 C 
BRANCH   4   5
ATOM      5  C   UNL     1      -4.978  39.793  23.951  1.00  0.00     0.006 C 
BRANCH   5   6
ATOM      6  C   UNL     1      -5.855  38.554  24.175  1.00  0.00     0.053 C 
BRANCH   6   7
ATOM      7  C   UNL     1      -5.065  37.398  24.706  1.00  0.00     0.041 C 
ATOM      8  O   UNL     1      -5.214  36.249  24.212  1.00  0.00    -0.550 OA
ATOM      9  O   UNL     1      -4.188  37.583  25.768  1.00  0.00    -0.550 OA
ENDBRANCH   6   7
ENDBRANCH   5   6
ENDBRANCH   4   5
ENDBRANCH   3   4
ENDBRANCH   2   3
ENDBRANCH   1   2
BRANCH   1  10
ATOM     10  C   UNL     1      -4.077  36.272  20.048  1.00  0.00     0.000 C 
BRANCH  10  11
ATOM     11  C   UNL     1      -4.372  35.641  18.677  1.00  0.00    -0.000 C 
BRANCH  11  12
ATOM     12  C   UNL     1      -3.490  36.211  17.557  1.00  0.00    -0.000 C 
BRANCH  12  13
ATOM     13  C   UNL     1      -2.823  37.520  17.997  1.00  0.00    -0.000 C 
BRANCH  13  14
ATOM     14  C   UNL     1      -2.116  38.203  16.820  1.00  0.00    -0.000 C 
BRANCH  14  15
ATOM     15  C   UNL     1      -1.719  37.178  15.747  1.00  0.00    -0.000 C 
BRANCH  15  16
ATOM     16  C   UNL     1      -2.345  37.485  14.377  1.00  0.00    -0.003 C 
ATOM     17  C   UNL     1      -3.506  38.474  14.467  1.00  0.00     0.004 C 
ENDBRANCH  15  16
ENDBRANCH  14  15
ENDBRANCH  13  14
ENDBRANCH  12  13
ENDBRANCH  11  12
ENDBRANCH  10  11
ENDBRANCH   1  10
TORSDOF 13
ENDMDL
MODEL 6
REMARK VINA RESULT:    -4.619      0.952      1.740
REMARK INTER + INTRA:          -9.321
REMARK INTER:                  -8.129
REMARK INTRA:                  -1.192
REMARK UNBOUND:                -1.191
REMARK SMILES CCCCCCCCCCCCCCC(=O)[O-]
REMARK SMILES IDX 9 1 10 2 11 3 12 4 13 5 14 6 15 7 16 8 17 9 8 10 7 11 6 12
REMARK SMILES IDX 5 13 4 14 3 15 2 16 1 17
REMARK H PARENT
REMARK Flexibility Score: inf
ROOT
ATOM      1  C   UNL     1      -4.523  36.162  22.043  1.00  0.00     0.000 C 
ENDROOT
BRANCH   1   2
ATOM      2  C   UNL     1      -5.097  35.582  23.347  1.00  0.00     0.000 C 
BRANCH   2   3
ATOM      3  C   UNL     1      -5.914  36.614  24.143  1.00  0.00     0.000 C 
BRANCH   3   4
ATOM      4  C   UNL     1      -5.058  37.390  25.158  1.00  0.00     0.000 C 
BRANCH   4   5
ATOM      5  C   UNL     1      -4.835  38.857  24.749  1.00  0.00     0.006 C 
BRANCH   5   6
ATOM      6  C   UNL     1      -5.794  39.300  23.636  1.00  0.00     0.053 C 
BRANCH   6   7
ATOM      7  C   UNL     1      -5.077  40.010  22.529  1.00  0.00     0.041 C 
ATOM      8  O   UNL     1      -3.836  39.859  22.380  1.00  0.00    -0.550 OA
ATOM      9  O   UNL     1      -5.773  40.863  21.683  1.00  0.00    -0.550 OA
ENDBRANCH   6   7
ENDBRANCH   5   6
ENDBRANCH   4   5
ENDBRANCH   3   4
ENDBRANCH   2   3
ENDBRANCH   1   2
BRANCH   1  10
ATOM     10  C   UNL     1      -5.615  36.731  21.119  1.00  0.00     0.000 C 
BRANCH  10  11
ATOM     11  C   UNL     1      -5.439  36.290  19.657  1.00  0.00    -0.000 C 
BRANCH  11  12
ATOM     12  C   UNL     1      -3.967  36.248  19.221  1.00  0.00    -0.000 C 
BRANCH  12  13
ATOM     13  C   UNL     1      -3.835  35.712  17.790  1.00  0.00    -0.000 C 
BRANCH  13  14
ATOM     14  C   UNL     1      -3.200  36.759  16.865  1.00  0.00    -0.000 C 
BRANCH  14  15
ATOM     15  C   UNL     1      -2.631  37.934  17.673  1.00  0.00    -0.000 C 
BRANCH  15  16
ATOM     16  C   UNL     1      -1.097  37.901  17.763  1.00  0.00    -0.003 C 
ATOM     17  C   UNL     1      -0.574  38.415  19.104  1.00  0.00     0.004 C 
ENDBRANCH  15  16
ENDBRANCH  14  15
ENDBRANCH  13  14
ENDBRANCH  12  13
ENDBRANCH  11  12
ENDBRANCH  10  11
ENDBRANCH   1  10
TORSDOF 13
ENDMDL
MODEL 7
REMARK VINA RESULT:    -4.468      1.864      6.211
REMARK INTER + INTRA:          -9.055
REMARK INTER:                  -7.775
REMARK INTRA:                  -1.280
REMARK UNBOUND:                -1.191
REMARK SMILES CCCCCCCCCCCCCCC(=O)[O-]
REMARK SMILES IDX 9 1 10 2 11 3 12 4 13 5 14 6 15 7 16 8 17 9 8 10 7 11 6 12
REMARK SMILES IDX 5 13 4 14 3 15 2 16 1 17
REMARK H PARENT
REMARK Flexibility Score: inf
ROOT
ATOM      1  C   UNL     1      -4.629  36.904  20.991  1.00  0.00     0.000 C 
ENDROOT
BRANCH   1   2
ATOM      2  C   UNL     1      -5.024  37.013  19.509  1.00  0.00     0.000 C 
BRANCH   2   3
ATOM      3  C   UNL     1      -4.790  35.702  18.738  1.00  0.00     0.000 C 
BRANCH   3   4
ATOM      4  C   UNL     1      -3.628  35.804  17.737  1.00  0.00     0.000 C 
BRANCH   4   5
ATOM      5  C   UNL     1      -3.270  37.259  17.388  1.00  0.00     0.006 C 
BRANCH   5   6
ATOM      6  C   UNL     1      -1.754  37.494  17.371  1.00  0.00     0.053 C 
BRANCH   6   7
ATOM      7  C   UNL     1      -1.289  38.235  18.587  1.00  0.00     0.041 C 
ATOM      8  O   UNL     1      -0.059  38.327  18.841  1.00  0.00    -0.550 OA
ATOM      9  O   UNL     1      -2.215  38.797  19.457  1.00  0.00    -0.550 OA
ENDBRANCH   6   7
ENDBRANCH   5   6
ENDBRANCH   4   5
ENDBRANCH   3   4
ENDBRANCH   2   3
ENDBRANCH   1   2
BRANCH   1  10
ATOM     10  C   UNL     1      -5.769  36.353  21.867  1.00  0.00     0.000 C 
BRANCH  10  11
ATOM     11  C   UNL     1      -5.259  35.720  23.171  1.00  0.00    -0.000 C 
BRANCH  11  12
ATOM     12  C   UNL     1      -6.029  36.204  24.409  1.00  0.00    -0.000 C 
BRANCH  12  13
ATOM     13  C   UNL     1      -6.119  37.734  24.435  1.00  0.00    -0.000 C 
BRANCH  13  14
ATOM     14  C   UNL     1      -4.808  38.356  24.932  1.00  0.00    -0.000 C 
BRANCH  14  15
ATOM     15  C   UNL     1      -4.591  39.747  24.319  1.00  0.00    -0.000 C 
BRANCH  15  16
ATOM     16  C   UNL     1      -4.344  39.692  22.803  1.00  0.00    -0.003 C 
ATOM     17  C   UNL     1      -5.458  40.360  21.999  1.00  0.00     0.004 C 
ENDBRANCH  15  16
ENDBRANCH  14  15
ENDBRANCH  13  14
ENDBRANCH  12  13
ENDBRANCH  11  12
ENDBRANCH  10  11
ENDBRANCH   1  10
TORSDOF 13
ENDMDL
MODEL 8
REMARK VINA RESULT:    -4.308      1.982      2.937
REMARK INTER + INTRA:          -8.772
REMARK INTER:                  -7.997
REMARK INTRA:                  -0.776
REMARK UNBOUND:                -1.191
REMARK SMILES CCCCCCCCCCCCCCC(=O)[O-]
REMARK SMILES IDX 9 1 10 2 11 3 12 4 13 5 14 6 15 7 16 8 17 9 8 10 7 11 6 12
REMARK SMILES IDX 5 13 4 14 3 15 2 16 1 17
REMARK H PARENT
REMARK Flexibility Score: inf
ROOT
ATOM      1  C   UNL     1      -4.080  39.184  21.814  1.00  0.00     0.000 C 
ENDROOT
BRANCH   1   2
ATOM      2  C   UNL     1      -4.675  39.861  23.060  1.00  0.00     0.000 C 
BRANCH   2   3
ATOM      3  C   UNL     1      -4.220  39.192  24.369  1.00  0.00     0.000 C 
BRANCH   3   4
ATOM      4  C   UNL     1      -5.402  38.762  25.254  1.00  0.00     0.000 C 
BRANCH   4   5
ATOM      5  C   UNL     1      -5.658  37.245  25.207  1.00  0.00     0.006 C 
BRANCH   5   6
ATOM      6  C   UNL     1      -6.124  36.779  23.821  1.00  0.00     0.053 C 
BRANCH   6   7
ATOM      7  C   UNL     1      -5.521  35.462  23.442  1.00  0.00     0.041 C 
ATOM      8  O   UNL     1      -5.938  34.398  23.971  1.00  0.00    -0.550 OA
ATOM      9  O   UNL     1      -4.476  35.411  22.527  1.00  0.00    -0.550 OA
ENDBRANCH   6   7
ENDBRANCH   5   6
ENDBRANCH   4   5
ENDBRANCH   3   4
ENDBRANCH   2   3
ENDBRANCH   1   2
BRANCH   1  10
ATOM     10  C   UNL     1      -5.153  38.509  20.940  1.00  0.00     0.000 C 
BRANCH  10  11
ATOM     11  C   UNL     1      -4.674  38.265  19.500  1.00  0.00    -0.000 C 
BRANCH  11  12
ATOM     12  C   UNL     1      -3.402  37.406  19.433  1.00  0.00    -0.000 C 
BRANCH  12  13
ATOM     13  C   UNL     1      -2.214  38.225  18.916  1.00  0.00    -0.000 C 
BRANCH  13  14
ATOM     14  C   UNL     1      -1.756  37.726  17.540  1.00  0.00    -0.000 C 
BRANCH  14  15
ATOM     15  C   UNL     1      -2.719  38.191  16.437  1.00  0.00    -0.000 C 
BRANCH  15  16
ATOM     16  C   UNL     1      -2.656  37.303  15.185  1.00  0.00    -0.003 C 
ATOM     17  C   UNL     1      -3.457  37.874  14.015  1.00  0.00     0.004 C 
ENDBRANCH  15  16
ENDBRANCH  14  15
ENDBRANCH  13  14
ENDBRANCH  12  13
ENDBRANCH  11  12
ENDBRANCH  10  11
ENDBRANCH   1  10
TORSDOF 13
ENDMDL
MODEL 9
REMARK VINA RESULT:    -3.934      3.040      7.066
REMARK INTER + INTRA:          -8.114
REMARK INTER:                  -6.991
REMARK INTRA:                  -1.123
REMARK UNBOUND:                -1.191
REMARK SMILES CCCCCCCCCCCCCCC(=O)[O-]
REMARK SMILES IDX 9 1 10 2 11 3 12 4 13 5 14 6 15 7 16 8 17 9 8 10 7 11 6 12
REMARK SMILES IDX 5 13 4 14 3 15 2 16 1 17
REMARK H PARENT
REMARK Flexibility Score: inf
ROOT
ATOM      1  C   UNL     1      -4.059  38.680  21.358  1.00  0.00     0.000 C 
ENDROOT
BRANCH   1   2
ATOM      2  C   UNL     1      -4.471  38.092  19.998  1.00  0.00     0.000 C 
BRANCH   2   3
ATOM      3  C   UNL     1      -3.620  36.874  19.599  1.00  0.00     0.000 C 
BRANCH   3   4
ATOM      4  C   UNL     1      -3.531  36.689  18.075  1.00  0.00     0.000 C 
BRANCH   4   5
ATOM      5  C   UNL     1      -2.599  37.714  17.405  1.00  0.00     0.006 C 
BRANCH   5   6
ATOM      6  C   UNL     1      -1.786  37.096  16.260  1.00  0.00     0.053 C 
BRANCH   6   7
ATOM      7  C   UNL     1      -2.325  37.487  14.918  1.00  0.00     0.041 C 
ATOM      8  O   UNL     1      -1.594  37.410  13.896  1.00  0.00    -0.550 OA
ATOM      9  O   UNL     1      -3.624  37.966  14.801  1.00  0.00    -0.550 OA
ENDBRANCH   6   7
ENDBRANCH   5   6
ENDBRANCH   4   5
ENDBRANCH   3   4
ENDBRANCH   2   3
ENDBRANCH   1   2
BRANCH   1  10
ATOM     10  C   UNL     1      -5.056  39.734  21.872  1.00  0.00     0.000 C 
BRANCH  10  11
ATOM     11  C   UNL     1      -4.664  40.296  23.248  1.00  0.00    -0.000 C 
BRANCH  11  12
ATOM     12  C   UNL     1      -5.306  39.524  24.410  1.00  0.00    -0.000 C 
BRANCH  12  13
ATOM     13  C   UNL     1      -4.357  38.441  24.939  1.00  0.00    -0.000 C 
BRANCH  13  14
ATOM     14  C   UNL     1      -5.139  37.289  25.582  1.00  0.00    -0.000 C 
BRANCH  14  15
ATOM     15  C   UNL     1      -6.125  36.667  24.582  1.00  0.00    -0.000 C 
BRANCH  15  16
ATOM     16  C   UNL     1      -5.423  35.813  23.514  1.00  0.00    -0.003 C 
ATOM     17  C   UNL     1      -6.106  35.896  22.149  1.00  0.00     0.004 C 
ENDBRANCH  15  16
ENDBRANCH  14  15
ENDBRANCH  13  14
ENDBRANCH  12  13
ENDBRANCH  11  12
ENDBRANCH  10  11
ENDBRANCH   1  10
TORSDOF 13
ENDMDL
