MODEL 1
REMARK VINA RESULT:     1.281      0.000      0.000
REMARK INTER + INTRA:           1.383
REMARK INTER:                   1.806
REMARK INTRA:                  -0.422
REMARK UNBOUND:                -0.422
REMARK SMILES OC[C@@H]1O[C@H](O[C@@H]2OC=C[C@H]3[C@@H](O)[C@H]4O[C@@]4(CO)[C@@H]23)[C@@H](O)[C@@H](O)[C@H]1O
REMARK SMILES IDX 6 1 7 2 10 3 9 4 11 5 8 6 19 7 12 8 16 9 14 10 15 11 13 12
REMARK SMILES IDX 17 14 18 15 5 17 20 18 4 19 22 20 3 21 24 22 21 23 23 25
REMARK SMILES IDX 2 27 1 28 25 30
REMARK H PARENT 13 13 18 16 21 24 23 26 1 29 25 31
REMARK Flexibility Score: inf
ROOT
ATOM      1  O   UNL     1     -14.887 -33.333 -13.938  1.00  0.00    -0.310 OA
ENDROOT
BRANCH   1   2
ATOM      2  C   UNL     1     -15.672 -34.256 -14.669  1.00  0.00     0.315 C 
ATOM      3  C   UNL     1     -17.434 -36.479 -14.960  1.00  0.00     0.018 C 
ATOM      4  C   UNL     1     -17.877 -35.328 -14.450  1.00  0.00     0.186 C 
ATOM      5  C   UNL     1     -15.957 -36.775 -15.083  1.00  0.00     0.059 C 
ATOM      6  O   UNL     1     -16.987 -34.303 -14.119  1.00  0.00    -0.472 OA
ATOM      7  C   UNL     1     -15.024 -35.653 -14.584  1.00  0.00     0.105 C 
ATOM      8  C   UNL     1     -15.499 -37.125 -16.511  1.00  0.00     0.154 C 
ATOM      9  C   UNL     1     -13.778 -35.760 -15.469  1.00  0.00     0.130 C 
ATOM     10  C   UNL     1     -14.051 -36.652 -16.614  1.00  0.00     0.183 C 
ATOM     11  O   UNL     1     -13.913 -35.255 -16.778  1.00  0.00    -0.360 OA
BRANCH   8  12
ATOM     12  O   UNL     1     -16.300 -36.547 -17.516  1.00  0.00    -0.390 OA
ATOM     13  H   UNL     1     -17.233 -36.853 -17.381  1.00  0.00     0.211 HD
ENDBRANCH   8  12
BRANCH   9  14
ATOM     14  C   UNL     1     -12.356 -35.724 -14.909  1.00  0.00     0.195 C 
BRANCH  14  15
ATOM     15  O   UNL     1     -11.476 -35.173 -15.850  1.00  0.00    -0.393 OA
ATOM     16  H   UNL     1     -11.626 -35.666 -16.701  1.00  0.00     0.210 HD
ENDBRANCH  14  15
ENDBRANCH   9  14
ENDBRANCH   1   2
BRANCH   1  17
ATOM     17  C   UNL     1     -14.771 -33.707 -12.572  1.00  0.00     0.286 C 
ATOM     18  C   UNL     1     -15.596 -32.762 -11.671  1.00  0.00     0.202 C 
ATOM     19  O   UNL     1     -13.403 -33.766 -12.189  1.00  0.00    -0.341 OA
ATOM     20  C   UNL     1     -14.958 -31.369 -11.634  1.00  0.00     0.179 C 
ATOM     21  C   UNL     1     -12.745 -32.504 -12.145  1.00  0.00     0.178 C 
ATOM     22  C   UNL     1     -13.470 -31.469 -11.257  1.00  0.00     0.177 C 
BRANCH  18  23
ATOM     23  O   UNL     1     -15.682 -33.287 -10.370  1.00  0.00    -0.385 OA
ATOM     24  H   UNL     1     -16.591 -33.678 -10.281  1.00  0.00     0.211 HD
ENDBRANCH  18  23
BRANCH  20  25
ATOM     25  O   UNL     1     -15.649 -30.554 -10.720  1.00  0.00    -0.387 OA
ATOM     26  H   UNL     1     -16.327 -31.129 -10.278  1.00  0.00     0.211 HD
ENDBRANCH  20  25
BRANCH  21  27
ATOM     27  C   UNL     1     -12.388 -31.970 -13.550  1.00  0.00     0.191 C 
BRANCH  27  28
ATOM     28  O   UNL     1     -11.901 -33.005 -14.363  1.00  0.00    -0.394 OA
ATOM     29  H   UNL     1     -11.115 -32.641 -14.849  1.00  0.00     0.210 HD
ENDBRANCH  27  28
ENDBRANCH  21  27
BRANCH  22  30
ATOM     30  O   UNL     1     -13.333 -31.851  -9.910  1.00  0.00    -0.387 OA
ATOM     31  H   UNL     1     -14.120 -31.493  -9.423  1.00  0.00     0.211 HD
ENDBRANCH  22  30
ENDBRANCH   1  17
TORSDOF 10
ENDMDL
MODEL 2
REMARK VINA RESULT:     3.000      1.443      2.930
REMARK INTER + INTRA:           3.805
REMARK INTER:                   1.367
REMARK INTRA:                   2.438
REMARK UNBOUND:                -0.422
REMARK SMILES OC[C@@H]1O[C@H](O[C@@H]2OC=C[C@H]3[C@@H](O)[C@H]4O[C@@]4(CO)[C@@H]23)[C@@H](O)[C@@H](O)[C@H]1O
REMARK SMILES IDX 6 1 7 2 10 3 9 4 11 5 8 6 19 7 12 8 16 9 14 10 15 11 13 12
REMARK SMILES IDX 17 14 18 15 5 17 20 18 4 19 22 20 3 21 24 22 21 23 23 25
REMARK SMILES IDX 2 27 1 28 25 30
REMARK H PARENT 13 13 18 16 21 24 23 26 1 29 25 31
REMARK Flexibility Score: inf
ROOT
ATOM      1  O   UNL     1     -15.304 -32.987 -13.133  1.00  0.00    -0.310 OA
ENDROOT
BRANCH   1   2
ATOM      2  C   UNL     1     -14.470 -33.824 -13.911  1.00  0.00     0.315 C 
ATOM      3  C   UNL     1     -13.062 -34.584 -16.271  1.00  0.00     0.018 C 
ATOM      4  C   UNL     1     -12.643 -33.551 -15.537  1.00  0.00     0.186 C 
ATOM      5  C   UNL     1     -14.445 -35.169 -16.099  1.00  0.00     0.059 C 
ATOM      6  O   UNL     1     -13.429 -33.046 -14.498  1.00  0.00    -0.472 OA
ATOM      7  C   UNL     1     -15.311 -34.488 -15.020  1.00  0.00     0.105 C 
ATOM      8  C   UNL     1     -14.459 -36.678 -15.785  1.00  0.00     0.154 C 
ATOM      9  C   UNL     1     -16.202 -35.606 -14.471  1.00  0.00     0.130 C 
ATOM     10  C   UNL     1     -15.707 -36.917 -14.938  1.00  0.00     0.183 C 
ATOM     11  O   UNL     1     -15.574 -36.511 -13.592  1.00  0.00    -0.360 OA
BRANCH   8  12
ATOM     12  O   UNL     1     -13.297 -37.125 -15.125  1.00  0.00    -0.390 OA
ATOM     13  H   UNL     1     -12.523 -36.624 -15.488  1.00  0.00     0.211 HD
ENDBRANCH   8  12
BRANCH   9  14
ATOM     14  C   UNL     1     -17.707 -35.442 -14.258  1.00  0.00     0.195 C 
BRANCH  14  15
ATOM     15  O   UNL     1     -18.229 -34.514 -15.169  1.00  0.00    -0.393 OA
ATOM     16  H   UNL     1     -19.068 -34.164 -14.767  1.00  0.00     0.210 HD
ENDBRANCH  14  15
ENDBRANCH   9  14
ENDBRANCH   1   2
BRANCH   1  17
ATOM     17  C   UNL     1     -15.208 -33.290 -11.747  1.00  0.00     0.286 C 
ATOM     18  C   UNL     1     -15.881 -32.190 -10.896  1.00  0.00     0.202 C 
ATOM     19  O   UNL     1     -13.852 -33.507 -11.380  1.00  0.00    -0.341 OA
ATOM     20  C   UNL     1     -15.064 -30.896 -10.956  1.00  0.00     0.179 C 
ATOM     21  C   UNL     1     -13.032 -32.345 -11.425  1.00  0.00     0.178 C 
ATOM     22  C   UNL     1     -13.594 -31.170 -10.593  1.00  0.00     0.177 C 
BRANCH  18  23
ATOM     23  O   UNL     1     -16.007 -32.620  -9.564  1.00  0.00    -0.385 OA
ATOM     24  H   UNL     1     -15.782 -31.839  -8.991  1.00  0.00     0.211 HD
ENDBRANCH  18  23
BRANCH  20  25
ATOM     25  O   UNL     1     -15.621 -29.942 -10.085  1.00  0.00    -0.387 OA
ATOM     26  H   UNL     1     -15.871 -29.158 -10.640  1.00  0.00     0.211 HD
ENDBRANCH  20  25
BRANCH  21  27
ATOM     27  C   UNL     1     -12.639 -31.948 -12.865  1.00  0.00     0.191 C 
BRANCH  27  28
ATOM     28  O   UNL     1     -11.495 -31.134 -12.858  1.00  0.00    -0.394 OA
ATOM     29  H   UNL     1     -11.375 -30.818 -11.925  1.00  0.00     0.210 HD
ENDBRANCH  27  28
ENDBRANCH  21  27
BRANCH  22  30
ATOM     30  O   UNL     1     -13.479 -31.485  -9.227  1.00  0.00    -0.387 OA
ATOM     31  H   UNL     1     -14.285 -32.009  -8.979  1.00  0.00     0.211 HD
ENDBRANCH  22  30
ENDBRANCH   1  17
TORSDOF 10
ENDMDL
MODEL 3
REMARK VINA RESULT:     3.002      1.338      5.616
REMARK INTER + INTRA:           3.808
REMARK INTER:                   4.652
REMARK INTRA:                  -0.844
REMARK UNBOUND:                -0.422
REMARK SMILES OC[C@@H]1O[C@H](O[C@@H]2OC=C[C@H]3[C@@H](O)[C@H]4O[C@@]4(CO)[C@@H]23)[C@@H](O)[C@@H](O)[C@H]1O
REMARK SMILES IDX 6 1 7 2 10 3 9 4 11 5 8 6 19 7 12 8 16 9 14 10 15 11 13 12
REMARK SMILES IDX 17 14 18 15 5 17 20 18 4 19 22 20 3 21 24 22 21 23 23 25
REMARK SMILES IDX 2 27 1 28 25 30
REMARK H PARENT 13 13 18 16 21 24 23 26 1 29 25 31
REMARK Flexibility Score: inf
ROOT
ATOM      1  O   UNL     1     -14.992 -34.992 -13.108  1.00  0.00    -0.310 OA
ENDROOT
BRANCH   1   2
ATOM      2  C   UNL     1     -14.857 -34.028 -12.082  1.00  0.00     0.315 C 
ATOM      3  C   UNL     1     -15.644 -31.739 -10.574  1.00  0.00     0.018 C 
ATOM      4  C   UNL     1     -16.321 -32.884 -10.467  1.00  0.00     0.186 C 
ATOM      5  C   UNL     1     -14.679 -31.492 -11.710  1.00  0.00     0.059 C 
ATOM      6  O   UNL     1     -16.072 -33.946 -11.341  1.00  0.00    -0.472 OA
ATOM      7  C   UNL     1     -14.541 -32.657 -12.713  1.00  0.00     0.105 C 
ATOM      8  C   UNL     1     -13.251 -31.129 -11.260  1.00  0.00     0.154 C 
ATOM      9  C   UNL     1     -13.093 -32.575 -13.209  1.00  0.00     0.130 C 
ATOM     10  C   UNL     1     -12.322 -31.650 -12.354  1.00  0.00     0.183 C 
ATOM     11  O   UNL     1     -12.113 -33.047 -12.313  1.00  0.00    -0.360 OA
BRANCH   8  12
ATOM     12  O   UNL     1     -12.908 -31.658 -10.000  1.00  0.00    -0.390 OA
ATOM     13  H   UNL     1     -13.673 -32.196  -9.672  1.00  0.00     0.211 HD
ENDBRANCH   8  12
BRANCH   9  14
ATOM     14  C   UNL     1     -12.714 -32.671 -14.687  1.00  0.00     0.195 C 
BRANCH  14  15
ATOM     15  O   UNL     1     -12.435 -34.000 -15.032  1.00  0.00    -0.393 OA
ATOM     16  H   UNL     1     -13.301 -34.413 -15.292  1.00  0.00     0.210 HD
ENDBRANCH  14  15
ENDBRANCH   9  14
ENDBRANCH   1   2
BRANCH   1  17
ATOM     17  C   UNL     1     -15.763 -34.498 -14.196  1.00  0.00     0.286 C 
ATOM     18  C   UNL     1     -17.191 -35.087 -14.170  1.00  0.00     0.202 C 
ATOM     19  O   UNL     1     -15.096 -34.744 -15.427  1.00  0.00    -0.341 OA
ATOM     20  C   UNL     1     -17.157 -36.581 -14.508  1.00  0.00     0.179 C 
ATOM     21  C   UNL     1     -15.018 -36.116 -15.797  1.00  0.00     0.178 C 
ATOM     22  C   UNL     1     -16.395 -36.818 -15.823  1.00  0.00     0.177 C 
BRANCH  18  23
ATOM     23  O   UNL     1     -18.010 -34.405 -15.086  1.00  0.00    -0.385 OA
ATOM     24  H   UNL     1     -18.870 -34.904 -15.125  1.00  0.00     0.211 HD
ENDBRANCH  18  23
BRANCH  20  25
ATOM     25  O   UNL     1     -18.469 -37.077 -14.598  1.00  0.00    -0.387 OA
ATOM     26  H   UNL     1     -19.070 -36.290 -14.672  1.00  0.00     0.211 HD
ENDBRANCH  20  25
BRANCH  21  27
ATOM     27  C   UNL     1     -13.947 -36.889 -14.996  1.00  0.00     0.191 C 
BRANCH  27  28
ATOM     28  O   UNL     1     -12.658 -36.531 -15.422  1.00  0.00    -0.394 OA
ATOM     29  H   UNL     1     -12.440 -35.670 -14.977  1.00  0.00     0.210 HD
ENDBRANCH  27  28
ENDBRANCH  21  27
BRANCH  22  30
ATOM     30  O   UNL     1     -17.135 -36.324 -16.913  1.00  0.00    -0.387 OA
ATOM     31  H   UNL     1     -16.899 -36.878 -17.702  1.00  0.00     0.211 HD
ENDBRANCH  22  30
ENDBRANCH   1  17
TORSDOF 10
ENDMDL
MODEL 4
REMARK VINA RESULT:     3.435      1.660      3.661
REMARK INTER + INTRA:           4.418
REMARK INTER:                   4.488
REMARK INTRA:                  -0.070
REMARK UNBOUND:                -0.422
REMARK SMILES OC[C@@H]1O[C@H](O[C@@H]2OC=C[C@H]3[C@@H](O)[C@H]4O[C@@]4(CO)[C@@H]23)[C@@H](O)[C@@H](O)[C@H]1O
REMARK SMILES IDX 6 1 7 2 10 3 9 4 11 5 8 6 19 7 12 8 16 9 14 10 15 11 13 12
REMARK SMILES IDX 17 14 18 15 5 17 20 18 4 19 22 20 3 21 24 22 21 23 23 25
REMARK SMILES IDX 2 27 1 28 25 30
REMARK H PARENT 13 13 18 16 21 24 23 26 1 29 25 31
REMARK Flexibility Score: inf
ROOT
ATOM      1  O   UNL     1     -14.582 -32.603 -13.024  1.00  0.00    -0.310 OA
ENDROOT
BRANCH   1   2
ATOM      2  C   UNL     1     -13.955 -33.659 -13.726  1.00  0.00     0.315 C 
ATOM      3  C   UNL     1     -12.473 -34.802 -15.877  1.00  0.00     0.018 C 
ATOM      4  C   UNL     1     -11.872 -34.008 -14.989  1.00  0.00     0.186 C 
ATOM      5  C   UNL     1     -13.978 -34.861 -15.997  1.00  0.00     0.059 C 
ATOM      6  O   UNL     1     -12.618 -33.287 -14.054  1.00  0.00    -0.472 OA
ATOM      7  C   UNL     1     -14.745 -33.946 -15.019  1.00  0.00     0.105 C 
ATOM      8  C   UNL     1     -14.571 -36.273 -15.834  1.00  0.00     0.154 C 
ATOM      9  C   UNL     1     -16.055 -34.690 -14.736  1.00  0.00     0.130 C 
ATOM     10  C   UNL     1     -15.962 -36.077 -15.236  1.00  0.00     0.183 C 
ATOM     11  O   UNL     1     -15.957 -35.784 -13.854  1.00  0.00    -0.360 OA
BRANCH   8  12
ATOM     12  O   UNL     1     -13.783 -37.124 -15.034  1.00  0.00    -0.390 OA
ATOM     13  H   UNL     1     -13.308 -37.757 -15.630  1.00  0.00     0.211 HD
ENDBRANCH   8  12
BRANCH   9  14
ATOM     14  C   UNL     1     -17.422 -34.006 -14.765  1.00  0.00     0.195 C 
BRANCH  14  15
ATOM     15  O   UNL     1     -18.425 -34.937 -15.065  1.00  0.00    -0.393 OA
ATOM     16  H   UNL     1     -19.150 -34.797 -14.400  1.00  0.00     0.210 HD
ENDBRANCH  14  15
ENDBRANCH   9  14
ENDBRANCH   1   2
BRANCH   1  17
ATOM     17  C   UNL     1     -13.853 -32.242 -11.857  1.00  0.00     0.286 C 
ATOM     18  C   UNL     1     -14.459 -32.910 -10.603  1.00  0.00     0.202 C 
ATOM     19  O   UNL     1     -13.779 -30.827 -11.738  1.00  0.00    -0.341 OA
ATOM     20  C   UNL     1     -15.825 -32.296 -10.280  1.00  0.00     0.179 C 
ATOM     21  C   UNL     1     -15.019 -30.190 -11.449  1.00  0.00     0.178 C 
ATOM     22  C   UNL     1     -15.720 -30.763 -10.196  1.00  0.00     0.177 C 
BRANCH  18  23
ATOM     23  O   UNL     1     -13.591 -32.756  -9.508  1.00  0.00    -0.385 OA
ATOM     24  H   UNL     1     -12.774 -33.283  -9.718  1.00  0.00     0.211 HD
ENDBRANCH  18  23
BRANCH  20  25
ATOM     25  O   UNL     1     -16.310 -32.827  -9.072  1.00  0.00    -0.387 OA
ATOM     26  H   UNL     1     -16.628 -33.746  -9.269  1.00  0.00     0.211 HD
ENDBRANCH  20  25
BRANCH  21  27
ATOM     27  C   UNL     1     -15.942 -30.095 -12.684  1.00  0.00     0.191 C 
BRANCH  27  28
ATOM     28  O   UNL     1     -16.453 -28.794 -12.818  1.00  0.00    -0.394 OA
ATOM     29  H   UNL     1     -15.874 -28.326 -13.474  1.00  0.00     0.210 HD
ENDBRANCH  27  28
ENDBRANCH  21  27
BRANCH  22  30
ATOM     30  O   UNL     1     -14.991 -30.385  -9.055  1.00  0.00    -0.387 OA
ATOM     31  H   UNL     1     -14.533 -31.198  -8.718  1.00  0.00     0.211 HD
ENDBRANCH  22  30
ENDBRANCH   1  17
TORSDOF 10
ENDMDL
