MODEL 1
REMARK VINA RESULT:    -3.697      0.000      0.000
REMARK INTER + INTRA:          -4.779
REMARK INTER:                  -4.453
REMARK INTRA:                  -0.325
REMARK UNBOUND:                -0.325
REMARK SMILES O=c1c(O)c(-c2ccc(O)c(O)c2)oc2cc(O)cc(O)c12
REMARK SMILES IDX 5 1 3 2 2 3 1 4 22 5 20 6 19 7 17 8 16 9 15 10 14 11 6 12
REMARK SMILES IDX 7 13 8 14 9 15 13 16 11 17 10 18 12 20 4 22 21 24 18 26
REMARK H PARENT 10 19 12 21 4 23 21 25 18 27
REMARK Flexibility Score: inf
ROOT
ATOM      1  C   UNL     1      19.302  34.899  44.344  1.00  0.00     0.180 A 
ATOM      2  C   UNL     1      19.909  36.062  44.847  1.00  0.00     0.208 A 
ATOM      3  C   UNL     1      21.220  35.985  45.343  1.00  0.00     0.238 A 
ATOM      4  O   UNL     1      21.739  37.018  45.842  1.00  0.00    -0.285 OA
ATOM      5  C   UNL     1      21.913  34.752  45.315  1.00  0.00     0.111 A 
ATOM      6  C   UNL     1      23.259  34.568  45.754  1.00  0.00     0.134 A 
ATOM      7  C   UNL     1      23.799  33.277  45.802  1.00  0.00     0.093 A 
ATOM      8  C   UNL     1      23.068  32.173  45.365  1.00  0.00     0.123 A 
ATOM      9  C   UNL     1      21.773  32.349  44.878  1.00  0.00     0.094 A 
ATOM     10  C   UNL     1      21.193  33.620  44.852  1.00  0.00     0.146 A 
ATOM     11  O   UNL     1      19.954  33.743  44.391  1.00  0.00    -0.452 OA
ENDROOT
BRANCH   1  12
ATOM     12  C   UNL     1      17.932  34.905  43.780  1.00  0.00     0.025 A 
ATOM     13  C   UNL     1      16.836  34.675  44.627  1.00  0.00     0.016 A 
ATOM     14  C   UNL     1      15.536  34.656  44.114  1.00  0.00     0.051 A 
ATOM     15  C   UNL     1      15.316  34.852  42.744  1.00  0.00     0.157 A 
ATOM     16  C   UNL     1      17.707  35.081  42.403  1.00  0.00     0.062 A 
ATOM     17  C   UNL     1      16.403  35.061  41.887  1.00  0.00     0.158 A 
BRANCH  15  18
ATOM     18  O   UNL     1      14.021  34.837  42.228  1.00  0.00    -0.504 OA
ATOM     19  H   UNL     1      13.224  35.110  42.790  1.00  0.00     0.293 HD
ENDBRANCH  15  18
BRANCH  17  20
ATOM     20  O   UNL     1      16.182  35.243  40.522  1.00  0.00    -0.504 OA
ATOM     21  H   UNL     1      15.261  35.136  40.115  1.00  0.00     0.293 HD
ENDBRANCH  17  20
ENDBRANCH   1  12
BRANCH   2  22
ATOM     22  O   UNL     1      19.198  37.265  44.886  1.00  0.00    -0.502 OA
ATOM     23  H   UNL     1      19.431  38.052  44.292  1.00  0.00     0.293 HD
ENDBRANCH   2  22
BRANCH   6  24
ATOM     24  O   UNL     1      24.108  35.614  46.125  1.00  0.00    -0.507 OA
ATOM     25  H   UNL     1      24.390  35.817  47.072  1.00  0.00     0.293 HD
ENDBRANCH   6  24
BRANCH   8  26
ATOM     26  O   UNL     1      23.643  30.905  45.412  1.00  0.00    -0.508 OA
ATOM     27  H   UNL     1      24.642  30.780  45.519  1.00  0.00     0.293 HD
ENDBRANCH   8  26
TORSDOF 6
ENDMDL
MODEL 2
REMARK VINA RESULT:    -3.638      1.684      7.301
REMARK INTER + INTRA:          -4.707
REMARK INTER:                  -4.419
REMARK INTRA:                  -0.289
REMARK UNBOUND:                -0.325
REMARK SMILES O=c1c(O)c(-c2ccc(O)c(O)c2)oc2cc(O)cc(O)c12
REMARK SMILES IDX 5 1 3 2 2 3 1 4 22 5 20 6 19 7 17 8 16 9 15 10 14 11 6 12
REMARK SMILES IDX 7 13 8 14 9 15 13 16 11 17 10 18 12 20 4 22 21 24 18 26
REMARK H PARENT 10 19 12 21 4 23 21 25 18 27
REMARK Flexibility Score: inf
ROOT
ATOM      1  C   UNL     1      18.130  34.993  43.883  1.00  0.00     0.180 A 
ATOM      2  C   UNL     1      17.068  34.708  44.759  1.00  0.00     0.208 A 
ATOM      3  C   UNL     1      15.763  34.636  44.244  1.00  0.00     0.238 A 
ATOM      4  O   UNL     1      14.810  34.434  45.042  1.00  0.00    -0.285 OA
ATOM      5  C   UNL     1      15.539  34.832  42.861  1.00  0.00     0.111 A 
ATOM      6  C   UNL     1      14.264  34.741  42.226  1.00  0.00     0.134 A 
ATOM      7  C   UNL     1      14.141  35.082  40.873  1.00  0.00     0.093 A 
ATOM      8  C   UNL     1      15.255  35.447  40.118  1.00  0.00     0.123 A 
ATOM      9  C   UNL     1      16.515  35.482  40.714  1.00  0.00     0.094 A 
ATOM     10  C   UNL     1      16.665  35.181  42.071  1.00  0.00     0.146 A 
ATOM     11  O   UNL     1      17.880  35.236  42.602  1.00  0.00    -0.452 OA
ENDROOT
BRANCH   1  12
ATOM     12  C   UNL     1      19.536  35.061  44.345  1.00  0.00     0.025 A 
ATOM     13  C   UNL     1      20.375  33.949  44.171  1.00  0.00     0.016 A 
ATOM     14  C   UNL     1      21.698  33.982  44.618  1.00  0.00     0.051 A 
ATOM     15  C   UNL     1      22.197  35.124  45.259  1.00  0.00     0.157 A 
ATOM     16  C   UNL     1      20.036  36.197  45.007  1.00  0.00     0.062 A 
ATOM     17  C   UNL     1      21.363  36.231  45.457  1.00  0.00     0.158 A 
BRANCH  15  18
ATOM     18  O   UNL     1      23.517  35.163  45.704  1.00  0.00    -0.504 OA
ATOM     19  H   UNL     1      23.798  34.718  46.570  1.00  0.00     0.293 HD
ENDBRANCH  15  18
BRANCH  17  20
ATOM     20  O   UNL     1      21.858  37.361  46.108  1.00  0.00    -0.504 OA
ATOM     21  H   UNL     1      21.851  38.273  45.667  1.00  0.00     0.293 HD
ENDBRANCH  17  20
ENDBRANCH   1  12
BRANCH   2  22
ATOM     22  O   UNL     1      17.309  34.540  46.125  1.00  0.00    -0.502 OA
ATOM     23  H   UNL     1      17.163  35.283  46.797  1.00  0.00     0.293 HD
ENDBRANCH   2  22
BRANCH   6  24
ATOM     24  O   UNL     1      13.103  34.298  42.866  1.00  0.00    -0.507 OA
ATOM     25  H   UNL     1      13.072  33.914  43.799  1.00  0.00     0.293 HD
ENDBRANCH   6  24
BRANCH   8  26
ATOM     26  O   UNL     1      15.097  35.766  38.770  1.00  0.00    -0.508 OA
ATOM     27  H   UNL     1      14.222  35.606  38.287  1.00  0.00     0.293 HD
ENDBRANCH   8  26
TORSDOF 6
ENDMDL
MODEL 3
REMARK VINA RESULT:    -3.578      2.169      7.276
REMARK INTER + INTRA:          -4.636
REMARK INTER:                  -4.317
REMARK INTRA:                  -0.318
REMARK UNBOUND:                -0.325
REMARK SMILES O=c1c(O)c(-c2ccc(O)c(O)c2)oc2cc(O)cc(O)c12
REMARK SMILES IDX 5 1 3 2 2 3 1 4 22 5 20 6 19 7 17 8 16 9 15 10 14 11 6 12
REMARK SMILES IDX 7 13 8 14 9 15 13 16 11 17 10 18 12 20 4 22 21 24 18 26
REMARK H PARENT 10 19 12 21 4 23 21 25 18 27
REMARK Flexibility Score: inf
ROOT
ATOM      1  C   UNL     1      17.834  35.152  43.784  1.00  0.00     0.180 A 
ATOM      2  C   UNL     1      16.926  34.350  44.497  1.00  0.00     0.208 A 
ATOM      3  C   UNL     1      15.789  33.857  43.836  1.00  0.00     0.238 A 
ATOM      4  O   UNL     1      14.953  33.185  44.494  1.00  0.00    -0.285 OA
ATOM      5  C   UNL     1      15.582  34.159  42.470  1.00  0.00     0.111 A 
ATOM      6  C   UNL     1      14.487  33.680  41.691  1.00  0.00     0.134 A 
ATOM      7  C   UNL     1      14.313  34.148  40.382  1.00  0.00     0.093 A 
ATOM      8  C   UNL     1      15.229  35.026  39.803  1.00  0.00     0.123 A 
ATOM      9  C   UNL     1      16.336  35.453  40.535  1.00  0.00     0.094 A 
ATOM     10  C   UNL     1      16.518  35.032  41.855  1.00  0.00     0.146 A 
ATOM     11  O   UNL     1      17.579  35.471  42.520  1.00  0.00    -0.452 OA
ENDROOT
BRANCH   1  12
ATOM     12  C   UNL     1      19.069  35.687  44.404  1.00  0.00     0.025 A 
ATOM     13  C   UNL     1      19.022  36.909  45.093  1.00  0.00     0.016 A 
ATOM     14  C   UNL     1      20.178  37.444  45.667  1.00  0.00     0.051 A 
ATOM     15  C   UNL     1      21.401  36.769  45.550  1.00  0.00     0.157 A 
ATOM     16  C   UNL     1      20.302  35.024  44.271  1.00  0.00     0.062 A 
ATOM     17  C   UNL     1      21.463  35.559  44.847  1.00  0.00     0.158 A 
BRANCH  15  18
ATOM     18  O   UNL     1      22.556  37.297  46.124  1.00  0.00    -0.504 OA
ATOM     19  H   UNL     1      23.401  37.434  45.583  1.00  0.00     0.293 HD
ENDBRANCH  15  18
BRANCH  17  20
ATOM     20  O   UNL     1      22.684  34.897  44.719  1.00  0.00    -0.504 OA
ATOM     21  H   UNL     1      23.071  34.349  45.477  1.00  0.00     0.293 HD
ENDBRANCH  17  20
ENDBRANCH   1  12
BRANCH   2  22
ATOM     22  O   UNL     1      17.138  34.083  45.852  1.00  0.00    -0.502 OA
ATOM     23  H   UNL     1      18.017  34.284  46.314  1.00  0.00     0.293 HD
ENDBRANCH   2  22
BRANCH   6  24
ATOM     24  O   UNL     1      13.564  32.731  42.141  1.00  0.00    -0.507 OA
ATOM     25  H   UNL     1      12.686  32.525  41.690  1.00  0.00     0.293 HD
ENDBRANCH   6  24
BRANCH   8  26
ATOM     26  O   UNL     1      15.033  35.459  38.493  1.00  0.00    -0.508 OA
ATOM     27  H   UNL     1      14.106  35.643  38.130  1.00  0.00     0.293 HD
ENDBRANCH   8  26
TORSDOF 6
ENDMDL
MODEL 4
REMARK VINA RESULT:    -3.530      1.615      3.411
REMARK INTER + INTRA:          -4.578
REMARK INTER:                  -4.255
REMARK INTRA:                  -0.323
REMARK UNBOUND:                -0.325
REMARK SMILES O=c1c(O)c(-c2ccc(O)c(O)c2)oc2cc(O)cc(O)c12
REMARK SMILES IDX 5 1 3 2 2 3 1 4 22 5 20 6 19 7 17 8 16 9 15 10 14 11 6 12
REMARK SMILES IDX 7 13 8 14 9 15 13 16 11 17 10 18 12 20 4 22 21 24 18 26
REMARK H PARENT 10 19 12 21 4 23 21 25 18 27
REMARK Flexibility Score: inf
ROOT
ATOM      1  C   UNL     1      17.761  34.670  43.086  1.00  0.00     0.180 A 
ATOM      2  C   UNL     1      18.295  33.375  42.966  1.00  0.00     0.208 A 
ATOM      3  C   UNL     1      19.531  33.090  43.566  1.00  0.00     0.238 A 
ATOM      4  O   UNL     1      20.029  31.945  43.409  1.00  0.00    -0.285 OA
ATOM      5  C   UNL     1      20.210  34.097  44.292  1.00  0.00     0.111 A 
ATOM      6  C   UNL     1      21.449  33.907  44.975  1.00  0.00     0.134 A 
ATOM      7  C   UNL     1      22.095  35.008  45.552  1.00  0.00     0.093 A 
ATOM      8  C   UNL     1      21.518  36.277  45.528  1.00  0.00     0.123 A 
ATOM      9  C   UNL     1      20.278  36.462  44.915  1.00  0.00     0.094 A 
ATOM     10  C   UNL     1      19.626  35.390  44.299  1.00  0.00     0.146 A 
ATOM     11  O   UNL     1      18.453  35.611  43.718  1.00  0.00    -0.452 OA
ENDROOT
BRANCH   1  12
ATOM     12  C   UNL     1      16.451  35.041  42.502  1.00  0.00     0.025 A 
ATOM     13  C   UNL     1      15.283  34.871  43.263  1.00  0.00     0.016 A 
ATOM     14  C   UNL     1      14.034  35.193  42.725  1.00  0.00     0.051 A 
ATOM     15  C   UNL     1      13.935  35.677  41.414  1.00  0.00     0.157 A 
ATOM     16  C   UNL     1      16.343  35.507  41.180  1.00  0.00     0.062 A 
ATOM     17  C   UNL     1      15.091  35.830  40.639  1.00  0.00     0.158 A 
BRANCH  15  18
ATOM     18  O   UNL     1      12.691  36.002  40.875  1.00  0.00    -0.504 OA
ATOM     19  H   UNL     1      12.370  36.962  40.824  1.00  0.00     0.293 HD
ENDBRANCH  15  18
BRANCH  17  20
ATOM     20  O   UNL     1      14.987  36.298  39.329  1.00  0.00    -0.504 OA
ATOM     21  H   UNL     1      15.702  36.885  38.918  1.00  0.00     0.293 HD
ENDBRANCH  17  20
ENDBRANCH   1  12
BRANCH   2  22
ATOM     22  O   UNL     1      17.617  32.402  42.225  1.00  0.00    -0.502 OA
ATOM     23  H   UNL     1      16.612  32.418  42.100  1.00  0.00     0.293 HD
ENDBRANCH   2  22
BRANCH   6  24
ATOM     24  O   UNL     1      22.068  32.665  45.138  1.00  0.00    -0.507 OA
ATOM     25  H   UNL     1      21.929  31.869  44.533  1.00  0.00     0.293 HD
ENDBRANCH   6  24
BRANCH   8  26
ATOM     26  O   UNL     1      22.181  37.346  46.125  1.00  0.00    -0.508 OA
ATOM     27  H   UNL     1      22.125  38.283  45.745  1.00  0.00     0.293 HD
ENDBRANCH   8  26
TORSDOF 6
ENDMDL
MODEL 5
REMARK VINA RESULT:    -3.413      3.866      5.270
REMARK INTER + INTRA:          -4.437
REMARK INTER:                  -4.205
REMARK INTRA:                  -0.232
REMARK UNBOUND:                -0.325
REMARK SMILES O=c1c(O)c(-c2ccc(O)c(O)c2)oc2cc(O)cc(O)c12
REMARK SMILES IDX 5 1 3 2 2 3 1 4 22 5 20 6 19 7 17 8 16 9 15 10 14 11 6 12
REMARK SMILES IDX 7 13 8 14 9 15 13 16 11 17 10 18 12 20 4 22 21 24 18 26
REMARK H PARENT 10 19 12 21 4 23 21 25 18 27
REMARK Flexibility Score: inf
ROOT
ATOM      1  C   UNL     1      22.072  34.102  42.426  1.00  0.00     0.180 A 
ATOM      2  C   UNL     1      21.920  34.290  41.041  1.00  0.00     0.208 A 
ATOM      3  C   UNL     1      22.843  33.692  40.169  1.00  0.00     0.238 A 
ATOM      4  O   UNL     1      22.733  33.909  38.933  1.00  0.00    -0.285 OA
ATOM      5  C   UNL     1      23.895  32.903  40.689  1.00  0.00     0.111 A 
ATOM      6  C   UNL     1      24.863  32.218  39.895  1.00  0.00     0.134 A 
ATOM      7  C   UNL     1      25.937  31.572  40.520  1.00  0.00     0.093 A 
ATOM      8  C   UNL     1      26.043  31.530  41.910  1.00  0.00     0.123 A 
ATOM      9  C   UNL     1      25.070  32.146  42.697  1.00  0.00     0.094 A 
ATOM     10  C   UNL     1      24.005  32.829  42.102  1.00  0.00     0.146 A 
ATOM     11  O   UNL     1      23.107  33.410  42.887  1.00  0.00    -0.452 OA
ENDROOT
BRANCH   1  12
ATOM     12  C   UNL     1      21.124  34.679  43.409  1.00  0.00     0.025 A 
ATOM     13  C   UNL     1      19.824  34.157  43.503  1.00  0.00     0.016 A 
ATOM     14  C   UNL     1      18.907  34.698  44.407  1.00  0.00     0.051 A 
ATOM     15  C   UNL     1      19.273  35.780  45.220  1.00  0.00     0.157 A 
ATOM     16  C   UNL     1      21.480  35.777  44.212  1.00  0.00     0.062 A 
ATOM     17  C   UNL     1      20.560  36.322  45.119  1.00  0.00     0.158 A 
BRANCH  15  18
ATOM     18  O   UNL     1      18.362  36.322  46.125  1.00  0.00    -0.504 OA
ATOM     19  H   UNL     1      17.362  36.230  45.990  1.00  0.00     0.293 HD
ENDBRANCH  15  18
BRANCH  17  20
ATOM     20  O   UNL     1      20.916  37.407  45.919  1.00  0.00    -0.504 OA
ATOM     21  H   UNL     1      20.947  37.334  46.929  1.00  0.00     0.293 HD
ENDBRANCH  17  20
ENDBRANCH   1  12
BRANCH   2  22
ATOM     22  O   UNL     1      20.886  35.092  40.550  1.00  0.00    -0.502 OA
ATOM     23  H   UNL     1      20.675  36.004  40.938  1.00  0.00     0.293 HD
ENDBRANCH   2  22
BRANCH   6  24
ATOM     24  O   UNL     1      24.801  32.119  38.502  1.00  0.00    -0.507 OA
ATOM     25  H   UNL     1      25.355  32.668  37.862  1.00  0.00     0.293 HD
ENDBRANCH   6  24
BRANCH   8  26
ATOM     26  O   UNL     1      27.117  30.866  42.499  1.00  0.00    -0.508 OA
ATOM     27  H   UNL     1      27.027  30.407  43.397  1.00  0.00     0.293 HD
ENDBRANCH   8  26
TORSDOF 6
ENDMDL
MODEL 6
REMARK VINA RESULT:    -3.372      2.576      7.561
REMARK INTER + INTRA:          -4.387
REMARK INTER:                  -4.053
REMARK INTRA:                  -0.334
REMARK UNBOUND:                -0.325
REMARK SMILES O=c1c(O)c(-c2ccc(O)c(O)c2)oc2cc(O)cc(O)c12
REMARK SMILES IDX 5 1 3 2 2 3 1 4 22 5 20 6 19 7 17 8 16 9 15 10 14 11 6 12
REMARK SMILES IDX 7 13 8 14 9 15 13 16 11 17 10 18 12 20 4 22 21 24 18 26
REMARK H PARENT 10 19 12 21 4 23 21 25 18 27
REMARK Flexibility Score: inf
ROOT
ATOM      1  C   UNL     1      20.219  34.019  41.460  1.00  0.00     0.180 A 
ATOM      2  C   UNL     1      20.374  34.209  40.076  1.00  0.00     0.208 A 
ATOM      3  C   UNL     1      19.303  34.735  39.336  1.00  0.00     0.238 A 
ATOM      4  O   UNL     1      19.430  34.851  38.089  1.00  0.00    -0.285 OA
ATOM      5  C   UNL     1      18.097  35.079  39.991  1.00  0.00     0.111 A 
ATOM      6  C   UNL     1      16.962  35.657  39.347  1.00  0.00     0.134 A 
ATOM      7  C   UNL     1      15.775  35.837  40.069  1.00  0.00     0.093 A 
ATOM      8  C   UNL     1      15.702  35.521  41.426  1.00  0.00     0.123 A 
ATOM      9  C   UNL     1      16.824  35.012  42.079  1.00  0.00     0.094 A 
ATOM     10  C   UNL     1      18.012  34.788  41.377  1.00  0.00     0.146 A 
ATOM     11  O   UNL     1      19.053  34.291  42.035  1.00  0.00    -0.452 OA
ENDROOT
BRANCH   1  12
ATOM     12  C   UNL     1      21.311  33.493  42.311  1.00  0.00     0.025 A 
ATOM     13  C   UNL     1      21.368  32.119  42.590  1.00  0.00     0.016 A 
ATOM     14  C   UNL     1      22.378  31.603  43.408  1.00  0.00     0.051 A 
ATOM     15  C   UNL     1      23.336  32.458  43.969  1.00  0.00     0.157 A 
ATOM     16  C   UNL     1      22.263  34.350  42.894  1.00  0.00     0.062 A 
ATOM     17  C   UNL     1      23.276  33.834  43.715  1.00  0.00     0.158 A 
BRANCH  15  18
ATOM     18  O   UNL     1      24.346  31.948  44.783  1.00  0.00    -0.504 OA
ATOM     19  H   UNL     1      25.108  31.401  44.402  1.00  0.00     0.293 HD
ENDBRANCH  15  18
BRANCH  17  20
ATOM     20  O   UNL     1      24.222  34.684  44.286  1.00  0.00    -0.504 OA
ATOM     21  H   UNL     1      24.316  34.774  45.291  1.00  0.00     0.293 HD
ENDBRANCH  17  20
ENDBRANCH   1  12
BRANCH   2  22
ATOM     22  O   UNL     1      21.567  33.840  39.446  1.00  0.00    -0.502 OA
ATOM     23  H   UNL     1      21.725  33.986  38.456  1.00  0.00     0.293 HD
ENDBRANCH   2  22
BRANCH   6  24
ATOM     24  O   UNL     1      16.956  36.094  38.019  1.00  0.00    -0.507 OA
ATOM     25  H   UNL     1      16.259  35.841  37.335  1.00  0.00     0.293 HD
ENDBRANCH   6  24
BRANCH   8  26
ATOM     26  O   UNL     1      14.510  35.728  42.117  1.00  0.00    -0.508 OA
ATOM     27  H   UNL     1      14.314  35.249  42.988  1.00  0.00     0.293 HD
ENDBRANCH   8  26
TORSDOF 6
ENDMDL
MODEL 7
REMARK VINA RESULT:    -3.276      2.902      8.195
REMARK INTER + INTRA:          -4.272
REMARK INTER:                  -3.944
REMARK INTRA:                  -0.327
REMARK UNBOUND:                -0.325
REMARK SMILES O=c1c(O)c(-c2ccc(O)c(O)c2)oc2cc(O)cc(O)c12
REMARK SMILES IDX 5 1 3 2 2 3 1 4 22 5 20 6 19 7 17 8 16 9 15 10 14 11 6 12
REMARK SMILES IDX 7 13 8 14 9 15 13 16 11 17 10 18 12 20 4 22 21 24 18 26
REMARK H PARENT 10 19 12 21 4 23 21 25 18 27
REMARK Flexibility Score: inf
ROOT
ATOM      1  C   UNL     1      16.727  35.221  41.544  1.00  0.00     0.180 A 
ATOM      2  C   UNL     1      17.337  35.547  40.320  1.00  0.00     0.208 A 
ATOM      3  C   UNL     1      16.602  36.265  39.363  1.00  0.00     0.238 A 
ATOM      4  O   UNL     1      17.135  36.506  38.249  1.00  0.00    -0.285 OA
ATOM      5  C   UNL     1      15.275  36.663  39.648  1.00  0.00     0.111 A 
ATOM      6  C   UNL     1      14.452  37.429  38.768  1.00  0.00     0.134 A 
ATOM      7  C   UNL     1      13.110  37.655  39.099  1.00  0.00     0.093 A 
ATOM      8  C   UNL     1      12.579  37.199  40.305  1.00  0.00     0.123 A 
ATOM      9  C   UNL     1      13.390  36.501  41.199  1.00  0.00     0.094 A 
ATOM     10  C   UNL     1      14.724  36.229  40.882  1.00  0.00     0.146 A 
ATOM     11  O   UNL     1      15.458  35.552  41.756  1.00  0.00    -0.452 OA
ENDROOT
BRANCH   1  12
ATOM     12  C   UNL     1      17.445  34.488  42.613  1.00  0.00     0.025 A 
ATOM     13  C   UNL     1      17.389  33.086  42.645  1.00  0.00     0.016 A 
ATOM     14  C   UNL     1      18.041  32.374  43.656  1.00  0.00     0.051 A 
ATOM     15  C   UNL     1      18.747  33.056  44.656  1.00  0.00     0.157 A 
ATOM     16  C   UNL     1      18.138  35.169  43.629  1.00  0.00     0.062 A 
ATOM     17  C   UNL     1      18.792  34.456  44.644  1.00  0.00     0.158 A 
BRANCH  15  18
ATOM     18  O   UNL     1      19.401  32.350  45.664  1.00  0.00    -0.504 OA
ATOM     19  H   UNL     1      18.912  31.679  46.243  1.00  0.00     0.293 HD
ENDBRANCH  15  18
BRANCH  17  20
ATOM     20  O   UNL     1      19.484  35.132  45.649  1.00  0.00    -0.504 OA
ATOM     21  H   UNL     1      19.753  34.672  46.510  1.00  0.00     0.293 HD
ENDBRANCH  17  20
ENDBRANCH   1  12
BRANCH   2  22
ATOM     22  O   UNL     1      18.642  35.124  40.051  1.00  0.00    -0.502 OA
ATOM     23  H   UNL     1      19.399  35.775  39.882  1.00  0.00     0.293 HD
ENDBRANCH   2  22
BRANCH   6  24
ATOM     24  O   UNL     1      14.908  38.010  37.581  1.00  0.00    -0.507 OA
ATOM     25  H   UNL     1      14.414  38.721  37.063  1.00  0.00     0.293 HD
ENDBRANCH   6  24
BRANCH   8  26
ATOM     26  O   UNL     1      11.243  37.455  40.609  1.00  0.00    -0.508 OA
ATOM     27  H   UNL     1      10.902  38.398  40.745  1.00  0.00     0.293 HD
ENDBRANCH   8  26
TORSDOF 6
ENDMDL
MODEL 8
REMARK VINA RESULT:    -3.225      5.590      7.223
REMARK INTER + INTRA:          -4.210
REMARK INTER:                  -3.916
REMARK INTRA:                  -0.294
REMARK UNBOUND:                -0.325
REMARK SMILES O=c1c(O)c(-c2ccc(O)c(O)c2)oc2cc(O)cc(O)c12
REMARK SMILES IDX 5 1 3 2 2 3 1 4 22 5 20 6 19 7 17 8 16 9 15 10 14 11 6 12
REMARK SMILES IDX 7 13 8 14 9 15 13 16 11 17 10 18 12 20 4 22 21 24 18 26
REMARK H PARENT 10 19 12 21 4 23 21 25 18 27
REMARK Flexibility Score: inf
ROOT
ATOM      1  C   UNL     1      17.746  35.545  38.406  1.00  0.00     0.180 A 
ATOM      2  C   UNL     1      18.552  35.150  39.489  1.00  0.00     0.208 A 
ATOM      3  C   UNL     1      19.861  34.710  39.237  1.00  0.00     0.238 A 
ATOM      4  O   UNL     1      20.558  34.307  40.205  1.00  0.00    -0.285 OA
ATOM      5  C   UNL     1      20.353  34.684  37.911  1.00  0.00     0.111 A 
ATOM      6  C   UNL     1      21.676  34.294  37.545  1.00  0.00     0.134 A 
ATOM      7  C   UNL     1      22.014  34.182  36.191  1.00  0.00     0.093 A 
ATOM      8  C   UNL     1      21.098  34.508  35.191  1.00  0.00     0.123 A 
ATOM      9  C   UNL     1      19.820  34.947  35.538  1.00  0.00     0.094 A 
ATOM     10  C   UNL     1      19.442  35.035  36.880  1.00  0.00     0.146 A 
ATOM     11  O   UNL     1      18.214  35.447  37.167  1.00  0.00    -0.452 OA
ENDROOT
BRANCH   1  12
ATOM     12  C   UNL     1      16.364  36.045  38.594  1.00  0.00     0.025 A 
ATOM     13  C   UNL     1      16.131  37.429  38.634  1.00  0.00     0.016 A 
ATOM     14  C   UNL     1      14.839  37.924  38.831  1.00  0.00     0.051 A 
ATOM     15  C   UNL     1      13.764  37.041  39.004  1.00  0.00     0.157 A 
ATOM     16  C   UNL     1      15.285  35.164  38.788  1.00  0.00     0.062 A 
ATOM     17  C   UNL     1      13.989  35.659  38.986  1.00  0.00     0.158 A 
BRANCH  15  18
ATOM     18  O   UNL     1      12.474  37.530  39.198  1.00  0.00    -0.504 OA
ATOM     19  H   UNL     1      12.289  38.523  39.277  1.00  0.00     0.293 HD
ENDBRANCH  15  18
BRANCH  17  20
ATOM     20  O   UNL     1      12.920  34.783  39.172  1.00  0.00    -0.504 OA
ATOM     21  H   UNL     1      12.620  34.501  40.098  1.00  0.00     0.293 HD
ENDBRANCH  17  20
ENDBRANCH   1  12
BRANCH   2  22
ATOM     22  O   UNL     1      18.037  35.163  40.789  1.00  0.00    -0.502 OA
ATOM     23  H   UNL     1      18.305  34.478  41.485  1.00  0.00     0.293 HD
ENDBRANCH   2  22
BRANCH   6  24
ATOM     24  O   UNL     1      22.696  34.035  38.466  1.00  0.00    -0.507 OA
ATOM     25  H   UNL     1      23.464  34.658  38.663  1.00  0.00     0.293 HD
ENDBRANCH   6  24
BRANCH   8  26
ATOM     26  O   UNL     1      21.473  34.399  33.853  1.00  0.00    -0.508 OA
ATOM     27  H   UNL     1      22.446  34.343  33.579  1.00  0.00     0.293 HD
ENDBRANCH   8  26
TORSDOF 6
ENDMDL
MODEL 9
REMARK VINA RESULT:    -3.203      3.220      3.711
REMARK INTER + INTRA:          -4.184
REMARK INTER:                  -3.856
REMARK INTRA:                  -0.329
REMARK UNBOUND:                -0.325
REMARK SMILES O=c1c(O)c(-c2ccc(O)c(O)c2)oc2cc(O)cc(O)c12
REMARK SMILES IDX 5 1 3 2 2 3 1 4 22 5 20 6 19 7 17 8 16 9 15 10 14 11 6 12
REMARK SMILES IDX 7 13 8 14 9 15 13 16 11 17 10 18 12 20 4 22 21 24 18 26
REMARK H PARENT 10 19 12 21 4 23 21 25 18 27
REMARK Flexibility Score: inf
ROOT
ATOM      1  C   UNL     1      21.316  33.796  42.033  1.00  0.00     0.180 A 
ATOM      2  C   UNL     1      20.925  34.546  43.156  1.00  0.00     0.208 A 
ATOM      3  C   UNL     1      21.857  34.770  44.182  1.00  0.00     0.238 A 
ATOM      4  O   UNL     1      21.485  35.395  45.209  1.00  0.00    -0.285 OA
ATOM      5  C   UNL     1      23.171  34.259  44.065  1.00  0.00     0.111 A 
ATOM      6  C   UNL     1      24.208  34.461  45.024  1.00  0.00     0.134 A 
ATOM      7  C   UNL     1      25.432  33.798  44.868  1.00  0.00     0.093 A 
ATOM      8  C   UNL     1      25.680  32.995  43.755  1.00  0.00     0.123 A 
ATOM      9  C   UNL     1      24.694  32.839  42.781  1.00  0.00     0.094 A 
ATOM     10  C   UNL     1      23.450  33.458  42.927  1.00  0.00     0.146 A 
ATOM     11  O   UNL     1      22.536  33.274  41.981  1.00  0.00    -0.452 OA
ENDROOT
BRANCH   1  12
ATOM     12  C   UNL     1      20.398  33.539  40.899  1.00  0.00     0.025 A 
ATOM     13  C   UNL     1      19.600  32.383  40.905  1.00  0.00     0.016 A 
ATOM     14  C   UNL     1      18.743  32.109  39.837  1.00  0.00     0.051 A 
ATOM     15  C   UNL     1      18.681  32.980  38.740  1.00  0.00     0.157 A 
ATOM     16  C   UNL     1      20.347  34.398  39.787  1.00  0.00     0.062 A 
ATOM     17  C   UNL     1      19.488  34.124  38.714  1.00  0.00     0.158 A 
BRANCH  15  18
ATOM     18  O   UNL     1      17.825  32.711  37.674  1.00  0.00    -0.504 OA
ATOM     19  H   UNL     1      18.165  32.302  36.812  1.00  0.00     0.293 HD
ENDBRANCH  15  18
BRANCH  17  20
ATOM     20  O   UNL     1      19.434  34.981  37.615  1.00  0.00    -0.504 OA
ATOM     21  H   UNL     1      18.557  35.211  37.164  1.00  0.00     0.293 HD
ENDBRANCH  17  20
ENDBRANCH   1  12
BRANCH   2  22
ATOM     22  O   UNL     1      19.615  35.023  43.262  1.00  0.00    -0.502 OA
ATOM     23  H   UNL     1      19.397  35.921  43.676  1.00  0.00     0.293 HD
ENDBRANCH   2  22
BRANCH   6  24
ATOM     24  O   UNL     1      24.097  35.315  46.125  1.00  0.00    -0.507 OA
ATOM     25  H   UNL     1      24.756  36.045  46.354  1.00  0.00     0.293 HD
ENDBRANCH   6  24
BRANCH   8  26
ATOM     26  O   UNL     1      26.915  32.364  43.624  1.00  0.00    -0.508 OA
ATOM     27  H   UNL     1      27.677  32.553  44.263  1.00  0.00     0.293 HD
ENDBRANCH   8  26
TORSDOF 6
ENDMDL
