MODEL 1
REMARK VINA RESULT:    -5.373      0.000      0.000
REMARK INTER + INTRA:         -10.892
REMARK INTER:                  -9.770
REMARK INTRA:                  -1.122
REMARK UNBOUND:                -1.122
REMARK SMILES CCCCCCCCCCCCCC[C@@H](C)C(=O)[O-]
REMARK SMILES IDX 9 1 10 2 11 3 12 4 13 5 14 6 15 7 16 8 17 9 18 10 19 11 8 12
REMARK SMILES IDX 7 13 6 14 5 15 4 16 3 17 2 18 1 19
REMARK H PARENT
REMARK Flexibility Score: inf
ROOT
ATOM      1  C   UNL     1      -1.399   3.754  16.267  1.00  0.00     0.000 C 
ENDROOT
BRANCH   1   2
ATOM      2  C   UNL     1      -2.823   3.365  15.835  1.00  0.00     0.000 C 
BRANCH   2   3
ATOM      3  C   UNL     1      -3.509   2.399  16.820  1.00  0.00     0.000 C 
BRANCH   3   4
ATOM      4  C   UNL     1      -4.974   2.731  17.164  1.00  0.00     0.000 C 
BRANCH   4   5
ATOM      5  C   UNL     1      -5.502   3.970  16.425  1.00  0.00     0.001 C 
BRANCH   5   6
ATOM      6  C   UNL     1      -5.402   5.268  17.253  1.00  0.00     0.009 C 
BRANCH   6   7
ATOM      7  C   UNL     1      -5.114   6.577  16.472  1.00  0.00     0.032 C 
ATOM      8  C   UNL     1      -5.003   6.354  14.956  1.00  0.00     0.014 C 
BRANCH   7   9
ATOM      9  C   UNL     1      -6.081   7.681  16.819  1.00  0.00     0.044 C 
ATOM     10  O   UNL     1      -6.343   8.574  15.969  1.00  0.00    -0.550 OA
ATOM     11  O   UNL     1      -6.713   7.719  18.057  1.00  0.00    -0.550 OA
ENDBRANCH   7   9
ENDBRANCH   6   7
ENDBRANCH   5   6
ENDBRANCH   4   5
ENDBRANCH   3   4
ENDBRANCH   2   3
ENDBRANCH   1   2
BRANCH   1  12
ATOM     12  C   UNL     1      -1.293   5.217  16.733  1.00  0.00     0.000 C 
BRANCH  12  13
ATOM     13  C   UNL     1       0.140   5.732  16.983  1.00  0.00    -0.000 C 
BRANCH  13  14
ATOM     14  C   UNL     1       0.268   6.843  18.040  1.00  0.00    -0.000 C 
BRANCH  14  15
ATOM     15  C   UNL     1      -0.087   6.362  19.457  1.00  0.00    -0.000 C 
BRANCH  15  16
ATOM     16  C   UNL     1       0.301   7.377  20.548  1.00  0.00    -0.000 C 
BRANCH  16  17
ATOM     17  C   UNL     1       1.415   6.915  21.511  1.00  0.00    -0.000 C 
BRANCH  17  18
ATOM     18  C   UNL     1       0.935   6.522  22.919  1.00  0.00    -0.003 C 
ATOM     19  C   UNL     1      -0.588   6.533  23.054  1.00  0.00     0.004 C 
ENDBRANCH  17  18
ENDBRANCH  16  17
ENDBRANCH  15  16
ENDBRANCH  14  15
ENDBRANCH  13  14
ENDBRANCH  12  13
ENDBRANCH   1  12
TORSDOF 14
ENDMDL
MODEL 2
REMARK VINA RESULT:    -5.077      1.599      2.414
REMARK INTER + INTRA:         -10.354
REMARK INTER:                  -9.235
REMARK INTRA:                  -1.118
REMARK UNBOUND:                -1.122
REMARK SMILES CCCCCCCCCCCCCC[C@@H](C)C(=O)[O-]
REMARK SMILES IDX 9 1 10 2 11 3 12 4 13 5 14 6 15 7 16 8 17 9 18 10 19 11 8 12
REMARK SMILES IDX 7 13 6 14 5 15 4 16 3 17 2 18 1 19
REMARK H PARENT
REMARK Flexibility Score: inf
ROOT
ATOM      1  C   UNL     1      -0.266   5.549  17.540  1.00  0.00     0.000 C 
ENDROOT
BRANCH   1   2
ATOM      2  C   UNL     1      -1.397   4.886  16.736  1.00  0.00     0.000 C 
BRANCH   2   3
ATOM      3  C   UNL     1      -1.369   3.348  16.809  1.00  0.00     0.000 C 
BRANCH   3   4
ATOM      4  C   UNL     1      -2.577   2.629  16.176  1.00  0.00     0.000 C 
BRANCH   4   5
ATOM      5  C   UNL     1      -3.914   3.007  16.831  1.00  0.00     0.001 C 
BRANCH   5   6
ATOM      6  C   UNL     1      -5.023   3.346  15.813  1.00  0.00     0.009 C 
BRANCH   6   7
ATOM      7  C   UNL     1      -5.675   4.749  15.929  1.00  0.00     0.032 C 
ATOM      8  C   UNL     1      -5.493   5.377  17.318  1.00  0.00     0.014 C 
BRANCH   7   9
ATOM      9  C   UNL     1      -5.247   5.677  14.819  1.00  0.00     0.044 C 
ATOM     10  O   UNL     1      -4.271   6.454  14.995  1.00  0.00    -0.550 OA
ATOM     11  O   UNL     1      -5.898   5.675  13.590  1.00  0.00    -0.550 OA
ENDBRANCH   7   9
ENDBRANCH   6   7
ENDBRANCH   5   6
ENDBRANCH   4   5
ENDBRANCH   3   4
ENDBRANCH   2   3
ENDBRANCH   1   2
BRANCH   1  12
ATOM     12  C   UNL     1       0.715   6.340  16.656  1.00  0.00     0.000 C 
BRANCH  12  13
ATOM     13  C   UNL     1       0.714   7.868  16.868  1.00  0.00    -0.000 C 
BRANCH  13  14
ATOM     14  C   UNL     1       1.522   8.367  18.079  1.00  0.00    -0.000 C 
BRANCH  14  15
ATOM     15  C   UNL     1       0.660   8.545  19.339  1.00  0.00    -0.000 C 
BRANCH  15  16
ATOM     16  C   UNL     1       1.083   7.616  20.491  1.00  0.00    -0.000 C 
BRANCH  16  17
ATOM     17  C   UNL     1      -0.046   6.750  21.088  1.00  0.00    -0.000 C 
BRANCH  17  18
ATOM     18  C   UNL     1       0.115   6.411  22.579  1.00  0.00    -0.003 C 
ATOM     19  C   UNL     1      -1.186   6.561  23.368  1.00  0.00     0.004 C 
ENDBRANCH  17  18
ENDBRANCH  16  17
ENDBRANCH  15  16
ENDBRANCH  14  15
ENDBRANCH  13  14
ENDBRANCH  12  13
ENDBRANCH   1  12
TORSDOF 14
ENDMDL
MODEL 3
REMARK VINA RESULT:    -5.055      1.701      2.712
REMARK INTER + INTRA:         -10.314
REMARK INTER:                  -9.107
REMARK INTRA:                  -1.207
REMARK UNBOUND:                -1.122
REMARK SMILES CCCCCCCCCCCCCC[C@@H](C)C(=O)[O-]
REMARK SMILES IDX 9 1 10 2 11 3 12 4 13 5 14 6 15 7 16 8 17 9 18 10 19 11 8 12
REMARK SMILES IDX 7 13 6 14 5 15 4 16 3 17 2 18 1 19
REMARK H PARENT
REMARK Flexibility Score: inf
ROOT
ATOM      1  C   UNL     1      -1.345   3.041  16.843  1.00  0.00     0.000 C 
ENDROOT
BRANCH   1   2
ATOM      2  C   UNL     1      -2.800   2.568  16.681  1.00  0.00     0.000 C 
BRANCH   2   3
ATOM      3  C   UNL     1      -3.728   3.654  16.107  1.00  0.00     0.000 C 
BRANCH   3   4
ATOM      4  C   UNL     1      -5.217   3.270  16.003  1.00  0.00     0.000 C 
BRANCH   4   5
ATOM      5  C   UNL     1      -6.088   4.388  15.410  1.00  0.00     0.001 C 
BRANCH   5   6
ATOM      6  C   UNL     1      -5.529   5.804  15.663  1.00  0.00     0.009 C 
BRANCH   6   7
ATOM      7  C   UNL     1      -6.500   6.841  16.285  1.00  0.00     0.032 C 
ATOM      8  C   UNL     1      -7.946   6.669  15.795  1.00  0.00     0.014 C 
BRANCH   7   9
ATOM      9  C   UNL     1      -6.407   6.890  17.790  1.00  0.00     0.044 C 
ATOM     10  O   UNL     1      -5.811   5.969  18.410  1.00  0.00    -0.550 OA
ATOM     11  O   UNL     1      -6.946   7.951  18.509  1.00  0.00    -0.550 OA
ENDBRANCH   7   9
ENDBRANCH   6   7
ENDBRANCH   5   6
ENDBRANCH   4   5
ENDBRANCH   3   4
ENDBRANCH   2   3
ENDBRANCH   1   2
BRANCH   1  12
ATOM     12  C   UNL     1      -1.114   4.463  16.300  1.00  0.00     0.000 C 
BRANCH  12  13
ATOM     13  C   UNL     1      -0.144   5.337  17.123  1.00  0.00    -0.000 C 
BRANCH  13  14
ATOM     14  C   UNL     1      -0.747   5.989  18.379  1.00  0.00    -0.000 C 
BRANCH  14  15
ATOM     15  C   UNL     1       0.317   6.386  19.415  1.00  0.00    -0.000 C 
BRANCH  15  16
ATOM     16  C   UNL     1       0.384   7.906  19.652  1.00  0.00    -0.000 C 
BRANCH  16  17
ATOM     17  C   UNL     1       1.533   8.636  18.926  1.00  0.00    -0.000 C 
BRANCH  17  18
ATOM     18  C   UNL     1       1.245   9.004  17.460  1.00  0.00    -0.003 C 
ATOM     19  C   UNL     1       2.040   8.158  16.466  1.00  0.00     0.004 C 
ENDBRANCH  17  18
ENDBRANCH  16  17
ENDBRANCH  15  16
ENDBRANCH  14  15
ENDBRANCH  13  14
ENDBRANCH  12  13
ENDBRANCH   1  12
TORSDOF 14
ENDMDL
MODEL 4
REMARK VINA RESULT:    -5.042      3.154      7.409
REMARK INTER + INTRA:         -10.291
REMARK INTER:                  -9.072
REMARK INTRA:                  -1.220
REMARK UNBOUND:                -1.122
REMARK SMILES CCCCCCCCCCCCCC[C@@H](C)C(=O)[O-]
REMARK SMILES IDX 9 1 10 2 11 3 12 4 13 5 14 6 15 7 16 8 17 9 18 10 19 11 8 12
REMARK SMILES IDX 7 13 6 14 5 15 4 16 3 17 2 18 1 19
REMARK H PARENT
REMARK Flexibility Score: inf
ROOT
ATOM      1  C   UNL     1      -3.818   3.330  16.569  1.00  0.00     0.000 C 
ENDROOT
BRANCH   1   2
ATOM      2  C   UNL     1      -2.467   3.095  15.873  1.00  0.00     0.000 C 
BRANCH   2   3
ATOM      3  C   UNL     1      -1.267   3.597  16.698  1.00  0.00     0.000 C 
BRANCH   3   4
ATOM      4  C   UNL     1      -1.240   5.111  16.982  1.00  0.00     0.000 C 
BRANCH   4   5
ATOM      5  C   UNL     1      -0.027   5.546  17.818  1.00  0.00     0.001 C 
BRANCH   5   6
ATOM      6  C   UNL     1      -0.407   6.333  19.090  1.00  0.00     0.009 C 
BRANCH   6   7
ATOM      7  C   UNL     1       0.743   7.059  19.835  1.00  0.00     0.032 C 
ATOM      8  C   UNL     1       0.836   8.550  19.478  1.00  0.00     0.014 C 
BRANCH   7   9
ATOM      9  C   UNL     1       0.701   6.828  21.326  1.00  0.00     0.044 C 
ATOM     10  O   UNL     1       1.776   6.737  21.975  1.00  0.00    -0.550 OA
ATOM     11  O   UNL     1      -0.510   6.739  22.005  1.00  0.00    -0.550 OA
ENDBRANCH   7   9
ENDBRANCH   6   7
ENDBRANCH   5   6
ENDBRANCH   4   5
ENDBRANCH   3   4
ENDBRANCH   2   3
ENDBRANCH   1   2
BRANCH   1  12
ATOM     12  C   UNL     1      -4.998   3.394  15.583  1.00  0.00     0.000 C 
BRANCH  12  13
ATOM     13  C   UNL     1      -5.041   4.647  14.683  1.00  0.00    -0.000 C 
BRANCH  13  14
ATOM     14  C   UNL     1      -4.510   5.940  15.325  1.00  0.00    -0.000 C 
BRANCH  14  15
ATOM     15  C   UNL     1      -5.603   7.005  15.515  1.00  0.00    -0.000 C 
BRANCH  15  16
ATOM     16  C   UNL     1      -6.639   6.615  16.585  1.00  0.00    -0.000 C 
BRANCH  16  17
ATOM     17  C   UNL     1      -8.114   6.734  16.147  1.00  0.00    -0.000 C 
BRANCH  17  18
ATOM     18  C   UNL     1      -8.347   6.678  14.628  1.00  0.00    -0.003 C 
ATOM     19  C   UNL     1      -8.622   5.263  14.119  1.00  0.00     0.004 C 
ENDBRANCH  17  18
ENDBRANCH  16  17
ENDBRANCH  15  16
ENDBRANCH  14  15
ENDBRANCH  13  14
ENDBRANCH  12  13
ENDBRANCH   1  12
TORSDOF 14
ENDMDL
MODEL 5
REMARK VINA RESULT:    -4.976      3.018      7.377
REMARK INTER + INTRA:         -10.172
REMARK INTER:                  -8.849
REMARK INTRA:                  -1.322
REMARK UNBOUND:                -1.122
REMARK SMILES CCCCCCCCCCCCCC[C@@H](C)C(=O)[O-]
REMARK SMILES IDX 9 1 10 2 11 3 12 4 13 5 14 6 15 7 16 8 17 9 18 10 19 11 8 12
REMARK SMILES IDX 7 13 6 14 5 15 4 16 3 17 2 18 1 19
REMARK H PARENT
REMARK Flexibility Score: inf
ROOT
ATOM      1  C   UNL     1      -3.626   2.773  16.710  1.00  0.00     0.000 C 
ENDROOT
BRANCH   1   2
ATOM      2  C   UNL     1      -2.093   2.856  16.622  1.00  0.00     0.000 C 
BRANCH   2   3
ATOM      3  C   UNL     1      -1.598   4.106  15.868  1.00  0.00     0.000 C 
BRANCH   3   4
ATOM      4  C   UNL     1      -0.441   4.872  16.537  1.00  0.00     0.000 C 
BRANCH   4   5
ATOM      5  C   UNL     1      -0.904   5.780  17.687  1.00  0.00     0.001 C 
BRANCH   5   6
ATOM      6  C   UNL     1       0.110   5.868  18.847  1.00  0.00     0.009 C 
BRANCH   6   7
ATOM      7  C   UNL     1       0.034   7.126  19.752  1.00  0.00     0.032 C 
ATOM      8  C   UNL     1       0.207   6.798  21.242  1.00  0.00     0.014 C 
BRANCH   7   9
ATOM      9  C   UNL     1       0.963   8.223  19.294  1.00  0.00     0.044 C 
ATOM     10  O   UNL     1       1.749   8.761  20.118  1.00  0.00    -0.550 OA
ATOM     11  O   UNL     1       0.986   8.637  17.967  1.00  0.00    -0.550 OA
ENDBRANCH   7   9
ENDBRANCH   6   7
ENDBRANCH   5   6
ENDBRANCH   4   5
ENDBRANCH   3   4
ENDBRANCH   2   3
ENDBRANCH   1   2
BRANCH   1  12
ATOM     12  C   UNL     1      -4.329   4.001  16.106  1.00  0.00     0.000 C 
BRANCH  12  13
ATOM     13  C   UNL     1      -5.400   4.659  17.002  1.00  0.00    -0.000 C 
BRANCH  13  14
ATOM     14  C   UNL     1      -6.148   5.848  16.372  1.00  0.00    -0.000 C 
BRANCH  14  15
ATOM     15  C   UNL     1      -5.274   6.654  15.397  1.00  0.00    -0.000 C 
BRANCH  15  16
ATOM     16  C   UNL     1      -6.096   7.380  14.317  1.00  0.00    -0.000 C 
BRANCH  16  17
ATOM     17  C   UNL     1      -6.439   6.536  13.071  1.00  0.00    -0.000 C 
BRANCH  17  18
ATOM     18  C   UNL     1      -5.390   5.475  12.697  1.00  0.00    -0.003 C 
ATOM     19  C   UNL     1      -5.943   4.050  12.739  1.00  0.00     0.004 C 
ENDBRANCH  17  18
ENDBRANCH  16  17
ENDBRANCH  15  16
ENDBRANCH  14  15
ENDBRANCH  13  14
ENDBRANCH  12  13
ENDBRANCH   1  12
TORSDOF 14
ENDMDL
MODEL 6
REMARK VINA RESULT:    -4.926      1.876      2.559
REMARK INTER + INTRA:         -10.079
REMARK INTER:                  -9.124
REMARK INTRA:                  -0.955
REMARK UNBOUND:                -1.122
REMARK SMILES CCCCCCCCCCCCCC[C@@H](C)C(=O)[O-]
REMARK SMILES IDX 9 1 10 2 11 3 12 4 13 5 14 6 15 7 16 8 17 9 18 10 19 11 8 12
REMARK SMILES IDX 7 13 6 14 5 15 4 16 3 17 2 18 1 19
REMARK H PARENT
REMARK Flexibility Score: inf
ROOT
ATOM      1  C   UNL     1      -2.502   3.443  15.869  1.00  0.00     0.000 C 
ENDROOT
BRANCH   1   2
ATOM      2  C   UNL     1      -3.517   2.631  16.691  1.00  0.00     0.000 C 
BRANCH   2   3
ATOM      3  C   UNL     1      -4.977   3.051  16.434  1.00  0.00     0.000 C 
BRANCH   3   4
ATOM      4  C   UNL     1      -5.370   4.446  16.956  1.00  0.00     0.000 C 
BRANCH   4   5
ATOM      5  C   UNL     1      -6.319   5.198  16.011  1.00  0.00     0.001 C 
BRANCH   5   6
ATOM      6  C   UNL     1      -5.595   5.901  14.843  1.00  0.00     0.009 C 
BRANCH   6   7
ATOM      7  C   UNL     1      -6.008   5.482  13.408  1.00  0.00     0.032 C 
ATOM      8  C   UNL     1      -6.858   4.204  13.382  1.00  0.00     0.014 C 
BRANCH   7   9
ATOM      9  C   UNL     1      -6.647   6.612  12.639  1.00  0.00     0.044 C 
ATOM     10  O   UNL     1      -6.125   7.759  12.662  1.00  0.00    -0.550 OA
ATOM     11  O   UNL     1      -7.795   6.406  11.881  1.00  0.00    -0.550 OA
ENDBRANCH   7   9
ENDBRANCH   6   7
ENDBRANCH   5   6
ENDBRANCH   4   5
ENDBRANCH   3   4
ENDBRANCH   2   3
ENDBRANCH   1   2
BRANCH   1  12
ATOM     12  C   UNL     1      -1.202   3.734  16.640  1.00  0.00     0.000 C 
BRANCH  12  13
ATOM     13  C   UNL     1      -0.840   5.226  16.791  1.00  0.00    -0.000 C 
BRANCH  13  14
ATOM     14  C   UNL     1      -0.239   5.625  18.150  1.00  0.00    -0.000 C 
BRANCH  14  15
ATOM     15  C   UNL     1       0.398   7.024  18.133  1.00  0.00    -0.000 C 
BRANCH  15  16
ATOM     16  C   UNL     1       0.531   7.639  19.538  1.00  0.00    -0.000 C 
BRANCH  16  17
ATOM     17  C   UNL     1      -0.159   6.850  20.670  1.00  0.00    -0.000 C 
BRANCH  17  18
ATOM     18  C   UNL     1       0.625   6.793  21.993  1.00  0.00    -0.003 C 
ATOM     19  C   UNL     1      -0.255   6.439  23.191  1.00  0.00     0.004 C 
ENDBRANCH  17  18
ENDBRANCH  16  17
ENDBRANCH  15  16
ENDBRANCH  14  15
ENDBRANCH  13  14
ENDBRANCH  12  13
ENDBRANCH   1  12
TORSDOF 14
ENDMDL
MODEL 7
REMARK VINA RESULT:    -4.891      4.454      8.207
REMARK INTER + INTRA:         -10.016
REMARK INTER:                  -7.658
REMARK INTRA:                  -2.359
REMARK UNBOUND:                -1.122
REMARK SMILES CCCCCCCCCCCCCC[C@@H](C)C(=O)[O-]
REMARK SMILES IDX 9 1 10 2 11 3 12 4 13 5 14 6 15 7 16 8 17 9 18 10 19 11 8 12
REMARK SMILES IDX 7 13 6 14 5 15 4 16 3 17 2 18 1 19
REMARK H PARENT
REMARK Flexibility Score: inf
ROOT
ATOM      1  C   UNL     1      -7.467   7.107  14.052  1.00  0.00     0.000 C 
ENDROOT
BRANCH   1   2
ATOM      2  C   UNL     1      -6.897   7.751  15.327  1.00  0.00     0.000 C 
BRANCH   2   3
ATOM      3  C   UNL     1      -7.361   7.050  16.618  1.00  0.00     0.000 C 
BRANCH   3   4
ATOM      4  C   UNL     1      -6.237   6.584  17.563  1.00  0.00     0.000 C 
BRANCH   4   5
ATOM      5  C   UNL     1      -5.634   5.229  17.162  1.00  0.00     0.001 C 
BRANCH   5   6
ATOM      6  C   UNL     1      -4.101   5.264  16.992  1.00  0.00     0.009 C 
BRANCH   6   7
ATOM      7  C   UNL     1      -3.537   4.808  15.621  1.00  0.00     0.032 C 
ATOM      8  C   UNL     1      -3.246   5.983  14.676  1.00  0.00     0.014 C 
BRANCH   7   9
ATOM      9  C   UNL     1      -2.355   3.881  15.764  1.00  0.00     0.044 C 
ATOM     10  O   UNL     1      -1.211   4.266  15.401  1.00  0.00    -0.550 OA
ATOM     11  O   UNL     1      -2.499   2.612  16.314  1.00  0.00    -0.550 OA
ENDBRANCH   7   9
ENDBRANCH   6   7
ENDBRANCH   5   6
ENDBRANCH   4   5
ENDBRANCH   3   4
ENDBRANCH   2   3
ENDBRANCH   1   2
BRANCH   1  12
ATOM     12  C   UNL     1      -8.404   5.921  14.347  1.00  0.00     0.000 C 
BRANCH  12  13
ATOM     13  C   UNL     1      -8.040   4.598  13.641  1.00  0.00    -0.000 C 
BRANCH  13  14
ATOM     14  C   UNL     1      -6.545   4.237  13.645  1.00  0.00    -0.000 C 
BRANCH  14  15
ATOM     15  C   UNL     1      -5.981   4.012  12.233  1.00  0.00    -0.000 C 
BRANCH  15  16
ATOM     16  C   UNL     1      -6.931   4.500  11.124  1.00  0.00    -0.000 C 
BRANCH  16  17
ATOM     17  C   UNL     1      -6.558   5.854  10.486  1.00  0.00    -0.000 C 
BRANCH  17  18
ATOM     18  C   UNL     1      -5.231   6.460  10.975  1.00  0.00    -0.003 C 
ATOM     19  C   UNL     1      -4.127   6.406   9.919  1.00  0.00     0.004 C 
ENDBRANCH  17  18
ENDBRANCH  16  17
ENDBRANCH  15  16
ENDBRANCH  14  15
ENDBRANCH  13  14
ENDBRANCH  12  13
ENDBRANCH   1  12
TORSDOF 14
ENDMDL
MODEL 8
REMARK VINA RESULT:    -4.823      2.791      5.278
REMARK INTER + INTRA:          -9.893
REMARK INTER:                  -8.112
REMARK INTRA:                  -1.781
REMARK UNBOUND:                -1.122
REMARK SMILES CCCCCCCCCCCCCC[C@@H](C)C(=O)[O-]
REMARK SMILES IDX 9 1 10 2 11 3 12 4 13 5 14 6 15 7 16 8 17 9 18 10 19 11 8 12
REMARK SMILES IDX 7 13 6 14 5 15 4 16 3 17 2 18 1 19
REMARK H PARENT
REMARK Flexibility Score: inf
ROOT
ATOM      1  C   UNL     1      -5.422   5.979  17.646  1.00  0.00     0.000 C 
ENDROOT
BRANCH   1   2
ATOM      2  C   UNL     1      -6.557   6.931  17.231  1.00  0.00     0.000 C 
BRANCH   2   3
ATOM      3  C   UNL     1      -6.210   7.784  15.997  1.00  0.00     0.000 C 
BRANCH   3   4
ATOM      4  C   UNL     1      -7.034   7.489  14.729  1.00  0.00     0.000 C 
BRANCH   4   5
ATOM      5  C   UNL     1      -8.150   6.458  14.962  1.00  0.00     0.001 C 
BRANCH   5   6
ATOM      6  C   UNL     1      -7.881   5.098  14.285  1.00  0.00     0.009 C 
BRANCH   6   7
ATOM      7  C   UNL     1      -6.924   5.099  13.065  1.00  0.00     0.032 C 
ATOM      8  C   UNL     1      -5.834   4.021  13.162  1.00  0.00     0.014 C 
BRANCH   7   9
ATOM      9  C   UNL     1      -7.664   5.049  11.751  1.00  0.00     0.044 C 
ATOM     10  O   UNL     1      -8.805   5.573  11.656  1.00  0.00    -0.550 OA
ATOM     11  O   UNL     1      -7.096   4.454  10.629  1.00  0.00    -0.550 OA
ENDBRANCH   7   9
ENDBRANCH   6   7
ENDBRANCH   5   6
ENDBRANCH   4   5
ENDBRANCH   3   4
ENDBRANCH   2   3
ENDBRANCH   1   2
BRANCH   1  12
ATOM     12  C   UNL     1      -4.987   5.034  16.512  1.00  0.00     0.000 C 
BRANCH  12  13
ATOM     13  C   UNL     1      -4.880   3.544  16.895  1.00  0.00    -0.000 C 
BRANCH  13  14
ATOM     14  C   UNL     1      -3.528   2.878  16.584  1.00  0.00    -0.000 C 
BRANCH  14  15
ATOM     15  C   UNL     1      -2.728   3.626  15.505  1.00  0.00    -0.000 C 
BRANCH  15  16
ATOM     16  C   UNL     1      -1.320   4.032  15.976  1.00  0.00    -0.000 C 
BRANCH  16  17
ATOM     17  C   UNL     1      -1.270   5.245  16.929  1.00  0.00    -0.000 C 
BRANCH  17  18
ATOM     18  C   UNL     1      -0.147   5.199  17.980  1.00  0.00    -0.003 C 
ATOM     19  C   UNL     1      -0.164   6.403  18.922  1.00  0.00     0.004 C 
ENDBRANCH  17  18
ENDBRANCH  16  17
ENDBRANCH  15  16
ENDBRANCH  14  15
ENDBRANCH  13  14
ENDBRANCH  12  13
ENDBRANCH   1  12
TORSDOF 14
ENDMDL
MODEL 9
REMARK VINA RESULT:    -4.781      4.304      7.863
REMARK INTER + INTRA:          -9.817
REMARK INTER:                  -7.367
REMARK INTRA:                  -2.450
REMARK UNBOUND:                -1.122
REMARK SMILES CCCCCCCCCCCCCC[C@@H](C)C(=O)[O-]
REMARK SMILES IDX 9 1 10 2 11 3 12 4 13 5 14 6 15 7 16 8 17 9 18 10 19 11 8 12
REMARK SMILES IDX 7 13 6 14 5 15 4 16 3 17 2 18 1 19
REMARK H PARENT
REMARK Flexibility Score: inf
ROOT
ATOM      1  C   UNL     1      -4.412   6.992  13.428  1.00  0.00     0.000 C 
ENDROOT
BRANCH   1   2
ATOM      2  C   UNL     1      -5.762   7.692  13.661  1.00  0.00     0.000 C 
BRANCH   2   3
ATOM      3  C   UNL     1      -5.979   8.112  15.127  1.00  0.00     0.000 C 
BRANCH   3   4
ATOM      4  C   UNL     1      -6.729   7.094  16.008  1.00  0.00     0.000 C 
BRANCH   4   5
ATOM      5  C   UNL     1      -5.801   6.317  16.955  1.00  0.00     0.001 C 
BRANCH   5   6
ATOM      6  C   UNL     1      -5.730   4.807  16.644  1.00  0.00     0.009 C 
BRANCH   6   7
ATOM      7  C   UNL     1      -4.382   4.266  16.100  1.00  0.00     0.032 C 
ATOM      8  C   UNL     1      -3.206   5.216  16.371  1.00  0.00     0.014 C 
BRANCH   7   9
ATOM      9  C   UNL     1      -4.099   2.857  16.560  1.00  0.00     0.044 C 
ATOM     10  O   UNL     1      -2.909   2.446  16.619  1.00  0.00    -0.550 OA
ATOM     11  O   UNL     1      -5.129   2.007  16.946  1.00  0.00    -0.550 OA
ENDBRANCH   7   9
ENDBRANCH   6   7
ENDBRANCH   5   6
ENDBRANCH   4   5
ENDBRANCH   3   4
ENDBRANCH   2   3
ENDBRANCH   1   2
BRANCH   1  12
ATOM     12  C   UNL     1      -3.625   7.586  12.246  1.00  0.00     0.000 C 
BRANCH  12  13
ATOM     13  C   UNL     1      -4.294   7.438  10.864  1.00  0.00    -0.000 C 
BRANCH  13  14
ATOM     14  C   UNL     1      -4.739   6.012  10.495  1.00  0.00    -0.000 C 
BRANCH  14  15
ATOM     15  C   UNL     1      -6.259   5.894  10.293  1.00  0.00    -0.000 C 
BRANCH  15  16
ATOM     16  C   UNL     1      -6.847   4.611  10.908  1.00  0.00    -0.000 C 
BRANCH  16  17
ATOM     17  C   UNL     1      -6.180   4.142  12.217  1.00  0.00    -0.000 C 
BRANCH  17  18
ATOM     18  C   UNL     1      -7.095   4.154  13.454  1.00  0.00    -0.003 C 
ATOM     19  C   UNL     1      -8.342   5.018  13.264  1.00  0.00     0.004 C 
ENDBRANCH  17  18
ENDBRANCH  16  17
ENDBRANCH  15  16
ENDBRANCH  14  15
ENDBRANCH  13  14
ENDBRANCH  12  13
ENDBRANCH   1  12
TORSDOF 14
ENDMDL
