MODEL 1
REMARK VINA RESULT:    -5.690      0.000      0.000
REMARK INTER + INTRA:          -5.690
REMARK INTER:                  -5.690
REMARK INTRA:                   0.000
REMARK UNBOUND:                 0.000
REMARK SMILES C[C@H]1CCC=C2CC[C@H]3[C@@H](C3(C)C)[C@]21C
REMARK SMILES IDX 1 1 2 2 3 3 4 4 5 5 6 6 14 7 10 8 9 9 11 10 12 11 13 12 8 13
REMARK SMILES IDX 7 14 15 15
REMARK H PARENT
REMARK Flexibility Score: inf
ROOT
ATOM      1  C   UNL     1     164.715 170.139 200.663  1.00  0.00     0.008 C 
ATOM      2  C   UNL     1     164.585 168.607 200.494  1.00  0.00    -0.004 C 
ATOM      3  C   UNL     1     163.105 168.245 200.787  1.00  0.00     0.008 C 
ATOM      4  C   UNL     1     162.143 168.634 199.638  1.00  0.00     0.027 C 
ATOM      5  C   UNL     1     162.772 168.805 198.266  1.00  0.00    -0.027 C 
ATOM      6  C   UNL     1     164.085 168.620 198.004  1.00  0.00    -0.068 C 
ATOM      7  C   UNL     1     164.998 168.020 199.086  1.00  0.00    -0.005 C 
ATOM      8  C   UNL     1     166.515 168.139 198.663  1.00  0.00     0.009 C 
ATOM      9  C   UNL     1     166.652 169.568 198.049  1.00  0.00    -0.000 C 
ATOM     10  C   UNL     1     167.804 168.960 198.811  1.00  0.00    -0.028 C 
ATOM     11  C   UNL     1     169.014 168.550 197.956  1.00  0.00     0.012 C 
ATOM     12  C   UNL     1     168.114 169.489 200.215  1.00  0.00     0.012 C 
ATOM     13  C   UNL     1     166.158 169.378 196.614  1.00  0.00     0.009 C 
ATOM     14  C   UNL     1     164.634 169.070 196.640  1.00  0.00     0.031 C 
ATOM     15  C   UNL     1     164.723 166.481 199.083  1.00  0.00     0.017 C 
ENDROOT
TORSDOF 0
ENDMDL
MODEL 2
REMARK VINA RESULT:    -5.687      4.368      6.954
REMARK INTER + INTRA:          -5.687
REMARK INTER:                  -5.687
REMARK INTRA:                   0.000
REMARK UNBOUND:                 0.000
REMARK SMILES C[C@H]1CCC=C2CC[C@H]3[C@@H](C3(C)C)[C@]21C
REMARK SMILES IDX 1 1 2 2 3 3 4 4 5 5 6 6 14 7 10 8 9 9 11 10 12 11 13 12 8 13
REMARK SMILES IDX 7 14 15 15
REMARK H PARENT
REMARK Flexibility Score: inf
ROOT
ATOM      1  C   UNL     1     167.243 161.890 200.654  1.00  0.00     0.008 C 
ATOM      2  C   UNL     1     167.390 163.421 200.489  1.00  0.00    -0.004 C 
ATOM      3  C   UNL     1     168.880 163.763 200.749  1.00  0.00     0.008 C 
ATOM      4  C   UNL     1     169.811 163.366 199.577  1.00  0.00     0.027 C 
ATOM      5  C   UNL     1     169.149 163.209 198.220  1.00  0.00    -0.027 C 
ATOM      6  C   UNL     1     167.833 163.412 197.987  1.00  0.00    -0.068 C 
ATOM      7  C   UNL     1     166.952 164.018 199.092  1.00  0.00    -0.005 C 
ATOM      8  C   UNL     1     165.425 163.921 198.703  1.00  0.00     0.009 C 
ATOM      9  C   UNL     1     165.256 162.496 198.087  1.00  0.00    -0.000 C 
ATOM     10  C   UNL     1     164.129 163.116 198.877  1.00  0.00    -0.028 C 
ATOM     11  C   UNL     1     162.905 163.544 198.050  1.00  0.00     0.012 C 
ATOM     12  C   UNL     1     163.844 162.586 200.286  1.00  0.00     0.012 C 
ATOM     13  C   UNL     1     165.720 162.685 196.642  1.00  0.00     0.009 C 
ATOM     14  C   UNL     1     167.248 162.973 196.635  1.00  0.00     0.031 C 
ATOM     15  C   UNL     1     167.247 165.554 199.089  1.00  0.00     0.017 C 
ENDROOT
TORSDOF 0
ENDMDL
MODEL 3
REMARK VINA RESULT:    -5.483      2.604      4.974
REMARK INTER + INTRA:          -5.483
REMARK INTER:                  -5.483
REMARK INTRA:                   0.000
REMARK UNBOUND:                 0.000
REMARK SMILES C[C@H]1CCC=C2CC[C@H]3[C@@H](C3(C)C)[C@]21C
REMARK SMILES IDX 1 1 2 2 3 3 4 4 5 5 6 6 14 7 10 8 9 9 11 10 12 11 13 12 8 13
REMARK SMILES IDX 7 14 15 15
REMARK H PARENT
REMARK Flexibility Score: inf
ROOT
ATOM      1  C   UNL     1     165.962 167.164 198.301  1.00  0.00     0.008 C 
ATOM      2  C   UNL     1     167.282 167.728 197.726  1.00  0.00    -0.004 C 
ATOM      3  C   UNL     1     167.032 169.224 197.402  1.00  0.00     0.008 C 
ATOM      4  C   UNL     1     166.988 170.123 198.663  1.00  0.00     0.027 C 
ATOM      5  C   UNL     1     167.675 169.574 199.900  1.00  0.00    -0.027 C 
ATOM      6  C   UNL     1     168.321 168.387 199.948  1.00  0.00    -0.068 C 
ATOM      7  C   UNL     1     168.559 167.600 198.649  1.00  0.00    -0.005 C 
ATOM      8  C   UNL     1     169.085 166.145 198.968  1.00  0.00     0.009 C 
ATOM      9  C   UNL     1     168.225 165.662 200.178  1.00  0.00    -0.000 C 
ATOM     10  C   UNL     1     168.690 164.671 199.139  1.00  0.00    -0.028 C 
ATOM     11  C   UNL     1     169.777 163.690 199.606  1.00  0.00     0.012 C 
ATOM     12  C   UNL     1     167.666 164.123 198.140  1.00  0.00     0.012 C 
ATOM     13  C   UNL     1     168.930 166.294 201.380  1.00  0.00     0.009 C 
ATOM     14  C   UNL     1     168.749 167.836 201.319  1.00  0.00     0.031 C 
ATOM     15  C   UNL     1     169.766 168.291 197.936  1.00  0.00     0.017 C 
ENDROOT
TORSDOF 0
ENDMDL
MODEL 4
REMARK VINA RESULT:    -5.480      2.916      5.753
REMARK INTER + INTRA:          -5.480
REMARK INTER:                  -5.480
REMARK INTRA:                   0.000
REMARK UNBOUND:                 0.000
REMARK SMILES C[C@H]1CCC=C2CC[C@H]3[C@@H](C3(C)C)[C@]21C
REMARK SMILES IDX 1 1 2 2 3 3 4 4 5 5 6 6 14 7 10 8 9 9 11 10 12 11 13 12 8 13
REMARK SMILES IDX 7 14 15 15
REMARK H PARENT
REMARK Flexibility Score: inf
ROOT
ATOM      1  C   UNL     1     166.044 164.829 198.299  1.00  0.00     0.008 C 
ATOM      2  C   UNL     1     164.723 164.261 197.729  1.00  0.00    -0.004 C 
ATOM      3  C   UNL     1     164.976 162.765 197.408  1.00  0.00     0.008 C 
ATOM      4  C   UNL     1     165.026 161.869 198.671  1.00  0.00     0.027 C 
ATOM      5  C   UNL     1     164.340 162.420 199.909  1.00  0.00    -0.027 C 
ATOM      6  C   UNL     1     163.692 163.605 199.956  1.00  0.00    -0.068 C 
ATOM      7  C   UNL     1     163.449 164.389 198.655  1.00  0.00    -0.005 C 
ATOM      8  C   UNL     1     162.920 165.843 198.972  1.00  0.00     0.009 C 
ATOM      9  C   UNL     1     163.782 166.332 200.178  1.00  0.00    -0.000 C 
ATOM     10  C   UNL     1     163.313 167.319 199.138  1.00  0.00    -0.028 C 
ATOM     11  C   UNL     1     162.225 168.299 199.606  1.00  0.00     0.012 C 
ATOM     12  C   UNL     1     164.333 167.866 198.134  1.00  0.00     0.012 C 
ATOM     13  C   UNL     1     163.082 165.701 201.384  1.00  0.00     0.009 C 
ATOM     14  C   UNL     1     163.266 164.159 201.326  1.00  0.00     0.031 C 
ATOM     15  C   UNL     1     162.241 163.693 197.947  1.00  0.00     0.017 C 
ENDROOT
TORSDOF 0
ENDMDL
MODEL 5
REMARK VINA RESULT:    -5.429      4.251      6.853
REMARK INTER + INTRA:          -5.429
REMARK INTER:                  -5.429
REMARK INTRA:                   0.000
REMARK UNBOUND:                 0.000
REMARK SMILES C[C@H]1CCC=C2CC[C@H]3[C@@H](C3(C)C)[C@]21C
REMARK SMILES IDX 1 1 2 2 3 3 4 4 5 5 6 6 14 7 10 8 9 9 11 10 12 11 13 12 8 13
REMARK SMILES IDX 7 14 15 15
REMARK H PARENT
REMARK Flexibility Score: inf
ROOT
ATOM      1  C   UNL     1     168.069 163.055 202.011  1.00  0.00     0.008 C 
ATOM      2  C   UNL     1     168.008 164.268 201.054  1.00  0.00    -0.004 C 
ATOM      3  C   UNL     1     169.344 164.292 200.266  1.00  0.00     0.008 C 
ATOM      4  C   UNL     1     169.425 163.202 199.169  1.00  0.00     0.027 C 
ATOM      5  C   UNL     1     168.099 162.651 198.674  1.00  0.00    -0.027 C 
ATOM      6  C   UNL     1     166.891 163.066 199.115  1.00  0.00    -0.068 C 
ATOM      7  C   UNL     1     166.800 164.295 200.035  1.00  0.00    -0.005 C 
ATOM      8  C   UNL     1     165.345 164.438 200.631  1.00  0.00     0.009 C 
ATOM      9  C   UNL     1     164.922 162.984 201.014  1.00  0.00    -0.000 C 
ATOM     10  C   UNL     1     164.446 164.152 201.843  1.00  0.00    -0.028 C 
ATOM     11  C   UNL     1     162.949 164.481 201.716  1.00  0.00     0.012 C 
ATOM     12  C   UNL     1     165.075 164.376 203.222  1.00  0.00     0.012 C 
ATOM     13  C   UNL     1     164.434 162.403 199.686  1.00  0.00     0.009 C 
ATOM     14  C   UNL     1     165.645 162.254 198.723  1.00  0.00     0.031 C 
ATOM     15  C   UNL     1     166.953 165.544 199.107  1.00  0.00     0.017 C 
ENDROOT
TORSDOF 0
ENDMDL
MODEL 6
REMARK VINA RESULT:    -5.367      3.945      5.489
REMARK INTER + INTRA:          -5.367
REMARK INTER:                  -5.367
REMARK INTRA:                   0.000
REMARK UNBOUND:                 0.000
REMARK SMILES C[C@H]1CCC=C2CC[C@H]3[C@@H](C3(C)C)[C@]21C
REMARK SMILES IDX 1 1 2 2 3 3 4 4 5 5 6 6 14 7 10 8 9 9 11 10 12 11 13 12 8 13
REMARK SMILES IDX 7 14 15 15
REMARK H PARENT
REMARK Flexibility Score: inf
ROOT
ATOM      1  C   UNL     1     164.314 162.997 200.592  1.00  0.00     0.008 C 
ATOM      2  C   UNL     1     164.558 162.351 199.208  1.00  0.00    -0.004 C 
ATOM      3  C   UNL     1     163.179 162.251 198.506  1.00  0.00     0.008 C 
ATOM      4  C   UNL     1     162.662 163.612 197.979  1.00  0.00     0.027 C 
ATOM      5  C   UNL     1     163.713 164.683 197.747  1.00  0.00    -0.027 C 
ATOM      6  C   UNL     1     165.037 164.506 197.951  1.00  0.00    -0.068 C 
ATOM      7  C   UNL     1     165.576 163.099 198.258  1.00  0.00    -0.005 C 
ATOM      8  C   UNL     1     167.086 163.168 198.715  1.00  0.00     0.009 C 
ATOM      9  C   UNL     1     167.160 164.397 199.675  1.00  0.00    -0.000 C 
ATOM     10  C   UNL     1     168.038 163.194 199.920  1.00  0.00    -0.028 C 
ATOM     11  C   UNL     1     169.535 163.406 199.642  1.00  0.00     0.012 C 
ATOM     12  C   UNL     1     167.689 162.257 201.080  1.00  0.00     0.012 C 
ATOM     13  C   UNL     1     167.288 165.581 198.714  1.00  0.00     0.009 C 
ATOM     14  C   UNL     1     165.958 165.737 197.925  1.00  0.00     0.031 C 
ATOM     15  C   UNL     1     165.630 162.347 196.888  1.00  0.00     0.017 C 
ENDROOT
TORSDOF 0
ENDMDL
MODEL 7
REMARK VINA RESULT:    -5.367      1.214      1.714
REMARK INTER + INTRA:          -5.367
REMARK INTER:                  -5.367
REMARK INTRA:                   0.000
REMARK UNBOUND:                 0.000
REMARK SMILES C[C@H]1CCC=C2CC[C@H]3[C@@H](C3(C)C)[C@]21C
REMARK SMILES IDX 1 1 2 2 3 3 4 4 5 5 6 6 14 7 10 8 9 9 11 10 12 11 13 12 8 13
REMARK SMILES IDX 7 14 15 15
REMARK H PARENT
REMARK Flexibility Score: inf
ROOT
ATOM      1  C   UNL     1     164.496 169.744 201.403  1.00  0.00     0.008 C 
ATOM      2  C   UNL     1     164.273 168.313 200.862  1.00  0.00    -0.004 C 
ATOM      3  C   UNL     1     162.820 168.254 200.324  1.00  0.00     0.008 C 
ATOM      4  C   UNL     1     162.639 168.986 198.972  1.00  0.00     0.027 C 
ATOM      5  C   UNL     1     163.897 169.181 198.144  1.00  0.00    -0.027 C 
ATOM      6  C   UNL     1     165.123 168.744 198.508  1.00  0.00    -0.068 C 
ATOM      7  C   UNL     1     165.268 167.828 199.734  1.00  0.00    -0.005 C 
ATOM      8  C   UNL     1     166.789 167.658 200.125  1.00  0.00     0.009 C 
ATOM      9  C   UNL     1     167.404 169.086 199.981  1.00  0.00    -0.000 C 
ATOM     10  C   UNL     1     167.915 168.148 201.047  1.00  0.00    -0.028 C 
ATOM     11  C   UNL     1     169.327 167.590 200.809  1.00  0.00     0.012 C 
ATOM     12  C   UNL     1     167.529 168.417 202.506  1.00  0.00     0.012 C 
ATOM     13  C   UNL     1     167.693 169.190 198.483  1.00  0.00     0.009 C 
ATOM     14  C   UNL     1     166.345 169.227 197.709  1.00  0.00     0.031 C 
ATOM     15  C   UNL     1     164.837 166.400 199.264  1.00  0.00     0.017 C 
ENDROOT
TORSDOF 0
ENDMDL
MODEL 8
REMARK VINA RESULT:    -5.358      0.967      4.458
REMARK INTER + INTRA:          -5.358
REMARK INTER:                  -5.358
REMARK INTRA:                   0.000
REMARK UNBOUND:                 0.000
REMARK SMILES C[C@H]1CCC=C2CC[C@H]3[C@@H](C3(C)C)[C@]21C
REMARK SMILES IDX 1 1 2 2 3 3 4 4 5 5 6 6 14 7 10 8 9 9 11 10 12 11 13 12 8 13
REMARK SMILES IDX 7 14 15 15
REMARK H PARENT
REMARK Flexibility Score: inf
ROOT
ATOM      1  C   UNL     1     167.810 169.063 200.644  1.00  0.00     0.008 C 
ATOM      2  C   UNL     1     167.572 169.670 199.241  1.00  0.00    -0.004 C 
ATOM      3  C   UNL     1     168.946 169.705 198.523  1.00  0.00     0.008 C 
ATOM      4  C   UNL     1     169.417 168.312 198.038  1.00  0.00     0.027 C 
ATOM      5  C   UNL     1     168.332 167.266 197.850  1.00  0.00    -0.027 C 
ATOM      6  C   UNL     1     167.016 167.490 198.060  1.00  0.00    -0.068 C 
ATOM      7  C   UNL     1     166.523 168.923 198.325  1.00  0.00    -0.005 C 
ATOM      8  C   UNL     1     165.016 168.915 198.798  1.00  0.00     0.009 C 
ATOM      9  C   UNL     1     164.914 167.720 199.798  1.00  0.00    -0.000 C 
ATOM     10  C   UNL     1     164.076 168.957 200.011  1.00  0.00    -0.028 C 
ATOM     11  C   UNL     1     162.570 168.782 199.755  1.00  0.00     0.012 C 
ATOM     12  C   UNL     1     164.464 169.920 201.137  1.00  0.00     0.012 C 
ATOM     13  C   UNL     1     164.741 166.510 198.878  1.00  0.00     0.009 C 
ATOM     14  C   UNL     1     166.058 166.288 198.083  1.00  0.00     0.031 C 
ATOM     15  C   UNL     1     166.478 169.631 196.932  1.00  0.00     0.017 C 
ENDROOT
TORSDOF 0
ENDMDL
MODEL 9
REMARK VINA RESULT:    -5.327      4.046      5.629
REMARK INTER + INTRA:          -5.327
REMARK INTER:                  -5.327
REMARK INTRA:                   0.000
REMARK UNBOUND:                 0.000
REMARK SMILES C[C@H]1CCC=C2CC[C@H]3[C@@H](C3(C)C)[C@]21C
REMARK SMILES IDX 1 1 2 2 3 3 4 4 5 5 6 6 14 7 10 8 9 9 11 10 12 11 13 12 8 13
REMARK SMILES IDX 7 14 15 15
REMARK H PARENT
REMARK Flexibility Score: inf
ROOT
ATOM      1  C   UNL     1     167.047 161.765 200.119  1.00  0.00     0.008 C 
ATOM      2  C   UNL     1     166.455 162.576 198.942  1.00  0.00    -0.004 C 
ATOM      3  C   UNL     1     165.103 161.913 198.570  1.00  0.00     0.008 C 
ATOM      4  C   UNL     1     163.974 162.220 199.584  1.00  0.00     0.027 C 
ATOM      5  C   UNL     1     164.161 163.460 200.439  1.00  0.00    -0.027 C 
ATOM      6  C   UNL     1     165.221 164.294 200.348  1.00  0.00    -0.068 C 
ATOM      7  C   UNL     1     166.228 164.119 199.199  1.00  0.00    -0.005 C 
ATOM      8  C   UNL     1     167.505 165.015 199.436  1.00  0.00     0.009 C 
ATOM      9  C   UNL     1     167.828 164.863 200.956  1.00  0.00    -0.000 C 
ATOM     10  C   UNL     1     168.949 165.039 199.961  1.00  0.00    -0.028 C 
ATOM     11  C   UNL     1     169.667 166.397 200.014  1.00  0.00     0.012 C 
ATOM     12  C   UNL     1     169.817 163.826 199.613  1.00  0.00     0.012 C 
ATOM     13  C   UNL     1     166.876 165.862 201.615  1.00  0.00     0.009 C 
ATOM     14  C   UNL     1     165.415 165.361 201.438  1.00  0.00     0.031 C 
ATOM     15  C   UNL     1     165.556 164.745 197.934  1.00  0.00     0.017 C 
ENDROOT
TORSDOF 0
ENDMDL
