MODEL 1
REMARK VINA RESULT:    -3.282      0.000      0.000
REMARK INTER + INTRA:         -13.341
REMARK INTER:                  -8.270
REMARK INTRA:                  -5.071
REMARK UNBOUND:                -5.071
REMARK SMILES CCCCCCCCCCCCCCCCCCCCCCCCCCCC(=O)[O-]
REMARK SMILES IDX 15 1 16 2 17 3 18 4 19 5 20 6 21 7 22 8 23 9 24 10 25 11
REMARK SMILES IDX 26 12 27 13 28 14 29 15 30 16 14 17 13 18 12 19 11 20 10 21
REMARK SMILES IDX 9 22 8 23 7 24 6 25 5 26 4 27 3 28 2 29 1 30
REMARK H PARENT
REMARK Flexibility Score: inf
ROOT
ATOM      1  C   UNL     1     -31.853   3.827 -38.246  1.00  0.00     0.000 C 
ENDROOT
BRANCH   1   2
ATOM      2  C   UNL     1     -31.297   3.701 -39.675  1.00  0.00     0.000 C 
BRANCH   2   3
ATOM      3  C   UNL     1     -29.827   4.148 -39.819  1.00  0.00     0.000 C 
BRANCH   3   4
ATOM      4  C   UNL     1     -29.306   4.864 -38.559  1.00  0.00     0.000 C 
BRANCH   4   5
ATOM      5  C   UNL     1     -27.946   4.316 -38.096  1.00  0.00     0.000 C 
BRANCH   5   6
ATOM      6  C   UNL     1     -27.267   5.234 -37.069  1.00  0.00     0.000 C 
BRANCH   6   7
ATOM      7  C   UNL     1     -26.581   4.414 -35.966  1.00  0.00     0.000 C 
BRANCH   7   8
ATOM      8  C   UNL     1     -25.571   3.399 -36.521  1.00  0.00     0.000 C 
BRANCH   8   9
ATOM      9  C   UNL     1     -25.174   2.331 -35.491  1.00  0.00     0.000 C 
BRANCH   9  10
ATOM     10  C   UNL     1     -25.518   2.789 -34.068  1.00  0.00     0.000 C 
BRANCH  10  11
ATOM     11  C   UNL     1     -24.244   3.022 -33.239  1.00  0.00     0.000 C 
BRANCH  11  12
ATOM     12  C   UNL     1     -23.600   4.396 -33.495  1.00  0.00     0.006 C 
BRANCH  12  13
ATOM     13  C   UNL     1     -24.436   5.583 -32.983  1.00  0.00     0.053 C 
BRANCH  13  14
ATOM     14  C   UNL     1     -24.580   5.593 -31.491  1.00  0.00     0.041 C 
ATOM     15  O   UNL     1     -23.576   5.794 -30.756  1.00  0.00    -0.550 OA
ATOM     16  O   UNL     1     -25.827   5.404 -30.911  1.00  0.00    -0.550 OA
ENDBRANCH  13  14
ENDBRANCH  12  13
ENDBRANCH  11  12
ENDBRANCH  10  11
ENDBRANCH   9  10
ENDBRANCH   8   9
ENDBRANCH   7   8
ENDBRANCH   6   7
ENDBRANCH   5   6
ENDBRANCH   4   5
ENDBRANCH   3   4
ENDBRANCH   2   3
ENDBRANCH   1   2
BRANCH   1  17
ATOM     17  C   UNL     1     -32.779   2.663 -37.857  1.00  0.00     0.000 C 
BRANCH  17  18
ATOM     18  C   UNL     1     -33.024   1.689 -39.022  1.00  0.00     0.000 C 
BRANCH  18  19
ATOM     19  C   UNL     1     -32.959   0.219 -38.571  1.00  0.00     0.000 C 
BRANCH  19  20
ATOM     20  C   UNL     1     -31.662  -0.119 -37.815  1.00  0.00     0.000 C 
BRANCH  20  21
ATOM     21  C   UNL     1     -30.373  -0.035 -38.658  1.00  0.00     0.000 C 
BRANCH  21  22
ATOM     22  C   UNL     1     -29.279   0.895 -38.094  1.00  0.00    -0.000 C 
BRANCH  22  23
ATOM     23  C   UNL     1     -29.139   0.884 -36.560  1.00  0.00    -0.000 C 
BRANCH  23  24
ATOM     24  C   UNL     1     -29.639   2.157 -35.851  1.00  0.00    -0.000 C 
BRANCH  24  25
ATOM     25  C   UNL     1     -30.677   1.887 -34.738  1.00  0.00    -0.000 C 
BRANCH  25  26
ATOM     26  C   UNL     1     -30.474   0.569 -33.963  1.00  0.00    -0.000 C 
BRANCH  26  27
ATOM     27  C   UNL     1     -31.676  -0.401 -33.961  1.00  0.00    -0.000 C 
BRANCH  27  28
ATOM     28  C   UNL     1     -31.469  -1.707 -34.750  1.00  0.00    -0.000 C 
BRANCH  28  29
ATOM     29  C   UNL     1     -30.040  -2.254 -34.632  1.00  0.00    -0.003 C 
ATOM     30  C   UNL     1     -29.502  -2.681 -35.995  1.00  0.00     0.004 C 
ENDBRANCH  28  29
ENDBRANCH  27  28
ENDBRANCH  26  27
ENDBRANCH  25  26
ENDBRANCH  24  25
ENDBRANCH  23  24
ENDBRANCH  22  23
ENDBRANCH  21  22
ENDBRANCH  20  21
ENDBRANCH  19  20
ENDBRANCH  18  19
ENDBRANCH  17  18
ENDBRANCH   1  17
TORSDOF 26
ENDMDL
MODEL 2
REMARK VINA RESULT:    -3.273      1.969      3.767
REMARK INTER + INTRA:         -13.320
REMARK INTER:                  -7.841
REMARK INTRA:                  -5.479
REMARK UNBOUND:                -5.071
REMARK SMILES CCCCCCCCCCCCCCCCCCCCCCCCCCCC(=O)[O-]
REMARK SMILES IDX 15 1 16 2 17 3 18 4 19 5 20 6 21 7 22 8 23 9 24 10 25 11
REMARK SMILES IDX 26 12 27 13 28 14 29 15 30 16 14 17 13 18 12 19 11 20 10 21
REMARK SMILES IDX 9 22 8 23 7 24 6 25 5 26 4 27 3 28 2 29 1 30
REMARK H PARENT
REMARK Flexibility Score: inf
ROOT
ATOM      1  C   UNL     1     -30.451  -0.321 -37.406  1.00  0.00     0.000 C 
ENDROOT
BRANCH   1   2
ATOM      2  C   UNL     1     -29.177   0.203 -38.092  1.00  0.00     0.000 C 
BRANCH   2   3
ATOM      3  C   UNL     1     -29.293   0.321 -39.626  1.00  0.00     0.000 C 
BRANCH   3   4
ATOM      4  C   UNL     1     -29.042   1.755 -40.125  1.00  0.00     0.000 C 
BRANCH   4   5
ATOM      5  C   UNL     1     -28.661   2.713 -38.984  1.00  0.00     0.000 C 
BRANCH   5   6
ATOM      6  C   UNL     1     -28.997   4.175 -39.312  1.00  0.00     0.000 C 
BRANCH   6   7
ATOM      7  C   UNL     1     -28.417   5.125 -38.253  1.00  0.00     0.000 C 
BRANCH   7   8
ATOM      8  C   UNL     1     -27.295   4.478 -37.426  1.00  0.00     0.000 C 
BRANCH   8   9
ATOM      9  C   UNL     1     -26.824   5.367 -36.266  1.00  0.00     0.000 C 
BRANCH   9  10
ATOM     10  C   UNL     1     -26.039   4.547 -35.234  1.00  0.00     0.000 C 
BRANCH  10  11
ATOM     11  C   UNL     1     -25.869   5.329 -33.921  1.00  0.00     0.000 C 
BRANCH  11  12
ATOM     12  C   UNL     1     -25.676   4.417 -32.696  1.00  0.00     0.006 C 
BRANCH  12  13
ATOM     13  C   UNL     1     -24.920   3.111 -33.003  1.00  0.00     0.053 C 
BRANCH  13  14
ATOM     14  C   UNL     1     -23.434   3.300 -33.069  1.00  0.00     0.041 C 
ATOM     15  O   UNL     1     -22.938   4.184 -33.818  1.00  0.00    -0.550 OA
ATOM     16  O   UNL     1     -22.598   2.517 -32.285  1.00  0.00    -0.550 OA
ENDBRANCH  13  14
ENDBRANCH  12  13
ENDBRANCH  11  12
ENDBRANCH  10  11
ENDBRANCH   9  10
ENDBRANCH   8   9
ENDBRANCH   7   8
ENDBRANCH   6   7
ENDBRANCH   5   6
ENDBRANCH   4   5
ENDBRANCH   3   4
ENDBRANCH   2   3
ENDBRANCH   1   2
BRANCH   1  17
ATOM     17  C   UNL     1     -31.613  -0.545 -38.387  1.00  0.00     0.000 C 
BRANCH  17  18
ATOM     18  C   UNL     1     -32.777   0.433 -38.157  1.00  0.00     0.000 C 
BRANCH  18  19
ATOM     19  C   UNL     1     -32.769   1.593 -39.168  1.00  0.00     0.000 C 
BRANCH  19  20
ATOM     20  C   UNL     1     -32.701   2.974 -38.492  1.00  0.00     0.000 C 
BRANCH  20  21
ATOM     21  C   UNL     1     -32.473   2.946 -36.968  1.00  0.00     0.000 C 
BRANCH  21  22
ATOM     22  C   UNL     1     -31.165   3.607 -36.487  1.00  0.00    -0.000 C 
BRANCH  22  23
ATOM     23  C   UNL     1     -30.964   3.623 -34.960  1.00  0.00    -0.000 C 
BRANCH  23  24
ATOM     24  C   UNL     1     -29.524   3.340 -34.490  1.00  0.00    -0.000 C 
BRANCH  24  25
ATOM     25  C   UNL     1     -28.893   2.080 -35.123  1.00  0.00    -0.000 C 
BRANCH  25  26
ATOM     26  C   UNL     1     -27.747   1.445 -34.307  1.00  0.00    -0.000 C 
BRANCH  26  27
ATOM     27  C   UNL     1     -26.788   0.529 -35.098  1.00  0.00    -0.000 C 
BRANCH  27  28
ATOM     28  C   UNL     1     -26.016   1.213 -36.240  1.00  0.00    -0.000 C 
BRANCH  28  29
ATOM     29  C   UNL     1     -24.497   1.212 -36.017  1.00  0.00    -0.003 C 
ATOM     30  C   UNL     1     -23.789   2.078 -37.055  1.00  0.00     0.004 C 
ENDBRANCH  28  29
ENDBRANCH  27  28
ENDBRANCH  26  27
ENDBRANCH  25  26
ENDBRANCH  24  25
ENDBRANCH  23  24
ENDBRANCH  22  23
ENDBRANCH  21  22
ENDBRANCH  20  21
ENDBRANCH  19  20
ENDBRANCH  18  19
ENDBRANCH  17  18
ENDBRANCH   1  17
TORSDOF 26
ENDMDL
MODEL 3
REMARK VINA RESULT:    -3.269      1.544      3.572
REMARK INTER + INTRA:         -13.308
REMARK INTER:                  -7.765
REMARK INTRA:                  -5.543
REMARK UNBOUND:                -5.071
REMARK SMILES CCCCCCCCCCCCCCCCCCCCCCCCCCCC(=O)[O-]
REMARK SMILES IDX 15 1 16 2 17 3 18 4 19 5 20 6 21 7 22 8 23 9 24 10 25 11
REMARK SMILES IDX 26 12 27 13 28 14 29 15 30 16 14 17 13 18 12 19 11 20 10 21
REMARK SMILES IDX 9 22 8 23 7 24 6 25 5 26 4 27 3 28 2 29 1 30
REMARK H PARENT
REMARK Flexibility Score: inf
ROOT
ATOM      1  C   UNL     1     -28.816   3.143 -38.234  1.00  0.00     0.000 C 
ENDROOT
BRANCH   1   2
ATOM      2  C   UNL     1     -28.015   4.450 -38.104  1.00  0.00     0.000 C 
BRANCH   2   3
ATOM      3  C   UNL     1     -27.767   4.893 -36.647  1.00  0.00     0.000 C 
BRANCH   3   4
ATOM      4  C   UNL     1     -26.269   5.056 -36.330  1.00  0.00     0.000 C 
BRANCH   4   5
ATOM      5  C   UNL     1     -25.415   3.939 -36.953  1.00  0.00     0.000 C 
BRANCH   5   6
ATOM      6  C   UNL     1     -25.044   2.852 -35.933  1.00  0.00     0.000 C 
BRANCH   6   7
ATOM      7  C   UNL     1     -25.915   1.600 -36.122  1.00  0.00     0.000 C 
BRANCH   7   8
ATOM      8  C   UNL     1     -27.154   1.596 -35.213  1.00  0.00     0.000 C 
BRANCH   8   9
ATOM      9  C   UNL     1     -26.832   2.002 -33.767  1.00  0.00     0.000 C 
BRANCH   9  10
ATOM     10  C   UNL     1     -27.786   3.101 -33.283  1.00  0.00     0.000 C 
BRANCH  10  11
ATOM     11  C   UNL     1     -27.024   4.405 -32.995  1.00  0.00     0.000 C 
BRANCH  11  12
ATOM     12  C   UNL     1     -25.563   4.170 -32.573  1.00  0.00     0.006 C 
BRANCH  12  13
ATOM     13  C   UNL     1     -24.738   5.462 -32.429  1.00  0.00     0.053 C 
BRANCH  13  14
ATOM     14  C   UNL     1     -24.546   5.874 -31.001  1.00  0.00     0.041 C 
ATOM     15  O   UNL     1     -25.539   6.181 -30.288  1.00  0.00    -0.550 OA
ATOM     16  O   UNL     1     -23.272   5.895 -30.448  1.00  0.00    -0.550 OA
ENDBRANCH  13  14
ENDBRANCH  12  13
ENDBRANCH  11  12
ENDBRANCH  10  11
ENDBRANCH   9  10
ENDBRANCH   8   9
ENDBRANCH   7   8
ENDBRANCH   6   7
ENDBRANCH   5   6
ENDBRANCH   4   5
ENDBRANCH   3   4
ENDBRANCH   2   3
ENDBRANCH   1   2
BRANCH   1  17
ATOM     17  C   UNL     1     -28.279   2.217 -39.338  1.00  0.00     0.000 C 
BRANCH  17  18
ATOM     18  C   UNL     1     -29.074   0.906 -39.448  1.00  0.00     0.000 C 
BRANCH  18  19
ATOM     19  C   UNL     1     -29.057   0.106 -38.133  1.00  0.00     0.000 C 
BRANCH  19  20
ATOM     20  C   UNL     1     -30.085  -1.040 -38.118  1.00  0.00     0.000 C 
BRANCH  20  21
ATOM     21  C   UNL     1     -31.396  -0.753 -38.875  1.00  0.00     0.000 C 
BRANCH  21  22
ATOM     22  C   UNL     1     -32.446   0.058 -38.087  1.00  0.00    -0.000 C 
BRANCH  22  23
ATOM     23  C   UNL     1     -33.130   1.187 -38.881  1.00  0.00    -0.000 C 
BRANCH  23  24
ATOM     24  C   UNL     1     -32.386   2.536 -38.866  1.00  0.00    -0.000 C 
BRANCH  24  25
ATOM     25  C   UNL     1     -33.083   3.627 -38.023  1.00  0.00    -0.000 C 
BRANCH  25  26
ATOM     26  C   UNL     1     -32.129   4.594 -37.291  1.00  0.00    -0.000 C 
BRANCH  26  27
ATOM     27  C   UNL     1     -32.094   4.467 -35.752  1.00  0.00    -0.000 C 
BRANCH  27  28
ATOM     28  C   UNL     1     -30.888   3.699 -35.182  1.00  0.00    -0.000 C 
BRANCH  28  29
ATOM     29  C   UNL     1     -31.299   2.474 -34.354  1.00  0.00    -0.003 C 
ATOM     30  C   UNL     1     -30.864   1.180 -35.035  1.00  0.00     0.004 C 
ENDBRANCH  28  29
ENDBRANCH  27  28
ENDBRANCH  26  27
ENDBRANCH  25  26
ENDBRANCH  24  25
ENDBRANCH  23  24
ENDBRANCH  22  23
ENDBRANCH  21  22
ENDBRANCH  20  21
ENDBRANCH  19  20
ENDBRANCH  18  19
ENDBRANCH  17  18
ENDBRANCH   1  17
TORSDOF 26
ENDMDL
MODEL 4
REMARK VINA RESULT:    -3.262      1.617      3.811
REMARK INTER + INTRA:         -13.289
REMARK INTER:                  -7.917
REMARK INTRA:                  -5.372
REMARK UNBOUND:                -5.071
REMARK SMILES CCCCCCCCCCCCCCCCCCCCCCCCCCCC(=O)[O-]
REMARK SMILES IDX 15 1 16 2 17 3 18 4 19 5 20 6 21 7 22 8 23 9 24 10 25 11
REMARK SMILES IDX 26 12 27 13 28 14 29 15 30 16 14 17 13 18 12 19 11 20 10 21
REMARK SMILES IDX 9 22 8 23 7 24 6 25 5 26 4 27 3 28 2 29 1 30
REMARK H PARENT
REMARK Flexibility Score: inf
ROOT
ATOM      1  C   UNL     1     -31.761  -0.370 -38.209  1.00  0.00     0.000 C 
ENDROOT
BRANCH   1   2
ATOM      2  C   UNL     1     -32.958   0.487 -38.656  1.00  0.00     0.000 C 
BRANCH   2   3
ATOM      3  C   UNL     1     -32.782   1.997 -38.392  1.00  0.00     0.000 C 
BRANCH   3   4
ATOM      4  C   UNL     1     -32.575   2.798 -39.691  1.00  0.00     0.000 C 
BRANCH   4   5
ATOM      5  C   UNL     1     -31.101   3.176 -39.916  1.00  0.00     0.000 C 
BRANCH   5   6
ATOM      6  C   UNL     1     -30.446   3.751 -38.652  1.00  0.00     0.000 C 
BRANCH   6   7
ATOM      7  C   UNL     1     -28.947   4.002 -38.874  1.00  0.00     0.000 C 
BRANCH   7   8
ATOM      8  C   UNL     1     -28.482   5.356 -38.316  1.00  0.00     0.000 C 
BRANCH   8   9
ATOM      9  C   UNL     1     -27.477   5.211 -37.164  1.00  0.00     0.000 C 
BRANCH   9  10
ATOM     10  C   UNL     1     -26.950   3.773 -37.076  1.00  0.00     0.000 C 
BRANCH  10  11
ATOM     11  C   UNL     1     -26.131   3.561 -35.792  1.00  0.00     0.000 C 
BRANCH  11  12
ATOM     12  C   UNL     1     -25.691   4.881 -35.133  1.00  0.00     0.006 C 
BRANCH  12  13
ATOM     13  C   UNL     1     -25.738   4.857 -33.595  1.00  0.00     0.053 C 
BRANCH  13  14
ATOM     14  C   UNL     1     -24.400   5.109 -32.968  1.00  0.00     0.041 C 
ATOM     15  O   UNL     1     -23.364   4.568 -33.440  1.00  0.00    -0.550 OA
ATOM     16  O   UNL     1     -24.292   5.960 -31.876  1.00  0.00    -0.550 OA
ENDBRANCH  13  14
ENDBRANCH  12  13
ENDBRANCH  11  12
ENDBRANCH  10  11
ENDBRANCH   9  10
ENDBRANCH   8   9
ENDBRANCH   7   8
ENDBRANCH   6   7
ENDBRANCH   5   6
ENDBRANCH   4   5
ENDBRANCH   3   4
ENDBRANCH   2   3
ENDBRANCH   1   2
BRANCH   1  17
ATOM     17  C   UNL     1     -30.945  -0.922 -39.390  1.00  0.00     0.000 C 
BRANCH  17  18
ATOM     18  C   UNL     1     -29.524  -0.338 -39.450  1.00  0.00     0.000 C 
BRANCH  18  19
ATOM     19  C   UNL     1     -29.154   0.420 -38.163  1.00  0.00     0.000 C 
BRANCH  19  20
ATOM     20  C   UNL     1     -27.828  -0.062 -37.546  1.00  0.00     0.000 C 
BRANCH  20  21
ATOM     21  C   UNL     1     -27.944  -1.292 -36.625  1.00  0.00     0.000 C 
BRANCH  21  22
ATOM     22  C   UNL     1     -29.258  -1.391 -35.824  1.00  0.00    -0.000 C 
BRANCH  22  23
ATOM     23  C   UNL     1     -29.442  -0.317 -34.735  1.00  0.00    -0.000 C 
BRANCH  23  24
ATOM     24  C   UNL     1     -30.881   0.210 -34.577  1.00  0.00    -0.000 C 
BRANCH  24  25
ATOM     25  C   UNL     1     -31.117   1.592 -35.227  1.00  0.00    -0.000 C 
BRANCH  25  26
ATOM     26  C   UNL     1     -29.852   2.460 -35.391  1.00  0.00    -0.000 C 
BRANCH  26  27
ATOM     27  C   UNL     1     -29.572   3.462 -34.249  1.00  0.00    -0.000 C 
BRANCH  27  28
ATOM     28  C   UNL     1     -28.717   2.917 -33.091  1.00  0.00    -0.000 C 
BRANCH  28  29
ATOM     29  C   UNL     1     -29.222   3.369 -31.714  1.00  0.00    -0.003 C 
ATOM     30  C   UNL     1     -30.651   2.891 -31.470  1.00  0.00     0.004 C 
ENDBRANCH  28  29
ENDBRANCH  27  28
ENDBRANCH  26  27
ENDBRANCH  25  26
ENDBRANCH  24  25
ENDBRANCH  23  24
ENDBRANCH  22  23
ENDBRANCH  21  22
ENDBRANCH  20  21
ENDBRANCH  19  20
ENDBRANCH  18  19
ENDBRANCH  17  18
ENDBRANCH   1  17
TORSDOF 26
ENDMDL
MODEL 5
REMARK VINA RESULT:    -3.192      2.215      2.924
REMARK INTER + INTRA:         -13.114
REMARK INTER:                  -8.219
REMARK INTRA:                  -4.895
REMARK UNBOUND:                -5.071
REMARK SMILES CCCCCCCCCCCCCCCCCCCCCCCCCCCC(=O)[O-]
REMARK SMILES IDX 15 1 16 2 17 3 18 4 19 5 20 6 21 7 22 8 23 9 24 10 25 11
REMARK SMILES IDX 26 12 27 13 28 14 29 15 30 16 14 17 13 18 12 19 11 20 10 21
REMARK SMILES IDX 9 22 8 23 7 24 6 25 5 26 4 27 3 28 2 29 1 30
REMARK H PARENT
REMARK Flexibility Score: inf
ROOT
ATOM      1  C   UNL     1     -33.061   2.855 -37.721  1.00  0.00     0.000 C 
ENDROOT
BRANCH   1   2
ATOM      2  C   UNL     1     -31.708   3.560 -37.522  1.00  0.00     0.000 C 
BRANCH   2   3
ATOM      3  C   UNL     1     -31.437   4.696 -38.530  1.00  0.00     0.000 C 
BRANCH   3   4
ATOM      4  C   UNL     1     -30.582   4.231 -39.722  1.00  0.00     0.000 C 
BRANCH   4   5
ATOM      5  C   UNL     1     -29.092   4.110 -39.361  1.00  0.00     0.000 C 
BRANCH   5   6
ATOM      6  C   UNL     1     -28.631   5.220 -38.405  1.00  0.00     0.000 C 
BRANCH   6   7
ATOM      7  C   UNL     1     -27.772   4.646 -37.269  1.00  0.00     0.000 C 
BRANCH   7   8
ATOM      8  C   UNL     1     -26.757   5.661 -36.720  1.00  0.00     0.000 C 
BRANCH   8   9
ATOM      9  C   UNL     1     -26.571   5.554 -35.199  1.00  0.00     0.000 C 
BRANCH   9  10
ATOM     10  C   UNL     1     -27.295   4.320 -34.646  1.00  0.00     0.000 C 
BRANCH  10  11
ATOM     11  C   UNL     1     -26.300   3.331 -34.017  1.00  0.00     0.000 C 
BRANCH  11  12
ATOM     12  C   UNL     1     -24.841   3.597 -34.431  1.00  0.00     0.006 C 
BRANCH  12  13
ATOM     13  C   UNL     1     -24.108   2.356 -34.971  1.00  0.00     0.053 C 
BRANCH  13  14
ATOM     14  C   UNL     1     -24.192   2.233 -36.463  1.00  0.00     0.041 C 
ATOM     15  O   UNL     1     -25.313   2.145 -37.032  1.00  0.00    -0.550 OA
ATOM     16  O   UNL     1     -23.033   2.240 -37.227  1.00  0.00    -0.550 OA
ENDBRANCH  13  14
ENDBRANCH  12  13
ENDBRANCH  11  12
ENDBRANCH  10  11
ENDBRANCH   9  10
ENDBRANCH   8   9
ENDBRANCH   7   8
ENDBRANCH   6   7
ENDBRANCH   5   6
ENDBRANCH   4   5
ENDBRANCH   3   4
ENDBRANCH   2   3
ENDBRANCH   1   2
BRANCH   1  17
ATOM     17  C   UNL     1     -33.014   1.761 -38.801  1.00  0.00     0.000 C 
BRANCH  17  18
ATOM     18  C   UNL     1     -33.055   0.343 -38.207  1.00  0.00     0.000 C 
BRANCH  18  19
ATOM     19  C   UNL     1     -31.874  -0.519 -38.686  1.00  0.00     0.000 C 
BRANCH  19  20
ATOM     20  C   UNL     1     -30.625   0.314 -39.029  1.00  0.00     0.000 C 
BRANCH  20  21
ATOM     21  C   UNL     1     -29.383   0.017 -38.165  1.00  0.00     0.000 C 
BRANCH  21  22
ATOM     22  C   UNL     1     -28.847   1.214 -37.354  1.00  0.00    -0.000 C 
BRANCH  22  23
ATOM     23  C   UNL     1     -28.763   0.986 -35.833  1.00  0.00    -0.000 C 
BRANCH  23  24
ATOM     24  C   UNL     1     -29.877   1.661 -35.011  1.00  0.00    -0.000 C 
BRANCH  24  25
ATOM     25  C   UNL     1     -31.232   0.918 -35.063  1.00  0.00    -0.000 C 
BRANCH  25  26
ATOM     26  C   UNL     1     -31.253  -0.448 -34.344  1.00  0.00    -0.000 C 
BRANCH  26  27
ATOM     27  C   UNL     1     -31.289  -1.689 -35.262  1.00  0.00    -0.000 C 
BRANCH  27  28
ATOM     28  C   UNL     1     -29.961  -2.458 -35.381  1.00  0.00    -0.000 C 
BRANCH  28  29
ATOM     29  C   UNL     1     -30.084  -3.929 -34.957  1.00  0.00    -0.003 C 
ATOM     30  C   UNL     1     -31.097  -4.091 -33.828  1.00  0.00     0.004 C 
ENDBRANCH  28  29
ENDBRANCH  27  28
ENDBRANCH  26  27
ENDBRANCH  25  26
ENDBRANCH  24  25
ENDBRANCH  23  24
ENDBRANCH  22  23
ENDBRANCH  21  22
ENDBRANCH  20  21
ENDBRANCH  19  20
ENDBRANCH  18  19
ENDBRANCH  17  18
ENDBRANCH   1  17
TORSDOF 26
ENDMDL
MODEL 6
REMARK VINA RESULT:    -3.188      3.128      7.052
REMARK INTER + INTRA:         -13.105
REMARK INTER:                  -8.053
REMARK INTRA:                  -5.053
REMARK UNBOUND:                -5.071
REMARK SMILES CCCCCCCCCCCCCCCCCCCCCCCCCCCC(=O)[O-]
REMARK SMILES IDX 15 1 16 2 17 3 18 4 19 5 20 6 21 7 22 8 23 9 24 10 25 11
REMARK SMILES IDX 26 12 27 13 28 14 29 15 30 16 14 17 13 18 12 19 11 20 10 21
REMARK SMILES IDX 9 22 8 23 7 24 6 25 5 26 4 27 3 28 2 29 1 30
REMARK H PARENT
REMARK Flexibility Score: inf
ROOT
ATOM      1  C   UNL     1     -28.745   3.136 -39.316  1.00  0.00     0.000 C 
ENDROOT
BRANCH   1   2
ATOM      2  C   UNL     1     -29.922   2.145 -39.281  1.00  0.00     0.000 C 
BRANCH   2   3
ATOM      3  C   UNL     1     -31.260   2.743 -39.761  1.00  0.00     0.000 C 
BRANCH   3   4
ATOM      4  C   UNL     1     -32.477   2.020 -39.154  1.00  0.00     0.000 C 
BRANCH   4   5
ATOM      5  C   UNL     1     -32.171   0.554 -38.804  1.00  0.00     0.000 C 
BRANCH   5   6
ATOM      6  C   UNL     1     -32.500   0.222 -37.341  1.00  0.00     0.000 C 
BRANCH   6   7
ATOM      7  C   UNL     1     -31.304  -0.443 -36.645  1.00  0.00     0.000 C 
BRANCH   7   8
ATOM      8  C   UNL     1     -30.354   0.574 -35.993  1.00  0.00     0.000 C 
BRANCH   8   9
ATOM      9  C   UNL     1     -31.097   1.650 -35.187  1.00  0.00     0.000 C 
BRANCH   9  10
ATOM     10  C   UNL     1     -30.767   3.052 -35.714  1.00  0.00     0.000 C 
BRANCH  10  11
ATOM     11  C   UNL     1     -32.049   3.858 -35.979  1.00  0.00     0.000 C 
BRANCH  11  12
ATOM     12  C   UNL     1     -31.827   5.051 -36.927  1.00  0.00     0.006 C 
BRANCH  12  13
ATOM     13  C   UNL     1     -33.128   5.655 -37.486  1.00  0.00     0.053 C 
BRANCH  13  14
ATOM     14  C   UNL     1     -33.619   6.823 -36.685  1.00  0.00     0.041 C 
ATOM     15  O   UNL     1     -34.194   6.639 -35.579  1.00  0.00    -0.550 OA
ATOM     16  O   UNL     1     -33.420   8.117 -37.148  1.00  0.00    -0.550 OA
ENDBRANCH  13  14
ENDBRANCH  12  13
ENDBRANCH  11  12
ENDBRANCH  10  11
ENDBRANCH   9  10
ENDBRANCH   8   9
ENDBRANCH   7   8
ENDBRANCH   6   7
ENDBRANCH   5   6
ENDBRANCH   4   5
ENDBRANCH   3   4
ENDBRANCH   2   3
ENDBRANCH   1   2
BRANCH   1  17
ATOM     17  C   UNL     1     -29.188   4.600 -39.155  1.00  0.00     0.000 C 
BRANCH  17  18
ATOM     18  C   UNL     1     -28.281   5.389 -38.196  1.00  0.00     0.000 C 
BRANCH  18  19
ATOM     19  C   UNL     1     -27.862   4.552 -36.974  1.00  0.00     0.000 C 
BRANCH  19  20
ATOM     20  C   UNL     1     -26.339   4.536 -36.754  1.00  0.00     0.000 C 
BRANCH  20  21
ATOM     21  C   UNL     1     -25.717   3.135 -36.585  1.00  0.00     0.000 C 
BRANCH  21  22
ATOM     22  C   UNL     1     -24.184   3.075 -36.738  1.00  0.00    -0.000 C 
BRANCH  22  23
ATOM     23  C   UNL     1     -23.435   2.425 -35.559  1.00  0.00    -0.000 C 
BRANCH  23  24
ATOM     24  C   UNL     1     -24.027   2.723 -34.168  1.00  0.00    -0.000 C 
BRANCH  24  25
ATOM     25  C   UNL     1     -23.622   4.100 -33.596  1.00  0.00    -0.000 C 
BRANCH  25  26
ATOM     26  C   UNL     1     -24.791   5.087 -33.387  1.00  0.00    -0.000 C 
BRANCH  26  27
ATOM     27  C   UNL     1     -25.434   5.079 -31.983  1.00  0.00    -0.000 C 
BRANCH  27  28
ATOM     28  C   UNL     1     -26.839   4.455 -31.907  1.00  0.00    -0.000 C 
BRANCH  28  29
ATOM     29  C   UNL     1     -27.408   4.097 -33.288  1.00  0.00    -0.003 C 
ATOM     30  C   UNL     1     -27.678   2.600 -33.398  1.00  0.00     0.004 C 
ENDBRANCH  28  29
ENDBRANCH  27  28
ENDBRANCH  26  27
ENDBRANCH  25  26
ENDBRANCH  24  25
ENDBRANCH  23  24
ENDBRANCH  22  23
ENDBRANCH  21  22
ENDBRANCH  20  21
ENDBRANCH  19  20
ENDBRANCH  18  19
ENDBRANCH  17  18
ENDBRANCH   1  17
TORSDOF 26
ENDMDL
MODEL 7
REMARK VINA RESULT:    -3.173      3.102      7.515
REMARK INTER + INTRA:         -13.066
REMARK INTER:                  -7.556
REMARK INTRA:                  -5.509
REMARK UNBOUND:                -5.071
REMARK SMILES CCCCCCCCCCCCCCCCCCCCCCCCCCCC(=O)[O-]
REMARK SMILES IDX 15 1 16 2 17 3 18 4 19 5 20 6 21 7 22 8 23 9 24 10 25 11
REMARK SMILES IDX 26 12 27 13 28 14 29 15 30 16 14 17 13 18 12 19 11 20 10 21
REMARK SMILES IDX 9 22 8 23 7 24 6 25 5 26 4 27 3 28 2 29 1 30
REMARK H PARENT
REMARK Flexibility Score: inf
ROOT
ATOM      1  C   UNL     1     -30.054   1.631 -34.739  1.00  0.00     0.000 C 
ENDROOT
BRANCH   1   2
ATOM      2  C   UNL     1     -29.768   0.169 -35.124  1.00  0.00     0.000 C 
BRANCH   2   3
ATOM      3  C   UNL     1     -30.979  -0.772 -34.959  1.00  0.00     0.000 C 
BRANCH   3   4
ATOM      4  C   UNL     1     -30.627  -2.239 -35.267  1.00  0.00     0.000 C 
BRANCH   4   5
ATOM      5  C   UNL     1     -29.113  -2.457 -35.422  1.00  0.00     0.000 C 
BRANCH   5   6
ATOM      6  C   UNL     1     -28.786  -3.662 -36.317  1.00  0.00     0.000 C 
BRANCH   6   7
ATOM      7  C   UNL     1     -28.376  -3.207 -37.725  1.00  0.00     0.000 C 
BRANCH   7   8
ATOM      8  C   UNL     1     -27.878  -1.754 -37.759  1.00  0.00     0.000 C 
BRANCH   8   9
ATOM      9  C   UNL     1     -28.569  -0.913 -38.843  1.00  0.00     0.000 C 
BRANCH   9  10
ATOM     10  C   UNL     1     -30.064  -1.243 -38.919  1.00  0.00     0.000 C 
BRANCH  10  11
ATOM     11  C   UNL     1     -30.895   0.018 -39.208  1.00  0.00     0.000 C 
BRANCH  11  12
ATOM     12  C   UNL     1     -32.042   0.229 -38.203  1.00  0.00     0.006 C 
BRANCH  12  13
ATOM     13  C   UNL     1     -33.158   1.157 -38.714  1.00  0.00     0.053 C 
BRANCH  13  14
ATOM     14  C   UNL     1     -32.749   2.599 -38.740  1.00  0.00     0.041 C 
ATOM     15  O   UNL     1     -32.669   3.258 -37.668  1.00  0.00    -0.550 OA
ATOM     16  O   UNL     1     -32.433   3.211 -39.946  1.00  0.00    -0.550 OA
ENDBRANCH  13  14
ENDBRANCH  12  13
ENDBRANCH  11  12
ENDBRANCH  10  11
ENDBRANCH   9  10
ENDBRANCH   8   9
ENDBRANCH   7   8
ENDBRANCH   6   7
ENDBRANCH   5   6
ENDBRANCH   4   5
ENDBRANCH   3   4
ENDBRANCH   2   3
ENDBRANCH   1   2
BRANCH   1  17
ATOM     17  C   UNL     1     -29.813   2.614 -35.897  1.00  0.00     0.000 C 
BRANCH  17  18
ATOM     18  C   UNL     1     -28.768   2.100 -36.901  1.00  0.00     0.000 C 
BRANCH  18  19
ATOM     19  C   UNL     1     -28.856   2.829 -38.253  1.00  0.00     0.000 C 
BRANCH  19  20
ATOM     20  C   UNL     1     -28.153   4.198 -38.241  1.00  0.00     0.000 C 
BRANCH  20  21
ATOM     21  C   UNL     1     -26.939   4.302 -37.296  1.00  0.00     0.000 C 
BRANCH  21  22
ATOM     22  C   UNL     1     -26.791   5.651 -36.563  1.00  0.00    -0.000 C 
BRANCH  22  23
ATOM     23  C   UNL     1     -26.479   5.546 -35.059  1.00  0.00    -0.000 C 
BRANCH  23  24
ATOM     24  C   UNL     1     -26.745   4.164 -34.433  1.00  0.00    -0.000 C 
BRANCH  24  25
ATOM     25  C   UNL     1     -25.566   3.616 -33.598  1.00  0.00    -0.000 C 
BRANCH  25  26
ATOM     26  C   UNL     1     -24.192   3.669 -34.298  1.00  0.00    -0.000 C 
BRANCH  26  27
ATOM     27  C   UNL     1     -24.009   2.706 -35.491  1.00  0.00    -0.000 C 
BRANCH  27  28
ATOM     28  C   UNL     1     -24.312   1.226 -35.196  1.00  0.00    -0.000 C 
BRANCH  28  29
ATOM     29  C   UNL     1     -25.478   0.679 -36.031  1.00  0.00    -0.003 C 
ATOM     30  C   UNL     1     -25.288   0.995 -37.511  1.00  0.00     0.004 C 
ENDBRANCH  28  29
ENDBRANCH  27  28
ENDBRANCH  26  27
ENDBRANCH  25  26
ENDBRANCH  24  25
ENDBRANCH  23  24
ENDBRANCH  22  23
ENDBRANCH  21  22
ENDBRANCH  20  21
ENDBRANCH  19  20
ENDBRANCH  18  19
ENDBRANCH  17  18
ENDBRANCH   1  17
TORSDOF 26
ENDMDL
MODEL 8
REMARK VINA RESULT:    -3.169      2.370      3.521
REMARK INTER + INTRA:         -13.056
REMARK INTER:                  -7.884
REMARK INTRA:                  -5.172
REMARK UNBOUND:                -5.071
REMARK SMILES CCCCCCCCCCCCCCCCCCCCCCCCCCCC(=O)[O-]
REMARK SMILES IDX 15 1 16 2 17 3 18 4 19 5 20 6 21 7 22 8 23 9 24 10 25 11
REMARK SMILES IDX 26 12 27 13 28 14 29 15 30 16 14 17 13 18 12 19 11 20 10 21
REMARK SMILES IDX 9 22 8 23 7 24 6 25 5 26 4 27 3 28 2 29 1 30
REMARK H PARENT
REMARK Flexibility Score: inf
ROOT
ATOM      1  C   UNL     1     -31.644   1.473 -36.376  1.00  0.00     0.000 C 
ENDROOT
BRANCH   1   2
ATOM      2  C   UNL     1     -30.392   1.330 -35.493  1.00  0.00     0.000 C 
BRANCH   2   3
ATOM      3  C   UNL     1     -29.433   2.536 -35.562  1.00  0.00     0.000 C 
BRANCH   3   4
ATOM      4  C   UNL     1     -29.975   3.666 -36.458  1.00  0.00     0.000 C 
BRANCH   4   5
ATOM      5  C   UNL     1     -28.926   4.166 -37.465  1.00  0.00     0.000 C 
BRANCH   5   6
ATOM      6  C   UNL     1     -27.525   3.609 -37.174  1.00  0.00     0.000 C 
BRANCH   6   7
ATOM      7  C   UNL     1     -26.509   4.746 -36.981  1.00  0.00     0.000 C 
BRANCH   7   8
ATOM      8  C   UNL     1     -26.779   5.575 -35.716  1.00  0.00     0.000 C 
BRANCH   8   9
ATOM      9  C   UNL     1     -26.561   4.776 -34.423  1.00  0.00     0.000 C 
BRANCH   9  10
ATOM     10  C   UNL     1     -25.294   5.246 -33.697  1.00  0.00     0.000 C 
BRANCH  10  11
ATOM     11  C   UNL     1     -24.175   4.197 -33.803  1.00  0.00     0.000 C 
BRANCH  11  12
ATOM     12  C   UNL     1     -24.650   2.868 -34.418  1.00  0.00     0.006 C 
BRANCH  12  13
ATOM     13  C   UNL     1     -23.569   2.136 -35.235  1.00  0.00     0.053 C 
BRANCH  13  14
ATOM     14  C   UNL     1     -23.729   2.326 -36.713  1.00  0.00     0.041 C 
ATOM     15  O   UNL     1     -23.001   3.148 -37.332  1.00  0.00    -0.550 OA
ATOM     16  O   UNL     1     -24.667   1.578 -37.413  1.00  0.00    -0.550 OA
ENDBRANCH  13  14
ENDBRANCH  12  13
ENDBRANCH  11  12
ENDBRANCH  10  11
ENDBRANCH   9  10
ENDBRANCH   8   9
ENDBRANCH   7   8
ENDBRANCH   6   7
ENDBRANCH   5   6
ENDBRANCH   4   5
ENDBRANCH   3   4
ENDBRANCH   2   3
ENDBRANCH   1   2
BRANCH   1  17
ATOM     17  C   UNL     1     -32.026   0.167 -37.093  1.00  0.00     0.000 C 
BRANCH  17  18
ATOM     18  C   UNL     1     -32.103   0.332 -38.619  1.00  0.00     0.000 C 
BRANCH  18  19
ATOM     19  C   UNL     1     -31.758   1.763 -39.066  1.00  0.00     0.000 C 
BRANCH  19  20
ATOM     20  C   UNL     1     -30.388   1.859 -39.762  1.00  0.00     0.000 C 
BRANCH  20  21
ATOM     21  C   UNL     1     -29.628   0.525 -39.897  1.00  0.00     0.000 C 
BRANCH  21  22
ATOM     22  C   UNL     1     -28.385   0.383 -38.995  1.00  0.00    -0.000 C 
BRANCH  22  23
ATOM     23  C   UNL     1     -28.535  -0.608 -37.826  1.00  0.00    -0.000 C 
BRANCH  23  24
ATOM     24  C   UNL     1     -27.326  -0.681 -36.875  1.00  0.00    -0.000 C 
BRANCH  24  25
ATOM     25  C   UNL     1     -27.687  -1.102 -35.432  1.00  0.00    -0.000 C 
BRANCH  25  26
ATOM     26  C   UNL     1     -28.652  -2.302 -35.325  1.00  0.00    -0.000 C 
BRANCH  26  27
ATOM     27  C   UNL     1     -29.693  -2.227 -34.187  1.00  0.00    -0.000 C 
BRANCH  27  28
ATOM     28  C   UNL     1     -31.154  -2.452 -34.616  1.00  0.00    -0.000 C 
BRANCH  28  29
ATOM     29  C   UNL     1     -32.136  -1.516 -33.897  1.00  0.00    -0.003 C 
ATOM     30  C   UNL     1     -33.507  -2.169 -33.750  1.00  0.00     0.004 C 
ENDBRANCH  28  29
ENDBRANCH  27  28
ENDBRANCH  26  27
ENDBRANCH  25  26
ENDBRANCH  24  25
ENDBRANCH  23  24
ENDBRANCH  22  23
ENDBRANCH  21  22
ENDBRANCH  20  21
ENDBRANCH  19  20
ENDBRANCH  18  19
ENDBRANCH  17  18
ENDBRANCH   1  17
TORSDOF 26
ENDMDL
MODEL 9
REMARK VINA RESULT:    -3.156      1.726      3.499
REMARK INTER + INTRA:         -13.024
REMARK INTER:                  -7.511
REMARK INTRA:                  -5.513
REMARK UNBOUND:                -5.071
REMARK SMILES CCCCCCCCCCCCCCCCCCCCCCCCCCCC(=O)[O-]
REMARK SMILES IDX 15 1 16 2 17 3 18 4 19 5 20 6 21 7 22 8 23 9 24 10 25 11
REMARK SMILES IDX 26 12 27 13 28 14 29 15 30 16 14 17 13 18 12 19 11 20 10 21
REMARK SMILES IDX 9 22 8 23 7 24 6 25 5 26 4 27 3 28 2 29 1 30
REMARK H PARENT
REMARK Flexibility Score: inf
ROOT
ATOM      1  C   UNL     1     -29.588   3.931 -38.600  1.00  0.00     0.000 C 
ENDROOT
BRANCH   1   2
ATOM      2  C   UNL     1     -28.071   3.999 -38.351  1.00  0.00     0.000 C 
BRANCH   2   3
ATOM      3  C   UNL     1     -27.616   5.255 -37.581  1.00  0.00     0.000 C 
BRANCH   3   4
ATOM      4  C   UNL     1     -26.601   4.928 -36.471  1.00  0.00     0.000 C 
BRANCH   4   5
ATOM      5  C   UNL     1     -26.093   3.479 -36.552  1.00  0.00     0.000 C 
BRANCH   5   6
ATOM      6  C   UNL     1     -24.562   3.391 -36.470  1.00  0.00     0.000 C 
BRANCH   6   7
ATOM      7  C   UNL     1     -24.125   2.268 -35.517  1.00  0.00     0.000 C 
BRANCH   7   8
ATOM      8  C   UNL     1     -25.299   1.391 -35.054  1.00  0.00     0.000 C 
BRANCH   8   9
ATOM      9  C   UNL     1     -25.330   1.195 -33.531  1.00  0.00     0.000 C 
BRANCH   9  10
ATOM     10  C   UNL     1     -24.986   2.501 -32.805  1.00  0.00     0.000 C 
BRANCH  10  11
ATOM     11  C   UNL     1     -26.237   3.374 -32.615  1.00  0.00     0.000 C 
BRANCH  11  12
ATOM     12  C   UNL     1     -25.959   4.877 -32.800  1.00  0.00     0.006 C 
BRANCH  12  13
ATOM     13  C   UNL     1     -24.499   5.280 -32.523  1.00  0.00     0.053 C 
BRANCH  13  14
ATOM     14  C   UNL     1     -24.253   5.623 -31.084  1.00  0.00     0.041 C 
ATOM     15  O   UNL     1     -23.328   5.055 -30.444  1.00  0.00    -0.550 OA
ATOM     16  O   UNL     1     -25.030   6.588 -30.457  1.00  0.00    -0.550 OA
ENDBRANCH  13  14
ENDBRANCH  12  13
ENDBRANCH  11  12
ENDBRANCH  10  11
ENDBRANCH   9  10
ENDBRANCH   8   9
ENDBRANCH   7   8
ENDBRANCH   6   7
ENDBRANCH   5   6
ENDBRANCH   4   5
ENDBRANCH   3   4
ENDBRANCH   2   3
ENDBRANCH   1   2
BRANCH   1  17
ATOM     17  C   UNL     1     -29.984   2.828 -39.595  1.00  0.00     0.000 C 
BRANCH  17  18
ATOM     18  C   UNL     1     -31.347   2.198 -39.267  1.00  0.00     0.000 C 
BRANCH  18  19
ATOM     19  C   UNL     1     -31.228   0.702 -38.927  1.00  0.00     0.000 C 
BRANCH  19  20
ATOM     20  C   UNL     1     -29.788   0.172 -39.056  1.00  0.00     0.000 C 
BRANCH  20  21
ATOM     21  C   UNL     1     -29.179  -0.389 -37.756  1.00  0.00     0.000 C 
BRANCH  21  22
ATOM     22  C   UNL     1     -28.560   0.663 -36.813  1.00  0.00    -0.000 C 
BRANCH  22  23
ATOM     23  C   UNL     1     -29.500   1.188 -35.713  1.00  0.00    -0.000 C 
BRANCH  23  24
ATOM     24  C   UNL     1     -28.982   2.418 -34.944  1.00  0.00    -0.000 C 
BRANCH  24  25
ATOM     25  C   UNL     1     -29.981   3.595 -34.897  1.00  0.00    -0.000 C 
BRANCH  25  26
ATOM     26  C   UNL     1     -31.351   3.314 -35.550  1.00  0.00    -0.000 C 
BRANCH  26  27
ATOM     27  C   UNL     1     -32.123   4.554 -36.052  1.00  0.00    -0.000 C 
BRANCH  27  28
ATOM     28  C   UNL     1     -33.596   4.306 -36.423  1.00  0.00    -0.000 C 
BRANCH  28  29
ATOM     29  C   UNL     1     -33.857   4.415 -37.931  1.00  0.00    -0.003 C 
ATOM     30  C   UNL     1     -32.948   5.462 -38.570  1.00  0.00     0.004 C 
ENDBRANCH  28  29
ENDBRANCH  27  28
ENDBRANCH  26  27
ENDBRANCH  25  26
ENDBRANCH  24  25
ENDBRANCH  23  24
ENDBRANCH  22  23
ENDBRANCH  21  22
ENDBRANCH  20  21
ENDBRANCH  19  20
ENDBRANCH  18  19
ENDBRANCH  17  18
ENDBRANCH   1  17
TORSDOF 26
ENDMDL
