MODEL 1
REMARK VINA RESULT:    -4.755      0.000      0.000
REMARK INTER + INTRA:          -9.906
REMARK INTER:                  -8.090
REMARK INTRA:                  -1.816
REMARK UNBOUND:                -1.816
REMARK SMILES CCCCCCCCCCCCCC(=O)[O-]
REMARK SMILES IDX 8 1 9 2 10 3 11 4 12 5 13 6 14 7 15 8 16 9 7 10 6 11 5 12
REMARK SMILES IDX 4 13 3 14 2 15 1 16
REMARK H PARENT
REMARK Flexibility Score: inf
ROOT
ATOM      1  C   UNL     1     123.239 177.441 125.057  1.00  0.00     0.000 C 
ENDROOT
BRANCH   1   2
ATOM      2  C   UNL     1     121.799 177.974 125.012  1.00  0.00     0.000 C 
BRANCH   2   3
ATOM      3  C   UNL     1     121.466 178.539 123.626  1.00  0.00     0.000 C 
BRANCH   3   4
ATOM      4  C   UNL     1     120.369 179.608 123.714  1.00  0.00     0.000 C 
BRANCH   4   5
ATOM      5  C   UNL     1     120.204 180.108 125.156  1.00  0.00     0.006 C 
BRANCH   5   6
ATOM      6  C   UNL     1     118.736 180.125 125.600  1.00  0.00     0.053 C 
BRANCH   6   7
ATOM      7  C   UNL     1     118.019 178.875 125.190  1.00  0.00     0.041 C 
ATOM      8  O   UNL     1     118.223 177.795 125.805  1.00  0.00    -0.550 OA
ATOM      9  O   UNL     1     117.101 178.909 124.148  1.00  0.00    -0.550 OA
ENDBRANCH   6   7
ENDBRANCH   5   6
ENDBRANCH   4   5
ENDBRANCH   3   4
ENDBRANCH   2   3
ENDBRANCH   1   2
BRANCH   1  10
ATOM     10  C   UNL     1     124.132 178.223 126.033  1.00  0.00     0.000 C 
BRANCH  10  11
ATOM     11  C   UNL     1     123.366 179.332 126.775  1.00  0.00    -0.000 C 
BRANCH  11  12
ATOM     12  C   UNL     1     123.764 179.432 128.257  1.00  0.00    -0.000 C 
BRANCH  12  13
ATOM     13  C   UNL     1     122.689 178.862 129.200  1.00  0.00    -0.000 C 
BRANCH  13  14
ATOM     14  C   UNL     1     121.290 178.833 128.559  1.00  0.00    -0.000 C 
BRANCH  14  15
ATOM     15  C   UNL     1     120.660 177.433 128.450  1.00  0.00    -0.003 C 
ATOM     16  C   UNL     1     121.539 176.335 129.049  1.00  0.00     0.004 C 
ENDBRANCH  14  15
ENDBRANCH  13  14
ENDBRANCH  12  13
ENDBRANCH  11  12
ENDBRANCH  10  11
ENDBRANCH   1  10
TORSDOF 12
ENDMDL
MODEL 2
REMARK VINA RESULT:    -4.753      1.239      3.047
REMARK INTER + INTRA:          -9.903
REMARK INTER:                  -7.971
REMARK INTRA:                  -1.932
REMARK UNBOUND:                -1.816
REMARK SMILES CCCCCCCCCCCCCC(=O)[O-]
REMARK SMILES IDX 8 1 9 2 10 3 11 4 12 5 13 6 14 7 15 8 16 9 7 10 6 11 5 12
REMARK SMILES IDX 4 13 3 14 2 15 1 16
REMARK H PARENT
REMARK Flexibility Score: inf
ROOT
ATOM      1  C   UNL     1     121.397 178.843 128.739  1.00  0.00     0.000 C 
ENDROOT
BRANCH   1   2
ATOM      2  C   UNL     1     120.457 177.717 128.279  1.00  0.00     0.000 C 
BRANCH   2   3
ATOM      3  C   UNL     1     119.562 178.186 127.125  1.00  0.00     0.000 C 
BRANCH   3   4
ATOM      4  C   UNL     1     119.636 179.708 126.952  1.00  0.00     0.000 C 
BRANCH   4   5
ATOM      5  C   UNL     1     119.761 180.087 125.470  1.00  0.00     0.006 C 
BRANCH   5   6
ATOM      6  C   UNL     1     119.474 178.901 124.540  1.00  0.00     0.053 C 
BRANCH   6   7
ATOM      7  C   UNL     1     118.103 178.986 123.943  1.00  0.00     0.041 C 
ATOM      8  O   UNL     1     117.948 178.917 122.695  1.00  0.00    -0.550 OA
ATOM      9  O   UNL     1     116.991 179.110 124.767  1.00  0.00    -0.550 OA
ENDBRANCH   6   7
ENDBRANCH   5   6
ENDBRANCH   4   5
ENDBRANCH   3   4
ENDBRANCH   2   3
ENDBRANCH   1   2
BRANCH   1  10
ATOM     10  C   UNL     1     122.828 178.351 129.004  1.00  0.00     0.000 C 
BRANCH  10  11
ATOM     11  C   UNL     1     123.876 179.114 128.174  1.00  0.00    -0.000 C 
BRANCH  11  12
ATOM     12  C   UNL     1     123.397 179.402 126.741  1.00  0.00    -0.000 C 
BRANCH  12  13
ATOM     13  C   UNL     1     123.830 178.314 125.742  1.00  0.00    -0.000 C 
BRANCH  13  14
ATOM     14  C   UNL     1     122.642 177.505 125.190  1.00  0.00    -0.000 C 
BRANCH  14  15
ATOM     15  C   UNL     1     122.891 175.990 125.081  1.00  0.00    -0.003 C 
ATOM     16  C   UNL     1     121.909 175.161 125.907  1.00  0.00     0.004 C 
ENDBRANCH  14  15
ENDBRANCH  13  14
ENDBRANCH  12  13
ENDBRANCH  11  12
ENDBRANCH  10  11
ENDBRANCH   1  10
TORSDOF 12
ENDMDL
MODEL 3
REMARK VINA RESULT:    -4.692      1.666      2.817
REMARK INTER + INTRA:          -9.800
REMARK INTER:                  -8.262
REMARK INTRA:                  -1.538
REMARK UNBOUND:                -1.816
REMARK SMILES CCCCCCCCCCCCCC(=O)[O-]
REMARK SMILES IDX 8 1 9 2 10 3 11 4 12 5 13 6 14 7 15 8 16 9 7 10 6 11 5 12
REMARK SMILES IDX 4 13 3 14 2 15 1 16
REMARK H PARENT
REMARK Flexibility Score: inf
ROOT
ATOM      1  C   UNL     1     123.534 178.378 127.800  1.00  0.00     0.000 C 
ENDROOT
BRANCH   1   2
ATOM      2  C   UNL     1     123.289 179.384 126.665  1.00  0.00     0.000 C 
BRANCH   2   3
ATOM      3  C   UNL     1     121.811 179.405 126.259  1.00  0.00     0.000 C 
BRANCH   3   4
ATOM      4  C   UNL     1     121.133 178.065 126.571  1.00  0.00     0.000 C 
BRANCH   4   5
ATOM      5  C   UNL     1     119.778 178.281 127.259  1.00  0.00     0.006 C 
BRANCH   5   6
ATOM      6  C   UNL     1     118.923 179.333 126.541  1.00  0.00     0.053 C 
BRANCH   6   7
ATOM      7  C   UNL     1     118.135 178.732 125.418  1.00  0.00     0.041 C 
ATOM      8  O   UNL     1     117.887 179.407 124.383  1.00  0.00    -0.550 OA
ATOM      9  O   UNL     1     117.699 177.415 125.500  1.00  0.00    -0.550 OA
ENDBRANCH   6   7
ENDBRANCH   5   6
ENDBRANCH   4   5
ENDBRANCH   3   4
ENDBRANCH   2   3
ENDBRANCH   1   2
BRANCH   1  10
ATOM     10  C   UNL     1     123.555 179.040 129.187  1.00  0.00     0.000 C 
BRANCH  10  11
ATOM     11  C   UNL     1     122.267 178.777 129.986  1.00  0.00    -0.000 C 
BRANCH  11  12
ATOM     12  C   UNL     1     122.390 177.556 130.914  1.00  0.00    -0.000 C 
BRANCH  12  13
ATOM     13  C   UNL     1     121.097 176.724 130.975  1.00  0.00    -0.000 C 
BRANCH  13  14
ATOM     14  C   UNL     1     120.995 175.698 129.832  1.00  0.00    -0.000 C 
BRANCH  14  15
ATOM     15  C   UNL     1     119.557 175.351 129.405  1.00  0.00    -0.003 C 
ATOM     16  C   UNL     1     118.502 176.200 130.113  1.00  0.00     0.004 C 
ENDBRANCH  14  15
ENDBRANCH  13  14
ENDBRANCH  12  13
ENDBRANCH  11  12
ENDBRANCH  10  11
ENDBRANCH   1  10
TORSDOF 12
ENDMDL
MODEL 4
REMARK VINA RESULT:    -4.688      1.866      3.764
REMARK INTER + INTRA:          -9.792
REMARK INTER:                  -8.419
REMARK INTRA:                  -1.373
REMARK UNBOUND:                -1.816
REMARK SMILES CCCCCCCCCCCCCC(=O)[O-]
REMARK SMILES IDX 8 1 9 2 10 3 11 4 12 5 13 6 14 7 15 8 16 9 7 10 6 11 5 12
REMARK SMILES IDX 4 13 3 14 2 15 1 16
REMARK H PARENT
REMARK Flexibility Score: inf
ROOT
ATOM      1  C   UNL     1     119.662 175.938 128.007  1.00  0.00     0.000 C 
ENDROOT
BRANCH   1   2
ATOM      2  C   UNL     1     120.205 177.011 127.052  1.00  0.00     0.000 C 
BRANCH   2   3
ATOM      3  C   UNL     1     119.287 178.240 127.028  1.00  0.00     0.000 C 
BRANCH   3   4
ATOM      4  C   UNL     1     120.101 179.534 126.904  1.00  0.00     0.000 C 
BRANCH   4   5
ATOM      5  C   UNL     1     120.027 180.096 125.477  1.00  0.00     0.006 C 
BRANCH   5   6
ATOM      6  C   UNL     1     120.786 179.223 124.469  1.00  0.00     0.053 C 
BRANCH   6   7
ATOM      7  C   UNL     1     120.222 179.355 123.087  1.00  0.00     0.041 C 
ATOM      8  O   UNL     1     120.939 179.790 122.148  1.00  0.00    -0.550 OA
ATOM      9  O   UNL     1     118.913 178.968 122.831  1.00  0.00    -0.550 OA
ENDBRANCH   6   7
ENDBRANCH   5   6
ENDBRANCH   4   5
ENDBRANCH   3   4
ENDBRANCH   2   3
ENDBRANCH   1   2
BRANCH   1  10
ATOM     10  C   UNL     1     119.358 176.489 129.410  1.00  0.00     0.000 C 
BRANCH  10  11
ATOM     11  C   UNL     1     120.275 175.890 130.490  1.00  0.00    -0.000 C 
BRANCH  11  12
ATOM     12  C   UNL     1     121.285 176.914 131.037  1.00  0.00    -0.000 C 
BRANCH  12  13
ATOM     13  C   UNL     1     122.414 177.226 130.039  1.00  0.00    -0.000 C 
BRANCH  13  14
ATOM     14  C   UNL     1     122.497 178.721 129.682  1.00  0.00    -0.000 C 
BRANCH  14  15
ATOM     15  C   UNL     1     123.697 179.106 128.799  1.00  0.00    -0.003 C 
ATOM     16  C   UNL     1     123.594 178.556 127.377  1.00  0.00     0.004 C 
ENDBRANCH  14  15
ENDBRANCH  13  14
ENDBRANCH  12  13
ENDBRANCH  11  12
ENDBRANCH  10  11
ENDBRANCH   1  10
TORSDOF 12
ENDMDL
MODEL 5
REMARK VINA RESULT:    -4.626      1.603      3.534
REMARK INTER + INTRA:          -9.688
REMARK INTER:                  -7.958
REMARK INTRA:                  -1.729
REMARK UNBOUND:                -1.816
REMARK SMILES CCCCCCCCCCCCCC(=O)[O-]
REMARK SMILES IDX 8 1 9 2 10 3 11 4 12 5 13 6 14 7 15 8 16 9 7 10 6 11 5 12
REMARK SMILES IDX 4 13 3 14 2 15 1 16
REMARK H PARENT
REMARK Flexibility Score: inf
ROOT
ATOM      1  C   UNL     1     122.571 178.791 129.138  1.00  0.00     0.000 C 
ENDROOT
BRANCH   1   2
ATOM      2  C   UNL     1     123.711 179.225 128.205  1.00  0.00     0.000 C 
BRANCH   2   3
ATOM      3  C   UNL     1     123.211 179.392 126.765  1.00  0.00     0.000 C 
BRANCH   3   4
ATOM      4  C   UNL     1     123.253 178.059 126.008  1.00  0.00     0.000 C 
BRANCH   4   5
ATOM      5  C   UNL     1     122.235 178.047 124.859  1.00  0.00     0.006 C 
BRANCH   5   6
ATOM      6  C   UNL     1     121.099 179.054 125.079  1.00  0.00     0.053 C 
BRANCH   6   7
ATOM      7  C   UNL     1     120.299 179.267 123.830  1.00  0.00     0.041 C 
ATOM      8  O   UNL     1     120.876 179.549 122.747  1.00  0.00    -0.550 OA
ATOM      9  O   UNL     1     118.917 179.124 123.856  1.00  0.00    -0.550 OA
ENDBRANCH   6   7
ENDBRANCH   5   6
ENDBRANCH   4   5
ENDBRANCH   3   4
ENDBRANCH   2   3
ENDBRANCH   1   2
BRANCH   1  10
ATOM     10  C   UNL     1     123.052 177.894 130.289  1.00  0.00     0.000 C 
BRANCH  10  11
ATOM     11  C   UNL     1     122.374 176.513 130.284  1.00  0.00    -0.000 C 
BRANCH  11  12
ATOM     12  C   UNL     1     122.430 175.835 128.905  1.00  0.00    -0.000 C 
BRANCH  12  13
ATOM     13  C   UNL     1     121.057 175.317 128.442  1.00  0.00    -0.000 C 
BRANCH  13  14
ATOM     14  C   UNL     1     120.270 176.359 127.626  1.00  0.00    -0.000 C 
BRANCH  14  15
ATOM     15  C   UNL     1     119.116 177.034 128.388  1.00  0.00    -0.003 C 
ATOM     16  C   UNL     1     118.757 176.317 129.688  1.00  0.00     0.004 C 
ENDBRANCH  14  15
ENDBRANCH  13  14
ENDBRANCH  12  13
ENDBRANCH  11  12
ENDBRANCH  10  11
ENDBRANCH   1  10
TORSDOF 12
ENDMDL
MODEL 6
REMARK VINA RESULT:    -4.621      1.345      3.316
REMARK INTER + INTRA:          -9.678
REMARK INTER:                  -8.070
REMARK INTRA:                  -1.608
REMARK UNBOUND:                -1.816
REMARK SMILES CCCCCCCCCCCCCC(=O)[O-]
REMARK SMILES IDX 8 1 9 2 10 3 11 4 12 5 13 6 14 7 15 8 16 9 7 10 6 11 5 12
REMARK SMILES IDX 4 13 3 14 2 15 1 16
REMARK H PARENT
REMARK Flexibility Score: inf
ROOT
ATOM      1  C   UNL     1     120.637 176.576 128.573  1.00  0.00     0.000 C 
ENDROOT
BRANCH   1   2
ATOM      2  C   UNL     1     119.267 177.179 128.225  1.00  0.00     0.000 C 
BRANCH   2   3
ATOM      3  C   UNL     1     119.292 177.836 126.840  1.00  0.00     0.000 C 
BRANCH   3   4
ATOM      4  C   UNL     1     119.413 179.360 126.954  1.00  0.00     0.000 C 
BRANCH   4   5
ATOM      5  C   UNL     1     118.829 180.053 125.714  1.00  0.00     0.006 C 
BRANCH   5   6
ATOM      6  C   UNL     1     117.603 179.316 125.161  1.00  0.00     0.053 C 
BRANCH   6   7
ATOM      7  C   UNL     1     117.766 178.984 123.709  1.00  0.00     0.041 C 
ATOM      8  O   UNL     1     116.758 178.714 123.003  1.00  0.00    -0.550 OA
ATOM      9  O   UNL     1     119.027 179.002 123.128  1.00  0.00    -0.550 OA
ENDBRANCH   6   7
ENDBRANCH   5   6
ENDBRANCH   4   5
ENDBRANCH   3   4
ENDBRANCH   2   3
ENDBRANCH   1   2
BRANCH   1  10
ATOM     10  C   UNL     1     121.037 176.815 130.037  1.00  0.00     0.000 C 
BRANCH  10  11
ATOM     11  C   UNL     1     122.378 177.559 130.168  1.00  0.00    -0.000 C 
BRANCH  11  12
ATOM     12  C   UNL     1     122.371 178.915 129.443  1.00  0.00    -0.000 C 
BRANCH  12  13
ATOM     13  C   UNL     1     123.542 179.066 128.456  1.00  0.00    -0.000 C 
BRANCH  13  14
ATOM     14  C   UNL     1     123.075 179.364 127.019  1.00  0.00    -0.000 C 
BRANCH  14  15
ATOM     15  C   UNL     1     123.458 178.292 125.983  1.00  0.00    -0.003 C 
ATOM     16  C   UNL     1     122.383 178.079 124.918  1.00  0.00     0.004 C 
ENDBRANCH  14  15
ENDBRANCH  13  14
ENDBRANCH  12  13
ENDBRANCH  11  12
ENDBRANCH  10  11
ENDBRANCH   1  10
TORSDOF 12
ENDMDL
MODEL 7
REMARK VINA RESULT:    -4.581      1.904      3.065
REMARK INTER + INTRA:          -9.611
REMARK INTER:                  -7.941
REMARK INTRA:                  -1.670
REMARK UNBOUND:                -1.816
REMARK SMILES CCCCCCCCCCCCCC(=O)[O-]
REMARK SMILES IDX 8 1 9 2 10 3 11 4 12 5 13 6 14 7 15 8 16 9 7 10 6 11 5 12
REMARK SMILES IDX 4 13 3 14 2 15 1 16
REMARK H PARENT
REMARK Flexibility Score: inf
ROOT
ATOM      1  C   UNL     1     123.844 178.555 128.311  1.00  0.00     0.000 C 
ENDROOT
BRANCH   1   2
ATOM      2  C   UNL     1     123.529 179.398 127.066  1.00  0.00     0.000 C 
BRANCH   2   3
ATOM      3  C   UNL     1     122.456 178.724 126.202  1.00  0.00     0.000 C 
BRANCH   3   4
ATOM      4  C   UNL     1     121.056 179.238 126.560  1.00  0.00     0.000 C 
BRANCH   4   5
ATOM      5  C   UNL     1     120.054 178.931 125.438  1.00  0.00     0.006 C 
BRANCH   5   6
ATOM      6  C   UNL     1     120.209 179.883 124.245  1.00  0.00     0.053 C 
BRANCH   6   7
ATOM      7  C   UNL     1     120.476 179.137 122.973  1.00  0.00     0.041 C 
ATOM      8  O   UNL     1     121.585 178.570 122.791  1.00  0.00    -0.550 OA
ATOM      9  O   UNL     1     119.487 179.042 122.002  1.00  0.00    -0.550 OA
ENDBRANCH   6   7
ENDBRANCH   5   6
ENDBRANCH   4   5
ENDBRANCH   3   4
ENDBRANCH   2   3
ENDBRANCH   1   2
BRANCH   1  10
ATOM     10  C   UNL     1     123.633 179.328 129.622  1.00  0.00     0.000 C 
BRANCH  10  11
ATOM     11  C   UNL     1     122.325 178.937 130.333  1.00  0.00    -0.000 C 
BRANCH  11  12
ATOM     12  C   UNL     1     122.416 177.563 131.018  1.00  0.00    -0.000 C 
BRANCH  12  13
ATOM     13  C   UNL     1     121.173 176.692 130.767  1.00  0.00    -0.000 C 
BRANCH  13  14
ATOM     14  C   UNL     1     120.692 176.746 129.306  1.00  0.00    -0.000 C 
BRANCH  14  15
ATOM     15  C   UNL     1     121.413 175.774 128.355  1.00  0.00    -0.003 C 
ATOM     16  C   UNL     1     120.639 175.516 127.063  1.00  0.00     0.004 C 
ENDBRANCH  14  15
ENDBRANCH  13  14
ENDBRANCH  12  13
ENDBRANCH  11  12
ENDBRANCH  10  11
ENDBRANCH   1  10
TORSDOF 12
ENDMDL
MODEL 8
REMARK VINA RESULT:    -4.493      2.074      4.905
REMARK INTER + INTRA:          -9.460
REMARK INTER:                  -7.805
REMARK INTRA:                  -1.655
REMARK UNBOUND:                -1.816
REMARK SMILES CCCCCCCCCCCCCC(=O)[O-]
REMARK SMILES IDX 8 1 9 2 10 3 11 4 12 5 13 6 14 7 15 8 16 9 7 10 6 11 5 12
REMARK SMILES IDX 4 13 3 14 2 15 1 16
REMARK H PARENT
REMARK Flexibility Score: inf
ROOT
ATOM      1  C   UNL     1     123.380 179.375 127.111  1.00  0.00     0.000 C 
ENDROOT
BRANCH   1   2
ATOM      2  C   UNL     1     123.589 179.029 128.593  1.00  0.00     0.000 C 
BRANCH   2   3
ATOM      3  C   UNL     1     122.258 179.045 129.355  1.00  0.00     0.000 C 
BRANCH   3   4
ATOM      4  C   UNL     1     122.359 178.247 130.660  1.00  0.00     0.000 C 
BRANCH   4   5
ATOM      5  C   UNL     1     121.536 176.953 130.579  1.00  0.00     0.006 C 
BRANCH   5   6
ATOM      6  C   UNL     1     120.580 176.947 129.379  1.00  0.00     0.053 C 
BRANCH   6   7
ATOM      7  C   UNL     1     120.873 175.814 128.443  1.00  0.00     0.041 C 
ATOM      8  O   UNL     1     122.049 175.381 128.319  1.00  0.00    -0.550 OA
ATOM      9  O   UNL     1     119.842 175.215 127.732  1.00  0.00    -0.550 OA
ENDBRANCH   6   7
ENDBRANCH   5   6
ENDBRANCH   4   5
ENDBRANCH   3   4
ENDBRANCH   2   3
ENDBRANCH   1   2
BRANCH   1  10
ATOM     10  C   UNL     1     122.885 178.178 126.284  1.00  0.00     0.000 C 
BRANCH  10  11
ATOM     11  C   UNL     1     121.483 178.408 125.693  1.00  0.00    -0.000 C 
BRANCH  11  12
ATOM     12  C   UNL     1     120.961 179.831 125.956  1.00  0.00    -0.000 C 
BRANCH  12  13
ATOM     13  C   UNL     1     119.470 179.854 126.337  1.00  0.00    -0.000 C 
BRANCH  13  14
ATOM     14  C   UNL     1     118.865 178.444 126.465  1.00  0.00    -0.000 C 
BRANCH  14  15
ATOM     15  C   UNL     1     117.848 178.079 125.369  1.00  0.00    -0.003 C 
ATOM     16  C   UNL     1     117.456 179.270 124.496  1.00  0.00     0.004 C 
ENDBRANCH  14  15
ENDBRANCH  13  14
ENDBRANCH  12  13
ENDBRANCH  11  12
ENDBRANCH  10  11
ENDBRANCH   1  10
TORSDOF 12
ENDMDL
MODEL 9
REMARK VINA RESULT:    -4.480      2.137      5.200
REMARK INTER + INTRA:          -9.439
REMARK INTER:                  -7.763
REMARK INTRA:                  -1.676
REMARK UNBOUND:                -1.816
REMARK SMILES CCCCCCCCCCCCCC(=O)[O-]
REMARK SMILES IDX 8 1 9 2 10 3 11 4 12 5 13 6 14 7 15 8 16 9 7 10 6 11 5 12
REMARK SMILES IDX 4 13 3 14 2 15 1 16
REMARK H PARENT
REMARK Flexibility Score: inf
ROOT
ATOM      1  C   UNL     1     121.222 176.533 130.060  1.00  0.00     0.000 C 
ENDROOT
BRANCH   1   2
ATOM      2  C   UNL     1     121.892 177.453 131.092  1.00  0.00     0.000 C 
BRANCH   2   3
ATOM      3  C   UNL     1     122.733 178.533 130.400  1.00  0.00     0.000 C 
BRANCH   3   4
ATOM      4  C   UNL     1     122.083 178.981 129.085  1.00  0.00     0.000 C 
BRANCH   4   5
ATOM      5  C   UNL     1     123.108 178.995 127.942  1.00  0.00     0.006 C 
BRANCH   5   6
ATOM      6  C   UNL     1     122.482 179.417 126.606  1.00  0.00     0.053 C 
BRANCH   6   7
ATOM      7  C   UNL     1     122.500 178.299 125.609  1.00  0.00     0.041 C 
ATOM      8  O   UNL     1     123.128 177.236 125.858  1.00  0.00    -0.550 OA
ATOM      9  O   UNL     1     121.797 178.420 124.417  1.00  0.00    -0.550 OA
ENDBRANCH   6   7
ENDBRANCH   5   6
ENDBRANCH   4   5
ENDBRANCH   3   4
ENDBRANCH   2   3
ENDBRANCH   1   2
BRANCH   1  10
ATOM     10  C   UNL     1     119.723 176.328 130.332  1.00  0.00     0.000 C 
BRANCH  10  11
ATOM     11  C   UNL     1     118.875 176.407 129.050  1.00  0.00    -0.000 C 
BRANCH  11  12
ATOM     12  C   UNL     1     119.731 176.339 127.774  1.00  0.00    -0.000 C 
BRANCH  12  13
ATOM     13  C   UNL     1     119.189 177.237 126.648  1.00  0.00    -0.000 C 
BRANCH  13  14
ATOM     14  C   UNL     1     118.987 178.696 127.095  1.00  0.00    -0.000 C 
BRANCH  14  15
ATOM     15  C   UNL     1     118.755 179.695 125.947  1.00  0.00    -0.003 C 
ATOM     16  C   UNL     1     117.665 179.246 124.975  1.00  0.00     0.004 C 
ENDBRANCH  14  15
ENDBRANCH  13  14
ENDBRANCH  12  13
ENDBRANCH  11  12
ENDBRANCH  10  11
ENDBRANCH   1  10
TORSDOF 12
ENDMDL
