MODEL 1
REMARK VINA RESULT:    -4.189      0.000      0.000
REMARK INTER + INTRA:          -8.973
REMARK INTER:                  -7.617
REMARK INTRA:                  -1.355
REMARK UNBOUND:                -1.355
REMARK SMILES CCCCCCCCCCCCCCCC(=O)[O-]
REMARK SMILES IDX 9 1 10 2 11 3 12 4 13 5 14 6 15 7 16 8 17 9 18 10 8 11 7 12
REMARK SMILES IDX 6 13 5 14 4 15 3 16 2 17 1 18
REMARK H PARENT
REMARK Flexibility Score: inf
ROOT
ATOM      1  C   UNL     1      25.125 -36.188  23.049  1.00  0.00     0.000 C 
ENDROOT
BRANCH   1   2
ATOM      2  C   UNL     1      26.115 -35.221  22.385  1.00  0.00     0.000 C 
BRANCH   2   3
ATOM      3  C   UNL     1      25.419 -34.031  21.700  1.00  0.00     0.000 C 
BRANCH   3   4
ATOM      4  C   UNL     1      25.590 -32.674  22.411  1.00  0.00     0.000 C 
BRANCH   4   5
ATOM      5  C   UNL     1      25.190 -32.661  23.897  1.00  0.00     0.000 C 
BRANCH   5   6
ATOM      6  C   UNL     1      23.891 -31.885  24.158  1.00  0.00     0.006 C 
BRANCH   6   7
ATOM      7  C   UNL     1      24.189 -30.440  24.569  1.00  0.00     0.053 C 
BRANCH   7   8
ATOM      8  C   UNL     1      23.395 -30.065  25.780  1.00  0.00     0.041 C 
ATOM      9  O   UNL     1      22.322 -30.670  26.046  1.00  0.00    -0.550 OA
ATOM     10  O   UNL     1      23.864 -29.084  26.643  1.00  0.00    -0.550 OA
ENDBRANCH   7   8
ENDBRANCH   6   7
ENDBRANCH   5   6
ENDBRANCH   4   5
ENDBRANCH   3   4
ENDBRANCH   2   3
ENDBRANCH   1   2
BRANCH   1  11
ATOM     11  C   UNL     1      25.852 -37.152  23.996  1.00  0.00     0.000 C 
BRANCH  11  12
ATOM     12  C   UNL     1      26.731 -38.136  23.209  1.00  0.00    -0.000 C 
BRANCH  12  13
ATOM     13  C   UNL     1      26.192 -39.577  23.242  1.00  0.00    -0.000 C 
BRANCH  13  14
ATOM     14  C   UNL     1      25.771 -40.150  21.874  1.00  0.00    -0.000 C 
BRANCH  14  15
ATOM     15  C   UNL     1      24.520 -39.504  21.252  1.00  0.00    -0.000 C 
BRANCH  15  16
ATOM     16  C   UNL     1      23.341 -39.423  22.231  1.00  0.00    -0.000 C 
BRANCH  16  17
ATOM     17  C   UNL     1      22.275 -38.444  21.727  1.00  0.00    -0.003 C 
ATOM     18  C   UNL     1      22.779 -37.652  20.524  1.00  0.00     0.004 C 
ENDBRANCH  16  17
ENDBRANCH  15  16
ENDBRANCH  14  15
ENDBRANCH  13  14
ENDBRANCH  12  13
ENDBRANCH  11  12
ENDBRANCH   1  11
TORSDOF 14
ENDMDL
MODEL 2
REMARK VINA RESULT:    -4.135      3.042      7.957
REMARK INTER + INTRA:          -8.874
REMARK INTER:                  -7.410
REMARK INTRA:                  -1.464
REMARK UNBOUND:                -1.355
REMARK SMILES CCCCCCCCCCCCCCCC(=O)[O-]
REMARK SMILES IDX 9 1 10 2 11 3 12 4 13 5 14 6 15 7 16 8 17 9 18 10 8 11 7 12
REMARK SMILES IDX 6 13 5 14 4 15 3 16 2 17 1 18
REMARK H PARENT
REMARK Flexibility Score: inf
ROOT
ATOM      1  C   UNL     1      23.494 -31.985  24.845  1.00  0.00     0.000 C 
ENDROOT
BRANCH   1   2
ATOM      2  C   UNL     1      24.522 -31.361  23.891  1.00  0.00     0.000 C 
BRANCH   2   3
ATOM      3  C   UNL     1      25.480 -32.399  23.281  1.00  0.00     0.000 C 
BRANCH   3   4
ATOM      4  C   UNL     1      24.942 -33.139  22.041  1.00  0.00     0.000 C 
BRANCH   4   5
ATOM      5  C   UNL     1      25.926 -34.128  21.392  1.00  0.00     0.000 C 
BRANCH   5   6
ATOM      6  C   UNL     1      26.334 -35.269  22.335  1.00  0.00     0.006 C 
BRANCH   6   7
ATOM      7  C   UNL     1      25.186 -36.267  22.516  1.00  0.00     0.053 C 
BRANCH   7   8
ATOM      8  C   UNL     1      24.880 -36.455  23.968  1.00  0.00     0.041 C 
ATOM      9  O   UNL     1      24.436 -35.494  24.651  1.00  0.00    -0.550 OA
ATOM     10  O   UNL     1      25.034 -37.703  24.557  1.00  0.00    -0.550 OA
ENDBRANCH   7   8
ENDBRANCH   6   7
ENDBRANCH   5   6
ENDBRANCH   4   5
ENDBRANCH   3   4
ENDBRANCH   2   3
ENDBRANCH   1   2
BRANCH   1  11
ATOM     11  C   UNL     1      22.597 -30.908  25.467  1.00  0.00     0.000 C 
BRANCH  11  12
ATOM     12  C   UNL     1      23.323 -29.555  25.525  1.00  0.00    -0.000 C 
BRANCH  12  13
ATOM     13  C   UNL     1      23.896 -29.244  26.920  1.00  0.00    -0.000 C 
BRANCH  13  14
ATOM     14  C   UNL     1      22.866 -29.256  28.067  1.00  0.00    -0.000 C 
BRANCH  14  15
ATOM     15  C   UNL     1      23.257 -30.106  29.289  1.00  0.00    -0.000 C 
BRANCH  15  16
ATOM     16  C   UNL     1      23.849 -31.469  28.901  1.00  0.00    -0.000 C 
BRANCH  16  17
ATOM     17  C   UNL     1      22.938 -32.613  29.360  1.00  0.00    -0.003 C 
ATOM     18  C   UNL     1      22.360 -33.370  28.169  1.00  0.00     0.004 C 
ENDBRANCH  16  17
ENDBRANCH  15  16
ENDBRANCH  14  15
ENDBRANCH  13  14
ENDBRANCH  12  13
ENDBRANCH  11  12
ENDBRANCH   1  11
TORSDOF 14
ENDMDL
MODEL 3
REMARK VINA RESULT:    -4.132      1.432      2.997
REMARK INTER + INTRA:          -8.869
REMARK INTER:                  -7.836
REMARK INTRA:                  -1.033
REMARK UNBOUND:                -1.355
REMARK SMILES CCCCCCCCCCCCCCCC(=O)[O-]
REMARK SMILES IDX 9 1 10 2 11 3 12 4 13 5 14 6 15 7 16 8 17 9 18 10 8 11 7 12
REMARK SMILES IDX 6 13 5 14 4 15 3 16 2 17 1 18
REMARK H PARENT
REMARK Flexibility Score: inf
ROOT
ATOM      1  C   UNL     1      24.790 -33.152  22.392  1.00  0.00     0.000 C 
ENDROOT
BRANCH   1   2
ATOM      2  C   UNL     1      25.243 -32.172  23.484  1.00  0.00     0.000 C 
BRANCH   2   3
ATOM      3  C   UNL     1      24.141 -31.878  24.517  1.00  0.00     0.000 C 
BRANCH   3   4
ATOM      4  C   UNL     1      23.905 -32.991  25.557  1.00  0.00     0.000 C 
BRANCH   4   5
ATOM      5  C   UNL     1      22.955 -32.618  26.708  1.00  0.00     0.000 C 
BRANCH   5   6
ATOM      6  C   UNL     1      22.080 -31.397  26.389  1.00  0.00     0.006 C 
BRANCH   6   7
ATOM      7  C   UNL     1      22.184 -30.344  27.496  1.00  0.00     0.053 C 
BRANCH   7   8
ATOM      8  C   UNL     1      23.525 -29.684  27.467  1.00  0.00     0.041 C 
ATOM      9  O   UNL     1      23.860 -28.970  26.485  1.00  0.00    -0.550 OA
ATOM     10  O   UNL     1      24.388 -29.814  28.548  1.00  0.00    -0.550 OA
ENDBRANCH   7   8
ENDBRANCH   6   7
ENDBRANCH   5   6
ENDBRANCH   4   5
ENDBRANCH   3   4
ENDBRANCH   2   3
ENDBRANCH   1   2
BRANCH   1  11
ATOM     11  C   UNL     1      25.984 -33.638  21.562  1.00  0.00     0.000 C 
BRANCH  11  12
ATOM     12  C   UNL     1      26.459 -35.019  22.039  1.00  0.00    -0.000 C 
BRANCH  12  13
ATOM     13  C   UNL     1      25.402 -35.756  22.880  1.00  0.00    -0.000 C 
BRANCH  13  14
ATOM     14  C   UNL     1      25.662 -37.262  23.085  1.00  0.00    -0.000 C 
BRANCH  14  15
ATOM     15  C   UNL     1      24.746 -38.199  22.277  1.00  0.00    -0.000 C 
BRANCH  15  16
ATOM     16  C   UNL     1      23.968 -37.467  21.174  1.00  0.00    -0.000 C 
BRANCH  16  17
ATOM     17  C   UNL     1      23.087 -38.442  20.385  1.00  0.00    -0.003 C 
ATOM     18  C   UNL     1      21.627 -38.002  20.400  1.00  0.00     0.004 C 
ENDBRANCH  16  17
ENDBRANCH  15  16
ENDBRANCH  14  15
ENDBRANCH  13  14
ENDBRANCH  12  13
ENDBRANCH  11  12
ENDBRANCH   1  11
TORSDOF 14
ENDMDL
MODEL 4
REMARK VINA RESULT:    -4.065      4.284      8.399
REMARK INTER + INTRA:          -8.747
REMARK INTER:                  -6.661
REMARK INTRA:                  -2.085
REMARK UNBOUND:                -1.355
REMARK SMILES CCCCCCCCCCCCCCCC(=O)[O-]
REMARK SMILES IDX 9 1 10 2 11 3 12 4 13 5 14 6 15 7 16 8 17 9 18 10 8 11 7 12
REMARK SMILES IDX 6 13 5 14 4 15 3 16 2 17 1 18
REMARK H PARENT
REMARK Flexibility Score: inf
ROOT
ATOM      1  C   UNL     1      21.462 -31.987  25.881  1.00  0.00     0.000 C 
ENDROOT
BRANCH   1   2
ATOM      2  C   UNL     1      22.261 -32.947  26.774  1.00  0.00     0.000 C 
BRANCH   2   3
ATOM      3  C   UNL     1      23.741 -33.051  26.366  1.00  0.00     0.000 C 
BRANCH   3   4
ATOM      4  C   UNL     1      23.993 -33.225  24.855  1.00  0.00     0.000 C 
BRANCH   4   5
ATOM      5  C   UNL     1      25.022 -32.255  24.248  1.00  0.00     0.000 C 
BRANCH   5   6
ATOM      6  C   UNL     1      25.335 -32.561  22.776  1.00  0.00     0.006 C 
BRANCH   6   7
ATOM      7  C   UNL     1      25.620 -34.053  22.575  1.00  0.00     0.053 C 
BRANCH   7   8
ATOM      8  C   UNL     1      25.360 -34.449  21.157  1.00  0.00     0.041 C 
ATOM      9  O   UNL     1      24.547 -35.375  20.897  1.00  0.00    -0.550 OA
ATOM     10  O   UNL     1      25.977 -33.763  20.118  1.00  0.00    -0.550 OA
ENDBRANCH   7   8
ENDBRANCH   6   7
ENDBRANCH   5   6
ENDBRANCH   4   5
ENDBRANCH   3   4
ENDBRANCH   2   3
ENDBRANCH   1   2
BRANCH   1  11
ATOM     11  C   UNL     1      21.554 -30.548  26.403  1.00  0.00     0.000 C 
BRANCH  11  12
ATOM     12  C   UNL     1      22.603 -29.745  25.618  1.00  0.00    -0.000 C 
BRANCH  12  13
ATOM     13  C   UNL     1      23.785 -29.291  26.494  1.00  0.00    -0.000 C 
BRANCH  13  14
ATOM     14  C   UNL     1      23.506 -29.274  28.010  1.00  0.00    -0.000 C 
BRANCH  14  15
ATOM     15  C   UNL     1      24.524 -30.044  28.870  1.00  0.00    -0.000 C 
BRANCH  15  16
ATOM     16  C   UNL     1      23.919 -31.283  29.545  1.00  0.00    -0.000 C 
BRANCH  16  17
ATOM     17  C   UNL     1      22.484 -31.009  30.007  1.00  0.00    -0.003 C 
ATOM     18  C   UNL     1      21.829 -32.275  30.553  1.00  0.00     0.004 C 
ENDBRANCH  16  17
ENDBRANCH  15  16
ENDBRANCH  14  15
ENDBRANCH  13  14
ENDBRANCH  12  13
ENDBRANCH  11  12
ENDBRANCH   1  11
TORSDOF 14
ENDMDL
MODEL 5
REMARK VINA RESULT:    -4.058      1.337      2.420
REMARK INTER + INTRA:          -8.735
REMARK INTER:                  -7.751
REMARK INTRA:                  -0.984
REMARK UNBOUND:                -1.355
REMARK SMILES CCCCCCCCCCCCCCCC(=O)[O-]
REMARK SMILES IDX 9 1 10 2 11 3 12 4 13 5 14 6 15 7 16 8 17 9 18 10 8 11 7 12
REMARK SMILES IDX 6 13 5 14 4 15 3 16 2 17 1 18
REMARK H PARENT
REMARK Flexibility Score: inf
ROOT
ATOM      1  C   UNL     1      26.168 -34.841  21.927  1.00  0.00     0.000 C 
ENDROOT
BRANCH   1   2
ATOM      2  C   UNL     1      25.512 -33.466  21.743  1.00  0.00     0.000 C 
BRANCH   2   3
ATOM      3  C   UNL     1      24.916 -32.908  23.047  1.00  0.00     0.000 C 
BRANCH   3   4
ATOM      4  C   UNL     1      25.386 -31.490  23.429  1.00  0.00     0.000 C 
BRANCH   4   5
ATOM      5  C   UNL     1      24.342 -30.631  24.164  1.00  0.00     0.000 C 
BRANCH   5   6
ATOM      6  C   UNL     1      23.240 -31.470  24.827  1.00  0.00     0.006 C 
BRANCH   6   7
ATOM      7  C   UNL     1      22.603 -30.712  25.996  1.00  0.00     0.053 C 
BRANCH   7   8
ATOM      8  C   UNL     1      23.602 -30.497  27.087  1.00  0.00     0.041 C 
ATOM      9  O   UNL     1      24.085 -31.481  27.707  1.00  0.00    -0.550 OA
ATOM     10  O   UNL     1      24.038 -29.213  27.389  1.00  0.00    -0.550 OA
ENDBRANCH   7   8
ENDBRANCH   6   7
ENDBRANCH   5   6
ENDBRANCH   4   5
ENDBRANCH   3   4
ENDBRANCH   2   3
ENDBRANCH   1   2
BRANCH   1  11
ATOM     11  C   UNL     1      25.663 -35.524  23.204  1.00  0.00     0.000 C 
BRANCH  11  12
ATOM     12  C   UNL     1      25.826 -37.049  23.113  1.00  0.00    -0.000 C 
BRANCH  12  13
ATOM     13  C   UNL     1      24.487 -37.781  22.909  1.00  0.00    -0.000 C 
BRANCH  13  14
ATOM     14  C   UNL     1      23.811 -37.540  21.544  1.00  0.00    -0.000 C 
BRANCH  14  15
ATOM     15  C   UNL     1      23.932 -38.702  20.541  1.00  0.00    -0.000 C 
BRANCH  15  16
ATOM     16  C   UNL     1      24.416 -40.005  21.193  1.00  0.00    -0.000 C 
BRANCH  16  17
ATOM     17  C   UNL     1      25.546 -40.640  20.376  1.00  0.00    -0.003 C 
ATOM     18  C   UNL     1      26.600 -41.265  21.286  1.00  0.00     0.004 C 
ENDBRANCH  16  17
ENDBRANCH  15  16
ENDBRANCH  14  15
ENDBRANCH  13  14
ENDBRANCH  12  13
ENDBRANCH  11  12
ENDBRANCH   1  11
TORSDOF 14
ENDMDL
MODEL 6
REMARK VINA RESULT:    -4.016      3.494      7.742
REMARK INTER + INTRA:          -8.658
REMARK INTER:                  -7.194
REMARK INTRA:                  -1.464
REMARK UNBOUND:                -1.355
REMARK SMILES CCCCCCCCCCCCCCCC(=O)[O-]
REMARK SMILES IDX 9 1 10 2 11 3 12 4 13 5 14 6 15 7 16 8 17 9 18 10 8 11 7 12
REMARK SMILES IDX 6 13 5 14 4 15 3 16 2 17 1 18
REMARK H PARENT
REMARK Flexibility Score: inf
ROOT
ATOM      1  C   UNL     1      24.126 -32.268  24.177  1.00  0.00     0.000 C 
ENDROOT
BRANCH   1   2
ATOM      2  C   UNL     1      25.246 -32.391  23.134  1.00  0.00     0.000 C 
BRANCH   2   3
ATOM      3  C   UNL     1      24.878 -33.327  21.970  1.00  0.00     0.000 C 
BRANCH   3   4
ATOM      4  C   UNL     1      26.009 -34.265  21.501  1.00  0.00     0.000 C 
BRANCH   4   5
ATOM      5  C   UNL     1      26.356 -35.406  22.473  1.00  0.00     0.000 C 
BRANCH   5   6
ATOM      6  C   UNL     1      25.112 -36.105  23.041  1.00  0.00     0.006 C 
BRANCH   6   7
ATOM      7  C   UNL     1      25.187 -37.619  22.825  1.00  0.00     0.053 C 
BRANCH   7   8
ATOM      8  C   UNL     1      24.290 -38.034  21.704  1.00  0.00     0.041 C 
ATOM      9  O   UNL     1      24.132 -39.255  21.437  1.00  0.00    -0.550 OA
ATOM     10  O   UNL     1      23.587 -37.076  20.984  1.00  0.00    -0.550 OA
ENDBRANCH   7   8
ENDBRANCH   6   7
ENDBRANCH   5   6
ENDBRANCH   4   5
ENDBRANCH   3   4
ENDBRANCH   2   3
ENDBRANCH   1   2
BRANCH   1  11
ATOM     11  C   UNL     1      24.198 -33.411  25.196  1.00  0.00     0.000 C 
BRANCH  11  12
ATOM     12  C   UNL     1      23.520 -33.013  26.517  1.00  0.00    -0.000 C 
BRANCH  12  13
ATOM     13  C   UNL     1      22.028 -33.392  26.560  1.00  0.00    -0.000 C 
BRANCH  13  14
ATOM     14  C   UNL     1      21.050 -32.228  26.306  1.00  0.00    -0.000 C 
BRANCH  14  15
ATOM     15  C   UNL     1      21.320 -30.956  27.131  1.00  0.00    -0.000 C 
BRANCH  15  16
ATOM     16  C   UNL     1      21.532 -29.712  26.256  1.00  0.00    -0.000 C 
BRANCH  16  17
ATOM     17  C   UNL     1      23.023 -29.469  26.000  1.00  0.00    -0.003 C 
ATOM     18  C   UNL     1      23.780 -29.256  27.307  1.00  0.00     0.004 C 
ENDBRANCH  16  17
ENDBRANCH  15  16
ENDBRANCH  14  15
ENDBRANCH  13  14
ENDBRANCH  12  13
ENDBRANCH  11  12
ENDBRANCH   1  11
TORSDOF 14
ENDMDL
MODEL 7
REMARK VINA RESULT:    -4.008      3.850      8.338
REMARK INTER + INTRA:          -8.644
REMARK INTER:                  -7.463
REMARK INTRA:                  -1.182
REMARK UNBOUND:                -1.355
REMARK SMILES CCCCCCCCCCCCCCCC(=O)[O-]
REMARK SMILES IDX 9 1 10 2 11 3 12 4 13 5 14 6 15 7 16 8 17 9 18 10 8 11 7 12
REMARK SMILES IDX 6 13 5 14 4 15 3 16 2 17 1 18
REMARK H PARENT
REMARK Flexibility Score: inf
ROOT
ATOM      1  C   UNL     1      24.855 -31.554  23.522  1.00  0.00     0.000 C 
ENDROOT
BRANCH   1   2
ATOM      2  C   UNL     1      25.259 -33.016  23.283  1.00  0.00     0.000 C 
BRANCH   2   3
ATOM      3  C   UNL     1      25.561 -33.319  21.805  1.00  0.00     0.000 C 
BRANCH   3   4
ATOM      4  C   UNL     1      25.893 -34.792  21.492  1.00  0.00     0.000 C 
BRANCH   4   5
ATOM      5  C   UNL     1      25.959 -35.720  22.717  1.00  0.00     0.000 C 
BRANCH   5   6
ATOM      6  C   UNL     1      24.825 -36.755  22.743  1.00  0.00     0.006 C 
BRANCH   6   7
ATOM      7  C   UNL     1      24.191 -36.908  21.358  1.00  0.00     0.053 C 
BRANCH   7   8
ATOM      8  C   UNL     1      24.036 -38.354  21.009  1.00  0.00     0.041 C 
ATOM      9  O   UNL     1      24.622 -39.237  21.691  1.00  0.00    -0.550 OA
ATOM     10  O   UNL     1      23.203 -38.733  19.964  1.00  0.00    -0.550 OA
ENDBRANCH   7   8
ENDBRANCH   6   7
ENDBRANCH   5   6
ENDBRANCH   4   5
ENDBRANCH   3   4
ENDBRANCH   2   3
ENDBRANCH   1   2
BRANCH   1  11
ATOM     11  C   UNL     1      24.069 -31.409  24.831  1.00  0.00     0.000 C 
BRANCH  11  12
ATOM     12  C   UNL     1      23.827 -29.928  25.164  1.00  0.00    -0.000 C 
BRANCH  12  13
ATOM     13  C   UNL     1      22.577 -29.709  26.034  1.00  0.00    -0.000 C 
BRANCH  13  14
ATOM     14  C   UNL     1      21.957 -30.992  26.623  1.00  0.00    -0.000 C 
BRANCH  14  15
ATOM     15  C   UNL     1      22.097 -31.145  28.148  1.00  0.00    -0.000 C 
BRANCH  15  16
ATOM     16  C   UNL     1      23.115 -32.224  28.548  1.00  0.00    -0.000 C 
BRANCH  16  17
ATOM     17  C   UNL     1      24.546 -31.683  28.470  1.00  0.00    -0.003 C 
ATOM     18  C   UNL     1      24.682 -30.368  29.232  1.00  0.00     0.004 C 
ENDBRANCH  16  17
ENDBRANCH  15  16
ENDBRANCH  14  15
ENDBRANCH  13  14
ENDBRANCH  12  13
ENDBRANCH  11  12
ENDBRANCH   1  11
TORSDOF 14
ENDMDL
MODEL 8
REMARK VINA RESULT:    -3.995      4.084      8.380
REMARK INTER + INTRA:          -8.620
REMARK INTER:                  -7.590
REMARK INTRA:                  -1.031
REMARK UNBOUND:                -1.355
REMARK SMILES CCCCCCCCCCCCCCCC(=O)[O-]
REMARK SMILES IDX 9 1 10 2 11 3 12 4 13 5 14 6 15 7 16 8 17 9 18 10 8 11 7 12
REMARK SMILES IDX 6 13 5 14 4 15 3 16 2 17 1 18
REMARK H PARENT
REMARK Flexibility Score: inf
ROOT
ATOM      1  C   UNL     1      25.637 -32.650  23.144  1.00  0.00     0.000 C 
ENDROOT
BRANCH   1   2
ATOM      2  C   UNL     1      25.352 -33.582  21.957  1.00  0.00     0.000 C 
BRANCH   2   3
ATOM      3  C   UNL     1      26.217 -34.855  21.976  1.00  0.00     0.000 C 
BRANCH   3   4
ATOM      4  C   UNL     1      25.467 -36.151  22.347  1.00  0.00     0.000 C 
BRANCH   4   5
ATOM      5  C   UNL     1      25.183 -36.334  23.848  1.00  0.00     0.000 C 
BRANCH   5   6
ATOM      6  C   UNL     1      25.970 -37.499  24.466  1.00  0.00     0.006 C 
BRANCH   6   7
ATOM      7  C   UNL     1      26.808 -38.218  23.405  1.00  0.00     0.053 C 
BRANCH   7   8
ATOM      8  C   UNL     1      26.318 -39.617  23.209  1.00  0.00     0.041 C 
ATOM      9  O   UNL     1      25.444 -39.865  22.336  1.00  0.00    -0.550 OA
ATOM     10  O   UNL     1      26.861 -40.656  23.953  1.00  0.00    -0.550 OA
ENDBRANCH   7   8
ENDBRANCH   6   7
ENDBRANCH   5   6
ENDBRANCH   4   5
ENDBRANCH   3   4
ENDBRANCH   2   3
ENDBRANCH   1   2
BRANCH   1  11
ATOM     11  C   UNL     1      24.396 -31.823  23.502  1.00  0.00     0.000 C 
BRANCH  11  12
ATOM     12  C   UNL     1      23.892 -32.173  24.911  1.00  0.00    -0.000 C 
BRANCH  12  13
ATOM     13  C   UNL     1      22.431 -31.747  25.144  1.00  0.00    -0.000 C 
BRANCH  13  14
ATOM     14  C   UNL     1      22.251 -30.417  25.903  1.00  0.00    -0.000 C 
BRANCH  14  15
ATOM     15  C   UNL     1      23.517 -29.549  26.010  1.00  0.00    -0.000 C 
BRANCH  15  16
ATOM     16  C   UNL     1      23.954 -29.309  27.462  1.00  0.00    -0.000 C 
BRANCH  16  17
ATOM     17  C   UNL     1      23.424 -30.411  28.384  1.00  0.00    -0.003 C 
ATOM     18  C   UNL     1      24.514 -31.425  28.716  1.00  0.00     0.004 C 
ENDBRANCH  16  17
ENDBRANCH  15  16
ENDBRANCH  14  15
ENDBRANCH  13  14
ENDBRANCH  12  13
ENDBRANCH  11  12
ENDBRANCH   1  11
TORSDOF 14
ENDMDL
MODEL 9
REMARK VINA RESULT:    -3.965      1.384      2.132
REMARK INTER + INTRA:          -8.565
REMARK INTER:                  -7.686
REMARK INTRA:                  -0.879
REMARK UNBOUND:                -1.355
REMARK SMILES CCCCCCCCCCCCCCCC(=O)[O-]
REMARK SMILES IDX 9 1 10 2 11 3 12 4 13 5 14 6 15 7 16 8 17 9 18 10 8 11 7 12
REMARK SMILES IDX 6 13 5 14 4 15 3 16 2 17 1 18
REMARK H PARENT
REMARK Flexibility Score: inf
ROOT
ATOM      1  C   UNL     1      26.039 -35.271  22.655  1.00  0.00     0.000 C 
ENDROOT
BRANCH   1   2
ATOM      2  C   UNL     1      25.896 -33.952  21.882  1.00  0.00     0.000 C 
BRANCH   2   3
ATOM      3  C   UNL     1      24.884 -32.988  22.528  1.00  0.00     0.000 C 
BRANCH   3   4
ATOM      4  C   UNL     1      25.492 -31.701  23.121  1.00  0.00     0.000 C 
BRANCH   4   5
ATOM      5  C   UNL     1      24.524 -30.849  23.961  1.00  0.00     0.000 C 
BRANCH   5   6
ATOM      6  C   UNL     1      23.476 -31.692  24.701  1.00  0.00     0.006 C 
BRANCH   6   7
ATOM      7  C   UNL     1      23.508 -31.408  26.206  1.00  0.00     0.053 C 
BRANCH   7   8
ATOM      8  C   UNL     1      23.077 -30.004  26.484  1.00  0.00     0.041 C 
ATOM      9  O   UNL     1      23.874 -29.191  27.022  1.00  0.00    -0.550 OA
ATOM     10  O   UNL     1      21.812 -29.575  26.102  1.00  0.00    -0.550 OA
ENDBRANCH   7   8
ENDBRANCH   6   7
ENDBRANCH   5   6
ENDBRANCH   4   5
ENDBRANCH   3   4
ENDBRANCH   2   3
ENDBRANCH   1   2
BRANCH   1  11
ATOM     11  C   UNL     1      25.079 -36.335  22.108  1.00  0.00     0.000 C 
BRANCH  11  12
ATOM     12  C   UNL     1      24.476 -37.169  23.248  1.00  0.00    -0.000 C 
BRANCH  12  13
ATOM     13  C   UNL     1      23.393 -38.149  22.763  1.00  0.00    -0.000 C 
BRANCH  13  14
ATOM     14  C   UNL     1      23.780 -38.993  21.532  1.00  0.00    -0.000 C 
BRANCH  14  15
ATOM     15  C   UNL     1      23.079 -38.595  20.221  1.00  0.00    -0.000 C 
BRANCH  15  16
ATOM     16  C   UNL     1      21.658 -38.058  20.443  1.00  0.00    -0.000 C 
BRANCH  16  17
ATOM     17  C   UNL     1      20.640 -39.202  20.493  1.00  0.00    -0.003 C 
ATOM     18  C   UNL     1      19.984 -39.297  21.867  1.00  0.00     0.004 C 
ENDBRANCH  16  17
ENDBRANCH  15  16
ENDBRANCH  14  15
ENDBRANCH  13  14
ENDBRANCH  12  13
ENDBRANCH  11  12
ENDBRANCH   1  11
TORSDOF 14
ENDMDL
