MODEL 1
REMARK VINA RESULT:    -2.530      0.000      0.000
REMARK INTER + INTRA:          -3.914
REMARK INTER:                  -3.417
REMARK INTRA:                  -0.497
REMARK UNBOUND:                -0.497
REMARK SMILES CCCCCCC=CC(=O)[O-]
REMARK SMILES IDX 5 1 6 2 7 3 8 4 9 5 10 6 11 7 4 8 3 9 2 10 1 11
REMARK H PARENT
REMARK Flexibility Score: inf
ROOT
ATOM      1  C   UNL     1      62.554 130.253  -7.283  1.00  0.00     0.004 C 
ENDROOT
BRANCH   1   2
ATOM      2  C   UNL     1      63.761 130.875  -8.008  1.00  0.00     0.027 C 
BRANCH   2   3
ATOM      3  C   UNL     1      65.050 130.163  -7.702  1.00  0.00    -0.025 C 
ATOM      4  C   UNL     1      65.227 129.500  -6.556  1.00  0.00     0.020 C 
BRANCH   4   5
ATOM      5  C   UNL     1      66.484 128.805  -6.244  1.00  0.00     0.064 C 
ATOM      6  O   UNL     1      66.996 128.930  -5.100  1.00  0.00    -0.545 OA
ATOM      7  O   UNL     1      67.116 128.008  -7.192  1.00  0.00    -0.545 OA
ENDBRANCH   4   5
ENDBRANCH   2   3
ENDBRANCH   1   2
BRANCH   1   8
ATOM      8  C   UNL     1      61.767 129.227  -8.125  1.00  0.00     0.000 C 
BRANCH   8   9
ATOM      9  C   UNL     1      61.508 127.876  -7.432  1.00  0.00    -0.000 C 
BRANCH   9  10
ATOM     10  C   UNL     1      61.688 127.885  -5.904  1.00  0.00    -0.003 C 
ATOM     11  C   UNL     1      60.360 127.930  -5.148  1.00  0.00     0.004 C 
ENDBRANCH   9  10
ENDBRANCH   8   9
ENDBRANCH   1   8
TORSDOF 6
ENDMDL
MODEL 2
REMARK VINA RESULT:    -2.387     21.596     22.588
REMARK INTER + INTRA:          -3.721
REMARK INTER:                  -3.542
REMARK INTRA:                  -0.179
REMARK UNBOUND:                -0.497
REMARK SMILES CCCCCCC=CC(=O)[O-]
REMARK SMILES IDX 5 1 6 2 7 3 8 4 9 5 10 6 11 7 4 8 3 9 2 10 1 11
REMARK H PARENT
REMARK Flexibility Score: inf
ROOT
ATOM      1  C   UNL     1      53.076 147.763  -1.203  1.00  0.00     0.004 C 
ENDROOT
BRANCH   1   2
ATOM      2  C   UNL     1      54.042 148.041  -2.368  1.00  0.00     0.027 C 
BRANCH   2   3
ATOM      3  C   UNL     1      53.341 148.123  -3.695  1.00  0.00    -0.025 C 
ATOM      4  C   UNL     1      53.912 147.675  -4.816  1.00  0.00     0.020 C 
BRANCH   4   5
ATOM      5  C   UNL     1      53.238 147.754  -6.121  1.00  0.00     0.064 C 
ATOM      6  O   UNL     1      53.912 148.002  -7.155  1.00  0.00    -0.545 OA
ATOM      7  O   UNL     1      51.866 147.557  -6.231  1.00  0.00    -0.545 OA
ENDBRANCH   4   5
ENDBRANCH   2   3
ENDBRANCH   1   2
BRANCH   1   8
ATOM      8  C   UNL     1      53.734 147.801   0.191  1.00  0.00     0.000 C 
BRANCH   8   9
ATOM      9  C   UNL     1      52.767 147.603   1.375  1.00  0.00    -0.000 C 
BRANCH   9  10
ATOM     10  C   UNL     1      51.300 147.961   1.081  1.00  0.00    -0.003 C 
ATOM     11  C   UNL     1      50.393 147.805   2.301  1.00  0.00     0.004 C 
ENDBRANCH   9  10
ENDBRANCH   8   9
ENDBRANCH   1   8
TORSDOF 6
ENDMDL
MODEL 3
REMARK VINA RESULT:    -1.666      3.018      5.201
REMARK INTER + INTRA:          -2.748
REMARK INTER:                  -2.409
REMARK INTRA:                  -0.339
REMARK UNBOUND:                -0.497
REMARK SMILES CCCCCCC=CC(=O)[O-]
REMARK SMILES IDX 5 1 6 2 7 3 8 4 9 5 10 6 11 7 4 8 3 9 2 10 1 11
REMARK H PARENT
REMARK Flexibility Score: inf
ROOT
ATOM      1  C   UNL     1      65.287 129.092  -4.754  1.00  0.00     0.004 C 
ENDROOT
BRANCH   1   2
ATOM      2  C   UNL     1      64.442 127.895  -5.222  1.00  0.00     0.027 C 
BRANCH   2   3
ATOM      3  C   UNL     1      63.616 128.210  -6.439  1.00  0.00    -0.025 C 
ATOM      4  C   UNL     1      62.646 129.128  -6.406  1.00  0.00     0.020 C 
BRANCH   4   5
ATOM      5  C   UNL     1      61.829 129.441  -7.588  1.00  0.00     0.064 C 
ATOM      6  O   UNL     1      61.921 130.577  -8.123  1.00  0.00    -0.545 OA
ATOM      7  O   UNL     1      60.956 128.502  -8.125  1.00  0.00    -0.545 OA
ENDBRANCH   4   5
ENDBRANCH   2   3
ENDBRANCH   1   2
BRANCH   1   8
ATOM      8  C   UNL     1      66.787 128.985  -5.099  1.00  0.00     0.000 C 
BRANCH   8   9
ATOM      9  C   UNL     1      67.125 128.018  -6.250  1.00  0.00    -0.000 C 
BRANCH   9  10
ATOM     10  C   UNL     1      67.060 128.636  -7.657  1.00  0.00    -0.003 C 
ATOM     11  C   UNL     1      66.651 130.109  -7.642  1.00  0.00     0.004 C 
ENDBRANCH   9  10
ENDBRANCH   8   9
ENDBRANCH   1   8
TORSDOF 6
ENDMDL
MODEL 4
REMARK VINA RESULT:    -1.631     21.680     22.394
REMARK INTER + INTRA:          -2.700
REMARK INTER:                  -2.561
REMARK INTRA:                  -0.139
REMARK UNBOUND:                -0.497
REMARK SMILES CCCCCCC=CC(=O)[O-]
REMARK SMILES IDX 5 1 6 2 7 3 8 4 9 5 10 6 11 7 4 8 3 9 2 10 1 11
REMARK H PARENT
REMARK Flexibility Score: inf
ROOT
ATOM      1  C   UNL     1      54.290 147.963  -3.662  1.00  0.00     0.004 C 
ENDROOT
BRANCH   1   2
ATOM      2  C   UNL     1      55.131 147.731  -2.395  1.00  0.00     0.027 C 
BRANCH   2   3
ATOM      3  C   UNL     1      54.405 148.123  -1.138  1.00  0.00    -0.025 C 
ATOM      4  C   UNL     1      53.891 147.205  -0.313  1.00  0.00     0.020 C 
BRANCH   4   5
ATOM      5  C   UNL     1      53.175 147.576   0.917  1.00  0.00     0.064 C 
ATOM      6  O   UNL     1      53.813 148.075   1.880  1.00  0.00    -0.545 OA
ATOM      7  O   UNL     1      51.803 147.385   1.031  1.00  0.00    -0.545 OA
ENDBRANCH   4   5
ENDBRANCH   2   3
ENDBRANCH   1   2
BRANCH   1   8
ATOM      8  C   UNL     1      52.768 147.833  -3.446  1.00  0.00     0.000 C 
BRANCH   8   9
ATOM      9  C   UNL     1      51.905 148.124  -4.690  1.00  0.00    -0.000 C 
BRANCH   9  10
ATOM     10  C   UNL     1      52.658 148.062  -6.030  1.00  0.00    -0.003 C 
ATOM     11  C   UNL     1      51.728 147.869  -7.227  1.00  0.00     0.004 C 
ENDBRANCH   9  10
ENDBRANCH   8   9
ENDBRANCH   1   8
TORSDOF 6
ENDMDL
MODEL 5
REMARK VINA RESULT:    -1.177     21.706     22.653
REMARK INTER + INTRA:          -2.087
REMARK INTER:                  -1.815
REMARK INTRA:                  -0.273
REMARK UNBOUND:                -0.497
REMARK SMILES CCCCCCC=CC(=O)[O-]
REMARK SMILES IDX 5 1 6 2 7 3 8 4 9 5 10 6 11 7 4 8 3 9 2 10 1 11
REMARK H PARENT
REMARK Flexibility Score: inf
ROOT
ATOM      1  C   UNL     1      53.054 147.630  -7.139  1.00  0.00     0.004 C 
ENDROOT
BRANCH   1   2
ATOM      2  C   UNL     1      53.648 147.561  -5.722  1.00  0.00     0.027 C 
BRANCH   2   3
ATOM      3  C   UNL     1      52.661 147.959  -4.660  1.00  0.00    -0.025 C 
ATOM      4  C   UNL     1      52.772 147.521  -3.403  1.00  0.00     0.020 C 
BRANCH   4   5
ATOM      5  C   UNL     1      51.810 147.900  -2.357  1.00  0.00     0.064 C 
ATOM      6  O   UNL     1      52.203 148.024  -1.167  1.00  0.00    -0.545 OA
ATOM      7  O   UNL     1      50.473 148.125  -2.661  1.00  0.00    -0.545 OA
ENDBRANCH   4   5
ENDBRANCH   2   3
ENDBRANCH   1   2
BRANCH   1   8
ATOM      8  C   UNL     1      51.591 148.119  -7.192  1.00  0.00     0.000 C 
BRANCH   8   9
ATOM      9  C   UNL     1      50.612 147.171  -7.912  1.00  0.00    -0.000 C 
BRANCH   9  10
ATOM     10  C   UNL     1      49.139 147.615  -7.879  1.00  0.00    -0.003 C 
ATOM     11  C   UNL     1      48.170 146.451  -7.676  1.00  0.00     0.004 C 
ENDBRANCH   9  10
ENDBRANCH   8   9
ENDBRANCH   1   8
TORSDOF 6
ENDMDL
