MODEL 1
REMARK VINA RESULT:    -3.736      0.000      0.000
REMARK INTER + INTRA:          -4.192
REMARK INTER:                  -4.609
REMARK INTRA:                   0.418
REMARK UNBOUND:                 0.418
REMARK SMILES C=C1CC[C@H]2[C@H]1[C@@H]1[C@@H](CC[C@@H]2C)C1(C)C
REMARK SMILES IDX 6 1 5 2 4 3 3 4 2 5 1 6 11 7 12 8 10 9 7 11 8 12 13 13 14 14
REMARK SMILES IDX 15 15 9 16
REMARK H PARENT
REMARK Flexibility Score: 80.00
ROOT
ATOM      1  C   UNL     1      13.161   4.603  18.313  1.00  0.00     0.022 C 
ATOM      2  C   UNL     1      13.822   4.429  19.694  1.00  0.00    -0.000 C 
ATOM      3  C   UNL     1      14.522   3.069  19.574  1.00  0.00     0.009 C 
ATOM      4  C   UNL     1      15.057   3.037  18.138  1.00  0.00     0.031 C 
ATOM      5  C   UNL     1      14.173   3.993  17.403  1.00  0.00    -0.074 C 
ATOM      6  C   UNL     1      14.226   4.181  16.079  1.00  0.00     0.008 C 
ENDROOT
BRANCH   2   7
ATOM      7  C   UNL     1      12.836   4.646  20.893  1.00  0.00    -0.011 C 
ATOM      8  C   UNL     1      13.349   3.948  22.165  1.00  0.00     0.008 C 
BRANCH   7   9
ATOM      9  C   UNL     1      12.632   6.173  21.214  1.00  0.00     0.004 CG0
ATOM     10  G   UNL     1      11.891   7.072  20.173  1.00  0.00     0.000 G0
ENDBRANCH   7   9
ENDBRANCH   2   7
BRANCH   1  11
ATOM     11  C   UNL     1      12.891   6.096  18.106  1.00  0.00     0.006 C 
ATOM     12  C   UNL     1      11.564   6.338  18.876  1.00  0.00    -0.001 C 
ATOM     13  C   UNL     1      11.710   6.800  17.434  1.00  0.00    -0.029 C 
ATOM     14  C   UNL     1      11.831   8.312  17.211  1.00  0.00     0.012 C 
ATOM     15  C   UNL     1      10.925   6.002  16.388  1.00  0.00     0.012 C 
BRANCH  12  16
ATOM     16  C   UNL     1      11.895   7.078  20.169  1.00  0.00     0.005 CG0
ATOM     17  G   UNL     1      12.633   6.174  21.207  1.00  0.00     0.000 G0
ENDBRANCH  12  16
ENDBRANCH   1  11
TORSDOF 0
ENDMDL
MODEL 2
REMARK VINA RESULT:    -3.694      1.872      5.047
REMARK INTER + INTRA:          -4.140
REMARK INTER:                  -4.550
REMARK INTRA:                   0.411
REMARK UNBOUND:                 0.418
REMARK SMILES C=C1CC[C@H]2[C@H]1[C@@H]1[C@@H](CC[C@@H]2C)C1(C)C
REMARK SMILES IDX 6 1 5 2 4 3 3 4 2 5 1 6 11 7 12 8 10 9 7 11 8 12 13 13 14 14
REMARK SMILES IDX 15 15 9 16
REMARK H PARENT
REMARK Flexibility Score: 80.00
ROOT
ATOM      1  C   UNL     1      12.340   5.834  19.573  1.00  0.00     0.022 C 
ATOM      2  C   UNL     1      12.223   6.678  18.290  1.00  0.00    -0.000 C 
ATOM      3  C   UNL     1      11.156   7.719  18.654  1.00  0.00     0.009 C 
ATOM      4  C   UNL     1      11.442   8.064  20.121  1.00  0.00     0.031 C 
ATOM      5  C   UNL     1      12.163   6.861  20.640  1.00  0.00    -0.074 C 
ATOM      6  C   UNL     1      12.501   6.699  21.925  1.00  0.00     0.008 C 
ENDROOT
BRANCH   2   7
ATOM      7  C   UNL     1      12.004   5.823  16.995  1.00  0.00    -0.011 C 
ATOM      8  C   UNL     1      11.366   6.665  15.876  1.00  0.00     0.008 C 
BRANCH   7   9
ATOM      9  C   UNL     1      13.355   5.224  16.453  1.00  0.00     0.004 CG0
ATOM     10  G   UNL     1      14.083   4.123  17.289  1.00  0.00     0.000 G0
ENDBRANCH   7   9
ENDBRANCH   2   7
BRANCH   1  11
ATOM     11  C   UNL     1      13.697   5.125  19.548  1.00  0.00     0.006 C 
ATOM     12  C   UNL     1      13.443   3.879  18.658  1.00  0.00    -0.001 C 
ATOM     13  C   UNL     1      14.087   3.726  20.027  1.00  0.00    -0.029 C 
ATOM     14  C   UNL     1      15.580   3.381  20.043  1.00  0.00     0.012 C 
ATOM     15  C   UNL     1      13.213   3.092  21.115  1.00  0.00     0.012 C 
BRANCH  12  16
ATOM     16  C   UNL     1      14.096   4.125  17.301  1.00  0.00     0.005 CG0
ATOM     17  G   UNL     1      13.350   5.210  16.461  1.00  0.00     0.000 G0
ENDBRANCH  12  16
ENDBRANCH   1  11
TORSDOF 0
ENDMDL
MODEL 3
REMARK VINA RESULT:    -3.612      1.830      3.852
REMARK INTER + INTRA:          -4.039
REMARK INTER:                  -4.470
REMARK INTRA:                   0.431
REMARK UNBOUND:                 0.418
REMARK SMILES C=C1CC[C@H]2[C@H]1[C@@H]1[C@@H](CC[C@@H]2C)C1(C)C
REMARK SMILES IDX 6 1 5 2 4 3 3 4 2 5 1 6 11 7 12 8 10 9 7 11 8 12 13 13 14 14
REMARK SMILES IDX 15 15 9 16
REMARK H PARENT
REMARK Flexibility Score: 80.00
ROOT
ATOM      1  C   UNL     1      12.263   7.128  19.899  1.00  0.00     0.022 C 
ATOM      2  C   UNL     1      12.201   5.639  20.290  1.00  0.00    -0.000 C 
ATOM      3  C   UNL     1      12.420   5.669  21.808  1.00  0.00     0.009 C 
ATOM      4  C   UNL     1      11.662   6.916  22.280  1.00  0.00     0.031 C 
ATOM      5  C   UNL     1      11.606   7.785  21.065  1.00  0.00    -0.074 C 
ATOM      6  C   UNL     1      11.121   9.032  21.070  1.00  0.00     0.008 C 
ENDROOT
BRANCH   2   7
ATOM      7  C   UNL     1      13.140   4.725  19.430  1.00  0.00    -0.011 C 
ATOM      8  C   UNL     1      13.500   3.434  20.185  1.00  0.00     0.008 C 
BRANCH   7   9
ATOM      9  C   UNL     1      12.475   4.327  18.060  1.00  0.00     0.004 CG0
ATOM     10  G   UNL     1      12.215   5.440  16.995  1.00  0.00     0.000 G0
ENDBRANCH   7   9
ENDBRANCH   2   7
BRANCH   1  11
ATOM     11  C   UNL     1      11.553   7.291  18.553  1.00  0.00     0.006 C 
ATOM     12  C   UNL     1      12.619   6.839  17.518  1.00  0.00    -0.001 C 
ATOM     13  C   UNL     1      11.905   8.172  17.353  1.00  0.00    -0.029 C 
ATOM     14  C   UNL     1      10.875   8.257  16.220  1.00  0.00     0.012 C 
ATOM     15  C   UNL     1      12.743   9.424  17.628  1.00  0.00     0.012 C 
BRANCH  12  16
ATOM     16  C   UNL     1      12.225   5.457  17.004  1.00  0.00     0.005 CG0
ATOM     17  G   UNL     1      12.476   4.330  18.056  1.00  0.00     0.000 G0
ENDBRANCH  12  16
ENDBRANCH   1  11
TORSDOF 0
ENDMDL
MODEL 4
REMARK VINA RESULT:    -3.603      2.657      4.519
REMARK INTER + INTRA:          -4.028
REMARK INTER:                  -4.445
REMARK INTRA:                   0.418
REMARK UNBOUND:                 0.418
REMARK SMILES C=C1CC[C@H]2[C@H]1[C@@H]1[C@@H](CC[C@@H]2C)C1(C)C
REMARK SMILES IDX 6 1 5 2 4 3 3 4 2 5 1 6 11 7 12 8 10 9 7 11 8 12 13 13 14 14
REMARK SMILES IDX 15 15 9 16
REMARK H PARENT
REMARK Flexibility Score: 80.00
ROOT
ATOM      1  C   UNL     1      14.268   4.947  17.586  1.00  0.00     0.022 C 
ATOM      2  C   UNL     1      12.886   5.624  17.656  1.00  0.00    -0.000 C 
ATOM      3  C   UNL     1      11.974   4.497  18.160  1.00  0.00     0.009 C 
ATOM      4  C   UNL     1      12.829   3.738  19.180  1.00  0.00     0.031 C 
ATOM      5  C   UNL     1      14.235   4.043  18.770  1.00  0.00    -0.074 C 
ATOM      6  C   UNL     1      15.308   3.480  19.337  1.00  0.00     0.008 C 
ENDROOT
BRANCH   2   7
ATOM      7  C   UNL     1      12.481   6.363  16.335  1.00  0.00    -0.011 C 
ATOM      8  C   UNL     1      10.954   6.533  16.240  1.00  0.00     0.008 C 
BRANCH   7   9
ATOM      9  C   UNL     1      13.145   7.786  16.233  1.00  0.00     0.004 CG0
ATOM     10  G   UNL     1      14.696   7.887  16.079  1.00  0.00     0.000 G0
ENDBRANCH   7   9
ENDBRANCH   2   7
BRANCH   1  11
ATOM     11  C   UNL     1      15.332   6.048  17.616  1.00  0.00     0.006 C 
ATOM     12  C   UNL     1      15.393   6.540  16.145  1.00  0.00    -0.001 C 
ATOM     13  C   UNL     1      16.668   6.149  16.877  1.00  0.00    -0.029 C 
ATOM     14  C   UNL     1      17.604   7.295  17.275  1.00  0.00     0.012 C 
ATOM     15  C   UNL     1      17.322   4.836  16.435  1.00  0.00     0.012 C 
BRANCH  12  16
ATOM     16  C   UNL     1      14.696   7.896  16.069  1.00  0.00     0.005 CG0
ATOM     17  G   UNL     1      13.145   7.784  16.225  1.00  0.00     0.000 G0
ENDBRANCH  12  16
ENDBRANCH   1  11
TORSDOF 0
ENDMDL
MODEL 5
REMARK VINA RESULT:    -3.575      2.261      3.945
REMARK INTER + INTRA:          -3.993
REMARK INTER:                  -4.407
REMARK INTRA:                   0.414
REMARK UNBOUND:                 0.418
REMARK SMILES C=C1CC[C@H]2[C@H]1[C@@H]1[C@@H](CC[C@@H]2C)C1(C)C
REMARK SMILES IDX 6 1 5 2 4 3 3 4 2 5 1 6 11 7 12 8 10 9 7 11 8 12 13 13 14 14
REMARK SMILES IDX 15 15 9 16
REMARK H PARENT
REMARK Flexibility Score: 80.00
ROOT
ATOM      1  C   UNL     1      14.524   4.476  19.158  1.00  0.00     0.022 C 
ATOM      2  C   UNL     1      15.617   4.004  18.179  1.00  0.00    -0.000 C 
ATOM      3  C   UNL     1      16.633   3.317  19.100  1.00  0.00     0.009 C 
ATOM      4  C   UNL     1      15.777   2.600  20.150  1.00  0.00     0.031 C 
ATOM      5  C   UNL     1      14.492   3.365  20.151  1.00  0.00    -0.074 C 
ATOM      6  C   UNL     1      13.496   3.136  21.015  1.00  0.00     0.008 C 
ENDROOT
BRANCH   2   7
ATOM      7  C   UNL     1      16.135   5.134  17.225  1.00  0.00    -0.011 C 
ATOM      8  C   UNL     1      17.536   4.802  16.682  1.00  0.00     0.008 C 
BRANCH   7   9
ATOM      9  C   UNL     1      15.170   5.355  16.001  1.00  0.00     0.004 CG0
ATOM     10  G   UNL     1      13.744   5.939  16.258  1.00  0.00     0.000 G0
ENDBRANCH   7   9
ENDBRANCH   2   7
BRANCH   1  11
ATOM     11  C   UNL     1      13.237   4.693  18.356  1.00  0.00     0.006 C 
ATOM     12  C   UNL     1      13.423   6.106  17.740  1.00  0.00    -0.001 C 
ATOM     13  C   UNL     1      12.153   5.762  18.503  1.00  0.00    -0.029 C 
ATOM     14  C   UNL     1      10.880   5.588  17.667  1.00  0.00     0.012 C 
ATOM     15  C   UNL     1      11.998   6.414  19.881  1.00  0.00     0.012 C 
BRANCH  12  16
ATOM     16  C   UNL     1      13.737   5.938  16.256  1.00  0.00     0.005 CG0
ATOM     17  G   UNL     1      15.174   5.377  16.005  1.00  0.00     0.000 G0
ENDBRANCH  12  16
ENDBRANCH   1  11
TORSDOF 0
ENDMDL
MODEL 6
REMARK VINA RESULT:    -3.557      1.473      3.866
REMARK INTER + INTRA:          -3.971
REMARK INTER:                  -4.399
REMARK INTRA:                   0.428
REMARK UNBOUND:                 0.418
REMARK SMILES C=C1CC[C@H]2[C@H]1[C@@H]1[C@@H](CC[C@@H]2C)C1(C)C
REMARK SMILES IDX 6 1 5 2 4 3 3 4 2 5 1 6 11 7 12 8 10 9 7 11 8 12 13 13 14 14
REMARK SMILES IDX 15 15 9 16
REMARK H PARENT
REMARK Flexibility Score: 80.00
ROOT
ATOM      1  C   UNL     1      12.883   6.985  18.139  1.00  0.00     0.022 C 
ATOM      2  C   UNL     1      12.007   6.580  19.340  1.00  0.00    -0.000 C 
ATOM      3  C   UNL     1      11.248   7.873  19.667  1.00  0.00     0.009 C 
ATOM      4  C   UNL     1      10.940   8.493  18.299  1.00  0.00     0.031 C 
ATOM      5  C   UNL     1      11.987   7.918  17.399  1.00  0.00    -0.074 C 
ATOM      6  C   UNL     1      12.150   8.290  16.124  1.00  0.00     0.008 C 
ENDROOT
BRANCH   2   7
ATOM      7  C   UNL     1      12.808   5.886  20.495  1.00  0.00    -0.011 C 
ATOM      8  C   UNL     1      12.066   6.010  21.837  1.00  0.00     0.008 C 
BRANCH   7   9
ATOM      9  C   UNL     1      13.052   4.359  20.203  1.00  0.00     0.004 CG0
ATOM     10  G   UNL     1      13.969   3.955  19.006  1.00  0.00     0.000 G0
ENDBRANCH   7   9
ENDBRANCH   2   7
BRANCH   1  11
ATOM     11  C   UNL     1      13.278   5.706  17.394  1.00  0.00     0.006 C 
ATOM     12  C   UNL     1      14.473   5.155  18.217  1.00  0.00    -0.001 C 
ATOM     13  C   UNL     1      14.594   5.330  16.711  1.00  0.00    -0.029 C 
ATOM     14  C   UNL     1      14.607   4.045  15.875  1.00  0.00     0.012 C 
ATOM     15  C   UNL     1      15.488   6.480  16.236  1.00  0.00     0.012 C 
BRANCH  12  16
ATOM     16  C   UNL     1      13.982   3.952  19.018  1.00  0.00     0.005 CG0
ATOM     17  G   UNL     1      13.054   4.359  20.207  1.00  0.00     0.000 G0
ENDBRANCH  12  16
ENDBRANCH   1  11
TORSDOF 0
ENDMDL
MODEL 7
REMARK VINA RESULT:    -3.529      2.170      3.110
REMARK INTER + INTRA:          -3.936
REMARK INTER:                  -4.368
REMARK INTRA:                   0.432
REMARK UNBOUND:                 0.418
REMARK SMILES C=C1CC[C@H]2[C@H]1[C@@H]1[C@@H](CC[C@@H]2C)C1(C)C
REMARK SMILES IDX 6 1 5 2 4 3 3 4 2 5 1 6 11 7 12 8 10 9 7 11 8 12 13 13 14 14
REMARK SMILES IDX 15 15 9 16
REMARK H PARENT
REMARK Flexibility Score: 80.00
ROOT
ATOM      1  C   UNL     1      14.720   5.756  16.994  1.00  0.00     0.022 C 
ATOM      2  C   UNL     1      15.581   4.841  17.885  1.00  0.00    -0.000 C 
ATOM      3  C   UNL     1      16.968   4.929  17.236  1.00  0.00     0.009 C 
ATOM      4  C   UNL     1      17.093   6.392  16.795  1.00  0.00     0.031 C 
ATOM      5  C   UNL     1      15.676   6.848  16.651  1.00  0.00    -0.074 C 
ATOM      6  C   UNL     1      15.330   8.047  16.169  1.00  0.00     0.008 C 
ENDROOT
BRANCH   2   7
ATOM      7  C   UNL     1      14.961   3.418  18.106  1.00  0.00    -0.011 C 
ATOM      8  C   UNL     1      16.047   2.392  18.476  1.00  0.00     0.008 C 
BRANCH   7   9
ATOM      9  C   UNL     1      13.876   3.422  19.246  1.00  0.00     0.004 CG0
ATOM     10  G   UNL     1      12.550   4.218  19.024  1.00  0.00     0.000 G0
ENDBRANCH   7   9
ENDBRANCH   2   7
BRANCH   1  11
ATOM     11  C   UNL     1      13.489   6.177  17.802  1.00  0.00     0.006 C 
ATOM     12  C   UNL     1      12.536   4.957  17.681  1.00  0.00    -0.001 C 
ATOM     13  C   UNL     1      12.035   6.357  17.362  1.00  0.00    -0.029 C 
ATOM     14  C   UNL     1      11.069   6.983  18.375  1.00  0.00     0.012 C 
ATOM     15  C   UNL     1      11.786   6.662  15.881  1.00  0.00     0.012 C 
BRANCH  12  16
ATOM     16  C   UNL     1      12.549   4.212  19.013  1.00  0.00     0.005 CG0
ATOM     17  G   UNL     1      13.870   3.410  19.241  1.00  0.00     0.000 G0
ENDBRANCH  12  16
ENDBRANCH   1  11
TORSDOF 0
ENDMDL
MODEL 8
REMARK VINA RESULT:    -3.452      2.924      4.244
REMARK INTER + INTRA:          -3.841
REMARK INTER:                  -4.263
REMARK INTRA:                   0.422
REMARK UNBOUND:                 0.418
REMARK SMILES C=C1CC[C@H]2[C@H]1[C@@H]1[C@@H](CC[C@@H]2C)C1(C)C
REMARK SMILES IDX 6 1 5 2 4 3 3 4 2 5 1 6 11 7 12 8 10 9 7 11 8 12 13 13 14 14
REMARK SMILES IDX 15 15 9 16
REMARK H PARENT
REMARK Flexibility Score: 80.00
ROOT
ATOM      1  C   UNL     1      14.798   5.885  17.353  1.00  0.00     0.022 C 
ATOM      2  C   UNL     1      15.863   6.704  16.598  1.00  0.00    -0.000 C 
ATOM      3  C   UNL     1      17.176   6.020  17.000  1.00  0.00     0.009 C 
ATOM      4  C   UNL     1      16.832   4.527  17.047  1.00  0.00     0.031 C 
ATOM      5  C   UNL     1      15.355   4.504  17.278  1.00  0.00    -0.074 C 
ATOM      6  C   UNL     1      14.658   3.383  17.496  1.00  0.00     0.008 C 
ENDROOT
BRANCH   2   7
ATOM      7  C   UNL     1      15.740   8.250  16.823  1.00  0.00    -0.011 C 
ATOM      8  C   UNL     1      17.079   8.958  16.551  1.00  0.00     0.008 C 
BRANCH   7   9
ATOM      9  C   UNL     1      14.644   8.892  15.893  1.00  0.00     0.004 CG0
ATOM     10  G   UNL     1      13.146   8.509  16.115  1.00  0.00     0.000 G0
ENDBRANCH   7   9
ENDBRANCH   2   7
BRANCH   1  11
ATOM     11  C   UNL     1      13.454   6.102  16.651  1.00  0.00     0.006 C 
ATOM     12  C   UNL     1      12.959   7.460  17.219  1.00  0.00    -0.001 C 
ATOM     13  C   UNL     1      12.048   6.242  17.237  1.00  0.00    -0.029 C 
ATOM     14  C   UNL     1      10.875   6.253  16.249  1.00  0.00     0.012 C 
ATOM     15  C   UNL     1      11.797   5.609  18.610  1.00  0.00     0.012 C 
BRANCH  12  16
ATOM     16  C   UNL     1      13.139   8.520  16.136  1.00  0.00     0.005 CG0
ATOM     17  G   UNL     1      14.638   8.891  15.901  1.00  0.00     0.000 G0
ENDBRANCH  12  16
ENDBRANCH   1  11
TORSDOF 0
ENDMDL
MODEL 9
REMARK VINA RESULT:    -3.327      1.825      3.652
REMARK INTER + INTRA:          -3.687
REMARK INTER:                  -4.124
REMARK INTRA:                   0.437
REMARK UNBOUND:                 0.418
REMARK SMILES C=C1CC[C@H]2[C@H]1[C@@H]1[C@@H](CC[C@@H]2C)C1(C)C
REMARK SMILES IDX 6 1 5 2 4 3 3 4 2 5 1 6 11 7 12 8 10 9 7 11 8 12 13 13 14 14
REMARK SMILES IDX 15 15 9 16
REMARK H PARENT
REMARK Flexibility Score: 80.00
ROOT
ATOM      1  C   UNL     1      13.350   5.369  19.959  1.00  0.00     0.022 C 
ATOM      2  C   UNL     1      13.682   3.948  19.463  1.00  0.00    -0.000 C 
ATOM      3  C   UNL     1      14.142   3.234  20.741  1.00  0.00     0.009 C 
ATOM      4  C   UNL     1      13.221   3.779  21.838  1.00  0.00     0.031 C 
ATOM      5  C   UNL     1      12.771   5.103  21.306  1.00  0.00    -0.074 C 
ATOM      6  C   UNL     1      12.033   5.969  22.010  1.00  0.00     0.008 C 
ENDROOT
BRANCH   2   7
ATOM      7  C   UNL     1      14.639   3.925  18.222  1.00  0.00    -0.011 C 
ATOM      8  C   UNL     1      15.392   2.586  18.128  1.00  0.00     0.008 C 
BRANCH   7   9
ATOM      9  C   UNL     1      13.857   4.148  16.875  1.00  0.00     0.004 CG0
ATOM     10  G   UNL     1      13.185   5.533  16.612  1.00  0.00     0.000 G0
ENDBRANCH   7   9
ENDBRANCH   2   7
BRANCH   1  11
ATOM     11  C   UNL     1      12.404   6.012  18.941  1.00  0.00     0.006 C 
ATOM     12  C   UNL     1      13.353   6.490  17.809  1.00  0.00    -0.001 C 
ATOM     13  C   UNL     1      12.345   7.450  18.422  1.00  0.00    -0.029 C 
ATOM     14  C   UNL     1      11.146   7.830  17.545  1.00  0.00     0.012 C 
ATOM     15  C   UNL     1      12.921   8.543  19.327  1.00  0.00     0.012 C 
BRANCH  12  16
ATOM     16  C   UNL     1      13.193   5.541  16.624  1.00  0.00     0.005 CG0
ATOM     17  G   UNL     1      13.854   4.149  16.875  1.00  0.00     0.000 G0
ENDBRANCH  12  16
ENDBRANCH   1  11
TORSDOF 0
ENDMDL
