MODEL 1
REMARK VINA RESULT:    -6.415      0.000      0.000
REMARK INTER + INTRA:          -8.059
REMARK INTER:                  -7.728
REMARK INTRA:                  -0.331
REMARK UNBOUND:                -0.331
REMARK SMILES O=c1c(O)c(-c2ccc(O)c(O)c2)oc2cc(O)cc(O)c12
REMARK SMILES IDX 5 1 3 2 2 3 1 4 22 5 20 6 19 7 17 8 16 9 15 10 14 11 6 12
REMARK SMILES IDX 7 13 8 14 9 15 13 16 11 17 10 18 12 20 4 22 21 24 18 26
REMARK H PARENT 10 19 12 21 4 23 21 25 18 27
REMARK Flexibility Score: inf
ROOT
ATOM      1  C   UNL     1     100.742 121.481  95.479  1.00  0.00     0.180 A 
ATOM      2  C   UNL     1      99.473 120.878  95.585  1.00  0.00     0.208 A 
ATOM      3  C   UNL     1      99.378 119.480  95.512  1.00  0.00     0.238 A 
ATOM      4  O   UNL     1      98.248 118.929  95.617  1.00  0.00    -0.285 OA
ATOM      5  C   UNL     1     100.544 118.711  95.315  1.00  0.00     0.111 A 
ATOM      6  C   UNL     1     100.534 117.298  95.227  1.00  0.00     0.134 A 
ATOM      7  C   UNL     1     101.736 116.606  95.021  1.00  0.00     0.093 A 
ATOM      8  C   UNL     1     102.945 117.296  94.901  1.00  0.00     0.123 A 
ATOM      9  C   UNL     1     102.960 118.692  94.989  1.00  0.00     0.094 A 
ATOM     10  C   UNL     1     101.773 119.400  95.195  1.00  0.00     0.146 A 
ATOM     11  O   UNL     1     101.817 120.725  95.279  1.00  0.00    -0.452 OA
ENDROOT
BRANCH   1  12
ATOM     12  C   UNL     1     100.925 122.948  95.565  1.00  0.00     0.025 A 
ATOM     13  C   UNL     1     101.112 123.590  96.798  1.00  0.00     0.016 A 
ATOM     14  C   UNL     1     101.307 124.972  96.851  1.00  0.00     0.051 A 
ATOM     15  C   UNL     1     101.334 125.735  95.679  1.00  0.00     0.157 A 
ATOM     16  C   UNL     1     100.975 123.708  94.386  1.00  0.00     0.062 A 
ATOM     17  C   UNL     1     101.170 125.094  94.429  1.00  0.00     0.158 A 
BRANCH  15  18
ATOM     18  O   UNL     1     101.530 127.113  95.802  1.00  0.00    -0.504 OA
ATOM     19  H   UNL     1     101.135 127.797  95.173  1.00  0.00     0.293 HD
ENDBRANCH  15  18
BRANCH  17  20
ATOM     20  O   UNL     1     101.195 125.787  93.216  1.00  0.00    -0.504 OA
ATOM     21  H   UNL     1     102.021 125.899  92.648  1.00  0.00     0.293 HD
ENDBRANCH  17  20
ENDBRANCH   1  12
BRANCH   2  22
ATOM     22  O   UNL     1      98.327 121.665  95.731  1.00  0.00    -0.502 OA
ATOM     23  H   UNL     1      97.445 121.426  95.294  1.00  0.00     0.293 HD
ENDBRANCH   2  22
BRANCH   6  24
ATOM     24  O   UNL     1      99.342 116.580  95.342  1.00  0.00    -0.507 OA
ATOM     25  H   UNL     1      98.967 116.312  96.244  1.00  0.00     0.293 HD
ENDBRANCH   6  24
BRANCH   8  26
ATOM     26  O   UNL     1     104.124 116.584  94.697  1.00  0.00    -0.508 OA
ATOM     27  H   UNL     1     104.137 115.570  94.692  1.00  0.00     0.293 HD
ENDBRANCH   8  26
TORSDOF 6
ENDMDL
MODEL 2
REMARK VINA RESULT:    -6.348      1.614      6.637
REMARK INTER + INTRA:          -7.978
REMARK INTER:                  -7.654
REMARK INTRA:                  -0.324
REMARK UNBOUND:                -0.331
REMARK SMILES O=c1c(O)c(-c2ccc(O)c(O)c2)oc2cc(O)cc(O)c12
REMARK SMILES IDX 5 1 3 2 2 3 1 4 22 5 20 6 19 7 17 8 16 9 15 10 14 11 6 12
REMARK SMILES IDX 7 13 8 14 9 15 13 16 11 17 10 18 12 20 4 22 21 24 18 26
REMARK H PARENT 10 19 12 21 4 23 21 25 18 27
REMARK Flexibility Score: inf
ROOT
ATOM      1  C   UNL     1     101.134 120.647  95.086  1.00  0.00     0.180 A 
ATOM      2  C   UNL     1     100.148 120.711  96.090  1.00  0.00     0.208 A 
ATOM      3  C   UNL     1      99.514 121.936  96.343  1.00  0.00     0.238 A 
ATOM      4  O   UNL     1      98.622 122.002  97.232  1.00  0.00    -0.285 OA
ATOM      5  C   UNL     1      99.888 123.079  95.605  1.00  0.00     0.111 A 
ATOM      6  C   UNL     1      99.301 124.353  95.800  1.00  0.00     0.134 A 
ATOM      7  C   UNL     1      99.733 125.443  95.031  1.00  0.00     0.093 A 
ATOM      8  C   UNL     1     100.740 125.286  94.075  1.00  0.00     0.123 A 
ATOM      9  C   UNL     1     101.323 124.030  93.878  1.00  0.00     0.094 A 
ATOM     10  C   UNL     1     100.904 122.931  94.632  1.00  0.00     0.146 A 
ATOM     11  O   UNL     1     101.471 121.748  94.422  1.00  0.00    -0.452 OA
ENDROOT
BRANCH   1  12
ATOM     12  C   UNL     1     101.834 119.386  94.750  1.00  0.00     0.025 A 
ATOM     13  C   UNL     1     102.997 118.992  95.430  1.00  0.00     0.016 A 
ATOM     14  C   UNL     1     103.625 117.786  95.111  1.00  0.00     0.051 A 
ATOM     15  C   UNL     1     103.102 116.948  94.122  1.00  0.00     0.157 A 
ATOM     16  C   UNL     1     101.294 118.536  93.773  1.00  0.00     0.062 A 
ATOM     17  C   UNL     1     101.918 117.325  93.446  1.00  0.00     0.158 A 
BRANCH  15  18
ATOM     18  O   UNL     1     103.781 115.758  93.849  1.00  0.00    -0.504 OA
ATOM     19  H   UNL     1     103.390 114.838  93.997  1.00  0.00     0.293 HD
ENDBRANCH  15  18
BRANCH  17  20
ATOM     20  O   UNL     1     101.331 116.536  92.454  1.00  0.00    -0.504 OA
ATOM     21  H   UNL     1     100.357 116.268  92.450  1.00  0.00     0.293 HD
ENDBRANCH  17  20
ENDBRANCH   1  12
BRANCH   2  22
ATOM     22  O   UNL     1      99.831 119.575  96.841  1.00  0.00    -0.502 OA
ATOM     23  H   UNL     1      98.928 119.450  97.282  1.00  0.00     0.293 HD
ENDBRANCH   2  22
BRANCH   6  24
ATOM     24  O   UNL     1      98.294 124.542  96.748  1.00  0.00    -0.507 OA
ATOM     25  H   UNL     1      98.275 124.020  97.616  1.00  0.00     0.293 HD
ENDBRANCH   6  24
BRANCH   8  26
ATOM     26  O   UNL     1     101.152 126.385  93.326  1.00  0.00    -0.508 OA
ATOM     27  H   UNL     1     101.890 127.001  93.649  1.00  0.00     0.293 HD
ENDBRANCH   8  26
TORSDOF 6
ENDMDL
MODEL 3
REMARK VINA RESULT:    -6.090      1.341      1.452
REMARK INTER + INTRA:          -7.667
REMARK INTER:                  -7.397
REMARK INTRA:                  -0.270
REMARK UNBOUND:                -0.331
REMARK SMILES O=c1c(O)c(-c2ccc(O)c(O)c2)oc2cc(O)cc(O)c12
REMARK SMILES IDX 5 1 3 2 2 3 1 4 22 5 20 6 19 7 17 8 16 9 15 10 14 11 6 12
REMARK SMILES IDX 7 13 8 14 9 15 13 16 11 17 10 18 12 20 4 22 21 24 18 26
REMARK H PARENT 10 19 12 21 4 23 21 25 18 27
REMARK Flexibility Score: inf
ROOT
ATOM      1  C   UNL     1     101.279 120.583  95.235  1.00  0.00     0.180 A 
ATOM      2  C   UNL     1     100.378 119.830  96.013  1.00  0.00     0.208 A 
ATOM      3  C   UNL     1     100.370 118.433  95.881  1.00  0.00     0.238 A 
ATOM      4  O   UNL     1      99.575 117.748  96.580  1.00  0.00    -0.285 OA
ATOM      5  C   UNL     1     101.246 117.815  94.964  1.00  0.00     0.111 A 
ATOM      6  C   UNL     1     101.299 116.414  94.768  1.00  0.00     0.134 A 
ATOM      7  C   UNL     1     102.193 115.876  93.830  1.00  0.00     0.093 A 
ATOM      8  C   UNL     1     103.031 116.709  93.085  1.00  0.00     0.123 A 
ATOM      9  C   UNL     1     102.983 118.094  93.275  1.00  0.00     0.094 A 
ATOM     10  C   UNL     1     102.101 118.649  94.206  1.00  0.00     0.146 A 
ATOM     11  O   UNL     1     102.079 119.967  94.371  1.00  0.00    -0.452 OA
ENDROOT
BRANCH   1  12
ATOM     12  C   UNL     1     101.359 122.059  95.332  1.00  0.00     0.025 A 
ATOM     13  C   UNL     1     101.952 122.688  96.437  1.00  0.00     0.016 A 
ATOM     14  C   UNL     1     102.037 124.081  96.494  1.00  0.00     0.051 A 
ATOM     15  C   UNL     1     101.547 124.869  95.447  1.00  0.00     0.157 A 
ATOM     16  C   UNL     1     100.887 122.847  94.270  1.00  0.00     0.062 A 
ATOM     17  C   UNL     1     100.968 124.245  94.318  1.00  0.00     0.158 A 
BRANCH  15  18
ATOM     18  O   UNL     1     101.659 126.257  95.568  1.00  0.00    -0.504 OA
ATOM     19  H   UNL     1     101.808 126.881  94.788  1.00  0.00     0.293 HD
ENDBRANCH  15  18
BRANCH  17  20
ATOM     20  O   UNL     1     100.466 124.964  93.232  1.00  0.00    -0.504 OA
ATOM     21  H   UNL     1      99.831 125.744  93.317  1.00  0.00     0.293 HD
ENDBRANCH  17  20
ENDBRANCH   1  12
BRANCH   2  22
ATOM     22  O   UNL     1      99.486 120.470  96.878  1.00  0.00    -0.502 OA
ATOM     23  H   UNL     1      98.495 120.263  96.887  1.00  0.00     0.293 HD
ENDBRANCH   2  22
BRANCH   6  24
ATOM     24  O   UNL     1     100.474 115.555  95.496  1.00  0.00    -0.507 OA
ATOM     25  H   UNL     1      99.605 115.874  95.907  1.00  0.00     0.293 HD
ENDBRANCH   6  24
BRANCH   8  26
ATOM     26  O   UNL     1     103.908 116.150  92.160  1.00  0.00    -0.508 OA
ATOM     27  H   UNL     1     103.602 115.446  91.497  1.00  0.00     0.293 HD
ENDBRANCH   8  26
TORSDOF 6
ENDMDL
MODEL 4
REMARK VINA RESULT:    -5.986      1.690      6.677
REMARK INTER + INTRA:          -7.542
REMARK INTER:                  -7.281
REMARK INTRA:                  -0.261
REMARK UNBOUND:                -0.331
REMARK SMILES O=c1c(O)c(-c2ccc(O)c(O)c2)oc2cc(O)cc(O)c12
REMARK SMILES IDX 5 1 3 2 2 3 1 4 22 5 20 6 19 7 17 8 16 9 15 10 14 11 6 12
REMARK SMILES IDX 7 13 8 14 9 15 13 16 11 17 10 18 12 20 4 22 21 24 18 26
REMARK H PARENT 10 19 12 21 4 23 21 25 18 27
REMARK Flexibility Score: inf
ROOT
ATOM      1  C   UNL     1     100.503 120.421  94.673  1.00  0.00     0.180 A 
ATOM      2  C   UNL     1      99.255 120.933  94.266  1.00  0.00     0.208 A 
ATOM      3  C   UNL     1      99.039 122.318  94.322  1.00  0.00     0.238 A 
ATOM      4  O   UNL     1      97.930 122.788  93.950  1.00  0.00    -0.285 OA
ATOM      5  C   UNL     1     100.061 123.164  94.800  1.00  0.00     0.111 A 
ATOM      6  C   UNL     1      99.923 124.570  94.892  1.00  0.00     0.134 A 
ATOM      7  C   UNL     1     100.984 125.343  95.387  1.00  0.00     0.093 A 
ATOM      8  C   UNL     1     102.177 124.739  95.792  1.00  0.00     0.123 A 
ATOM      9  C   UNL     1     102.319 123.350  95.703  1.00  0.00     0.094 A 
ATOM     10  C   UNL     1     101.274 122.563  95.211  1.00  0.00     0.146 A 
ATOM     11  O   UNL     1     101.437 121.248  95.133  1.00  0.00    -0.452 OA
ENDROOT
BRANCH   1  12
ATOM     12  C   UNL     1     100.813 118.973  94.626  1.00  0.00     0.025 A 
ATOM     13  C   UNL     1     100.275 118.080  95.565  1.00  0.00     0.016 A 
ATOM     14  C   UNL     1     100.563 116.716  95.485  1.00  0.00     0.051 A 
ATOM     15  C   UNL     1     101.377 116.216  94.463  1.00  0.00     0.157 A 
ATOM     16  C   UNL     1     101.611 118.472  93.586  1.00  0.00     0.062 A 
ATOM     17  C   UNL     1     101.905 117.105  93.498  1.00  0.00     0.158 A 
BRANCH  15  18
ATOM     18  O   UNL     1     101.628 114.842  94.442  1.00  0.00    -0.504 OA
ATOM     19  H   UNL     1     102.546 114.438  94.324  1.00  0.00     0.293 HD
ENDBRANCH  15  18
BRANCH  17  20
ATOM     20  O   UNL     1     102.717 116.679  92.444  1.00  0.00    -0.504 OA
ATOM     21  H   UNL     1     102.887 115.710  92.219  1.00  0.00     0.293 HD
ENDBRANCH  17  20
ENDBRANCH   1  12
BRANCH   2  22
ATOM     22  O   UNL     1      98.242 120.068  93.843  1.00  0.00    -0.502 OA
ATOM     23  H   UNL     1      98.331 119.061  93.894  1.00  0.00     0.293 HD
ENDBRANCH   2  22
BRANCH   6  24
ATOM     24  O   UNL     1      98.743 125.203  94.496  1.00  0.00    -0.507 OA
ATOM     25  H   UNL     1      98.037 124.721  93.953  1.00  0.00     0.293 HD
ENDBRANCH   6  24
BRANCH   8  26
ATOM     26  O   UNL     1     103.214 125.529  96.281  1.00  0.00    -0.508 OA
ATOM     27  H   UNL     1     103.252 126.526  96.101  1.00  0.00     0.293 HD
ENDBRANCH   8  26
TORSDOF 6
ENDMDL
MODEL 5
REMARK VINA RESULT:    -5.932      2.807      5.292
REMARK INTER + INTRA:          -7.477
REMARK INTER:                  -7.152
REMARK INTRA:                  -0.325
REMARK UNBOUND:                -0.331
REMARK SMILES O=c1c(O)c(-c2ccc(O)c(O)c2)oc2cc(O)cc(O)c12
REMARK SMILES IDX 5 1 3 2 2 3 1 4 22 5 20 6 19 7 17 8 16 9 15 10 14 11 6 12
REMARK SMILES IDX 7 13 8 14 9 15 13 16 11 17 10 18 12 20 4 22 21 24 18 26
REMARK H PARENT 10 19 12 21 4 23 21 25 18 27
REMARK Flexibility Score: inf
ROOT
ATOM      1  C   UNL     1     102.474 117.280  94.341  1.00  0.00     0.180 A 
ATOM      2  C   UNL     1     103.113 117.086  93.101  1.00  0.00     0.208 A 
ATOM      3  C   UNL     1     103.283 115.778  92.622  1.00  0.00     0.238 A 
ATOM      4  O   UNL     1     103.845 115.594  91.508  1.00  0.00    -0.285 OA
ATOM      5  C   UNL     1     102.832 114.689  93.396  1.00  0.00     0.111 A 
ATOM      6  C   UNL     1     102.968 113.340  92.987  1.00  0.00     0.134 A 
ATOM      7  C   UNL     1     102.500 112.311  93.817  1.00  0.00     0.093 A 
ATOM      8  C   UNL     1     101.902 112.603  95.046  1.00  0.00     0.123 A 
ATOM      9  C   UNL     1     101.764 113.933  95.454  1.00  0.00     0.094 A 
ATOM     10  C   UNL     1     102.222 114.973  94.640  1.00  0.00     0.146 A 
ATOM     11  O   UNL     1     102.075 116.228  95.050  1.00  0.00    -0.452 OA
ENDROOT
BRANCH   1  12
ATOM     12  C   UNL     1     102.242 118.630  94.904  1.00  0.00     0.025 A 
ATOM     13  C   UNL     1     103.201 119.260  95.712  1.00  0.00     0.016 A 
ATOM     14  C   UNL     1     102.969 120.543  96.212  1.00  0.00     0.051 A 
ATOM     15  C   UNL     1     101.787 121.226  95.905  1.00  0.00     0.157 A 
ATOM     16  C   UNL     1     101.065 119.322  94.576  1.00  0.00     0.062 A 
ATOM     17  C   UNL     1     100.824 120.610  95.073  1.00  0.00     0.158 A 
BRANCH  15  18
ATOM     18  O   UNL     1     101.616 122.506  96.439  1.00  0.00    -0.504 OA
ATOM     19  H   UNL     1     101.932 123.352  95.988  1.00  0.00     0.293 HD
ENDBRANCH  15  18
BRANCH  17  20
ATOM     20  O   UNL     1      99.626 121.232  94.715  1.00  0.00    -0.504 OA
ATOM     21  H   UNL     1      99.293 121.309  93.765  1.00  0.00     0.293 HD
ENDBRANCH  17  20
ENDBRANCH   1  12
BRANCH   2  22
ATOM     22  O   UNL     1     103.596 118.180  92.377  1.00  0.00    -0.502 OA
ATOM     23  H   UNL     1     104.529 118.203  91.985  1.00  0.00     0.293 HD
ENDBRANCH   2  22
BRANCH   6  24
ATOM     24  O   UNL     1     103.562 113.016  91.766  1.00  0.00    -0.507 OA
ATOM     25  H   UNL     1     103.312 112.175  91.259  1.00  0.00     0.293 HD
ENDBRANCH   6  24
BRANCH   8  26
ATOM     26  O   UNL     1     101.447 111.562  95.852  1.00  0.00    -0.508 OA
ATOM     27  H   UNL     1     101.605 111.559  96.853  1.00  0.00     0.293 HD
ENDBRANCH   8  26
TORSDOF 6
ENDMDL
MODEL 6
REMARK VINA RESULT:    -5.894      1.591      6.987
REMARK INTER + INTRA:          -7.432
REMARK INTER:                  -7.101
REMARK INTRA:                  -0.330
REMARK UNBOUND:                -0.331
REMARK SMILES O=c1c(O)c(-c2ccc(O)c(O)c2)oc2cc(O)cc(O)c12
REMARK SMILES IDX 5 1 3 2 2 3 1 4 22 5 20 6 19 7 17 8 16 9 15 10 14 11 6 12
REMARK SMILES IDX 7 13 8 14 9 15 13 16 11 17 10 18 12 20 4 22 21 24 18 26
REMARK H PARENT 10 19 12 21 4 23 21 25 18 27
REMARK Flexibility Score: inf
ROOT
ATOM      1  C   UNL     1     101.514 121.057  96.116  1.00  0.00     0.180 A 
ATOM      2  C   UNL     1     101.590 121.521  97.444  1.00  0.00     0.208 A 
ATOM      3  C   UNL     1     101.511 122.900  97.687  1.00  0.00     0.238 A 
ATOM      4  O   UNL     1     101.567 123.326  98.873  1.00  0.00    -0.285 OA
ATOM      5  C   UNL     1     101.380 123.792  96.602  1.00  0.00     0.111 A 
ATOM      6  C   UNL     1     101.298 125.197  96.761  1.00  0.00     0.134 A 
ATOM      7  C   UNL     1     101.177 126.018  95.630  1.00  0.00     0.093 A 
ATOM      8  C   UNL     1     101.138 125.465  94.348  1.00  0.00     0.123 A 
ATOM      9  C   UNL     1     101.218 124.078  94.186  1.00  0.00     0.094 A 
ATOM     10  C   UNL     1     101.337 123.242  95.300  1.00  0.00     0.146 A 
ATOM     11  O   UNL     1     101.406 121.929  95.118  1.00  0.00    -0.452 OA
ENDROOT
BRANCH   1  12
ATOM     12  C   UNL     1     101.571 119.615  95.782  1.00  0.00     0.025 A 
ATOM     13  C   UNL     1     100.419 118.815  95.800  1.00  0.00     0.016 A 
ATOM     14  C   UNL     1     100.494 117.463  95.457  1.00  0.00     0.051 A 
ATOM     15  C   UNL     1     101.712 116.889  95.078  1.00  0.00     0.157 A 
ATOM     16  C   UNL     1     102.790 119.047  95.380  1.00  0.00     0.062 A 
ATOM     17  C   UNL     1     102.875 117.692  95.035  1.00  0.00     0.158 A 
BRANCH  15  18
ATOM     18  O   UNL     1     101.719 115.531  94.750  1.00  0.00    -0.504 OA
ATOM     19  H   UNL     1     101.471 115.169  93.841  1.00  0.00     0.293 HD
ENDBRANCH  15  18
BRANCH  17  20
ATOM     20  O   UNL     1     104.124 117.193  94.658  1.00  0.00    -0.504 OA
ATOM     21  H   UNL     1     104.748 116.705  95.283  1.00  0.00     0.293 HD
ENDBRANCH  17  20
ENDBRANCH   1  12
BRANCH   2  22
ATOM     22  O   UNL     1     101.769 120.619  98.498  1.00  0.00    -0.502 OA
ATOM     23  H   UNL     1     102.541 119.964  98.526  1.00  0.00     0.293 HD
ENDBRANCH   2  22
BRANCH   6  24
ATOM     24  O   UNL     1     101.336 125.780  98.028  1.00  0.00    -0.507 OA
ATOM     25  H   UNL     1     101.685 126.720  98.172  1.00  0.00     0.293 HD
ENDBRANCH   6  24
BRANCH   8  26
ATOM     26  O   UNL     1     101.019 126.303  93.242  1.00  0.00    -0.508 OA
ATOM     27  H   UNL     1     100.114 126.623  92.915  1.00  0.00     0.293 HD
ENDBRANCH   8  26
TORSDOF 6
ENDMDL
MODEL 7
REMARK VINA RESULT:    -5.796      1.996      6.968
REMARK INTER + INTRA:          -7.313
REMARK INTER:                  -6.981
REMARK INTRA:                  -0.332
REMARK UNBOUND:                -0.331
REMARK SMILES O=c1c(O)c(-c2ccc(O)c(O)c2)oc2cc(O)cc(O)c12
REMARK SMILES IDX 5 1 3 2 2 3 1 4 22 5 20 6 19 7 17 8 16 9 15 10 14 11 6 12
REMARK SMILES IDX 7 13 8 14 9 15 13 16 11 17 10 18 12 20 4 22 21 24 18 26
REMARK H PARENT 10 19 12 21 4 23 21 25 18 27
REMARK Flexibility Score: inf
ROOT
ATOM      1  C   UNL     1     101.344 120.467  95.093  1.00  0.00     0.180 A 
ATOM      2  C   UNL     1     102.064 121.241  96.024  1.00  0.00     0.208 A 
ATOM      3  C   UNL     1     101.635 122.550  96.295  1.00  0.00     0.238 A 
ATOM      4  O   UNL     1     102.265 123.248  97.135  1.00  0.00    -0.285 OA
ATOM      5  C   UNL     1     100.511 123.069  95.619  1.00  0.00     0.111 A 
ATOM      6  C   UNL     1     100.017 124.378  95.831  1.00  0.00     0.134 A 
ATOM      7  C   UNL     1      98.897 124.824  95.112  1.00  0.00     0.093 A 
ATOM      8  C   UNL     1      98.266 123.989  94.187  1.00  0.00     0.123 A 
ATOM      9  C   UNL     1      98.750 122.694  93.974  1.00  0.00     0.094 A 
ATOM     10  C   UNL     1      99.862 122.231  94.682  1.00  0.00     0.146 A 
ATOM     11  O   UNL     1     100.299 120.995  94.464  1.00  0.00    -0.452 OA
ENDROOT
BRANCH   1  12
ATOM     12  C   UNL     1     101.724 119.073  94.769  1.00  0.00     0.025 A 
ATOM     13  C   UNL     1     101.198 117.987  95.485  1.00  0.00     0.016 A 
ATOM     14  C   UNL     1     101.553 116.680  95.144  1.00  0.00     0.051 A 
ATOM     15  C   UNL     1     102.424 116.431  94.078  1.00  0.00     0.157 A 
ATOM     16  C   UNL     1     102.580 118.825  93.684  1.00  0.00     0.062 A 
ATOM     17  C   UNL     1     102.941 117.517  93.335  1.00  0.00     0.158 A 
BRANCH  15  18
ATOM     18  O   UNL     1     102.741 115.101  93.792  1.00  0.00    -0.504 OA
ATOM     19  H   UNL     1     102.144 114.479  93.265  1.00  0.00     0.293 HD
ENDBRANCH  15  18
BRANCH  17  20
ATOM     20  O   UNL     1     103.808 117.347  92.253  1.00  0.00    -0.504 OA
ATOM     21  H   UNL     1     103.919 116.478  91.751  1.00  0.00     0.293 HD
ENDBRANCH  17  20
ENDBRANCH   1  12
BRANCH   2  22
ATOM     22  O   UNL     1     103.204 120.721  96.644  1.00  0.00    -0.502 OA
ATOM     23  H   UNL     1     103.441 120.929  97.606  1.00  0.00     0.293 HD
ENDBRANCH   2  22
BRANCH   6  24
ATOM     24  O   UNL     1     100.626 125.237  96.747  1.00  0.00    -0.507 OA
ATOM     25  H   UNL     1     100.157 126.064  97.095  1.00  0.00     0.293 HD
ENDBRANCH   6  24
BRANCH   8  26
ATOM     26  O   UNL     1      97.157 124.456  93.486  1.00  0.00    -0.508 OA
ATOM     27  H   UNL     1      96.873 125.429  93.530  1.00  0.00     0.293 HD
ENDBRANCH   8  26
TORSDOF 6
ENDMDL
MODEL 8
REMARK VINA RESULT:    -5.788      2.381      7.177
REMARK INTER + INTRA:          -7.304
REMARK INTER:                  -7.114
REMARK INTRA:                  -0.190
REMARK UNBOUND:                -0.331
REMARK SMILES O=c1c(O)c(-c2ccc(O)c(O)c2)oc2cc(O)cc(O)c12
REMARK SMILES IDX 5 1 3 2 2 3 1 4 22 5 20 6 19 7 17 8 16 9 15 10 14 11 6 12
REMARK SMILES IDX 7 13 8 14 9 15 13 16 11 17 10 18 12 20 4 22 21 24 18 26
REMARK H PARENT 10 19 12 21 4 23 21 25 18 27
REMARK Flexibility Score: inf
ROOT
ATOM      1  C   UNL     1     101.996 118.744  94.863  1.00  0.00     0.180 A 
ATOM      2  C   UNL     1     102.747 119.691  95.586  1.00  0.00     0.208 A 
ATOM      3  C   UNL     1     102.132 120.891  95.976  1.00  0.00     0.238 A 
ATOM      4  O   UNL     1     102.791 121.741  96.633  1.00  0.00    -0.285 OA
ATOM      5  C   UNL     1     100.788 121.132  95.623  1.00  0.00     0.111 A 
ATOM      6  C   UNL     1     100.095 122.315  95.974  1.00  0.00     0.134 A 
ATOM      7  C   UNL     1      98.760 122.484  95.577  1.00  0.00     0.093 A 
ATOM      8  C   UNL     1      98.107 121.496  94.837  1.00  0.00     0.123 A 
ATOM      9  C   UNL     1      98.786 120.324  94.488  1.00  0.00     0.094 A 
ATOM     10  C   UNL     1     100.115 120.137  94.875  1.00  0.00     0.146 A 
ATOM     11  O   UNL     1     100.736 119.013  94.535  1.00  0.00    -0.452 OA
ENDROOT
BRANCH   1  12
ATOM     12  C   UNL     1     102.569 117.448  94.432  1.00  0.00     0.025 A 
ATOM     13  C   UNL     1     102.981 116.485  95.365  1.00  0.00     0.016 A 
ATOM     14  C   UNL     1     103.497 115.261  94.934  1.00  0.00     0.051 A 
ATOM     15  C   UNL     1     103.597 114.969  93.569  1.00  0.00     0.157 A 
ATOM     16  C   UNL     1     102.648 117.149  93.063  1.00  0.00     0.062 A 
ATOM     17  C   UNL     1     103.164 115.924  92.621  1.00  0.00     0.158 A 
BRANCH  15  18
ATOM     18  O   UNL     1     104.125 113.728  93.205  1.00  0.00    -0.504 OA
ATOM     19  H   UNL     1     105.113 113.524  93.167  1.00  0.00     0.293 HD
ENDBRANCH  15  18
BRANCH  17  20
ATOM     20  O   UNL     1     103.224 115.701  91.243  1.00  0.00    -0.504 OA
ATOM     21  H   UNL     1     103.587 114.857  90.824  1.00  0.00     0.293 HD
ENDBRANCH  17  20
ENDBRANCH   1  12
BRANCH   2  22
ATOM     22  O   UNL     1     104.092 119.450  95.881  1.00  0.00    -0.502 OA
ATOM     23  H   UNL     1     104.494 118.520  95.860  1.00  0.00     0.293 HD
ENDBRANCH   2  22
BRANCH   6  24
ATOM     24  O   UNL     1     100.721 123.322  96.712  1.00  0.00    -0.507 OA
ATOM     25  H   UNL     1     101.411 123.936  96.296  1.00  0.00     0.293 HD
ENDBRANCH   6  24
BRANCH   8  26
ATOM     26  O   UNL     1      96.782 121.689  94.455  1.00  0.00    -0.508 OA
ATOM     27  H   UNL     1      96.329 122.591  94.549  1.00  0.00     0.293 HD
ENDBRANCH   8  26
TORSDOF 6
ENDMDL
MODEL 9
REMARK VINA RESULT:    -5.569      2.571      6.926
REMARK INTER + INTRA:          -7.040
REMARK INTER:                  -7.023
REMARK INTRA:                  -0.016
REMARK UNBOUND:                -0.331
REMARK SMILES O=c1c(O)c(-c2ccc(O)c(O)c2)oc2cc(O)cc(O)c12
REMARK SMILES IDX 5 1 3 2 2 3 1 4 22 5 20 6 19 7 17 8 16 9 15 10 14 11 6 12
REMARK SMILES IDX 7 13 8 14 9 15 13 16 11 17 10 18 12 20 4 22 21 24 18 26
REMARK H PARENT 10 19 12 21 4 23 21 25 18 27
REMARK Flexibility Score: inf
ROOT
ATOM      1  C   UNL     1     100.425 122.065  94.945  1.00  0.00     0.180 A 
ATOM      2  C   UNL     1     100.968 123.364  94.983  1.00  0.00     0.208 A 
ATOM      3  C   UNL     1     100.096 124.464  94.987  1.00  0.00     0.238 A 
ATOM      4  O   UNL     1     100.571 125.631  95.032  1.00  0.00    -0.285 OA
ATOM      5  C   UNL     1      98.703 124.249  94.933  1.00  0.00     0.111 A 
ATOM      6  C   UNL     1      97.757 125.302  94.929  1.00  0.00     0.134 A 
ATOM      7  C   UNL     1      96.387 125.006  94.866  1.00  0.00     0.093 A 
ATOM      8  C   UNL     1      95.946 123.682  94.803  1.00  0.00     0.123 A 
ATOM      9  C   UNL     1      96.877 122.638  94.807  1.00  0.00     0.094 A 
ATOM     10  C   UNL     1      98.246 122.912  94.872  1.00  0.00     0.146 A 
ATOM     11  O   UNL     1      99.108 121.902  94.879  1.00  0.00    -0.452 OA
ENDROOT
BRANCH   1  12
ATOM     12  C   UNL     1     101.280 120.855  94.957  1.00  0.00     0.025 A 
ATOM     13  C   UNL     1     102.305 120.693  95.901  1.00  0.00     0.016 A 
ATOM     14  C   UNL     1     103.081 119.532  95.907  1.00  0.00     0.051 A 
ATOM     15  C   UNL     1     102.842 118.509  94.984  1.00  0.00     0.157 A 
ATOM     16  C   UNL     1     101.023 119.819  94.044  1.00  0.00     0.062 A 
ATOM     17  C   UNL     1     101.796 118.651  94.043  1.00  0.00     0.158 A 
BRANCH  15  18
ATOM     18  O   UNL     1     103.657 117.375  95.042  1.00  0.00    -0.504 OA
ATOM     19  H   UNL     1     103.550 116.637  95.722  1.00  0.00     0.293 HD
ENDBRANCH  15  18
BRANCH  17  20
ATOM     20  O   UNL     1     101.492 117.669  93.098  1.00  0.00    -0.504 OA
ATOM     21  H   UNL     1     101.615 117.787  92.103  1.00  0.00     0.293 HD
ENDBRANCH  17  20
ENDBRANCH   1  12
BRANCH   2  22
ATOM     22  O   UNL     1     102.353 123.551  94.986  1.00  0.00    -0.502 OA
ATOM     23  H   UNL     1     102.994 122.859  95.356  1.00  0.00     0.293 HD
ENDBRANCH   2  22
BRANCH   6  24
ATOM     24  O   UNL     1      98.166 126.635  94.989  1.00  0.00    -0.507 OA
ATOM     25  H   UNL     1      98.040 127.267  94.207  1.00  0.00     0.293 HD
ENDBRANCH   6  24
BRANCH   8  26
ATOM     26  O   UNL     1      94.581 123.416  94.739  1.00  0.00    -0.508 OA
ATOM     27  H   UNL     1      93.909 123.964  95.265  1.00  0.00     0.293 HD
ENDBRANCH   8  26
TORSDOF 6
ENDMDL
