MODEL 1
REMARK VINA RESULT:    -3.798      0.000      0.000
REMARK INTER + INTRA:          -4.450
REMARK INTER:                  -4.354
REMARK INTRA:                  -0.097
REMARK UNBOUND:                -0.097
REMARK SMILES COc1cc(C(=O)[O-])ccc1O
REMARK SMILES IDX 5 1 9 2 4 3 10 4 3 5 11 6 6 7 7 8 8 9 2 10 1 11 12 12
REMARK H PARENT 12 13
REMARK Flexibility Score: inf
ROOT
ATOM      1  C   UNL     1     -44.305  27.968  -4.904  1.00  0.00     0.001 A 
ATOM      2  C   UNL     1     -43.422  29.054  -4.795  1.00  0.00     0.014 A 
ATOM      3  C   UNL     1     -44.719  27.303  -3.734  1.00  0.00     0.060 A 
ATOM      4  C   UNL     1     -42.963  29.469  -3.543  1.00  0.00     0.051 A 
ATOM      5  C   UNL     1     -44.258  27.719  -2.470  1.00  0.00     0.161 A 
ATOM      6  C   UNL     1     -43.377  28.806  -2.382  1.00  0.00     0.157 A 
ENDROOT
BRANCH   1   7
ATOM      7  C   UNL     1     -44.789  27.531  -6.233  1.00  0.00     0.072 C 
ATOM      8  O   UNL     1     -46.019  27.552  -6.507  1.00  0.00    -0.545 OA
ATOM      9  O   UNL     1     -43.891  27.092  -7.199  1.00  0.00    -0.545 OA
ENDBRANCH   1   7
BRANCH   5  10
ATOM     10  O   UNL     1     -44.650  27.080  -1.282  1.00  0.00    -0.493 OA
ATOM     11  C   UNL     1     -45.890  27.300  -0.619  1.00  0.00     0.278 C 
ENDBRANCH   5  10
BRANCH   6  12
ATOM     12  O   UNL     1     -42.917  29.221  -1.133  1.00  0.00    -0.504 OA
ATOM     13  H   UNL     1     -42.052  28.867  -0.742  1.00  0.00     0.293 HD
ENDBRANCH   6  12
TORSDOF 3
ENDMDL
MODEL 2
REMARK VINA RESULT:    -3.648      1.523      4.529
REMARK INTER + INTRA:          -4.278
REMARK INTER:                  -4.185
REMARK INTRA:                  -0.093
REMARK UNBOUND:                -0.097
REMARK SMILES COc1cc(C(=O)[O-])ccc1O
REMARK SMILES IDX 5 1 9 2 4 3 10 4 3 5 11 6 6 7 7 8 8 9 2 10 1 11 12 12
REMARK H PARENT 12 13
REMARK Flexibility Score: inf
ROOT
ATOM      1  C   UNL     1     -44.218  28.055  -4.046  1.00  0.00     0.001 A 
ATOM      2  C   UNL     1     -43.576  29.304  -4.023  1.00  0.00     0.014 A 
ATOM      3  C   UNL     1     -44.264  27.332  -5.252  1.00  0.00     0.060 A 
ATOM      4  C   UNL     1     -42.990  29.818  -5.182  1.00  0.00     0.051 A 
ATOM      5  C   UNL     1     -43.674  27.848  -6.423  1.00  0.00     0.161 A 
ATOM      6  C   UNL     1     -43.037  29.096  -6.380  1.00  0.00     0.157 A 
ENDROOT
BRANCH   1   7
ATOM      7  C   UNL     1     -44.838  27.514  -2.816  1.00  0.00     0.072 C 
ATOM      8  O   UNL     1     -44.123  27.065  -1.880  1.00  0.00    -0.545 OA
ATOM      9  O   UNL     1     -46.221  27.494  -2.675  1.00  0.00    -0.545 OA
ENDBRANCH   1   7
BRANCH   5  10
ATOM     10  O   UNL     1     -43.700  27.154  -7.644  1.00  0.00    -0.493 OA
ATOM     11  C   UNL     1     -44.882  26.869  -8.385  1.00  0.00     0.278 C 
ENDBRANCH   5  10
BRANCH   6  12
ATOM     12  O   UNL     1     -42.452  29.611  -7.535  1.00  0.00    -0.504 OA
ATOM     13  H   UNL     1     -43.003  30.080  -8.245  1.00  0.00     0.293 HD
ENDBRANCH   6  12
TORSDOF 3
ENDMDL
MODEL 3
REMARK VINA RESULT:    -3.538      1.175      4.256
REMARK INTER + INTRA:          -4.151
REMARK INTER:                  -4.054
REMARK INTRA:                  -0.097
REMARK UNBOUND:                -0.097
REMARK SMILES COc1cc(C(=O)[O-])ccc1O
REMARK SMILES IDX 5 1 9 2 4 3 10 4 3 5 11 6 6 7 7 8 8 9 2 10 1 11 12 12
REMARK H PARENT 12 13
REMARK Flexibility Score: inf
ROOT
ATOM      1  C   UNL     1     -44.262  27.914  -2.426  1.00  0.00     0.001 A 
ATOM      2  C   UNL     1     -43.334  28.964  -2.505  1.00  0.00     0.014 A 
ATOM      3  C   UNL     1     -44.786  27.374  -3.616  1.00  0.00     0.060 A 
ATOM      4  C   UNL     1     -42.937  29.465  -3.746  1.00  0.00     0.051 A 
ATOM      5  C   UNL     1     -44.387  27.877  -4.870  1.00  0.00     0.161 A 
ATOM      6  C   UNL     1     -43.459  28.925  -4.928  1.00  0.00     0.157 A 
ENDROOT
BRANCH   1   7
ATOM      7  C   UNL     1     -44.681  27.387  -1.108  1.00  0.00     0.072 C 
ATOM      8  O   UNL     1     -45.893  27.136  -0.873  1.00  0.00    -0.545 OA
ATOM      9  O   UNL     1     -43.741  27.160  -0.110  1.00  0.00    -0.545 OA
ENDBRANCH   1   7
BRANCH   5  10
ATOM     10  O   UNL     1     -44.889  27.362  -6.077  1.00  0.00    -0.493 OA
ATOM     11  C   UNL     1     -46.142  27.723  -6.648  1.00  0.00     0.278 C 
ENDBRANCH   5  10
BRANCH   6  12
ATOM     12  O   UNL     1     -43.061  29.426  -6.166  1.00  0.00    -0.504 OA
ATOM     13  H   UNL     1     -43.391  30.322  -6.506  1.00  0.00     0.293 HD
ENDBRANCH   6  12
TORSDOF 3
ENDMDL
MODEL 4
REMARK VINA RESULT:    -3.513      1.735      2.695
REMARK INTER + INTRA:          -4.124
REMARK INTER:                  -4.035
REMARK INTRA:                  -0.088
REMARK UNBOUND:                -0.097
REMARK SMILES COc1cc(C(=O)[O-])ccc1O
REMARK SMILES IDX 5 1 9 2 4 3 10 4 3 5 11 6 6 7 7 8 8 9 2 10 1 11 12 12
REMARK H PARENT 12 13
REMARK Flexibility Score: inf
ROOT
ATOM      1  C   UNL     1     -44.794  27.534  -6.098  1.00  0.00     0.001 A 
ATOM      2  C   UNL     1     -46.106  28.030  -6.144  1.00  0.00     0.014 A 
ATOM      3  C   UNL     1     -44.204  27.274  -4.847  1.00  0.00     0.060 A 
ATOM      4  C   UNL     1     -46.816  28.262  -4.964  1.00  0.00     0.051 A 
ATOM      5  C   UNL     1     -44.917  27.507  -3.654  1.00  0.00     0.161 A 
ATOM      6  C   UNL     1     -46.226  28.002  -3.721  1.00  0.00     0.157 A 
ENDROOT
BRANCH   1   7
ATOM      7  C   UNL     1     -44.045  27.290  -7.351  1.00  0.00     0.072 C 
ATOM      8  O   UNL     1     -42.835  27.625  -7.452  1.00  0.00    -0.545 OA
ATOM      9  O   UNL     1     -44.668  26.685  -8.437  1.00  0.00    -0.545 OA
ENDBRANCH   1   7
BRANCH   5  10
ATOM     10  O   UNL     1     -44.360  27.260  -2.388  1.00  0.00    -0.493 OA
ATOM     11  C   UNL     1     -43.554  28.185  -1.667  1.00  0.00     0.278 C 
ENDBRANCH   5  10
BRANCH   6  12
ATOM     12  O   UNL     1     -46.936  28.235  -2.544  1.00  0.00    -0.504 OA
ATOM     13  H   UNL     1     -47.623  28.977  -2.477  1.00  0.00     0.293 HD
ENDBRANCH   6  12
TORSDOF 3
ENDMDL
MODEL 5
REMARK VINA RESULT:    -3.506      1.637      4.976
REMARK INTER + INTRA:          -4.115
REMARK INTER:                  -4.012
REMARK INTRA:                  -0.103
REMARK UNBOUND:                -0.097
REMARK SMILES COc1cc(C(=O)[O-])ccc1O
REMARK SMILES IDX 5 1 9 2 4 3 10 4 3 5 11 6 6 7 7 8 8 9 2 10 1 11 12 12
REMARK H PARENT 12 13
REMARK Flexibility Score: inf
ROOT
ATOM      1  C   UNL     1     -45.596  27.823  -3.770  1.00  0.00     0.001 A 
ATOM      2  C   UNL     1     -46.852  28.192  -4.276  1.00  0.00     0.014 A 
ATOM      3  C   UNL     1     -44.569  27.480  -4.670  1.00  0.00     0.060 A 
ATOM      4  C   UNL     1     -47.078  28.219  -5.654  1.00  0.00     0.051 A 
ATOM      5  C   UNL     1     -44.794  27.506  -6.061  1.00  0.00     0.161 A 
ATOM      6  C   UNL     1     -46.055  27.878  -6.546  1.00  0.00     0.157 A 
ENDROOT
BRANCH   1   7
ATOM      7  C   UNL     1     -45.360  27.795  -2.309  1.00  0.00     0.072 C 
ATOM      8  O   UNL     1     -46.113  28.431  -1.524  1.00  0.00    -0.545 OA
ATOM      9  O   UNL     1     -44.303  27.063  -1.781  1.00  0.00    -0.545 OA
ENDBRANCH   1   7
BRANCH   5  10
ATOM     10  O   UNL     1     -43.794  27.170  -6.988  1.00  0.00    -0.493 OA
ATOM     11  C   UNL     1     -42.683  28.000  -7.312  1.00  0.00     0.278 C 
ENDBRANCH   5  10
BRANCH   6  12
ATOM     12  O   UNL     1     -46.283  27.906  -7.921  1.00  0.00    -0.504 OA
ATOM     13  H   UNL     1     -45.938  27.174  -8.531  1.00  0.00     0.293 HD
ENDBRANCH   6  12
TORSDOF 3
ENDMDL
MODEL 6
REMARK VINA RESULT:    -3.494      1.961      5.114
REMARK INTER + INTRA:          -4.101
REMARK INTER:                  -4.030
REMARK INTRA:                  -0.071
REMARK UNBOUND:                -0.097
REMARK SMILES COc1cc(C(=O)[O-])ccc1O
REMARK SMILES IDX 5 1 9 2 4 3 10 4 3 5 11 6 6 7 7 8 8 9 2 10 1 11 12 12
REMARK H PARENT 12 13
REMARK Flexibility Score: inf
ROOT
ATOM      1  C   UNL     1     -44.177  28.499  -4.996  1.00  0.00     0.001 A 
ATOM      2  C   UNL     1     -43.325  27.617  -5.679  1.00  0.00     0.014 A 
ATOM      3  C   UNL     1     -45.394  28.875  -5.594  1.00  0.00     0.060 A 
ATOM      4  C   UNL     1     -43.683  27.119  -6.934  1.00  0.00     0.051 A 
ATOM      5  C   UNL     1     -45.758  28.375  -6.860  1.00  0.00     0.161 A 
ATOM      6  C   UNL     1     -44.895  27.495  -7.526  1.00  0.00     0.157 A 
ENDROOT
BRANCH   1   7
ATOM      7  C   UNL     1     -43.794  29.024  -3.666  1.00  0.00     0.072 C 
ATOM      8  O   UNL     1     -44.469  28.734  -2.642  1.00  0.00    -0.545 OA
ATOM      9  O   UNL     1     -42.681  29.846  -3.528  1.00  0.00    -0.545 OA
ENDBRANCH   1   7
BRANCH   5  10
ATOM     10  O   UNL     1     -46.964  28.729  -7.486  1.00  0.00    -0.493 OA
ATOM     11  C   UNL     1     -47.125  29.845  -8.356  1.00  0.00     0.278 C 
ENDBRANCH   5  10
BRANCH   6  12
ATOM     12  O   UNL     1     -45.249  26.998  -8.779  1.00  0.00    -0.504 OA
ATOM     13  H   UNL     1     -45.196  27.573  -9.612  1.00  0.00     0.293 HD
ENDBRANCH   6  12
TORSDOF 3
ENDMDL
MODEL 7
REMARK VINA RESULT:    -3.429      1.705      3.057
REMARK INTER + INTRA:          -4.027
REMARK INTER:                  -3.924
REMARK INTRA:                  -0.103
REMARK UNBOUND:                -0.097
REMARK SMILES COc1cc(C(=O)[O-])ccc1O
REMARK SMILES IDX 5 1 9 2 4 3 10 4 3 5 11 6 6 7 7 8 8 9 2 10 1 11 12 12
REMARK H PARENT 12 13
REMARK Flexibility Score: inf
ROOT
ATOM      1  C   UNL     1     -45.188  27.637  -3.185  1.00  0.00     0.001 A 
ATOM      2  C   UNL     1     -46.521  27.581  -2.749  1.00  0.00     0.014 A 
ATOM      3  C   UNL     1     -44.154  27.602  -2.230  1.00  0.00     0.060 A 
ATOM      4  C   UNL     1     -46.817  27.493  -1.387  1.00  0.00     0.051 A 
ATOM      5  C   UNL     1     -44.449  27.513  -0.855  1.00  0.00     0.161 A 
ATOM      6  C   UNL     1     -45.786  27.459  -0.440  1.00  0.00     0.157 A 
ENDROOT
BRANCH   1   7
ATOM      7  C   UNL     1     -44.879  27.731  -4.629  1.00  0.00     0.072 C 
ATOM      8  O   UNL     1     -43.685  27.720  -5.033  1.00  0.00    -0.545 OA
ATOM      9  O   UNL     1     -45.904  27.831  -5.563  1.00  0.00    -0.545 OA
ENDBRANCH   1   7
BRANCH   5  10
ATOM     10  O   UNL     1     -43.443  27.477   0.126  1.00  0.00    -0.493 OA
ATOM     11  C   UNL     1     -42.665  28.600   0.525  1.00  0.00     0.278 C 
ENDBRANCH   5  10
BRANCH   6  12
ATOM     12  O   UNL     1     -46.083  27.371   0.919  1.00  0.00    -0.504 OA
ATOM     13  H   UNL     1     -45.732  28.050   1.584  1.00  0.00     0.293 HD
ENDBRANCH   6  12
TORSDOF 3
ENDMDL
MODEL 8
REMARK VINA RESULT:    -3.262      2.068      2.899
REMARK INTER + INTRA:          -3.836
REMARK INTER:                  -3.740
REMARK INTRA:                  -0.096
REMARK UNBOUND:                -0.097
REMARK SMILES COc1cc(C(=O)[O-])ccc1O
REMARK SMILES IDX 5 1 9 2 4 3 10 4 3 5 11 6 6 7 7 8 8 9 2 10 1 11 12 12
REMARK H PARENT 12 13
REMARK Flexibility Score: inf
ROOT
ATOM      1  C   UNL     1     -43.598  28.966  -6.110  1.00  0.00     0.001 A 
ATOM      2  C   UNL     1     -43.741  27.572  -6.185  1.00  0.00     0.014 A 
ATOM      3  C   UNL     1     -43.834  29.612  -4.882  1.00  0.00     0.060 A 
ATOM      4  C   UNL     1     -44.111  26.837  -5.057  1.00  0.00     0.051 A 
ATOM      5  C   UNL     1     -44.206  28.874  -3.741  1.00  0.00     0.161 A 
ATOM      6  C   UNL     1     -44.343  27.483  -3.837  1.00  0.00     0.157 A 
ENDROOT
BRANCH   1   7
ATOM      7  C   UNL     1     -43.207  29.741  -7.309  1.00  0.00     0.072 C 
ATOM      8  O   UNL     1     -44.076  30.125  -8.137  1.00  0.00    -0.545 OA
ATOM      9  O   UNL     1     -41.873  30.059  -7.537  1.00  0.00    -0.545 OA
ENDBRANCH   1   7
BRANCH   5  10
ATOM     10  O   UNL     1     -44.449  29.486  -2.500  1.00  0.00    -0.493 OA
ATOM     11  C   UNL     1     -43.435  29.982  -1.633  1.00  0.00     0.278 C 
ENDBRANCH   5  10
BRANCH   6  12
ATOM     12  O   UNL     1     -44.712  26.748  -2.711  1.00  0.00    -0.504 OA
ATOM     13  H   UNL     1     -45.666  26.745  -2.369  1.00  0.00     0.293 HD
ENDBRANCH   6  12
TORSDOF 3
ENDMDL
MODEL 9
REMARK VINA RESULT:    -3.200      1.536      2.533
REMARK INTER + INTRA:          -3.764
REMARK INTER:                  -3.690
REMARK INTRA:                  -0.074
REMARK UNBOUND:                -0.097
REMARK SMILES COc1cc(C(=O)[O-])ccc1O
REMARK SMILES IDX 5 1 9 2 4 3 10 4 3 5 11 6 6 7 7 8 8 9 2 10 1 11 12 12
REMARK H PARENT 12 13
REMARK Flexibility Score: inf
ROOT
ATOM      1  C   UNL     1     -43.811  28.574  -5.038  1.00  0.00     0.001 A 
ATOM      2  C   UNL     1     -45.093  28.014  -5.149  1.00  0.00     0.014 A 
ATOM      3  C   UNL     1     -43.293  28.849  -3.759  1.00  0.00     0.060 A 
ATOM      4  C   UNL     1     -45.843  27.732  -4.005  1.00  0.00     0.051 A 
ATOM      5  C   UNL     1     -44.047  28.566  -2.602  1.00  0.00     0.161 A 
ATOM      6  C   UNL     1     -45.325  28.006  -2.734  1.00  0.00     0.157 A 
ENDROOT
BRANCH   1   7
ATOM      7  C   UNL     1     -43.020  28.872  -6.253  1.00  0.00     0.072 C 
ATOM      8  O   UNL     1     -42.668  30.053  -6.517  1.00  0.00    -0.545 OA
ATOM      9  O   UNL     1     -42.652  27.851  -7.121  1.00  0.00    -0.545 OA
ENDBRANCH   1   7
BRANCH   5  10
ATOM     10  O   UNL     1     -43.562  28.826  -1.310  1.00  0.00    -0.493 OA
ATOM     11  C   UNL     1     -42.806  27.906  -0.531  1.00  0.00     0.278 C 
ENDBRANCH   5  10
BRANCH   6  12
ATOM     12  O   UNL     1     -46.075  27.724  -1.593  1.00  0.00    -0.504 OA
ATOM     13  H   UNL     1     -46.982  27.277  -1.653  1.00  0.00     0.293 HD
ENDBRANCH   6  12
TORSDOF 3
ENDMDL
