MODEL 1
REMARK VINA RESULT:    -0.909      0.000      0.000
REMARK INTER + INTRA:          -0.478
REMARK INTER:                  -1.227
REMARK INTRA:                   0.749
REMARK UNBOUND:                 0.749
REMARK SMILES CCCCCCCC(=O)[O-]
REMARK SMILES IDX 5 1 6 2 7 3 8 4 9 5 10 6 4 7 3 8 2 9 1 10
REMARK H PARENT
REMARK Flexibility Score: inf
ROOT
ATOM      1  C   UNL     1       7.849  49.083   8.950  1.00  0.00     0.000 C 
ENDROOT
BRANCH   1   2
ATOM      2  C   UNL     1       7.907  47.553   9.082  1.00  0.00     0.006 C 
BRANCH   2   3
ATOM      3  C   UNL     1       7.106  47.034  10.284  1.00  0.00     0.053 C 
BRANCH   3   4
ATOM      4  C   UNL     1       7.707  47.526  11.562  1.00  0.00     0.041 C 
ATOM      5  O   UNL     1       8.935  47.798  11.622  1.00  0.00    -0.550 OA
ATOM      6  O   UNL     1       6.901  47.733  12.674  1.00  0.00    -0.550 OA
ENDBRANCH   3   4
ENDBRANCH   2   3
ENDBRANCH   1   2
BRANCH   1   7
ATOM      7  C   UNL     1       6.704  49.704   9.763  1.00  0.00     0.000 C 
BRANCH   7   8
ATOM      8  C   UNL     1       5.471  49.943   8.883  1.00  0.00    -0.000 C 
BRANCH   8   9
ATOM      9  C   UNL     1       4.336  48.980   9.251  1.00  0.00    -0.003 C 
ATOM     10  C   UNL     1       4.412  48.572  10.720  1.00  0.00     0.004 C 
ENDBRANCH   8   9
ENDBRANCH   7   8
ENDBRANCH   1   7
TORSDOF 6
ENDMDL
MODEL 2
REMARK VINA RESULT:    -0.798      7.678      8.542
REMARK INTER + INTRA:          -0.329
REMARK INTER:                  -0.500
REMARK INTRA:                   0.171
REMARK UNBOUND:                 0.749
REMARK SMILES CCCCCCCC(=O)[O-]
REMARK SMILES IDX 5 1 6 2 7 3 8 4 9 5 10 6 4 7 3 8 2 9 1 10
REMARK H PARENT
REMARK Flexibility Score: inf
ROOT
ATOM      1  C   UNL     1      14.208  44.973   9.665  1.00  0.00     0.000 C 
ENDROOT
BRANCH   1   2
ATOM      2  C   UNL     1      15.458  45.400   8.879  1.00  0.00     0.006 C 
BRANCH   2   3
ATOM      3  C   UNL     1      15.701  46.914   8.935  1.00  0.00     0.053 C 
BRANCH   3   4
ATOM      4  C   UNL     1      14.658  47.579   9.776  1.00  0.00     0.041 C 
ATOM      5  O   UNL     1      13.662  48.128   9.235  1.00  0.00    -0.550 OA
ATOM      6  O   UNL     1      14.759  47.548  11.161  1.00  0.00    -0.550 OA
ENDBRANCH   3   4
ENDBRANCH   2   3
ENDBRANCH   1   2
BRANCH   1   7
ATOM      7  C   UNL     1      14.175  43.465   9.950  1.00  0.00     0.000 C 
BRANCH   7   8
ATOM      8  C   UNL     1      13.373  42.720   8.876  1.00  0.00    -0.000 C 
BRANCH   8   9
ATOM      9  C   UNL     1      11.906  43.164   8.876  1.00  0.00    -0.003 C 
ATOM     10  C   UNL     1      10.965  41.963   8.877  1.00  0.00     0.004 C 
ENDBRANCH   8   9
ENDBRANCH   7   8
ENDBRANCH   1   7
TORSDOF 6
ENDMDL
MODEL 3
REMARK VINA RESULT:     0.183      1.959      3.558
REMARK INTER + INTRA:           0.997
REMARK INTER:                   1.154
REMARK INTRA:                  -0.157
REMARK UNBOUND:                 0.749
REMARK SMILES CCCCCCCC(=O)[O-]
REMARK SMILES IDX 5 1 6 2 7 3 8 4 9 5 10 6 4 7 3 8 2 9 1 10
REMARK H PARENT
REMARK Flexibility Score: inf
ROOT
ATOM      1  C   UNL     1       7.589  49.314   9.007  1.00  0.00     0.000 C 
ENDROOT
BRANCH   1   2
ATOM      2  C   UNL     1       6.134  49.794   8.875  1.00  0.00     0.006 C 
BRANCH   2   3
ATOM      3  C   UNL     1       5.375  49.749  10.208  1.00  0.00     0.053 C 
BRANCH   3   4
ATOM      4  C   UNL     1       4.616  48.466  10.331  1.00  0.00     0.041 C 
ATOM      5  O   UNL     1       4.059  48.161  11.419  1.00  0.00    -0.550 OA
ATOM      6  O   UNL     1       4.481  47.629   9.231  1.00  0.00    -0.550 OA
ENDBRANCH   3   4
ENDBRANCH   2   3
ENDBRANCH   1   2
BRANCH   1   7
ATOM      7  C   UNL     1       7.724  47.790   8.876  1.00  0.00     0.000 C 
BRANCH   7   8
ATOM      8  C   UNL     1       7.740  47.120  10.255  1.00  0.00    -0.000 C 
BRANCH   8   9
ATOM      9  C   UNL     1       8.214  48.096  11.338  1.00  0.00    -0.003 C 
ATOM     10  C   UNL     1       7.477  47.863  12.653  1.00  0.00     0.004 C 
ENDBRANCH   8   9
ENDBRANCH   7   8
ENDBRANCH   1   7
TORSDOF 6
ENDMDL
MODEL 4
REMARK VINA RESULT:     1.311      1.469      2.646
REMARK INTER + INTRA:           2.520
REMARK INTER:                   2.717
REMARK INTRA:                  -0.197
REMARK UNBOUND:                 0.749
REMARK SMILES CCCCCCCC(=O)[O-]
REMARK SMILES IDX 5 1 6 2 7 3 8 4 9 5 10 6 4 7 3 8 2 9 1 10
REMARK H PARENT
REMARK Flexibility Score: inf
ROOT
ATOM      1  C   UNL     1       5.312  49.867   8.926  1.00  0.00     0.000 C 
ENDROOT
BRANCH   1   2
ATOM      2  C   UNL     1       6.693  49.934   9.597  1.00  0.00     0.006 C 
BRANCH   2   3
ATOM      3  C   UNL     1       7.741  49.077   8.875  1.00  0.00     0.053 C 
BRANCH   3   4
ATOM      4  C   UNL     1       7.908  47.763   9.571  1.00  0.00     0.041 C 
ATOM      5  O   UNL     1       8.239  47.727  10.786  1.00  0.00    -0.550 OA
ATOM      6  O   UNL     1       7.650  46.580   8.893  1.00  0.00    -0.550 OA
ENDBRANCH   3   4
ENDBRANCH   2   3
ENDBRANCH   1   2
BRANCH   1   7
ATOM      7  C   UNL     1       4.476  48.673   9.410  1.00  0.00     0.000 C 
BRANCH   7   8
ATOM      8  C   UNL     1       4.753  48.371  10.887  1.00  0.00    -0.000 C 
BRANCH   8   9
ATOM      9  C   UNL     1       3.493  47.854  11.590  1.00  0.00    -0.003 C 
ATOM     10  C   UNL     1       3.773  47.526  13.054  1.00  0.00     0.004 C 
ENDBRANCH   8   9
ENDBRANCH   7   8
ENDBRANCH   1   7
TORSDOF 6
ENDMDL
MODEL 5
REMARK VINA RESULT:     1.680      1.851      2.777
REMARK INTER + INTRA:           3.019
REMARK INTER:                   3.274
REMARK INTRA:                  -0.255
REMARK UNBOUND:                 0.749
REMARK SMILES CCCCCCCC(=O)[O-]
REMARK SMILES IDX 5 1 6 2 7 3 8 4 9 5 10 6 4 7 3 8 2 9 1 10
REMARK H PARENT
REMARK Flexibility Score: inf
ROOT
ATOM      1  C   UNL     1       5.967  48.244  12.145  1.00  0.00     0.000 C 
ENDROOT
BRANCH   1   2
ATOM      2  C   UNL     1       6.942  47.248  11.497  1.00  0.00     0.006 C 
BRANCH   2   3
ATOM      3  C   UNL     1       8.246  47.914  11.038  1.00  0.00     0.053 C 
BRANCH   3   4
ATOM      4  C   UNL     1       8.351  47.880   9.546  1.00  0.00     0.041 C 
ATOM      5  O   UNL     1       8.505  48.949   8.897  1.00  0.00    -0.550 OA
ATOM      6  O   UNL     1       8.329  46.665   8.875  1.00  0.00    -0.550 OA
ENDBRANCH   3   4
ENDBRANCH   2   3
ENDBRANCH   1   2
BRANCH   1   7
ATOM      7  C   UNL     1       4.606  48.287  11.436  1.00  0.00     0.000 C 
BRANCH   7   8
ATOM      8  C   UNL     1       4.765  48.063   9.927  1.00  0.00    -0.000 C 
BRANCH   8   9
ATOM      9  C   UNL     1       4.425  49.335   9.141  1.00  0.00    -0.003 C 
ATOM     10  C   UNL     1       5.672  50.176   8.885  1.00  0.00     0.004 C 
ENDBRANCH   8   9
ENDBRANCH   7   8
ENDBRANCH   1   7
TORSDOF 6
ENDMDL
