MODEL 1
REMARK VINA RESULT:    -4.435      0.000      0.000
REMARK INTER + INTRA:          -8.676
REMARK INTER:                  -6.768
REMARK INTRA:                  -1.908
REMARK UNBOUND:                -1.908
REMARK SMILES CC(=O)CCC=C(C)CCC=C(C)CCC=C(C)C
REMARK SMILES IDX 10 1 11 2 12 3 13 4 14 5 15 6 16 7 18 8 17 9 19 10 9 11 7 12
REMARK SMILES IDX 6 13 8 14 5 15 4 16 2 17 3 18 1 19
REMARK H PARENT
REMARK Flexibility Score: inf
ROOT
ATOM      1  C   UNL     1     -18.205  -3.202  10.219  1.00  0.00     0.032 C 
ENDROOT
BRANCH   1   2
ATOM      2  C   UNL     1     -19.611  -3.259   9.678  1.00  0.00    -0.028 C 
ATOM      3  C   UNL     1     -20.720  -2.969  10.397  1.00  0.00    -0.077 C 
ATOM      4  C   UNL     1     -20.640  -2.498  11.830  1.00  0.00     0.039 C 
BRANCH   3   5
ATOM      5  C   UNL     1     -22.080  -3.100   9.741  1.00  0.00     0.034 C 
BRANCH   5   6
ATOM      6  C   UNL     1     -22.103  -4.208   8.678  1.00  0.00     0.032 C 
BRANCH   6   7
ATOM      7  C   UNL     1     -22.728  -5.479   9.204  1.00  0.00    -0.028 C 
ATOM      8  C   UNL     1     -22.809  -7.794  10.019  1.00  0.00     0.039 C 
ATOM      9  C   UNL     1     -22.054  -6.626   9.437  1.00  0.00    -0.080 C 
ATOM     10  C   UNL     1     -20.586  -6.773   9.115  1.00  0.00     0.039 C 
ENDBRANCH   6   7
ENDBRANCH   5   6
ENDBRANCH   3   5
ENDBRANCH   1   2
BRANCH   1  11
ATOM     11  C   UNL     1     -17.510  -1.905   9.787  1.00  0.00     0.034 C 
BRANCH  11  12
ATOM     12  C   UNL     1     -17.673  -0.830  10.839  1.00  0.00    -0.077 C 
ATOM     13  C   UNL     1     -18.522   0.197  10.603  1.00  0.00    -0.028 C 
ATOM     14  C   UNL     1     -16.879  -0.930  12.120  1.00  0.00     0.039 C 
BRANCH  13  15
ATOM     15  C   UNL     1     -18.750   1.361  11.539  1.00  0.00     0.035 C 
BRANCH  15  16
ATOM     16  C   UNL     1     -20.085   2.059  11.255  1.00  0.00     0.079 C 
BRANCH  16  17
ATOM     17  C   UNL     1     -21.261   1.163  11.544  1.00  0.00     0.130 C 
ATOM     18  O   UNL     1     -21.522   0.856  12.698  1.00  0.00    -0.300 OA
ATOM     19  C   UNL     1     -22.124   0.658  10.428  1.00  0.00     0.087 C 
ENDBRANCH  16  17
ENDBRANCH  15  16
ENDBRANCH  13  15
ENDBRANCH  11  12
ENDBRANCH   1  11
TORSDOF 9
ENDMDL
MODEL 2
REMARK VINA RESULT:    -4.389      2.408      5.659
REMARK INTER + INTRA:          -8.605
REMARK INTER:                  -6.439
REMARK INTRA:                  -2.166
REMARK UNBOUND:                -1.908
REMARK SMILES CC(=O)CCC=C(C)CCC=C(C)CCC=C(C)C
REMARK SMILES IDX 10 1 11 2 12 3 13 4 14 5 15 6 16 7 18 8 17 9 19 10 9 11 7 12
REMARK SMILES IDX 6 13 8 14 5 15 4 16 2 17 3 18 1 19
REMARK H PARENT
REMARK Flexibility Score: inf
ROOT
ATOM      1  C   UNL     1     -17.344  -2.252   9.920  1.00  0.00     0.032 C 
ENDROOT
BRANCH   1   2
ATOM      2  C   UNL     1     -18.128  -0.972  10.070  1.00  0.00    -0.028 C 
ATOM      3  C   UNL     1     -18.086  -0.174  11.161  1.00  0.00    -0.077 C 
ATOM      4  C   UNL     1     -17.185  -0.476  12.336  1.00  0.00     0.039 C 
BRANCH   3   5
ATOM      5  C   UNL     1     -18.951   1.070  11.199  1.00  0.00     0.034 C 
BRANCH   5   6
ATOM      6  C   UNL     1     -20.287   0.821  11.915  1.00  0.00     0.032 C 
BRANCH   6   7
ATOM      7  C   UNL     1     -21.322   0.233  10.985  1.00  0.00    -0.028 C 
ATOM      8  C   UNL     1     -22.826  -1.473  10.057  1.00  0.00     0.039 C 
ATOM      9  C   UNL     1     -21.741  -1.050  11.016  1.00  0.00    -0.080 C 
ATOM     10  C   UNL     1     -21.143  -2.067  11.959  1.00  0.00     0.039 C 
ENDBRANCH   6   7
ENDBRANCH   5   6
ENDBRANCH   3   5
ENDBRANCH   1   2
BRANCH   1  11
ATOM     11  C   UNL     1     -18.268  -3.470  10.028  1.00  0.00     0.034 C 
BRANCH  11  12
ATOM     12  C   UNL     1     -18.924  -3.770   8.697  1.00  0.00    -0.077 C 
ATOM     13  C   UNL     1     -20.154  -3.267   8.444  1.00  0.00    -0.028 C 
ATOM     14  C   UNL     1     -18.188  -4.625   7.693  1.00  0.00     0.039 C 
BRANCH  13  15
ATOM     15  C   UNL     1     -20.947  -3.521   7.183  1.00  0.00     0.035 C 
BRANCH  15  16
ATOM     16  C   UNL     1     -22.261  -4.251   7.480  1.00  0.00     0.079 C 
BRANCH  16  17
ATOM     17  C   UNL     1     -22.029  -5.561   8.186  1.00  0.00     0.130 C 
ATOM     18  O   UNL     1     -21.458  -6.472   7.605  1.00  0.00    -0.300 OA
ATOM     19  C   UNL     1     -22.479  -5.751   9.603  1.00  0.00     0.087 C 
ENDBRANCH  16  17
ENDBRANCH  15  16
ENDBRANCH  13  15
ENDBRANCH  11  12
ENDBRANCH   1  11
TORSDOF 9
ENDMDL
MODEL 3
REMARK VINA RESULT:    -4.384      2.853      6.291
REMARK INTER + INTRA:          -8.599
REMARK INTER:                  -6.663
REMARK INTRA:                  -1.936
REMARK UNBOUND:                -1.908
REMARK SMILES CC(=O)CCC=C(C)CCC=C(C)CCC=C(C)C
REMARK SMILES IDX 10 1 11 2 12 3 13 4 14 5 15 6 16 7 18 8 17 9 19 10 9 11 7 12
REMARK SMILES IDX 6 13 8 14 5 15 4 16 2 17 3 18 1 19
REMARK H PARENT
REMARK Flexibility Score: inf
ROOT
ATOM      1  C   UNL     1     -17.429  -2.371   9.936  1.00  0.00     0.032 C 
ENDROOT
BRANCH   1   2
ATOM      2  C   UNL     1     -18.154  -1.055  10.064  1.00  0.00    -0.028 C 
ATOM      3  C   UNL     1     -18.051  -0.226  11.128  1.00  0.00    -0.077 C 
ATOM      4  C   UNL     1     -17.135  -0.529  12.290  1.00  0.00     0.039 C 
BRANCH   3   5
ATOM      5  C   UNL     1     -18.863   1.054  11.147  1.00  0.00     0.034 C 
BRANCH   5   6
ATOM      6  C   UNL     1     -20.175   0.894  11.928  1.00  0.00     0.032 C 
BRANCH   6   7
ATOM      7  C   UNL     1     -21.289   0.367  11.054  1.00  0.00    -0.028 C 
ATOM      8  C   UNL     1     -22.938  -1.246  10.213  1.00  0.00     0.039 C 
ATOM      9  C   UNL     1     -21.784  -0.888  11.114  1.00  0.00    -0.080 C 
ATOM     10  C   UNL     1     -21.203  -1.935  12.034  1.00  0.00     0.039 C 
ENDBRANCH   6   7
ENDBRANCH   5   6
ENDBRANCH   3   5
ENDBRANCH   1   2
BRANCH   1  11
ATOM     11  C   UNL     1     -18.406  -3.544  10.068  1.00  0.00     0.034 C 
BRANCH  11  12
ATOM     12  C   UNL     1     -19.077  -3.841   8.744  1.00  0.00    -0.077 C 
ATOM     13  C   UNL     1     -18.447  -4.641   7.854  1.00  0.00    -0.028 C 
ATOM     14  C   UNL     1     -20.427  -3.230   8.453  1.00  0.00     0.039 C 
BRANCH  13  15
ATOM     15  C   UNL     1     -18.974  -4.986   6.480  1.00  0.00     0.035 C 
BRANCH  15  16
ATOM     16  C   UNL     1     -19.226  -6.491   6.334  1.00  0.00     0.079 C 
BRANCH  16  17
ATOM     17  C   UNL     1     -20.428  -6.939   7.123  1.00  0.00     0.130 C 
ATOM     18  O   UNL     1     -20.306  -7.803   7.978  1.00  0.00    -0.300 OA
ATOM     19  C   UNL     1     -21.770  -6.321   6.878  1.00  0.00     0.087 C 
ENDBRANCH  16  17
ENDBRANCH  15  16
ENDBRANCH  13  15
ENDBRANCH  11  12
ENDBRANCH   1  11
TORSDOF 9
ENDMDL
MODEL 4
REMARK VINA RESULT:    -4.381      1.671      2.237
REMARK INTER + INTRA:          -8.594
REMARK INTER:                  -6.829
REMARK INTRA:                  -1.766
REMARK UNBOUND:                -1.908
REMARK SMILES CC(=O)CCC=C(C)CCC=C(C)CCC=C(C)C
REMARK SMILES IDX 10 1 11 2 12 3 13 4 14 5 15 6 16 7 18 8 17 9 19 10 9 11 7 12
REMARK SMILES IDX 6 13 8 14 5 15 4 16 2 17 3 18 1 19
REMARK H PARENT
REMARK Flexibility Score: inf
ROOT
ATOM      1  C   UNL     1     -18.502  -3.545   9.997  1.00  0.00     0.032 C 
ENDROOT
BRANCH   1   2
ATOM      2  C   UNL     1     -18.755  -4.162   8.645  1.00  0.00    -0.028 C 
ATOM      3  C   UNL     1     -19.812  -3.865   7.854  1.00  0.00    -0.077 C 
ATOM      4  C   UNL     1     -20.832  -2.821   8.245  1.00  0.00     0.039 C 
BRANCH   3   5
ATOM      5  C   UNL     1     -19.967  -4.585   6.530  1.00  0.00     0.034 C 
BRANCH   5   6
ATOM      6  C   UNL     1     -21.165  -5.545   6.532  1.00  0.00     0.032 C 
BRANCH   6   7
ATOM      7  C   UNL     1     -20.756  -6.955   6.890  1.00  0.00    -0.028 C 
ATOM      8  C   UNL     1     -20.543  -8.968   8.280  1.00  0.00     0.039 C 
ATOM      9  C   UNL     1     -20.957  -7.530   8.095  1.00  0.00    -0.080 C 
ATOM     10  C   UNL     1     -21.557  -6.773   9.255  1.00  0.00     0.039 C 
ENDBRANCH   6   7
ENDBRANCH   5   6
ENDBRANCH   3   5
ENDBRANCH   1   2
BRANCH   1  11
ATOM     11  C   UNL     1     -17.352  -2.534   9.926  1.00  0.00     0.034 C 
BRANCH  11  12
ATOM     12  C   UNL     1     -17.708  -1.259  10.659  1.00  0.00    -0.077 C 
ATOM     13  C   UNL     1     -18.670  -0.455  10.149  1.00  0.00    -0.028 C 
ATOM     14  C   UNL     1     -16.976  -0.918  11.936  1.00  0.00     0.039 C 
BRANCH  13  15
ATOM     15  C   UNL     1     -19.095   0.866  10.747  1.00  0.00     0.035 C 
BRANCH  15  16
ATOM     16  C   UNL     1     -20.227   0.685  11.765  1.00  0.00     0.079 C 
BRANCH  16  17
ATOM     17  C   UNL     1     -21.274  -0.281  11.277  1.00  0.00     0.130 C 
ATOM     18  O   UNL     1     -21.990   0.024  10.335  1.00  0.00    -0.300 OA
ATOM     19  C   UNL     1     -21.434  -1.621  11.928  1.00  0.00     0.087 C 
ENDBRANCH  16  17
ENDBRANCH  15  16
ENDBRANCH  13  15
ENDBRANCH  11  12
ENDBRANCH   1  11
TORSDOF 9
ENDMDL
MODEL 5
REMARK VINA RESULT:    -4.320      2.549      5.176
REMARK INTER + INTRA:          -8.501
REMARK INTER:                  -7.139
REMARK INTRA:                  -1.362
REMARK UNBOUND:                -1.908
REMARK SMILES CC(=O)CCC=C(C)CCC=C(C)CCC=C(C)C
REMARK SMILES IDX 10 1 11 2 12 3 13 4 14 5 15 6 16 7 18 8 17 9 19 10 9 11 7 12
REMARK SMILES IDX 6 13 8 14 5 15 4 16 2 17 3 18 1 19
REMARK H PARENT
REMARK Flexibility Score: inf
ROOT
ATOM      1  C   UNL     1     -21.393  -6.055   9.372  1.00  0.00     0.032 C 
ENDROOT
BRANCH   1   2
ATOM      2  C   UNL     1     -22.278  -6.820   8.420  1.00  0.00    -0.028 C 
ATOM      3  C   UNL     1     -22.972  -7.933   8.749  1.00  0.00    -0.077 C 
ATOM      4  C   UNL     1     -22.963  -8.494  10.152  1.00  0.00     0.039 C 
BRANCH   3   5
ATOM      5  C   UNL     1     -23.800  -8.627   7.686  1.00  0.00     0.034 C 
BRANCH   5   6
ATOM      6  C   UNL     1     -23.101  -9.880   7.137  1.00  0.00     0.032 C 
BRANCH   6   7
ATOM      7  C   UNL     1     -22.011  -9.530   6.152  1.00  0.00    -0.028 C 
ATOM      8  C   UNL     1     -19.725  -9.343   5.274  1.00  0.00     0.039 C 
ATOM      9  C   UNL     1     -20.689  -9.685   6.382  1.00  0.00    -0.080 C 
ATOM     10  C   UNL     1     -20.158 -10.167   7.711  1.00  0.00     0.039 C 
ENDBRANCH   6   7
ENDBRANCH   5   6
ENDBRANCH   3   5
ENDBRANCH   1   2
BRANCH   1  11
ATOM     11  C   UNL     1     -19.914  -6.343   9.088  1.00  0.00     0.034 C 
BRANCH  11  12
ATOM     12  C   UNL     1     -19.182  -5.076   8.704  1.00  0.00    -0.077 C 
ATOM     13  C   UNL     1     -19.004  -4.112   9.636  1.00  0.00    -0.028 C 
ATOM     14  C   UNL     1     -18.675  -4.922   7.289  1.00  0.00     0.039 C 
BRANCH  13  15
ATOM     15  C   UNL     1     -18.335  -2.781   9.384  1.00  0.00     0.035 C 
BRANCH  15  16
ATOM     16  C   UNL     1     -17.357  -2.420  10.508  1.00  0.00     0.079 C 
BRANCH  16  17
ATOM     17  C   UNL     1     -17.861  -1.274  11.345  1.00  0.00     0.130 C 
ATOM     18  O   UNL     1     -19.029  -0.926  11.259  1.00  0.00    -0.300 OA
ATOM     19  C   UNL     1     -16.944  -0.567  12.296  1.00  0.00     0.087 C 
ENDBRANCH  16  17
ENDBRANCH  15  16
ENDBRANCH  13  15
ENDBRANCH  11  12
ENDBRANCH   1  11
TORSDOF 9
ENDMDL
MODEL 6
REMARK VINA RESULT:    -4.288      3.721      8.372
REMARK INTER + INTRA:          -8.452
REMARK INTER:                  -6.707
REMARK INTRA:                  -1.744
REMARK UNBOUND:                -1.908
REMARK SMILES CC(=O)CCC=C(C)CCC=C(C)CCC=C(C)C
REMARK SMILES IDX 10 1 11 2 12 3 13 4 14 5 15 6 16 7 18 8 17 9 19 10 9 11 7 12
REMARK SMILES IDX 6 13 8 14 5 15 4 16 2 17 3 18 1 19
REMARK H PARENT
REMARK Flexibility Score: inf
ROOT
ATOM      1  C   UNL     1     -21.921  -4.879   9.525  1.00  0.00     0.032 C 
ENDROOT
BRANCH   1   2
ATOM      2  C   UNL     1     -20.434  -4.630   9.541  1.00  0.00    -0.028 C 
ATOM      3  C   UNL     1     -19.742  -4.063   8.526  1.00  0.00    -0.077 C 
ATOM      4  C   UNL     1     -20.427  -3.567   7.274  1.00  0.00     0.039 C 
BRANCH   3   5
ATOM      5  C   UNL     1     -18.241  -3.901   8.656  1.00  0.00     0.034 C 
BRANCH   5   6
ATOM      6  C   UNL     1     -17.844  -3.250   9.989  1.00  0.00     0.032 C 
BRANCH   6   7
ATOM      7  C   UNL     1     -17.946  -1.743   9.930  1.00  0.00    -0.028 C 
ATOM      8  C   UNL     1     -18.788   0.494  10.495  1.00  0.00     0.039 C 
ATOM      9  C   UNL     1     -18.850  -1.008  10.613  1.00  0.00    -0.080 C 
ATOM     10  C   UNL     1     -19.924  -1.645  11.463  1.00  0.00     0.039 C 
ENDBRANCH   6   7
ENDBRANCH   5   6
ENDBRANCH   3   5
ENDBRANCH   1   2
BRANCH   1  11
ATOM     11  C   UNL     1     -22.220  -6.382   9.513  1.00  0.00     0.034 C 
BRANCH  11  12
ATOM     12  C   UNL     1     -21.932  -6.979   8.152  1.00  0.00    -0.077 C 
ATOM     13  C   UNL     1     -20.972  -7.926   8.041  1.00  0.00    -0.028 C 
ATOM     14  C   UNL     1     -22.721  -6.496   6.958  1.00  0.00     0.039 C 
BRANCH  13  15
ATOM     15  C   UNL     1     -20.547  -8.574   6.744  1.00  0.00     0.035 C 
BRANCH  15  16
ATOM     16  C   UNL     1     -21.432  -9.778   6.400  1.00  0.00     0.079 C 
BRANCH  16  17
ATOM     17  C   UNL     1     -21.377 -10.840   7.466  1.00  0.00     0.130 C 
ATOM     18  O   UNL     1     -20.320 -11.402   7.710  1.00  0.00    -0.300 OA
ATOM     19  C   UNL     1     -22.606 -11.202   8.242  1.00  0.00     0.087 C 
ENDBRANCH  16  17
ENDBRANCH  15  16
ENDBRANCH  13  15
ENDBRANCH  11  12
ENDBRANCH   1  11
TORSDOF 9
ENDMDL
MODEL 7
REMARK VINA RESULT:    -4.286     12.964     15.238
REMARK INTER + INTRA:          -8.449
REMARK INTER:                  -5.881
REMARK INTRA:                  -2.569
REMARK UNBOUND:                -1.908
REMARK SMILES CC(=O)CCC=C(C)CCC=C(C)CCC=C(C)C
REMARK SMILES IDX 10 1 11 2 12 3 13 4 14 5 15 6 16 7 18 8 17 9 19 10 9 11 7 12
REMARK SMILES IDX 6 13 8 14 5 15 4 16 2 17 3 18 1 19
REMARK H PARENT
REMARK Flexibility Score: inf
ROOT
ATOM      1  C   UNL     1      -4.574  -4.994  10.889  1.00  0.00     0.032 C 
ENDROOT
BRANCH   1   2
ATOM      2  C   UNL     1      -5.160  -3.850  11.677  1.00  0.00    -0.028 C 
ATOM      3  C   UNL     1      -6.465  -3.493  11.652  1.00  0.00    -0.077 C 
ATOM      4  C   UNL     1      -7.487  -4.263  10.849  1.00  0.00     0.039 C 
BRANCH   3   5
ATOM      5  C   UNL     1      -6.919  -2.299  12.467  1.00  0.00     0.034 C 
BRANCH   5   6
ATOM      6  C   UNL     1      -6.178  -1.014  12.070  1.00  0.00     0.032 C 
BRANCH   6   7
ATOM      7  C   UNL     1      -6.570  -0.543  10.689  1.00  0.00    -0.028 C 
ATOM      8  C   UNL     1      -6.288  -0.046   8.300  1.00  0.00     0.039 C 
ATOM      9  C   UNL     1      -5.732  -0.485   9.631  1.00  0.00    -0.080 C 
ATOM     10  C   UNL     1      -4.265  -0.823   9.751  1.00  0.00     0.039 C 
ENDBRANCH   6   7
ENDBRANCH   5   6
ENDBRANCH   3   5
ENDBRANCH   1   2
BRANCH   1  11
ATOM     11  C   UNL     1      -3.876  -4.480   9.625  1.00  0.00     0.034 C 
BRANCH  11  12
ATOM     12  C   UNL     1      -4.699  -4.786   8.392  1.00  0.00    -0.077 C 
ATOM     13  C   UNL     1      -5.550  -3.845   7.922  1.00  0.00    -0.028 C 
ATOM     14  C   UNL     1      -4.549  -6.133   7.725  1.00  0.00     0.039 C 
BRANCH  13  15
ATOM     15  C   UNL     1      -6.464  -4.027   6.732  1.00  0.00     0.035 C 
BRANCH  15  16
ATOM     16  C   UNL     1      -7.939  -4.030   7.151  1.00  0.00     0.079 C 
BRANCH  16  17
ATOM     17  C   UNL     1      -8.550  -5.402   7.047  1.00  0.00     0.130 C 
ATOM     18  O   UNL     1      -9.624  -5.632   7.584  1.00  0.00    -0.300 OA
ATOM     19  C   UNL     1      -7.859  -6.486   6.276  1.00  0.00     0.087 C 
ENDBRANCH  16  17
ENDBRANCH  15  16
ENDBRANCH  13  15
ENDBRANCH  11  12
ENDBRANCH   1  11
TORSDOF 9
ENDMDL
MODEL 8
REMARK VINA RESULT:    -4.264      3.549      7.687
REMARK INTER + INTRA:          -8.416
REMARK INTER:                  -6.181
REMARK INTRA:                  -2.235
REMARK UNBOUND:                -1.908
REMARK SMILES CC(=O)CCC=C(C)CCC=C(C)CCC=C(C)C
REMARK SMILES IDX 10 1 11 2 12 3 13 4 14 5 15 6 16 7 18 8 17 9 19 10 9 11 7 12
REMARK SMILES IDX 6 13 8 14 5 15 4 16 2 17 3 18 1 19
REMARK H PARENT
REMARK Flexibility Score: inf
ROOT
ATOM      1  C   UNL     1     -22.024  -5.112   9.359  1.00  0.00     0.032 C 
ENDROOT
BRANCH   1   2
ATOM      2  C   UNL     1     -20.543  -4.828   9.386  1.00  0.00    -0.028 C 
ATOM      3  C   UNL     1     -19.874  -4.164   8.415  1.00  0.00    -0.077 C 
ATOM      4  C   UNL     1     -20.581  -3.588   7.210  1.00  0.00     0.039 C 
BRANCH   3   5
ATOM      5  C   UNL     1     -18.376  -3.975   8.548  1.00  0.00     0.034 C 
BRANCH   5   6
ATOM      6  C   UNL     1     -17.985  -3.420   9.925  1.00  0.00     0.032 C 
BRANCH   6   7
ATOM      7  C   UNL     1     -18.077  -1.912   9.970  1.00  0.00    -0.028 C 
ATOM      8  C   UNL     1     -18.909   0.286  10.682  1.00  0.00     0.039 C 
ATOM      9  C   UNL     1     -18.982  -1.220  10.695  1.00  0.00    -0.080 C 
ATOM     10  C   UNL     1     -20.064  -1.906  11.493  1.00  0.00     0.039 C 
ENDBRANCH   6   7
ENDBRANCH   5   6
ENDBRANCH   3   5
ENDBRANCH   1   2
BRANCH   1  11
ATOM     11  C   UNL     1     -22.289  -6.620   9.437  1.00  0.00     0.034 C 
BRANCH  11  12
ATOM     12  C   UNL     1     -21.682  -7.336   8.249  1.00  0.00    -0.077 C 
ATOM     13  C   UNL     1     -22.081  -6.993   7.002  1.00  0.00    -0.028 C 
ATOM     14  C   UNL     1     -20.654  -8.416   8.491  1.00  0.00     0.039 C 
BRANCH  13  15
ATOM     15  C   UNL     1     -21.598  -7.652   5.731  1.00  0.00     0.035 C 
BRANCH  15  16
ATOM     16  C   UNL     1     -20.607  -6.759   4.976  1.00  0.00     0.079 C 
BRANCH  16  17
ATOM     17  C   UNL     1     -19.178  -7.097   5.308  1.00  0.00     0.130 C 
ATOM     18  O   UNL     1     -18.838  -8.266   5.410  1.00  0.00    -0.300 OA
ATOM     19  C   UNL     1     -18.165  -6.009   5.499  1.00  0.00     0.087 C 
ENDBRANCH  16  17
ENDBRANCH  15  16
ENDBRANCH  13  15
ENDBRANCH  11  12
ENDBRANCH   1  11
TORSDOF 9
ENDMDL
MODEL 9
REMARK VINA RESULT:    -4.254      2.855      6.339
REMARK INTER + INTRA:          -8.400
REMARK INTER:                  -5.952
REMARK INTRA:                  -2.448
REMARK UNBOUND:                -1.908
REMARK SMILES CC(=O)CCC=C(C)CCC=C(C)CCC=C(C)C
REMARK SMILES IDX 10 1 11 2 12 3 13 4 14 5 15 6 16 7 18 8 17 9 19 10 9 11 7 12
REMARK SMILES IDX 6 13 8 14 5 15 4 16 2 17 3 18 1 19
REMARK H PARENT
REMARK Flexibility Score: inf
ROOT
ATOM      1  C   UNL     1     -18.101  -3.603   9.807  1.00  0.00     0.032 C 
ENDROOT
BRANCH   1   2
ATOM      2  C   UNL     1     -18.201  -2.098   9.847  1.00  0.00    -0.028 C 
ATOM      3  C   UNL     1     -19.055  -1.410  10.639  1.00  0.00    -0.077 C 
ATOM      4  C   UNL     1     -19.972  -2.106  11.618  1.00  0.00     0.039 C 
BRANCH   3   5
ATOM      5  C   UNL     1     -19.078   0.103  10.558  1.00  0.00     0.034 C 
BRANCH   5   6
ATOM      6  C   UNL     1     -20.458   0.637  10.148  1.00  0.00     0.032 C 
BRANCH   6   7
ATOM      7  C   UNL     1     -20.713   0.459   8.669  1.00  0.00    -0.028 C 
ATOM      8  C   UNL     1     -21.788  -0.424   6.646  1.00  0.00     0.039 C 
ATOM      9  C   UNL     1     -21.607  -0.404   8.142  1.00  0.00    -0.080 C 
ATOM     10  C   UNL     1     -22.406  -1.355   9.002  1.00  0.00     0.039 C 
ENDBRANCH   6   7
ENDBRANCH   5   6
ENDBRANCH   3   5
ENDBRANCH   1   2
BRANCH   1  11
ATOM     11  C   UNL     1     -18.463  -4.133   8.415  1.00  0.00     0.034 C 
BRANCH  11  12
ATOM     12  C   UNL     1     -19.957  -4.342   8.290  1.00  0.00    -0.077 C 
ATOM     13  C   UNL     1     -20.640  -4.847   9.343  1.00  0.00    -0.028 C 
ATOM     14  C   UNL     1     -20.641  -3.985   6.991  1.00  0.00     0.039 C 
BRANCH  13  15
ATOM     15  C   UNL     1     -22.120  -5.150   9.346  1.00  0.00     0.035 C 
BRANCH  15  16
ATOM     16  C   UNL     1     -22.389  -6.647   9.541  1.00  0.00     0.079 C 
BRANCH  16  17
ATOM     17  C   UNL     1     -21.890  -7.464   8.378  1.00  0.00     0.130 C 
ATOM     18  O   UNL     1     -22.329  -7.255   7.256  1.00  0.00    -0.300 OA
ATOM     19  C   UNL     1     -20.848  -8.521   8.583  1.00  0.00     0.087 C 
ENDBRANCH  16  17
ENDBRANCH  15  16
ENDBRANCH  13  15
ENDBRANCH  11  12
ENDBRANCH   1  11
TORSDOF 9
ENDMDL
