MODEL 1
REMARK VINA RESULT:    -3.051      0.000      0.000
REMARK INTER + INTRA:          -3.768
REMARK INTER:                  -3.586
REMARK INTRA:                  -0.182
REMARK UNBOUND:                -0.182
REMARK SMILES O=C([O-])CCC(=O)[O-]
REMARK SMILES IDX 4 1 2 2 1 3 3 4 5 5 6 6 7 7 8 8
REMARK H PARENT
REMARK Flexibility Score: inf
ROOT
ATOM      1  C   UNL     1      21.190 -24.207 -28.310  1.00  0.00     0.059 C 
ENDROOT
BRANCH   1   2
ATOM      2  C   UNL     1      20.151 -24.249 -27.231  1.00  0.00     0.042 C 
ATOM      3  O   UNL     1      20.481 -24.498 -26.043  1.00  0.00    -0.550 OA
ATOM      4  O   UNL     1      18.823 -23.973 -27.534  1.00  0.00    -0.550 OA
ENDBRANCH   1   2
BRANCH   1   5
ATOM      5  C   UNL     1      21.770 -25.599 -28.588  1.00  0.00     0.059 C 
BRANCH   5   6
ATOM      6  C   UNL     1      20.707 -26.559 -29.029  1.00  0.00     0.042 C 
ATOM      7  O   UNL     1      20.160 -26.426 -30.155  1.00  0.00    -0.550 OA
ATOM      8  O   UNL     1      20.349 -27.623 -28.211  1.00  0.00    -0.550 OA
ENDBRANCH   5   6
ENDBRANCH   1   5
TORSDOF 3
ENDMDL
MODEL 2
REMARK VINA RESULT:    -3.042      0.116      1.149
REMARK INTER + INTRA:          -3.758
REMARK INTER:                  -3.573
REMARK INTRA:                  -0.185
REMARK UNBOUND:                -0.182
REMARK SMILES O=C([O-])CCC(=O)[O-]
REMARK SMILES IDX 4 1 2 2 1 3 3 4 5 5 6 6 7 7 8 8
REMARK H PARENT
REMARK Flexibility Score: inf
ROOT
ATOM      1  C   UNL     1      21.222 -24.282 -28.358  1.00  0.00     0.059 C 
ENDROOT
BRANCH   1   2
ATOM      2  C   UNL     1      20.144 -24.278 -27.317  1.00  0.00     0.042 C 
ATOM      3  O   UNL     1      20.419 -24.545 -26.119  1.00  0.00    -0.550 OA
ATOM      4  O   UNL     1      18.842 -23.942 -27.667  1.00  0.00    -0.550 OA
ENDBRANCH   1   2
BRANCH   1   5
ATOM      5  C   UNL     1      21.765 -25.695 -28.602  1.00  0.00     0.059 C 
BRANCH   5   6
ATOM      6  C   UNL     1      20.678 -26.636 -29.024  1.00  0.00     0.042 C 
ATOM      7  O   UNL     1      20.373 -27.619 -28.299  1.00  0.00    -0.550 OA
ATOM      8  O   UNL     1      19.977 -26.404 -30.201  1.00  0.00    -0.550 OA
ENDBRANCH   5   6
ENDBRANCH   1   5
TORSDOF 3
ENDMDL
MODEL 3
REMARK VINA RESULT:    -3.041      0.173      3.349
REMARK INTER + INTRA:          -3.756
REMARK INTER:                  -3.586
REMARK INTRA:                  -0.170
REMARK UNBOUND:                -0.182
REMARK SMILES O=C([O-])CCC(=O)[O-]
REMARK SMILES IDX 4 1 2 2 1 3 3 4 5 5 6 6 7 7 8 8
REMARK H PARENT
REMARK Flexibility Score: inf
ROOT
ATOM      1  C   UNL     1      21.738 -25.634 -28.551  1.00  0.00     0.059 C 
ENDROOT
BRANCH   1   2
ATOM      2  C   UNL     1      20.667 -26.585 -28.993  1.00  0.00     0.042 C 
ATOM      3  O   UNL     1      20.367 -27.578 -28.281  1.00  0.00    -0.550 OA
ATOM      4  O   UNL     1      19.974 -26.350 -30.174  1.00  0.00    -0.550 OA
ENDBRANCH   1   2
BRANCH   1   5
ATOM      5  C   UNL     1      21.187 -24.217 -28.357  1.00  0.00     0.059 C 
BRANCH   5   6
ATOM      6  C   UNL     1      20.246 -24.147 -27.193  1.00  0.00     0.042 C 
ATOM      7  O   UNL     1      20.689 -24.186 -26.016  1.00  0.00    -0.550 OA
ATOM      8  O   UNL     1      18.882 -24.000 -27.411  1.00  0.00    -0.550 OA
ENDBRANCH   5   6
ENDBRANCH   1   5
TORSDOF 3
ENDMDL
MODEL 4
REMARK VINA RESULT:    -3.031      0.280      3.499
REMARK INTER + INTRA:          -3.744
REMARK INTER:                  -3.603
REMARK INTRA:                  -0.141
REMARK UNBOUND:                -0.182
REMARK SMILES O=C([O-])CCC(=O)[O-]
REMARK SMILES IDX 4 1 2 2 1 3 3 4 5 5 6 6 7 7 8 8
REMARK H PARENT
REMARK Flexibility Score: inf
ROOT
ATOM      1  C   UNL     1      21.775 -25.529 -28.563  1.00  0.00     0.059 C 
ENDROOT
BRANCH   1   2
ATOM      2  C   UNL     1      20.779 -26.565 -28.989  1.00  0.00     0.042 C 
ATOM      3  O   UNL     1      20.330 -26.566 -30.164  1.00  0.00    -0.550 OA
ATOM      4  O   UNL     1      20.379 -27.552 -28.097  1.00  0.00    -0.550 OA
ENDBRANCH   1   2
BRANCH   1   5
ATOM      5  C   UNL     1      21.106 -24.170 -28.323  1.00  0.00     0.059 C 
BRANCH   5   6
ATOM      6  C   UNL     1      20.258 -24.185 -27.088  1.00  0.00     0.042 C 
ATOM      7  O   UNL     1      20.789 -24.070 -25.953  1.00  0.00    -0.550 OA
ATOM      8  O   UNL     1      18.877 -24.287 -27.196  1.00  0.00    -0.550 OA
ENDBRANCH   5   6
ENDBRANCH   1   5
TORSDOF 3
ENDMDL
MODEL 5
REMARK VINA RESULT:    -2.967      1.905      2.740
REMARK INTER + INTRA:          -3.670
REMARK INTER:                  -3.534
REMARK INTRA:                  -0.136
REMARK UNBOUND:                -0.182
REMARK SMILES O=C([O-])CCC(=O)[O-]
REMARK SMILES IDX 4 1 2 2 1 3 3 4 5 5 6 6 7 7 8 8
REMARK H PARENT
REMARK Flexibility Score: inf
ROOT
ATOM      1  C   UNL     1      19.212 -24.516 -28.623  1.00  0.00     0.059 C 
ENDROOT
BRANCH   1   2
ATOM      2  C   UNL     1      18.473 -25.669 -29.232  1.00  0.00     0.042 C 
ATOM      3  O   UNL     1      18.478 -25.837 -30.479  1.00  0.00    -0.550 OA
ATOM      4  O   UNL     1      17.812 -26.580 -28.417  1.00  0.00    -0.550 OA
ENDBRANCH   1   2
BRANCH   1   5
ATOM      5  C   UNL     1      20.183 -24.983 -27.532  1.00  0.00     0.059 C 
BRANCH   5   6
ATOM      6  C   UNL     1      21.188 -25.955 -28.071  1.00  0.00     0.042 C 
ATOM      7  O   UNL     1      22.161 -25.546 -28.758  1.00  0.00    -0.550 OA
ATOM      8  O   UNL     1      21.071 -27.308 -27.780  1.00  0.00    -0.550 OA
ENDBRANCH   5   6
ENDBRANCH   1   5
TORSDOF 3
ENDMDL
MODEL 6
REMARK VINA RESULT:    -2.951     11.616     12.078
REMARK INTER + INTRA:          -3.651
REMARK INTER:                  -3.611
REMARK INTRA:                  -0.040
REMARK UNBOUND:                -0.182
REMARK SMILES O=C([O-])CCC(=O)[O-]
REMARK SMILES IDX 4 1 2 2 1 3 3 4 5 5 6 6 7 7 8 8
REMARK H PARENT
REMARK Flexibility Score: inf
ROOT
ATOM      1  C   UNL     1       8.142 -27.535 -28.018  1.00  0.00     0.059 C 
ENDROOT
BRANCH   1   2
ATOM      2  C   UNL     1       9.125 -26.659 -27.303  1.00  0.00     0.042 C 
ATOM      3  O   UNL     1       9.175 -26.658 -26.046  1.00  0.00    -0.550 OA
ATOM      4  O   UNL     1      10.013 -25.875 -28.028  1.00  0.00    -0.550 OA
ENDBRANCH   1   2
BRANCH   1   5
ATOM      5  C   UNL     1       8.746 -28.136 -29.293  1.00  0.00     0.059 C 
BRANCH   5   6
ATOM      6  C   UNL     1       8.411 -29.591 -29.427  1.00  0.00     0.042 C 
ATOM      7  O   UNL     1       7.562 -29.970 -30.275  1.00  0.00    -0.550 OA
ATOM      8  O   UNL     1       9.066 -30.530 -28.641  1.00  0.00    -0.550 OA
ENDBRANCH   5   6
ENDBRANCH   1   5
TORSDOF 3
ENDMDL
MODEL 7
REMARK VINA RESULT:    -2.940     10.824     11.643
REMARK INTER + INTRA:          -3.638
REMARK INTER:                  -3.497
REMARK INTRA:                  -0.141
REMARK UNBOUND:                -0.182
REMARK SMILES O=C([O-])CCC(=O)[O-]
REMARK SMILES IDX 4 1 2 2 1 3 3 4 5 5 6 6 7 7 8 8
REMARK H PARENT
REMARK Flexibility Score: inf
ROOT
ATOM      1  C   UNL     1      10.215 -27.801 -29.406  1.00  0.00     0.059 C 
ENDROOT
BRANCH   1   2
ATOM      2  C   UNL     1       8.806 -28.276 -29.213  1.00  0.00     0.042 C 
ATOM      3  O   UNL     1       8.370 -29.252 -29.877  1.00  0.00    -0.550 OA
ATOM      4  O   UNL     1       7.989 -27.664 -28.271  1.00  0.00    -0.550 OA
ENDBRANCH   1   2
BRANCH   1   5
ATOM      5  C   UNL     1      10.348 -26.927 -30.657  1.00  0.00     0.059 C 
BRANCH   5   6
ATOM      6  C   UNL     1       9.965 -25.505 -30.378  1.00  0.00     0.042 C 
ATOM      7  O   UNL     1       9.444 -24.800 -31.281  1.00  0.00    -0.550 OA
ATOM      8  O   UNL     1      10.148 -24.973 -29.109  1.00  0.00    -0.550 OA
ENDBRANCH   5   6
ENDBRANCH   1   5
TORSDOF 3
ENDMDL
MODEL 8
REMARK VINA RESULT:    -2.916      1.589      1.990
REMARK INTER + INTRA:          -3.610
REMARK INTER:                  -3.581
REMARK INTRA:                  -0.029
REMARK UNBOUND:                -0.182
REMARK SMILES O=C([O-])CCC(=O)[O-]
REMARK SMILES IDX 4 1 2 2 1 3 3 4 5 5 6 6 7 7 8 8
REMARK H PARENT
REMARK Flexibility Score: inf
ROOT
ATOM      1  C   UNL     1      20.791 -24.238 -27.654  1.00  0.00     0.059 C 
ENDROOT
BRANCH   1   2
ATOM      2  C   UNL     1      21.065 -22.789 -27.922  1.00  0.00     0.042 C 
ATOM      3  O   UNL     1      20.312 -22.133 -28.688  1.00  0.00    -0.550 OA
ATOM      4  O   UNL     1      22.129 -22.155 -27.294  1.00  0.00    -0.550 OA
ENDBRANCH   1   2
BRANCH   1   5
ATOM      5  C   UNL     1      21.638 -25.146 -28.553  1.00  0.00     0.059 C 
BRANCH   5   6
ATOM      6  C   UNL     1      20.911 -26.410 -28.898  1.00  0.00     0.042 C 
ATOM      7  O   UNL     1      20.504 -26.606 -30.073  1.00  0.00    -0.550 OA
ATOM      8  O   UNL     1      20.718 -27.387 -27.930  1.00  0.00    -0.550 OA
ENDBRANCH   5   6
ENDBRANCH   1   5
TORSDOF 3
ENDMDL
MODEL 9
REMARK VINA RESULT:    -2.911     10.868     11.544
REMARK INTER + INTRA:          -3.604
REMARK INTER:                  -3.472
REMARK INTRA:                  -0.132
REMARK UNBOUND:                -0.182
REMARK SMILES O=C([O-])CCC(=O)[O-]
REMARK SMILES IDX 4 1 2 2 1 3 3 4 5 5 6 6 7 7 8 8
REMARK H PARENT
REMARK Flexibility Score: inf
ROOT
ATOM      1  C   UNL     1      10.264 -26.924 -30.624  1.00  0.00     0.059 C 
ENDROOT
BRANCH   1   2
ATOM      2  C   UNL     1       9.938 -25.487 -30.352  1.00  0.00     0.042 C 
ATOM      3  O   UNL     1       9.420 -24.774 -31.249  1.00  0.00    -0.550 OA
ATOM      4  O   UNL     1      10.172 -24.948 -29.092  1.00  0.00    -0.550 OA
ENDBRANCH   1   2
BRANCH   1   5
ATOM      5  C   UNL     1      10.151 -27.777 -29.355  1.00  0.00     0.059 C 
BRANCH   5   6
ATOM      6  C   UNL     1       8.755 -28.285 -29.157  1.00  0.00     0.042 C 
ATOM      7  O   UNL     1       7.994 -27.738 -28.317  1.00  0.00    -0.550 OA
ATOM      8  O   UNL     1       8.284 -29.339 -29.929  1.00  0.00    -0.550 OA
ENDBRANCH   5   6
ENDBRANCH   1   5
TORSDOF 3
ENDMDL
