MODEL 1
REMARK VINA RESULT:    -5.081      0.000      0.000
REMARK INTER + INTRA:          -5.229
REMARK INTER:                  -5.229
REMARK INTRA:                   0.000
REMARK UNBOUND:                 0.000
REMARK SMILES O=c1ccc2ccc(O)cc2o1
REMARK SMILES IDX 6 1 7 2 8 3 10 4 11 5 5 6 4 7 3 8 2 9 1 10 12 11 9 12
REMARK H PARENT 9 13
REMARK Flexibility Score: inf
ROOT
ATOM      1  C   UNL     1      21.108  -0.741 -22.064  1.00  0.00     0.016 A 
ATOM      2  C   UNL     1      21.624   0.285 -22.861  1.00  0.00     0.047 A 
ATOM      3  C   UNL     1      21.871   1.550 -22.313  1.00  0.00     0.119 A 
ATOM      4  C   UNL     1      21.601   1.790 -20.959  1.00  0.00     0.094 A 
ATOM      5  C   UNL     1      21.084   0.771 -20.153  1.00  0.00     0.142 A 
ATOM      6  C   UNL     1      20.835  -0.505 -20.709  1.00  0.00     0.018 A 
ATOM      7  C   UNL     1      20.319  -1.505 -19.879  1.00  0.00     0.019 A 
ATOM      8  C   UNL     1      20.066  -1.218 -18.539  1.00  0.00     0.094 A 
ATOM      9  C   UNL     1      20.336   0.067 -18.057  1.00  0.00     0.336 A 
ATOM     10  O   UNL     1      20.115   0.346 -16.849  1.00  0.00    -0.246 OA
ATOM     11  O   UNL     1      20.828   1.001 -18.868  1.00  0.00    -0.423 OA
ENDROOT
BRANCH   3  12
ATOM     12  O   UNL     1      22.385   2.559 -23.124  1.00  0.00    -0.508 OA
ATOM     13  H   UNL     1      23.238   2.428 -23.657  1.00  0.00     0.293 HD
ENDBRANCH   3  12
TORSDOF 1
ENDMDL
MODEL 2
REMARK VINA RESULT:    -5.041     18.541     20.203
REMARK INTER + INTRA:          -5.188
REMARK INTER:                  -5.188
REMARK INTRA:                   0.000
REMARK UNBOUND:                 0.000
REMARK SMILES O=c1ccc2ccc(O)cc2o1
REMARK SMILES IDX 6 1 7 2 8 3 10 4 11 5 5 6 4 7 3 8 2 9 1 10 12 11 9 12
REMARK H PARENT 9 13
REMARK Flexibility Score: inf
ROOT
ATOM      1  C   UNL     1       4.772   4.104  -7.281  1.00  0.00     0.016 A 
ATOM      2  C   UNL     1       5.771   3.130  -7.179  1.00  0.00     0.047 A 
ATOM      3  C   UNL     1       6.856   3.134  -8.064  1.00  0.00     0.119 A 
ATOM      4  C   UNL     1       6.943   4.119  -9.058  1.00  0.00     0.094 A 
ATOM      5  C   UNL     1       5.949   5.096  -9.169  1.00  0.00     0.142 A 
ATOM      6  C   UNL     1       4.855   5.089  -8.274  1.00  0.00     0.018 A 
ATOM      7  C   UNL     1       3.877   6.079  -8.409  1.00  0.00     0.019 A 
ATOM      8  C   UNL     1       4.007   7.037  -9.414  1.00  0.00     0.094 A 
ATOM      9  C   UNL     1       5.117   6.982 -10.264  1.00  0.00     0.336 A 
ATOM     10  O   UNL     1       5.252   7.839 -11.177  1.00  0.00    -0.246 OA
ATOM     11  O   UNL     1       6.034   6.029 -10.114  1.00  0.00    -0.423 OA
ENDROOT
BRANCH   3  12
ATOM     12  O   UNL     1       7.840   2.156  -7.945  1.00  0.00    -0.508 OA
ATOM     13  H   UNL     1       8.801   2.395  -7.725  1.00  0.00     0.293 HD
ENDBRANCH   3  12
TORSDOF 1
ENDMDL
MODEL 3
REMARK VINA RESULT:    -5.005      1.048      4.246
REMARK INTER + INTRA:          -5.151
REMARK INTER:                  -5.151
REMARK INTRA:                   0.000
REMARK UNBOUND:                 0.000
REMARK SMILES O=c1ccc2ccc(O)cc2o1
REMARK SMILES IDX 6 1 7 2 8 3 10 4 11 5 5 6 4 7 3 8 2 9 1 10 12 11 9 12
REMARK H PARENT 9 13
REMARK Flexibility Score: inf
ROOT
ATOM      1  C   UNL     1      19.629  -1.278 -19.163  1.00  0.00     0.016 A 
ATOM      2  C   UNL     1      19.639  -0.796 -17.850  1.00  0.00     0.047 A 
ATOM      3  C   UNL     1      20.370   0.353 -17.524  1.00  0.00     0.119 A 
ATOM      4  C   UNL     1      21.095   1.025 -18.518  1.00  0.00     0.094 A 
ATOM      5  C   UNL     1      21.092   0.551 -19.833  1.00  0.00     0.142 A 
ATOM      6  C   UNL     1      20.354  -0.609 -20.159  1.00  0.00     0.018 A 
ATOM      7  C   UNL     1      20.369  -1.060 -21.483  1.00  0.00     0.019 A 
ATOM      8  C   UNL     1      21.106  -0.358 -22.435  1.00  0.00     0.094 A 
ATOM      9  C   UNL     1      21.813   0.783 -22.041  1.00  0.00     0.336 A 
ATOM     10  O   UNL     1      22.484   1.431 -22.887  1.00  0.00    -0.246 OA
ATOM     11  O   UNL     1      21.782   1.191 -20.774  1.00  0.00    -0.423 OA
ENDROOT
BRANCH   3  12
ATOM     12  O   UNL     1      20.367   0.817 -16.211  1.00  0.00    -0.508 OA
ATOM     13  H   UNL     1      19.592   1.357 -15.842  1.00  0.00     0.293 HD
ENDBRANCH   3  12
TORSDOF 1
ENDMDL
MODEL 4
REMARK VINA RESULT:    -4.966     16.393     19.152
REMARK INTER + INTRA:          -5.111
REMARK INTER:                  -5.111
REMARK INTRA:                   0.000
REMARK UNBOUND:                 0.000
REMARK SMILES O=c1ccc2ccc(O)cc2o1
REMARK SMILES IDX 6 1 7 2 8 3 10 4 11 5 5 6 4 7 3 8 2 9 1 10 12 11 9 12
REMARK H PARENT 9 13
REMARK Flexibility Score: inf
ROOT
ATOM      1  C   UNL     1       8.228  -8.031  -6.547  1.00  0.00     0.016 A 
ATOM      2  C   UNL     1       7.725  -7.118  -5.615  1.00  0.00     0.047 A 
ATOM      3  C   UNL     1       8.232  -5.814  -5.557  1.00  0.00     0.119 A 
ATOM      4  C   UNL     1       9.249  -5.420  -6.438  1.00  0.00     0.094 A 
ATOM      5  C   UNL     1       9.759  -6.326  -7.373  1.00  0.00     0.142 A 
ATOM      6  C   UNL     1       9.246  -7.641  -7.429  1.00  0.00     0.018 A 
ATOM      7  C   UNL     1       9.775  -8.525  -8.375  1.00  0.00     0.019 A 
ATOM      8  C   UNL     1      10.786  -8.087  -9.229  1.00  0.00     0.094 A 
ATOM      9  C   UNL     1      11.246  -6.771  -9.117  1.00  0.00     0.336 A 
ATOM     10  O   UNL     1      12.158  -6.356  -9.880  1.00  0.00    -0.246 OA
ATOM     11  O   UNL     1      10.725  -5.950  -8.208  1.00  0.00    -0.423 OA
ENDROOT
BRANCH   3  12
ATOM     12  O   UNL     1       7.718  -4.920  -4.622  1.00  0.00    -0.508 OA
ATOM     13  H   UNL     1       6.727  -4.884  -4.412  1.00  0.00     0.293 HD
ENDBRANCH   3  12
TORSDOF 1
ENDMDL
MODEL 5
REMARK VINA RESULT:    -4.951      2.564      3.823
REMARK INTER + INTRA:          -5.096
REMARK INTER:                  -5.096
REMARK INTRA:                   0.000
REMARK UNBOUND:                 0.000
REMARK SMILES O=c1ccc2ccc(O)cc2o1
REMARK SMILES IDX 6 1 7 2 8 3 10 4 11 5 5 6 4 7 3 8 2 9 1 10 12 11 9 12
REMARK H PARENT 9 13
REMARK Flexibility Score: inf
ROOT
ATOM      1  C   UNL     1      21.175   0.873 -19.990  1.00  0.00     0.016 A 
ATOM      2  C   UNL     1      20.042   0.133 -20.343  1.00  0.00     0.047 A 
ATOM      3  C   UNL     1      19.262  -0.480 -19.355  1.00  0.00     0.119 A 
ATOM      4  C   UNL     1      19.616  -0.351 -18.005  1.00  0.00     0.094 A 
ATOM      5  C   UNL     1      20.747   0.387 -17.641  1.00  0.00     0.142 A 
ATOM      6  C   UNL     1      21.532   1.004 -18.641  1.00  0.00     0.018 A 
ATOM      7  C   UNL     1      22.657   1.736 -18.248  1.00  0.00     0.019 A 
ATOM      8  C   UNL     1      22.969   1.835 -16.893  1.00  0.00     0.094 A 
ATOM      9  C   UNL     1      22.146   1.199 -15.958  1.00  0.00     0.336 A 
ATOM     10  O   UNL     1      22.410   1.277 -14.730  1.00  0.00    -0.246 OA
ATOM     11  O   UNL     1      21.081   0.508 -16.359  1.00  0.00    -0.423 OA
ENDROOT
BRANCH   3  12
ATOM     12  O   UNL     1      18.138  -1.213 -19.727  1.00  0.00    -0.508 OA
ATOM     13  H   UNL     1      17.468  -1.542 -19.040  1.00  0.00     0.293 HD
ENDBRANCH   3  12
TORSDOF 1
ENDMDL
MODEL 6
REMARK VINA RESULT:    -4.928     15.195     18.132
REMARK INTER + INTRA:          -5.073
REMARK INTER:                  -5.073
REMARK INTRA:                   0.000
REMARK UNBOUND:                 0.000
REMARK SMILES O=c1ccc2ccc(O)cc2o1
REMARK SMILES IDX 6 1 7 2 8 3 10 4 11 5 5 6 4 7 3 8 2 9 1 10 12 11 9 12
REMARK H PARENT 9 13
REMARK Flexibility Score: inf
ROOT
ATOM      1  C   UNL     1      12.800   4.306  -3.450  1.00  0.00     0.016 A 
ATOM      2  C   UNL     1      11.690   3.678  -2.875  1.00  0.00     0.047 A 
ATOM      3  C   UNL     1      11.033   2.643  -3.552  1.00  0.00     0.119 A 
ATOM      4  C   UNL     1      11.489   2.232  -4.813  1.00  0.00     0.094 A 
ATOM      5  C   UNL     1      12.598   2.854  -5.396  1.00  0.00     0.142 A 
ATOM      6  C   UNL     1      13.259   3.898  -4.711  1.00  0.00     0.018 A 
ATOM      7  C   UNL     1      14.364   4.501  -5.319  1.00  0.00     0.019 A 
ATOM      8  C   UNL     1      14.780   4.058  -6.573  1.00  0.00     0.094 A 
ATOM      9  C   UNL     1      14.078   3.019  -7.193  1.00  0.00     0.336 A 
ATOM     10  O   UNL     1      14.438   2.605  -8.327  1.00  0.00    -0.246 OA
ATOM     11  O   UNL     1      13.028   2.463  -6.593  1.00  0.00    -0.423 OA
ENDROOT
BRANCH   3  12
ATOM     12  O   UNL     1       9.930   2.031  -2.963  1.00  0.00    -0.508 OA
ATOM     13  H   UNL     1       9.582   1.137  -3.291  1.00  0.00     0.293 HD
ENDBRANCH   3  12
TORSDOF 1
ENDMDL
MODEL 7
REMARK VINA RESULT:    -4.883     18.205     20.012
REMARK INTER + INTRA:          -5.026
REMARK INTER:                  -5.026
REMARK INTRA:                   0.000
REMARK UNBOUND:                 0.000
REMARK SMILES O=c1ccc2ccc(O)cc2o1
REMARK SMILES IDX 6 1 7 2 8 3 10 4 11 5 5 6 4 7 3 8 2 9 1 10 12 11 9 12
REMARK H PARENT 9 13
REMARK Flexibility Score: inf
ROOT
ATOM      1  C   UNL     1       7.971  -8.020  -5.896  1.00  0.00     0.016 A 
ATOM      2  C   UNL     1       7.959  -6.929  -5.022  1.00  0.00     0.047 A 
ATOM      3  C   UNL     1       7.991  -5.621  -5.522  1.00  0.00     0.119 A 
ATOM      4  C   UNL     1       8.035  -5.403  -6.906  1.00  0.00     0.094 A 
ATOM      5  C   UNL     1       8.049  -6.488  -7.789  1.00  0.00     0.142 A 
ATOM      6  C   UNL     1       8.016  -7.806  -7.281  1.00  0.00     0.018 A 
ATOM      7  C   UNL     1       8.030  -8.871  -8.187  1.00  0.00     0.019 A 
ATOM      8  C   UNL     1       8.076  -8.604  -9.555  1.00  0.00     0.094 A 
ATOM      9  C   UNL     1       8.106  -7.273  -9.986  1.00  0.00     0.336 A 
ATOM     10  O   UNL     1       8.146  -7.012 -11.217  1.00  0.00    -0.246 OA
ATOM     11  O   UNL     1       8.092  -6.278  -9.102  1.00  0.00    -0.423 OA
ENDROOT
BRANCH   3  12
ATOM     12  O   UNL     1       7.978  -4.548  -4.635  1.00  0.00    -0.508 OA
ATOM     13  H   UNL     1       7.833  -3.597  -4.955  1.00  0.00     0.293 HD
ENDBRANCH   3  12
TORSDOF 1
ENDMDL
MODEL 8
REMARK VINA RESULT:    -4.808     16.302     18.307
REMARK INTER + INTRA:          -4.949
REMARK INTER:                  -4.949
REMARK INTRA:                   0.000
REMARK UNBOUND:                 0.000
REMARK SMILES O=c1ccc2ccc(O)cc2o1
REMARK SMILES IDX 6 1 7 2 8 3 10 4 11 5 5 6 4 7 3 8 2 9 1 10 12 11 9 12
REMARK H PARENT 9 13
REMARK Flexibility Score: inf
ROOT
ATOM      1  C   UNL     1      10.251  -6.260  -7.718  1.00  0.00     0.016 A 
ATOM      2  C   UNL     1       9.537  -5.854  -6.586  1.00  0.00     0.047 A 
ATOM      3  C   UNL     1       8.233  -5.359  -6.711  1.00  0.00     0.119 A 
ATOM      4  C   UNL     1       7.638  -5.269  -7.978  1.00  0.00     0.094 A 
ATOM      5  C   UNL     1       8.344  -5.671  -9.116  1.00  0.00     0.142 A 
ATOM      6  C   UNL     1       9.659  -6.170  -8.986  1.00  0.00     0.018 A 
ATOM      7  C   UNL     1      10.340  -6.566 -10.142  1.00  0.00     0.019 A 
ATOM      8  C   UNL     1       9.707  -6.457 -11.379  1.00  0.00     0.094 A 
ATOM      9  C   UNL     1       8.403  -5.954 -11.432  1.00  0.00     0.336 A 
ATOM     10  O   UNL     1       7.814  -5.848 -12.541  1.00  0.00    -0.246 OA
ATOM     11  O   UNL     1       7.777  -5.584 -10.317  1.00  0.00    -0.423 OA
ENDROOT
BRANCH   3  12
ATOM     12  O   UNL     1       7.539  -4.961  -5.572  1.00  0.00    -0.508 OA
ATOM     13  H   UNL     1       7.581  -5.496  -4.712  1.00  0.00     0.293 HD
ENDBRANCH   3  12
TORSDOF 1
ENDMDL
MODEL 9
REMARK VINA RESULT:    -4.784     16.912     18.638
REMARK INTER + INTRA:          -4.924
REMARK INTER:                  -4.924
REMARK INTRA:                   0.000
REMARK UNBOUND:                 0.000
REMARK SMILES O=c1ccc2ccc(O)cc2o1
REMARK SMILES IDX 6 1 7 2 8 3 10 4 11 5 5 6 4 7 3 8 2 9 1 10 12 11 9 12
REMARK H PARENT 9 13
REMARK Flexibility Score: inf
ROOT
ATOM      1  C   UNL     1       8.006  -4.863 -10.050  1.00  0.00     0.016 A 
ATOM      2  C   UNL     1       8.077  -5.314 -11.372  1.00  0.00     0.047 A 
ATOM      3  C   UNL     1       8.149  -6.684 -11.649  1.00  0.00     0.119 A 
ATOM      4  C   UNL     1       8.149  -7.611 -10.597  1.00  0.00     0.094 A 
ATOM      5  C   UNL     1       8.078  -7.170  -9.272  1.00  0.00     0.142 A 
ATOM      6  C   UNL     1       8.006  -5.786  -8.996  1.00  0.00     0.018 A 
ATOM      7  C   UNL     1       7.935  -5.375  -7.661  1.00  0.00     0.019 A 
ATOM      8  C   UNL     1       7.938  -6.333  -6.649  1.00  0.00     0.094 A 
ATOM      9  C   UNL     1       8.012  -7.686  -6.996  1.00  0.00     0.336 A 
ATOM     10  O   UNL     1       8.015  -8.568  -6.096  1.00  0.00    -0.246 OA
ATOM     11  O   UNL     1       8.078  -8.051  -8.275  1.00  0.00    -0.423 OA
ENDROOT
BRANCH   3  12
ATOM     12  O   UNL     1       8.220  -7.113 -12.972  1.00  0.00    -0.508 OA
ATOM     13  H   UNL     1       8.807  -6.643 -13.651  1.00  0.00     0.293 HD
ENDBRANCH   3  12
TORSDOF 1
ENDMDL
