MODEL 1
REMARK VINA RESULT:    -1.804      0.000      0.000
REMARK INTER + INTRA:          -1.804
REMARK INTER:                  -1.804
REMARK INTRA:                   0.000
REMARK UNBOUND:                 0.000
REMARK SMILES CC(=O)[O-]
REMARK SMILES IDX 1 1 2 2 3 3 4 4
REMARK H PARENT
REMARK Flexibility Score: inf
ROOT
ATOM      1  C   UNL     1     -17.767  44.986  -8.647  1.00  0.00     0.063 C 
ATOM      2  C   UNL     1     -18.644  45.368  -7.503  1.00  0.00     0.038 C 
ATOM      3  O   UNL     1     -19.125  44.479  -6.752  1.00  0.00    -0.550 OA
ATOM      4  O   UNL     1     -18.890  46.708  -7.231  1.00  0.00    -0.550 OA
ENDROOT
TORSDOF 0
ENDMDL
MODEL 2
REMARK VINA RESULT:    -1.757      1.389      1.989
REMARK INTER + INTRA:          -1.757
REMARK INTER:                  -1.757
REMARK INTRA:                   0.000
REMARK UNBOUND:                 0.000
REMARK SMILES CC(=O)[O-]
REMARK SMILES IDX 1 1 2 2 3 3 4 4
REMARK H PARENT
REMARK Flexibility Score: inf
ROOT
ATOM      1  C   UNL     1     -19.125  44.219  -6.990  1.00  0.00     0.063 C 
ATOM      2  C   UNL     1     -18.526  45.414  -7.652  1.00  0.00     0.038 C 
ATOM      3  O   UNL     1     -18.939  46.568  -7.363  1.00  0.00    -0.550 OA
ATOM      4  O   UNL     1     -17.476  45.261  -8.549  1.00  0.00    -0.550 OA
ENDROOT
TORSDOF 0
ENDMDL
MODEL 3
REMARK VINA RESULT:    -1.669     26.142     26.280
REMARK INTER + INTRA:          -1.669
REMARK INTER:                  -1.669
REMARK INTRA:                   0.000
REMARK UNBOUND:                 0.000
REMARK SMILES CC(=O)[O-]
REMARK SMILES IDX 1 1 2 2 3 3 4 4
REMARK H PARENT
REMARK Flexibility Score: inf
ROOT
ATOM      1  C   UNL     1      -1.124  51.039   9.877  1.00  0.00     0.063 C 
ATOM      2  C   UNL     1       0.358  51.106   9.724  1.00  0.00     0.038 C 
ATOM      3  O   UNL     1       1.078  50.152  10.121  1.00  0.00    -0.550 OA
ATOM      4  O   UNL     1       0.944  52.197   9.095  1.00  0.00    -0.550 OA
ENDROOT
TORSDOF 0
ENDMDL
MODEL 4
REMARK VINA RESULT:    -1.595     26.189     26.358
REMARK INTER + INTRA:          -1.595
REMARK INTER:                  -1.595
REMARK INTRA:                   0.000
REMARK UNBOUND:                 0.000
REMARK SMILES CC(=O)[O-]
REMARK SMILES IDX 1 1 2 2 3 3 4 4
REMARK H PARENT
REMARK Flexibility Score: inf
ROOT
ATOM      1  C   UNL     1       1.124  50.236   9.679  1.00  0.00     0.063 C 
ATOM      2  C   UNL     1       0.465  51.564   9.519  1.00  0.00     0.038 C 
ATOM      3  O   UNL     1       1.059  52.494   8.911  1.00  0.00    -0.550 OA
ATOM      4  O   UNL     1      -0.825  51.763   9.993  1.00  0.00    -0.550 OA
ENDROOT
TORSDOF 0
ENDMDL
MODEL 5
REMARK VINA RESULT:    -1.585     26.192     26.322
REMARK INTER + INTRA:          -1.585
REMARK INTER:                  -1.585
REMARK INTRA:                   0.000
REMARK UNBOUND:                 0.000
REMARK SMILES CC(=O)[O-]
REMARK SMILES IDX 1 1 2 2 3 3 4 4
REMARK H PARENT
REMARK Flexibility Score: inf
ROOT
ATOM      1  C   UNL     1       1.059  52.197   9.043  1.00  0.00     0.063 C 
ATOM      2  C   UNL     1       0.380  51.038   9.692  1.00  0.00     0.038 C 
ATOM      3  O   UNL     1      -0.873  51.027   9.813  1.00  0.00    -0.550 OA
ATOM      4  O   UNL     1       1.124  49.944  10.117  1.00  0.00    -0.550 OA
ENDROOT
TORSDOF 0
ENDMDL
MODEL 6
REMARK VINA RESULT:    -1.526     23.934     24.128
REMARK INTER + INTRA:          -1.526
REMARK INTER:                  -1.526
REMARK INTRA:                   0.000
REMARK UNBOUND:                 0.000
REMARK SMILES CC(=O)[O-]
REMARK SMILES IDX 1 1 2 2 3 3 4 4
REMARK H PARENT
REMARK Flexibility Score: inf
ROOT
ATOM      1  C   UNL     1      -1.429  51.012   9.759  1.00  0.00     0.063 C 
ATOM      2  C   UNL     1      -2.637  51.759   9.302  1.00  0.00     0.038 C 
ATOM      3  O   UNL     1      -3.303  52.442  10.123  1.00  0.00    -0.550 OA
ATOM      4  O   UNL     1      -2.998  51.745   7.961  1.00  0.00    -0.550 OA
ENDROOT
TORSDOF 0
ENDMDL
MODEL 7
REMARK VINA RESULT:    -1.347     22.402     22.721
REMARK INTER + INTRA:          -1.347
REMARK INTER:                  -1.347
REMARK INTRA:                   0.000
REMARK UNBOUND:                 0.000
REMARK SMILES CC(=O)[O-]
REMARK SMILES IDX 1 1 2 2 3 3 4 4
REMARK H PARENT
REMARK Flexibility Score: inf
ROOT
ATOM      1  C   UNL     1      -5.806  53.999   9.931  1.00  0.00     0.063 C 
ATOM      2  C   UNL     1      -7.290  54.045  10.081  1.00  0.00     0.038 C 
ATOM      3  O   UNL     1      -7.886  55.153  10.121  1.00  0.00    -0.550 OA
ATOM      4  O   UNL     1      -8.022  52.865  10.125  1.00  0.00    -0.550 OA
ENDROOT
TORSDOF 0
ENDMDL
MODEL 8
REMARK VINA RESULT:    -1.115     10.192     10.379
REMARK INTER + INTRA:          -1.115
REMARK INTER:                  -1.115
REMARK INTRA:                   0.000
REMARK UNBOUND:                 0.000
REMARK SMILES CC(=O)[O-]
REMARK SMILES IDX 1 1 2 2 3 3 4 4
REMARK H PARENT
REMARK Flexibility Score: inf
ROOT
ATOM      1  C   UNL     1      -9.265  49.933  -2.238  1.00  0.00     0.063 C 
ATOM      2  C   UNL     1     -10.438  49.145  -2.715  1.00  0.00     0.038 C 
ATOM      3  O   UNL     1     -10.374  48.515  -3.804  1.00  0.00    -0.550 OA
ATOM      4  O   UNL     1     -11.584  49.060  -1.935  1.00  0.00    -0.550 OA
ENDROOT
TORSDOF 0
ENDMDL
