MODEL 1
REMARK VINA RESULT:    -4.354      0.000      0.000
REMARK INTER + INTRA:          -6.309
REMARK INTER:                  -5.881
REMARK INTRA:                  -0.428
REMARK UNBOUND:                -0.428
REMARK SMILES CCCCCCCC(=O)[O-]
REMARK SMILES IDX 5 1 6 2 7 3 8 4 9 5 10 6 4 7 3 8 2 9 1 10
REMARK H PARENT
REMARK Flexibility Score: inf
ROOT
ATOM      1  C   UNL     1      19.868  67.779  33.896  1.00  0.00     0.000 C 
ENDROOT
BRANCH   1   2
ATOM      2  C   UNL     1      20.002  69.273  33.560  1.00  0.00     0.006 C 
BRANCH   2   3
ATOM      3  C   UNL     1      19.150  70.153  34.482  1.00  0.00     0.053 C 
BRANCH   3   4
ATOM      4  C   UNL     1      17.685  69.985  34.212  1.00  0.00     0.041 C 
ATOM      5  O   UNL     1      17.162  70.518  33.199  1.00  0.00    -0.550 OA
ATOM      6  O   UNL     1      16.894  69.267  35.099  1.00  0.00    -0.550 OA
ENDBRANCH   3   4
ENDBRANCH   2   3
ENDBRANCH   1   2
BRANCH   1   7
ATOM      7  C   UNL     1      19.160  67.023  32.765  1.00  0.00     0.000 C 
BRANCH   7   8
ATOM      8  C   UNL     1      18.286  65.889  33.323  1.00  0.00    -0.000 C 
BRANCH   8   9
ATOM      9  C   UNL     1      18.111  65.974  34.847  1.00  0.00    -0.003 C 
ATOM     10  C   UNL     1      18.582  64.711  35.567  1.00  0.00     0.004 C 
ENDBRANCH   8   9
ENDBRANCH   7   8
ENDBRANCH   1   7
TORSDOF 6
ENDMDL
MODEL 2
REMARK VINA RESULT:    -4.257      2.195      4.380
REMARK INTER + INTRA:          -6.178
REMARK INTER:                  -5.565
REMARK INTRA:                  -0.613
REMARK UNBOUND:                -0.428
REMARK SMILES CCCCCCCC(=O)[O-]
REMARK SMILES IDX 5 1 6 2 7 3 8 4 9 5 10 6 4 7 3 8 2 9 1 10
REMARK H PARENT
REMARK Flexibility Score: inf
ROOT
ATOM      1  C   UNL     1      16.830  68.640  34.126  1.00  0.00     0.000 C 
ENDROOT
BRANCH   1   2
ATOM      2  C   UNL     1      17.209  67.717  35.295  1.00  0.00     0.006 C 
BRANCH   2   3
ATOM      3  C   UNL     1      17.791  66.382  34.815  1.00  0.00     0.053 C 
BRANCH   3   4
ATOM      4  C   UNL     1      19.040  66.578  34.011  1.00  0.00     0.041 C 
ATOM      5  O   UNL     1      20.120  66.886  34.581  1.00  0.00    -0.550 OA
ATOM      6  O   UNL     1      19.003  66.453  32.628  1.00  0.00    -0.550 OA
ENDBRANCH   3   4
ENDBRANCH   2   3
ENDBRANCH   1   2
BRANCH   1   7
ATOM      7  C   UNL     1      17.408  70.046  34.328  1.00  0.00     0.000 C 
BRANCH   7   8
ATOM      8  C   UNL     1      18.457  70.055  35.450  1.00  0.00    -0.000 C 
BRANCH   8   9
ATOM      9  C   UNL     1      19.869  70.374  34.936  1.00  0.00    -0.003 C 
ATOM     10  C   UNL     1      19.980  70.282  33.415  1.00  0.00     0.004 C 
ENDBRANCH   8   9
ENDBRANCH   7   8
ENDBRANCH   1   7
TORSDOF 6
ENDMDL
MODEL 3
REMARK VINA RESULT:    -4.208      1.015      1.649
REMARK INTER + INTRA:          -6.112
REMARK INTER:                  -5.529
REMARK INTRA:                  -0.583
REMARK UNBOUND:                -0.428
REMARK SMILES CCCCCCCC(=O)[O-]
REMARK SMILES IDX 5 1 6 2 7 3 8 4 9 5 10 6 4 7 3 8 2 9 1 10
REMARK H PARENT
REMARK Flexibility Score: inf
ROOT
ATOM      1  C   UNL     1      20.353  68.338  35.745  1.00  0.00     0.000 C 
ENDROOT
BRANCH   1   2
ATOM      2  C   UNL     1      20.192  69.513  34.769  1.00  0.00     0.006 C 
BRANCH   2   3
ATOM      3  C   UNL     1      18.976  70.384  35.104  1.00  0.00     0.053 C 
BRANCH   3   4
ATOM      4  C   UNL     1      17.742  69.908  34.399  1.00  0.00     0.041 C 
ATOM      5  O   UNL     1      17.450  70.356  33.259  1.00  0.00    -0.550 OA
ATOM      6  O   UNL     1      16.897  68.995  35.017  1.00  0.00    -0.550 OA
ENDBRANCH   3   4
ENDBRANCH   2   3
ENDBRANCH   1   2
BRANCH   1   7
ATOM      7  C   UNL     1      20.288  66.996  35.006  1.00  0.00     0.000 C 
BRANCH   7   8
ATOM      8  C   UNL     1      19.144  66.125  35.547  1.00  0.00    -0.000 C 
BRANCH   8   9
ATOM      9  C   UNL     1      18.124  65.748  34.461  1.00  0.00    -0.003 C 
ATOM     10  C   UNL     1      18.484  66.317  33.089  1.00  0.00     0.004 C 
ENDBRANCH   8   9
ENDBRANCH   7   8
ENDBRANCH   1   7
TORSDOF 6
ENDMDL
MODEL 4
REMARK VINA RESULT:    -4.100      2.018      2.804
REMARK INTER + INTRA:          -5.966
REMARK INTER:                  -5.572
REMARK INTRA:                  -0.394
REMARK UNBOUND:                -0.428
REMARK SMILES CCCCCCCC(=O)[O-]
REMARK SMILES IDX 5 1 6 2 7 3 8 4 9 5 10 6 4 7 3 8 2 9 1 10
REMARK H PARENT
REMARK Flexibility Score: inf
ROOT
ATOM      1  C   UNL     1      17.027  68.755  34.409  1.00  0.00     0.000 C 
ENDROOT
BRANCH   1   2
ATOM      2  C   UNL     1      17.586  70.113  34.863  1.00  0.00     0.006 C 
BRANCH   2   3
ATOM      3  C   UNL     1      18.863  69.964  35.699  1.00  0.00     0.053 C 
BRANCH   3   4
ATOM      4  C   UNL     1      20.084  69.876  34.836  1.00  0.00     0.041 C 
ATOM      5  O   UNL     1      21.149  69.381  35.291  1.00  0.00    -0.550 OA
ATOM      6  O   UNL     1      20.056  70.371  33.538  1.00  0.00    -0.550 OA
ENDBRANCH   3   4
ENDBRANCH   2   3
ENDBRANCH   1   2
BRANCH   1   7
ATOM      7  C   UNL     1      17.367  67.655  35.422  1.00  0.00     0.000 C 
BRANCH   7   8
ATOM      8  C   UNL     1      17.696  66.334  34.709  1.00  0.00    -0.000 C 
BRANCH   8   9
ATOM      9  C   UNL     1      18.636  65.438  35.530  1.00  0.00    -0.003 C 
ATOM     10  C   UNL     1      20.002  66.079  35.772  1.00  0.00     0.004 C 
ENDBRANCH   8   9
ENDBRANCH   7   8
ENDBRANCH   1   7
TORSDOF 6
ENDMDL
MODEL 5
REMARK VINA RESULT:    -4.070     12.909     14.067
REMARK INTER + INTRA:          -5.926
REMARK INTER:                  -5.282
REMARK INTRA:                  -0.644
REMARK UNBOUND:                -0.428
REMARK SMILES CCCCCCCC(=O)[O-]
REMARK SMILES IDX 5 1 6 2 7 3 8 4 9 5 10 6 4 7 3 8 2 9 1 10
REMARK H PARENT
REMARK Flexibility Score: inf
ROOT
ATOM      1  C   UNL     1      10.806  77.955  32.893  1.00  0.00     0.000 C 
ENDROOT
BRANCH   1   2
ATOM      2  C   UNL     1      10.718  79.473  33.109  1.00  0.00     0.006 C 
BRANCH   2   3
ATOM      3  C   UNL     1       9.706  80.135  32.165  1.00  0.00     0.053 C 
BRANCH   3   4
ATOM      4  C   UNL     1       8.342  79.532  32.302  1.00  0.00     0.041 C 
ATOM      5  O   UNL     1       7.850  78.855  31.361  1.00  0.00    -0.550 OA
ATOM      6  O   UNL     1       7.600  79.744  33.457  1.00  0.00    -0.550 OA
ENDBRANCH   3   4
ENDBRANCH   2   3
ENDBRANCH   1   2
BRANCH   1   7
ATOM      7  C   UNL     1      11.462  77.628  31.546  1.00  0.00     0.000 C 
BRANCH   7   8
ATOM      8  C   UNL     1      10.586  76.670  30.725  1.00  0.00    -0.000 C 
BRANCH   8   9
ATOM      9  C   UNL     1      10.258  77.218  29.328  1.00  0.00    -0.003 C 
ATOM     10  C   UNL     1      10.927  78.564  29.049  1.00  0.00     0.004 C 
ENDBRANCH   8   9
ENDBRANCH   7   8
ENDBRANCH   1   7
TORSDOF 6
ENDMDL
MODEL 6
REMARK VINA RESULT:    -4.068     12.522     14.150
REMARK INTER + INTRA:          -5.922
REMARK INTER:                  -5.358
REMARK INTRA:                  -0.564
REMARK UNBOUND:                -0.428
REMARK SMILES CCCCCCCC(=O)[O-]
REMARK SMILES IDX 5 1 6 2 7 3 8 4 9 5 10 6 4 7 3 8 2 9 1 10
REMARK H PARENT
REMARK Flexibility Score: inf
ROOT
ATOM      1  C   UNL     1      10.969  77.674  33.215  1.00  0.00     0.000 C 
ENDROOT
BRANCH   1   2
ATOM      2  C   UNL     1      11.202  77.949  31.722  1.00  0.00     0.006 C 
BRANCH   2   3
ATOM      3  C   UNL     1      10.491  76.928  30.826  1.00  0.00     0.053 C 
BRANCH   3   4
ATOM      4  C   UNL     1       9.065  76.725  31.239  1.00  0.00     0.041 C 
ATOM      5  O   UNL     1       8.676  75.596  31.640  1.00  0.00    -0.550 OA
ATOM      6  O   UNL     1       8.159  77.774  31.149  1.00  0.00    -0.550 OA
ENDBRANCH   3   4
ENDBRANCH   2   3
ENDBRANCH   1   2
BRANCH   1   7
ATOM      7  C   UNL     1      10.435  78.923  33.927  1.00  0.00     0.000 C 
BRANCH   7   8
ATOM      8  C   UNL     1      10.370  80.119  32.966  1.00  0.00    -0.000 C 
BRANCH   8   9
ATOM      9  C   UNL     1       8.964  80.733  32.880  1.00  0.00    -0.003 C 
ATOM     10  C   UNL     1       7.973  80.075  33.839  1.00  0.00     0.004 C 
ENDBRANCH   8   9
ENDBRANCH   7   8
ENDBRANCH   1   7
TORSDOF 6
ENDMDL
MODEL 7
REMARK VINA RESULT:    -4.052     17.625     19.106
REMARK INTER + INTRA:          -5.901
REMARK INTER:                  -5.273
REMARK INTRA:                  -0.628
REMARK UNBOUND:                -0.428
REMARK SMILES CCCCCCCC(=O)[O-]
REMARK SMILES IDX 5 1 6 2 7 3 8 4 9 5 10 6 4 7 3 8 2 9 1 10
REMARK H PARENT
REMARK Flexibility Score: inf
ROOT
ATOM      1  C   UNL     1      18.436  77.245  16.839  1.00  0.00     0.000 C 
ENDROOT
BRANCH   1   2
ATOM      2  C   UNL     1      18.548  76.205  17.964  1.00  0.00     0.006 C 
BRANCH   2   3
ATOM      3  C   UNL     1      19.166  76.792  19.238  1.00  0.00     0.053 C 
BRANCH   3   4
ATOM      4  C   UNL     1      20.480  76.149  19.565  1.00  0.00     0.041 C 
ATOM      5  O   UNL     1      20.523  75.141  20.318  1.00  0.00    -0.550 OA
ATOM      6  O   UNL     1      21.659  76.685  19.064  1.00  0.00    -0.550 OA
ENDBRANCH   3   4
ENDBRANCH   2   3
ENDBRANCH   1   2
BRANCH   1   7
ATOM      7  C   UNL     1      19.666  77.200  15.924  1.00  0.00     0.000 C 
BRANCH   7   8
ATOM      8  C   UNL     1      20.584  78.406  16.176  1.00  0.00    -0.000 C 
BRANCH   8   9
ATOM      9  C   UNL     1      19.838  79.597  16.796  1.00  0.00    -0.003 C 
ATOM     10  C   UNL     1      20.498  80.105  18.078  1.00  0.00     0.004 C 
ENDBRANCH   8   9
ENDBRANCH   7   8
ENDBRANCH   1   7
TORSDOF 6
ENDMDL
MODEL 8
REMARK VINA RESULT:    -4.033      1.824      4.035
REMARK INTER + INTRA:          -5.875
REMARK INTER:                  -5.492
REMARK INTRA:                  -0.383
REMARK UNBOUND:                -0.428
REMARK SMILES CCCCCCCC(=O)[O-]
REMARK SMILES IDX 5 1 6 2 7 3 8 4 9 5 10 6 4 7 3 8 2 9 1 10
REMARK H PARENT
REMARK Flexibility Score: inf
ROOT
ATOM      1  C   UNL     1      19.968  67.959  33.756  1.00  0.00     0.000 C 
ENDROOT
BRANCH   1   2
ATOM      2  C   UNL     1      20.300  67.596  35.211  1.00  0.00     0.006 C 
BRANCH   2   3
ATOM      3  C   UNL     1      19.729  66.231  35.614  1.00  0.00     0.053 C 
BRANCH   3   4
ATOM      4  C   UNL     1      18.340  66.033  35.089  1.00  0.00     0.041 C 
ATOM      5  O   UNL     1      18.107  65.146  34.227  1.00  0.00    -0.550 OA
ATOM      6  O   UNL     1      17.308  66.852  35.529  1.00  0.00    -0.550 OA
ENDBRANCH   3   4
ENDBRANCH   2   3
ENDBRANCH   1   2
BRANCH   1   7
ATOM      7  C   UNL     1      19.890  69.479  33.573  1.00  0.00     0.000 C 
BRANCH   7   8
ATOM      8  C   UNL     1      19.185  70.142  34.767  1.00  0.00    -0.000 C 
BRANCH   8   9
ATOM      9  C   UNL     1      17.671  70.288  34.552  1.00  0.00    -0.003 C 
ATOM     10  C   UNL     1      17.282  70.303  33.074  1.00  0.00     0.004 C 
ENDBRANCH   8   9
ENDBRANCH   7   8
ENDBRANCH   1   7
TORSDOF 6
ENDMDL
MODEL 9
REMARK VINA RESULT:    -3.948     12.619     14.216
REMARK INTER + INTRA:          -5.760
REMARK INTER:                  -5.166
REMARK INTRA:                  -0.594
REMARK UNBOUND:                -0.428
REMARK SMILES CCCCCCCC(=O)[O-]
REMARK SMILES IDX 5 1 6 2 7 3 8 4 9 5 10 6 4 7 3 8 2 9 1 10
REMARK H PARENT
REMARK Flexibility Score: inf
ROOT
ATOM      1  C   UNL     1       8.709  79.329  31.884  1.00  0.00     0.000 C 
ENDROOT
BRANCH   1   2
ATOM      2  C   UNL     1       8.196  77.956  31.423  1.00  0.00     0.006 C 
BRANCH   2   3
ATOM      3  C   UNL     1       9.231  76.846  31.646  1.00  0.00     0.053 C 
BRANCH   3   4
ATOM      4  C   UNL     1      10.455  77.053  30.807  1.00  0.00     0.041 C 
ATOM      5  O   UNL     1      10.403  76.899  29.559  1.00  0.00    -0.550 OA
ATOM      6  O   UNL     1      11.662  77.383  31.410  1.00  0.00    -0.550 OA
ENDBRANCH   3   4
ENDBRANCH   2   3
ENDBRANCH   1   2
BRANCH   1   7
ATOM      7  C   UNL     1       7.903  79.842  33.084  1.00  0.00     0.000 C 
BRANCH   7   8
ATOM      8  C   UNL     1       8.742  79.795  34.370  1.00  0.00    -0.000 C 
BRANCH   8   9
ATOM      9  C   UNL     1      10.226  79.508  34.098  1.00  0.00    -0.003 C 
ATOM     10  C   UNL     1      10.722  78.244  34.800  1.00  0.00     0.004 C 
ENDBRANCH   8   9
ENDBRANCH   7   8
ENDBRANCH   1   7
TORSDOF 6
ENDMDL
