MODEL 1
REMARK VINA RESULT:    -3.177      0.000      0.000
REMARK INTER + INTRA:          -3.817
REMARK INTER:                  -3.734
REMARK INTRA:                  -0.082
REMARK UNBOUND:                -0.082
REMARK SMILES CCCCC(=O)[O-]
REMARK SMILES IDX 4 1 5 2 6 3 7 4 3 5 2 6 1 7
REMARK H PARENT
REMARK Flexibility Score: inf
ROOT
ATOM      1  C   UNL     1     -10.497   0.614  14.128  1.00  0.00     0.053 C 
ENDROOT
BRANCH   1   2
ATOM      2  C   UNL     1     -11.962   0.313  14.211  1.00  0.00     0.041 C 
ATOM      3  O   UNL     1     -12.620   0.638  15.233  1.00  0.00    -0.550 OA
ATOM      4  O   UNL     1     -12.606  -0.298  13.142  1.00  0.00    -0.550 OA
ENDBRANCH   1   2
BRANCH   1   5
ATOM      5  C   UNL     1      -9.903   0.932  15.507  1.00  0.00     0.006 C 
BRANCH   5   6
ATOM      6  C   UNL     1      -9.465   2.399  15.625  1.00  0.00    -0.003 C 
ATOM      7  C   UNL     1     -10.619   3.279  16.100  1.00  0.00     0.004 C 
ENDBRANCH   5   6
ENDBRANCH   1   5
TORSDOF 3
ENDMDL
MODEL 2
REMARK VINA RESULT:    -3.130      1.460      1.834
REMARK INTER + INTRA:          -3.761
REMARK INTER:                  -3.714
REMARK INTRA:                  -0.047
REMARK UNBOUND:                -0.082
REMARK SMILES CCCCC(=O)[O-]
REMARK SMILES IDX 4 1 5 2 6 3 7 4 3 5 2 6 1 7
REMARK H PARENT
REMARK Flexibility Score: inf
ROOT
ATOM      1  C   UNL     1     -12.384   0.972  15.330  1.00  0.00     0.053 C 
ENDROOT
BRANCH   1   2
ATOM      2  C   UNL     1     -11.881   0.228  14.131  1.00  0.00     0.041 C 
ATOM      3  O   UNL     1     -10.645   0.141  13.909  1.00  0.00    -0.550 OA
ATOM      4  O   UNL     1     -12.780  -0.400  13.277  1.00  0.00    -0.550 OA
ENDBRANCH   1   2
BRANCH   1   5
ATOM      5  C   UNL     1     -11.248   1.694  16.068  1.00  0.00     0.006 C 
BRANCH   5   6
ATOM      6  C   UNL     1     -11.435   3.218  16.072  1.00  0.00    -0.003 C 
ATOM      7  C   UNL     1     -12.702   3.613  16.826  1.00  0.00     0.004 C 
ENDBRANCH   5   6
ENDBRANCH   1   5
TORSDOF 3
ENDMDL
MODEL 3
REMARK VINA RESULT:    -3.127      1.490      1.993
REMARK INTER + INTRA:          -3.758
REMARK INTER:                  -3.711
REMARK INTRA:                  -0.047
REMARK UNBOUND:                -0.082
REMARK SMILES CCCCC(=O)[O-]
REMARK SMILES IDX 4 1 5 2 6 3 7 4 3 5 2 6 1 7
REMARK H PARENT
REMARK Flexibility Score: inf
ROOT
ATOM      1  C   UNL     1     -12.474   0.922  15.289  1.00  0.00     0.053 C 
ENDROOT
BRANCH   1   2
ATOM      2  C   UNL     1     -11.905   0.190  14.112  1.00  0.00     0.041 C 
ATOM      3  O   UNL     1     -12.669  -0.354  13.272  1.00  0.00    -0.550 OA
ATOM      4  O   UNL     1     -10.529   0.137  13.926  1.00  0.00    -0.550 OA
ENDBRANCH   1   2
BRANCH   1   5
ATOM      5  C   UNL     1     -11.373   1.543  16.159  1.00  0.00     0.006 C 
BRANCH   5   6
ATOM      6  C   UNL     1     -11.431   3.077  16.160  1.00  0.00    -0.003 C 
ATOM      7  C   UNL     1     -12.659   3.580  16.915  1.00  0.00     0.004 C 
ENDBRANCH   5   6
ENDBRANCH   1   5
TORSDOF 3
ENDMDL
MODEL 4
REMARK VINA RESULT:    -3.004     12.715     13.485
REMARK INTER + INTRA:          -3.614
REMARK INTER:                  -3.528
REMARK INTRA:                  -0.086
REMARK UNBOUND:                -0.082
REMARK SMILES CCCCC(=O)[O-]
REMARK SMILES IDX 4 1 5 2 6 3 7 4 3 5 2 6 1 7
REMARK H PARENT
REMARK Flexibility Score: inf
ROOT
ATOM      1  C   UNL     1      -1.054  -2.866  22.342  1.00  0.00     0.053 C 
ENDROOT
BRANCH   1   2
ATOM      2  C   UNL     1      -0.692  -3.834  23.426  1.00  0.00     0.041 C 
ATOM      3  O   UNL     1      -0.204  -4.958  23.137  1.00  0.00    -0.550 OA
ATOM      4  O   UNL     1      -0.863  -3.480  24.758  1.00  0.00    -0.550 OA
ENDBRANCH   1   2
BRANCH   1   5
ATOM      5  C   UNL     1      -2.439  -3.162  21.753  1.00  0.00     0.006 C 
BRANCH   5   6
ATOM      6  C   UNL     1      -3.566  -2.500  22.560  1.00  0.00    -0.003 C 
ATOM      7  C   UNL     1      -3.109  -1.166  23.147  1.00  0.00     0.004 C 
ENDBRANCH   5   6
ENDBRANCH   1   5
TORSDOF 3
ENDMDL
MODEL 5
REMARK VINA RESULT:    -2.938      1.879      3.372
REMARK INTER + INTRA:          -3.536
REMARK INTER:                  -3.439
REMARK INTRA:                  -0.097
REMARK UNBOUND:                -0.082
REMARK SMILES CCCCC(=O)[O-]
REMARK SMILES IDX 4 1 5 2 6 3 7 4 3 5 2 6 1 7
REMARK H PARENT
REMARK Flexibility Score: inf
ROOT
ATOM      1  C   UNL     1     -10.051   2.777  15.637  1.00  0.00     0.053 C 
ENDROOT
BRANCH   1   2
ATOM      2  C   UNL     1     -11.403   3.260  16.064  1.00  0.00     0.041 C 
ATOM      3  O   UNL     1     -12.355   2.447  16.199  1.00  0.00    -0.550 OA
ATOM      4  O   UNL     1     -11.602   4.606  16.346  1.00  0.00    -0.550 OA
ENDBRANCH   1   2
BRANCH   1   5
ATOM      5  C   UNL     1      -9.935   1.250  15.736  1.00  0.00     0.006 C 
BRANCH   5   6
ATOM      6  C   UNL     1      -9.846   0.584  14.355  1.00  0.00    -0.003 C 
ATOM      7  C   UNL     1     -11.223   0.132  13.874  1.00  0.00     0.004 C 
ENDBRANCH   5   6
ENDBRANCH   1   5
TORSDOF 3
ENDMDL
MODEL 6
REMARK VINA RESULT:    -2.925     12.717     13.531
REMARK INTER + INTRA:          -3.521
REMARK INTER:                  -3.504
REMARK INTRA:                  -0.017
REMARK UNBOUND:                -0.082
REMARK SMILES CCCCC(=O)[O-]
REMARK SMILES IDX 4 1 5 2 6 3 7 4 3 5 2 6 1 7
REMARK H PARENT
REMARK Flexibility Score: inf
ROOT
ATOM      1  C   UNL     1      -3.272  -8.805  17.036  1.00  0.00     0.053 C 
ENDROOT
BRANCH   1   2
ATOM      2  C   UNL     1      -2.146  -7.854  16.771  1.00  0.00     0.041 C 
ATOM      3  O   UNL     1      -0.960  -8.272  16.719  1.00  0.00    -0.550 OA
ATOM      4  O   UNL     1      -2.412  -6.508  16.549  1.00  0.00    -0.550 OA
ENDBRANCH   1   2
BRANCH   1   5
ATOM      5  C   UNL     1      -3.362  -9.894  15.959  1.00  0.00     0.006 C 
BRANCH   5   6
ATOM      6  C   UNL     1      -4.815 -10.235  15.599  1.00  0.00    -0.003 C 
ATOM      7  C   UNL     1      -4.876 -11.354  14.562  1.00  0.00     0.004 C 
ENDBRANCH   5   6
ENDBRANCH   1   5
TORSDOF 3
ENDMDL
MODEL 7
REMARK VINA RESULT:    -2.921      2.253      3.556
REMARK INTER + INTRA:          -3.515
REMARK INTER:                  -3.431
REMARK INTRA:                  -0.084
REMARK UNBOUND:                -0.082
REMARK SMILES CCCCC(=O)[O-]
REMARK SMILES IDX 4 1 5 2 6 3 7 4 3 5 2 6 1 7
REMARK H PARENT
REMARK Flexibility Score: inf
ROOT
ATOM      1  C   UNL     1      -9.725   1.176  14.315  1.00  0.00     0.053 C 
ENDROOT
BRANCH   1   2
ATOM      2  C   UNL     1     -10.111   1.818  15.613  1.00  0.00     0.041 C 
ATOM      3  O   UNL     1     -10.536   3.002  15.634  1.00  0.00    -0.550 OA
ATOM      4  O   UNL     1     -10.031   1.093  16.796  1.00  0.00    -0.550 OA
ENDBRANCH   1   2
BRANCH   1   5
ATOM      5  C   UNL     1     -10.555  -0.084  14.034  1.00  0.00     0.006 C 
BRANCH   5   6
ATOM      6  C   UNL     1     -12.060   0.214  13.980  1.00  0.00    -0.003 C 
ATOM      7  C   UNL     1     -12.845  -1.008  13.510  1.00  0.00     0.004 C 
ENDBRANCH   5   6
ENDBRANCH   1   5
TORSDOF 3
ENDMDL
MODEL 8
REMARK VINA RESULT:    -2.813     12.072     12.907
REMARK INTER + INTRA:          -3.388
REMARK INTER:                  -3.362
REMARK INTRA:                  -0.026
REMARK UNBOUND:                -0.082
REMARK SMILES CCCCC(=O)[O-]
REMARK SMILES IDX 4 1 5 2 6 3 7 4 3 5 2 6 1 7
REMARK H PARENT
REMARK Flexibility Score: inf
ROOT
ATOM      1  C   UNL     1      -3.484  -8.764  18.041  1.00  0.00     0.053 C 
ENDROOT
BRANCH   1   2
ATOM      2  C   UNL     1      -3.474  -7.355  18.549  1.00  0.00     0.041 C 
ATOM      3  O   UNL     1      -3.107  -6.412  17.800  1.00  0.00    -0.550 OA
ATOM      4  O   UNL     1      -3.904  -7.080  19.841  1.00  0.00    -0.550 OA
ENDBRANCH   1   2
BRANCH   1   5
ATOM      5  C   UNL     1      -3.117  -8.835  16.553  1.00  0.00     0.006 C 
BRANCH   5   6
ATOM      6  C   UNL     1      -3.499 -10.184  15.925  1.00  0.00    -0.003 C 
ATOM      7  C   UNL     1      -4.974 -10.206  15.530  1.00  0.00     0.004 C 
ENDBRANCH   5   6
ENDBRANCH   1   5
TORSDOF 3
ENDMDL
MODEL 9
REMARK VINA RESULT:    -2.792      2.582      3.674
REMARK INTER + INTRA:          -3.365
REMARK INTER:                  -3.274
REMARK INTRA:                  -0.090
REMARK UNBOUND:                -0.082
REMARK SMILES CCCCC(=O)[O-]
REMARK SMILES IDX 4 1 5 2 6 3 7 4 3 5 2 6 1 7
REMARK H PARENT
REMARK Flexibility Score: inf
ROOT
ATOM      1  C   UNL     1     -11.406   2.080  15.791  1.00  0.00     0.053 C 
ENDROOT
BRANCH   1   2
ATOM      2  C   UNL     1     -11.167   1.921  17.261  1.00  0.00     0.041 C 
ATOM      3  O   UNL     1     -10.449   0.981  17.690  1.00  0.00    -0.550 OA
ATOM      4  O   UNL     1     -11.712   2.834  18.155  1.00  0.00    -0.550 OA
ENDBRANCH   1   2
BRANCH   1   5
ATOM      5  C   UNL     1     -12.254   0.933  15.225  1.00  0.00     0.006 C 
BRANCH   5   6
ATOM      6  C   UNL     1     -11.578   0.248  14.028  1.00  0.00    -0.003 C 
ATOM      7  C   UNL     1     -10.069   0.480  14.043  1.00  0.00     0.004 C 
ENDBRANCH   5   6
ENDBRANCH   1   5
TORSDOF 3
ENDMDL
