MODEL 1
REMARK VINA RESULT:    -5.284      0.000      0.000
REMARK INTER + INTRA:          -5.969
REMARK INTER:                  -5.901
REMARK INTRA:                  -0.068
REMARK UNBOUND:                -0.068
REMARK SMILES COc1cc2ccc(=O)oc2c(O)c1O
REMARK SMILES IDX 3 1 14 2 12 3 11 4 5 5 4 6 6 7 7 8 8 9 9 10 10 11 2 12 1 13
REMARK SMILES IDX 15 14 13 16
REMARK H PARENT 15 15 13 17
REMARK Flexibility Score: inf
ROOT
ATOM      1  C   UNL     1     479.198  38.117 459.635  1.00  0.00     0.165 A 
ATOM      2  C   UNL     1     479.776  36.883 459.274  1.00  0.00     0.204 A 
ATOM      3  C   UNL     1     479.346  35.693 459.888  1.00  0.00     0.205 A 
ATOM      4  C   UNL     1     478.342  35.730 460.863  1.00  0.00     0.184 A 
ATOM      5  C   UNL     1     477.761  36.964 461.228  1.00  0.00     0.025 A 
ATOM      6  C   UNL     1     478.189  38.148 460.616  1.00  0.00     0.062 A 
ATOM      7  C   UNL     1     476.759  36.966 462.205  1.00  0.00     0.020 A 
ATOM      8  C   UNL     1     476.365  35.762 462.786  1.00  0.00     0.094 A 
ATOM      9  C   UNL     1     476.985  34.578 462.376  1.00  0.00     0.336 A 
ATOM     10  O   UNL     1     476.643  33.480 462.888  1.00  0.00    -0.246 OA
ATOM     11  O   UNL     1     477.935  34.603 461.444  1.00  0.00    -0.419 OA
ENDROOT
BRANCH   1  12
ATOM     12  O   UNL     1     479.652  39.285 459.002  1.00  0.00    -0.493 OA
ATOM     13  C   UNL     1     480.638  40.163 459.535  1.00  0.00     0.278 C 
ENDBRANCH   1  12
BRANCH   2  14
ATOM     14  O   UNL     1     480.779  36.827 458.305  1.00  0.00    -0.502 OA
ATOM     15  H   UNL     1     481.694  36.437 458.493  1.00  0.00     0.293 HD
ENDBRANCH   2  14
BRANCH   3  16
ATOM     16  O   UNL     1     479.908  34.463 459.541  1.00  0.00    -0.502 OA
ATOM     17  H   UNL     1     479.723  33.617 460.068  1.00  0.00     0.293 HD
ENDBRANCH   3  16
TORSDOF 3
ENDMDL
MODEL 2
REMARK VINA RESULT:    -4.931      1.966      3.270
REMARK INTER + INTRA:          -5.575
REMARK INTER:                  -5.512
REMARK INTRA:                  -0.062
REMARK UNBOUND:                -0.068
REMARK SMILES COc1cc2ccc(=O)oc2c(O)c1O
REMARK SMILES IDX 3 1 14 2 12 3 11 4 5 5 4 6 6 7 7 8 8 9 9 10 10 11 2 12 1 13
REMARK SMILES IDX 15 14 13 16
REMARK H PARENT 15 15 13 17
REMARK Flexibility Score: inf
ROOT
ATOM      1  C   UNL     1     478.338  37.840 460.798  1.00  0.00     0.165 A 
ATOM      2  C   UNL     1     477.244  38.494 461.399  1.00  0.00     0.204 A 
ATOM      3  C   UNL     1     476.331  37.768 462.186  1.00  0.00     0.205 A 
ATOM      4  C   UNL     1     476.506  36.392 462.374  1.00  0.00     0.184 A 
ATOM      5  C   UNL     1     477.600  35.734 461.773  1.00  0.00     0.025 A 
ATOM      6  C   UNL     1     478.509  36.456 460.991  1.00  0.00     0.062 A 
ATOM      7  C   UNL     1     477.747  34.358 461.982  1.00  0.00     0.020 A 
ATOM      8  C   UNL     1     476.817  33.681 462.769  1.00  0.00     0.094 A 
ATOM      9  C   UNL     1     475.757  34.398 463.332  1.00  0.00     0.336 A 
ATOM     10  O   UNL     1     474.907  33.805 464.047  1.00  0.00    -0.246 OA
ATOM     11  O   UNL     1     475.641  35.706 463.119  1.00  0.00    -0.419 OA
ENDROOT
BRANCH   1  12
ATOM     12  O   UNL     1     479.230  38.595 460.019  1.00  0.00    -0.493 OA
ATOM     13  C   UNL     1     479.508  38.352 458.643  1.00  0.00     0.278 C 
ENDBRANCH   1  12
BRANCH   2  14
ATOM     14  O   UNL     1     477.053  39.865 461.222  1.00  0.00    -0.502 OA
ATOM     15  H   UNL     1     477.770  40.467 460.835  1.00  0.00     0.293 HD
ENDBRANCH   2  14
BRANCH   3  16
ATOM     16  O   UNL     1     475.242  38.402 462.788  1.00  0.00    -0.502 OA
ATOM     17  H   UNL     1     474.988  38.235 463.755  1.00  0.00     0.293 HD
ENDBRANCH   3  16
TORSDOF 3
ENDMDL
MODEL 3
REMARK VINA RESULT:    -4.742      7.144      8.192
REMARK INTER + INTRA:          -5.365
REMARK INTER:                  -5.315
REMARK INTRA:                  -0.049
REMARK UNBOUND:                -0.068
REMARK SMILES COc1cc2ccc(=O)oc2c(O)c1O
REMARK SMILES IDX 3 1 14 2 12 3 11 4 5 5 4 6 6 7 7 8 8 9 9 10 10 11 2 12 1 13
REMARK SMILES IDX 15 14 13 16
REMARK H PARENT 15 15 13 17
REMARK Flexibility Score: inf
ROOT
ATOM      1  C   UNL     1     485.230  40.457 459.637  1.00  0.00     0.165 A 
ATOM      2  C   UNL     1     485.180  39.052 459.529  1.00  0.00     0.204 A 
ATOM      3  C   UNL     1     484.659  38.449 458.370  1.00  0.00     0.205 A 
ATOM      4  C   UNL     1     484.187  39.243 457.319  1.00  0.00     0.184 A 
ATOM      5  C   UNL     1     484.236  40.649 457.422  1.00  0.00     0.025 A 
ATOM      6  C   UNL     1     484.754  41.250 458.575  1.00  0.00     0.062 A 
ATOM      7  C   UNL     1     483.756  41.414 456.352  1.00  0.00     0.020 A 
ATOM      8  C   UNL     1     483.249  40.772 455.224  1.00  0.00     0.094 A 
ATOM      9  C   UNL     1     483.231  39.374 455.191  1.00  0.00     0.336 A 
ATOM     10  O   UNL     1     482.777  38.775 454.181  1.00  0.00    -0.246 OA
ATOM     11  O   UNL     1     483.693  38.671 456.221  1.00  0.00    -0.419 OA
ENDROOT
BRANCH   1  12
ATOM     12  O   UNL     1     485.757  41.025 460.808  1.00  0.00    -0.493 OA
ATOM     13  C   UNL     1     486.140  42.390 460.943  1.00  0.00     0.278 C 
ENDBRANCH   1  12
BRANCH   2  14
ATOM     14  O   UNL     1     485.645  38.245 460.569  1.00  0.00    -0.502 OA
ATOM     15  H   UNL     1     486.406  38.526 461.175  1.00  0.00     0.293 HD
ENDBRANCH   2  14
BRANCH   3  16
ATOM     16  O   UNL     1     484.602  37.059 458.249  1.00  0.00    -0.502 OA
ATOM     17  H   UNL     1     485.429  36.477 458.317  1.00  0.00     0.293 HD
ENDBRANCH   3  16
TORSDOF 3
ENDMDL
MODEL 4
REMARK VINA RESULT:    -4.511      5.083      6.081
REMARK INTER + INTRA:          -5.107
REMARK INTER:                  -5.057
REMARK INTRA:                  -0.050
REMARK UNBOUND:                -0.068
REMARK SMILES COc1cc2ccc(=O)oc2c(O)c1O
REMARK SMILES IDX 3 1 14 2 12 3 11 4 5 5 4 6 6 7 7 8 8 9 9 10 10 11 2 12 1 13
REMARK SMILES IDX 15 14 13 16
REMARK H PARENT 15 15 13 17
REMARK Flexibility Score: inf
ROOT
ATOM      1  C   UNL     1     482.389  38.173 457.334  1.00  0.00     0.165 A 
ATOM      2  C   UNL     1     483.790  38.252 457.461  1.00  0.00     0.204 A 
ATOM      3  C   UNL     1     484.370  38.628 458.687  1.00  0.00     0.205 A 
ATOM      4  C   UNL     1     483.555  38.925 459.786  1.00  0.00     0.184 A 
ATOM      5  C   UNL     1     482.152  38.847 459.663  1.00  0.00     0.025 A 
ATOM      6  C   UNL     1     481.575  38.474 458.443  1.00  0.00     0.062 A 
ATOM      7  C   UNL     1     481.366  39.150 460.780  1.00  0.00     0.020 A 
ATOM      8  C   UNL     1     481.985  39.517 461.974  1.00  0.00     0.094 A 
ATOM      9  C   UNL     1     483.381  39.573 462.023  1.00  0.00     0.336 A 
ATOM     10  O   UNL     1     483.960  39.902 463.092  1.00  0.00    -0.246 OA
ATOM     11  O   UNL     1     484.105  39.280 460.946  1.00  0.00    -0.419 OA
ENDROOT
BRANCH   1  12
ATOM     12  O   UNL     1     481.844  37.795 456.096  1.00  0.00    -0.493 OA
ATOM     13  C   UNL     1     480.515  38.087 455.675  1.00  0.00     0.278 C 
ENDBRANCH   1  12
BRANCH   2  14
ATOM     14  O   UNL     1     484.618  37.960 456.376  1.00  0.00    -0.502 OA
ATOM     15  H   UNL     1     484.302  37.413 455.585  1.00  0.00     0.293 HD
ENDBRANCH   2  14
BRANCH   3  16
ATOM     16  O   UNL     1     485.756  38.710 458.828  1.00  0.00    -0.502 OA
ATOM     17  H   UNL     1     486.192  39.130 459.642  1.00  0.00     0.293 HD
ENDBRANCH   3  16
TORSDOF 3
ENDMDL
MODEL 5
REMARK VINA RESULT:    -4.503      5.000      6.129
REMARK INTER + INTRA:          -5.098
REMARK INTER:                  -5.029
REMARK INTRA:                  -0.069
REMARK UNBOUND:                -0.068
REMARK SMILES COc1cc2ccc(=O)oc2c(O)c1O
REMARK SMILES IDX 3 1 14 2 12 3 11 4 5 5 4 6 6 7 7 8 8 9 9 10 10 11 2 12 1 13
REMARK SMILES IDX 15 14 13 16
REMARK H PARENT 15 15 13 17
REMARK Flexibility Score: inf
ROOT
ATOM      1  C   UNL     1     483.491  38.820 459.971  1.00  0.00     0.165 A 
ATOM      2  C   UNL     1     484.368  38.554 458.900  1.00  0.00     0.204 A 
ATOM      3  C   UNL     1     483.857  38.252 457.624  1.00  0.00     0.205 A 
ATOM      4  C   UNL     1     482.473  38.214 457.415  1.00  0.00     0.184 A 
ATOM      5  C   UNL     1     481.592  38.480 458.484  1.00  0.00     0.025 A 
ATOM      6  C   UNL     1     482.101  38.780 459.753  1.00  0.00     0.062 A 
ATOM      7  C   UNL     1     480.215  38.434 458.241  1.00  0.00     0.020 A 
ATOM      8  C   UNL     1     479.754  38.131 456.961  1.00  0.00     0.094 A 
ATOM      9  C   UNL     1     480.686  37.878 455.949  1.00  0.00     0.336 A 
ATOM     10  O   UNL     1     480.290  37.602 454.786  1.00  0.00    -0.246 OA
ATOM     11  O   UNL     1     481.990  37.928 456.207  1.00  0.00    -0.419 OA
ENDROOT
BRANCH   1  12
ATOM     12  O   UNL     1     484.036  39.117 461.230  1.00  0.00    -0.493 OA
ATOM     13  C   UNL     1     484.213  40.434 461.744  1.00  0.00     0.278 C 
ENDBRANCH   1  12
BRANCH   2  14
ATOM     14  O   UNL     1     485.750  38.586 459.091  1.00  0.00    -0.502 OA
ATOM     15  H   UNL     1     486.177  39.036 459.891  1.00  0.00     0.293 HD
ENDBRANCH   2  14
BRANCH   3  16
ATOM     16  O   UNL     1     484.712  37.986 456.554  1.00  0.00    -0.502 OA
ATOM     17  H   UNL     1     485.597  38.467 456.437  1.00  0.00     0.293 HD
ENDBRANCH   3  16
TORSDOF 3
ENDMDL
MODEL 6
REMARK VINA RESULT:    -4.358      3.679      5.723
REMARK INTER + INTRA:          -4.936
REMARK INTER:                  -4.887
REMARK INTRA:                  -0.049
REMARK UNBOUND:                -0.068
REMARK SMILES COc1cc2ccc(=O)oc2c(O)c1O
REMARK SMILES IDX 3 1 14 2 12 3 11 4 5 5 4 6 6 7 7 8 8 9 9 10 10 11 2 12 1 13
REMARK SMILES IDX 15 14 13 16
REMARK H PARENT 15 15 13 17
REMARK Flexibility Score: inf
ROOT
ATOM      1  C   UNL     1     484.712  40.545 459.799  1.00  0.00     0.165 A 
ATOM      2  C   UNL     1     484.913  39.482 458.896  1.00  0.00     0.204 A 
ATOM      3  C   UNL     1     483.877  38.565 458.639  1.00  0.00     0.205 A 
ATOM      4  C   UNL     1     482.641  38.706 459.281  1.00  0.00     0.184 A 
ATOM      5  C   UNL     1     482.436  39.769 460.186  1.00  0.00     0.025 A 
ATOM      6  C   UNL     1     483.466  40.681 460.442  1.00  0.00     0.062 A 
ATOM      7  C   UNL     1     481.189  39.882 460.811  1.00  0.00     0.020 A 
ATOM      8  C   UNL     1     480.192  38.950 460.525  1.00  0.00     0.094 A 
ATOM      9  C   UNL     1     480.467  37.922 459.618  1.00  0.00     0.336 A 
ATOM     10  O   UNL     1     479.581  37.070 459.346  1.00  0.00    -0.246 OA
ATOM     11  O   UNL     1     481.661  37.838 459.038  1.00  0.00    -0.419 OA
ENDROOT
BRANCH   1  12
ATOM     12  O   UNL     1     485.767  41.442 460.032  1.00  0.00    -0.493 OA
ATOM     13  C   UNL     1     485.728  42.510 460.972  1.00  0.00     0.278 C 
ENDBRANCH   1  12
BRANCH   2  14
ATOM     14  O   UNL     1     486.139  39.326 458.247  1.00  0.00    -0.502 OA
ATOM     15  H   UNL     1     487.023  39.386 458.736  1.00  0.00     0.293 HD
ENDBRANCH   2  14
BRANCH   3  16
ATOM     16  O   UNL     1     484.061  37.507 457.747  1.00  0.00    -0.502 OA
ATOM     17  H   UNL     1     484.953  37.039 457.642  1.00  0.00     0.293 HD
ENDBRANCH   3  16
TORSDOF 3
ENDMDL
MODEL 7
REMARK VINA RESULT:    -4.301      7.097      8.207
REMARK INTER + INTRA:          -4.871
REMARK INTER:                  -4.822
REMARK INTRA:                  -0.049
REMARK UNBOUND:                -0.068
REMARK SMILES COc1cc2ccc(=O)oc2c(O)c1O
REMARK SMILES IDX 3 1 14 2 12 3 11 4 5 5 4 6 6 7 7 8 8 9 9 10 10 11 2 12 1 13
REMARK SMILES IDX 15 14 13 16
REMARK H PARENT 15 15 13 17
REMARK Flexibility Score: inf
ROOT
ATOM      1  C   UNL     1     484.045  39.578 457.613  1.00  0.00     0.165 A 
ATOM      2  C   UNL     1     484.577  38.579 458.453  1.00  0.00     0.204 A 
ATOM      3  C   UNL     1     485.119  38.921 459.705  1.00  0.00     0.205 A 
ATOM      4  C   UNL     1     485.132  40.257 460.122  1.00  0.00     0.184 A 
ATOM      5  C   UNL     1     484.601  41.261 459.284  1.00  0.00     0.025 A 
ATOM      6  C   UNL     1     484.061  40.920 458.038  1.00  0.00     0.062 A 
ATOM      7  C   UNL     1     484.629  42.587 459.731  1.00  0.00     0.020 A 
ATOM      8  C   UNL     1     485.176  42.878 460.979  1.00  0.00     0.094 A 
ATOM      9  C   UNL     1     485.685  41.832 461.756  1.00  0.00     0.336 A 
ATOM     10  O   UNL     1     486.183  42.074 462.886  1.00  0.00    -0.246 OA
ATOM     11  O   UNL     1     485.646  40.580 461.307  1.00  0.00    -0.419 OA
ENDROOT
BRANCH   1  12
ATOM     12  O   UNL     1     483.512  39.201 456.370  1.00  0.00    -0.493 OA
ATOM     13  C   UNL     1     482.992  40.109 455.404  1.00  0.00     0.278 C 
ENDBRANCH   1  12
BRANCH   2  14
ATOM     14  O   UNL     1     484.572  37.242 458.053  1.00  0.00    -0.502 OA
ATOM     15  H   UNL     1     484.445  36.480 458.708  1.00  0.00     0.293 HD
ENDBRANCH   2  14
BRANCH   3  16
ATOM     16  O   UNL     1     485.649  37.943 460.548  1.00  0.00    -0.502 OA
ATOM     17  H   UNL     1     486.282  37.225 460.212  1.00  0.00     0.293 HD
ENDBRANCH   3  16
TORSDOF 3
ENDMDL
MODEL 8
REMARK VINA RESULT:    -4.231      5.545      7.244
REMARK INTER + INTRA:          -4.793
REMARK INTER:                  -4.727
REMARK INTRA:                  -0.066
REMARK UNBOUND:                -0.068
REMARK SMILES COc1cc2ccc(=O)oc2c(O)c1O
REMARK SMILES IDX 3 1 14 2 12 3 11 4 5 5 4 6 6 7 7 8 8 9 9 10 10 11 2 12 1 13
REMARK SMILES IDX 15 14 13 16
REMARK H PARENT 15 15 13 17
REMARK Flexibility Score: inf
ROOT
ATOM      1  C   UNL     1     483.350  39.076 460.678  1.00  0.00     0.165 A 
ATOM      2  C   UNL     1     484.656  39.263 460.184  1.00  0.00     0.204 A 
ATOM      3  C   UNL     1     484.904  39.214 458.800  1.00  0.00     0.205 A 
ATOM      4  C   UNL     1     483.852  38.977 457.908  1.00  0.00     0.184 A 
ATOM      5  C   UNL     1     482.542  38.789 458.399  1.00  0.00     0.025 A 
ATOM      6  C   UNL     1     482.296  38.838 459.775  1.00  0.00     0.062 A 
ATOM      7  C   UNL     1     481.513  38.555 457.480  1.00  0.00     0.020 A 
ATOM      8  C   UNL     1     481.806  38.515 456.118  1.00  0.00     0.094 A 
ATOM      9  C   UNL     1     483.127  38.709 455.704  1.00  0.00     0.336 A 
ATOM     10  O   UNL     1     483.412  38.677 454.478  1.00  0.00    -0.246 OA
ATOM     11  O   UNL     1     484.087  38.930 456.598  1.00  0.00    -0.419 OA
ENDROOT
BRANCH   1  12
ATOM     12  O   UNL     1     483.139  39.131 462.066  1.00  0.00    -0.493 OA
ATOM     13  C   UNL     1     482.371  40.131 462.727  1.00  0.00     0.278 C 
ENDBRANCH   1  12
BRANCH   2  14
ATOM     14  O   UNL     1     485.718  39.499 461.059  1.00  0.00    -0.502 OA
ATOM     15  H   UNL     1     485.771  39.073 461.976  1.00  0.00     0.293 HD
ENDBRANCH   2  14
BRANCH   3  16
ATOM     16  O   UNL     1     486.193  39.398 458.295  1.00  0.00    -0.502 OA
ATOM     17  H   UNL     1     487.018  39.310 458.877  1.00  0.00     0.293 HD
ENDBRANCH   3  16
TORSDOF 3
ENDMDL
