MODEL 1
REMARK VINA RESULT:    -3.010      0.000      0.000
REMARK INTER + INTRA:          -8.221
REMARK INTER:                  -5.474
REMARK INTRA:                  -2.748
REMARK UNBOUND:                -2.748
REMARK SMILES CCCCCC=CCC=CCCCCCCCC(=O)[O-]
REMARK SMILES IDX 11 1 12 2 13 3 14 4 15 5 16 6 17 7 18 8 19 9 20 10 10 11
REMARK SMILES IDX 9 12 8 13 7 14 6 15 5 16 4 17 3 18 2 19 1 20
REMARK H PARENT
REMARK Flexibility Score: inf
ROOT
ATOM      1  C   UNL     1       9.284 -14.068   4.941  1.00  0.00     0.027 C 
ENDROOT
BRANCH   1   2
ATOM      2  C   UNL     1       9.036 -15.585   4.972  1.00  0.00     0.004 C 
BRANCH   2   3
ATOM      3  C   UNL     1      10.310 -16.426   5.182  1.00  0.00     0.000 C 
BRANCH   3   4
ATOM      4  C   UNL     1      10.192 -17.398   6.370  1.00  0.00     0.000 C 
BRANCH   4   5
ATOM      5  C   UNL     1       9.180 -16.916   7.424  1.00  0.00     0.000 C 
BRANCH   5   6
ATOM      6  C   UNL     1       9.849 -16.534   8.757  1.00  0.00     0.006 C 
BRANCH   6   7
ATOM      7  C   UNL     1      11.380 -16.535   8.657  1.00  0.00     0.053 C 
BRANCH   7   8
ATOM      8  C   UNL     1      12.026 -16.842   9.974  1.00  0.00     0.041 C 
ATOM      9  O   UNL     1      12.934 -17.711  10.047  1.00  0.00    -0.550 OA
ATOM     10  O   UNL     1      11.603 -16.191  11.126  1.00  0.00    -0.550 OA
ENDBRANCH   7   8
ENDBRANCH   6   7
ENDBRANCH   5   6
ENDBRANCH   4   5
ENDBRANCH   3   4
ENDBRANCH   2   3
ENDBRANCH   1   2
BRANCH   1  11
ATOM     11  C   UNL     1       9.939 -13.567   6.207  1.00  0.00    -0.031 C 
ATOM     12  C   UNL     1       9.254 -13.071   7.254  1.00  0.00    -0.027 C 
BRANCH  12  13
ATOM     13  C   UNL     1       7.751 -12.959   7.311  1.00  0.00     0.054 C 
BRANCH  13  14
ATOM     14  C   UNL     1       7.158 -13.944   8.286  1.00  0.00    -0.027 C 
ATOM     15  C   UNL     1       6.274 -14.906   7.962  1.00  0.00    -0.031 C 
BRANCH  15  16
ATOM     16  C   UNL     1       5.681 -15.098   6.587  1.00  0.00     0.027 C 
BRANCH  16  17
ATOM     17  C   UNL     1       4.399 -14.273   6.394  1.00  0.00     0.004 C 
BRANCH  17  18
ATOM     18  C   UNL     1       3.571 -14.178   7.687  1.00  0.00     0.000 C 
BRANCH  18  19
ATOM     19  C   UNL     1       3.038 -12.759   7.944  1.00  0.00    -0.003 C 
ATOM     20  C   UNL     1       4.065 -11.858   8.627  1.00  0.00     0.004 C 
ENDBRANCH  18  19
ENDBRANCH  17  18
ENDBRANCH  16  17
ENDBRANCH  15  16
ENDBRANCH  13  14
ENDBRANCH  12  13
ENDBRANCH   1  11
TORSDOF 14
ENDMDL
MODEL 2
REMARK VINA RESULT:    -2.968     12.543     14.699
REMARK INTER + INTRA:          -8.145
REMARK INTER:                  -6.097
REMARK INTRA:                  -2.049
REMARK UNBOUND:                -2.748
REMARK SMILES CCCCCC=CCC=CCCCCCCCC(=O)[O-]
REMARK SMILES IDX 11 1 12 2 13 3 14 4 15 5 16 6 17 7 18 8 19 9 20 10 10 11
REMARK SMILES IDX 9 12 8 13 7 14 6 15 5 16 4 17 3 18 2 19 1 20
REMARK H PARENT
REMARK Flexibility Score: inf
ROOT
ATOM      1  C   UNL     1       7.847 -13.233  20.506  1.00  0.00     0.027 C 
ENDROOT
BRANCH   1   2
ATOM      2  C   UNL     1       6.718 -12.957  21.512  1.00  0.00     0.004 C 
BRANCH   2   3
ATOM      3  C   UNL     1       5.314 -12.895  20.880  1.00  0.00     0.000 C 
BRANCH   3   4
ATOM      4  C   UNL     1       4.715 -11.477  20.899  1.00  0.00     0.000 C 
BRANCH   4   5
ATOM      5  C   UNL     1       4.287 -11.039  22.311  1.00  0.00     0.000 C 
BRANCH   5   6
ATOM      6  C   UNL     1       3.267  -9.887  22.292  1.00  0.00     0.006 C 
BRANCH   6   7
ATOM      7  C   UNL     1       2.674  -9.616  23.681  1.00  0.00     0.053 C 
BRANCH   7   8
ATOM      8  C   UNL     1       1.260 -10.102  23.790  1.00  0.00     0.041 C 
ATOM      9  O   UNL     1       0.304  -9.349  23.466  1.00  0.00    -0.550 OA
ATOM     10  O   UNL     1       0.997 -11.376  24.278  1.00  0.00    -0.550 OA
ENDBRANCH   7   8
ENDBRANCH   6   7
ENDBRANCH   5   6
ENDBRANCH   4   5
ENDBRANCH   3   4
ENDBRANCH   2   3
ENDBRANCH   1   2
BRANCH   1  11
ATOM     11  C   UNL     1       8.939 -12.190  20.567  1.00  0.00    -0.031 C 
ATOM     12  C   UNL     1       8.903 -11.034  19.879  1.00  0.00    -0.027 C 
BRANCH  12  13
ATOM     13  C   UNL     1       7.773 -10.620  18.970  1.00  0.00     0.054 C 
BRANCH  13  14
ATOM     14  C   UNL     1       8.051 -10.989  17.535  1.00  0.00    -0.027 C 
ATOM     15  C   UNL     1       7.295 -11.824  16.799  1.00  0.00    -0.031 C 
BRANCH  15  16
ATOM     16  C   UNL     1       6.097 -12.581  17.318  1.00  0.00     0.027 C 
BRANCH  16  17
ATOM     17  C   UNL     1       6.174 -14.078  16.983  1.00  0.00     0.004 C 
BRANCH  17  18
ATOM     18  C   UNL     1       4.780 -14.718  16.865  1.00  0.00     0.000 C 
BRANCH  18  19
ATOM     19  C   UNL     1       4.249 -15.230  18.214  1.00  0.00    -0.003 C 
ATOM     20  C   UNL     1       5.247 -16.132  18.937  1.00  0.00     0.004 C 
ENDBRANCH  18  19
ENDBRANCH  17  18
ENDBRANCH  16  17
ENDBRANCH  15  16
ENDBRANCH  13  14
ENDBRANCH  12  13
ENDBRANCH   1  11
TORSDOF 14
ENDMDL
MODEL 3
REMARK VINA RESULT:    -2.963      3.442      6.614
REMARK INTER + INTRA:          -8.136
REMARK INTER:                  -5.639
REMARK INTRA:                  -2.497
REMARK UNBOUND:                -2.748
REMARK SMILES CCCCCC=CCC=CCCCCCCCC(=O)[O-]
REMARK SMILES IDX 11 1 12 2 13 3 14 4 15 5 16 6 17 7 18 8 19 9 20 10 10 11
REMARK SMILES IDX 9 12 8 13 7 14 6 15 5 16 4 17 3 18 2 19 1 20
REMARK H PARENT
REMARK Flexibility Score: inf
ROOT
ATOM      1  C   UNL     1      10.710 -17.841   6.192  1.00  0.00     0.027 C 
ENDROOT
BRANCH   1   2
ATOM      2  C   UNL     1       9.238 -17.429   6.357  1.00  0.00     0.004 C 
BRANCH   2   3
ATOM      3  C   UNL     1       8.774 -16.345   5.364  1.00  0.00     0.000 C 
BRANCH   3   4
ATOM      4  C   UNL     1       7.449 -15.683   5.783  1.00  0.00     0.000 C 
BRANCH   4   5
ATOM      5  C   UNL     1       7.527 -14.146   5.760  1.00  0.00     0.000 C 
BRANCH   5   6
ATOM      6  C   UNL     1       6.404 -13.484   6.578  1.00  0.00     0.006 C 
BRANCH   6   7
ATOM      7  C   UNL     1       5.579 -14.510   7.366  1.00  0.00     0.053 C 
BRANCH   7   8
ATOM      8  C   UNL     1       4.120 -14.426   7.035  1.00  0.00     0.041 C 
ATOM      9  O   UNL     1       3.295 -14.034   7.901  1.00  0.00    -0.550 OA
ATOM     10  O   UNL     1       3.667 -14.811   5.779  1.00  0.00    -0.550 OA
ENDBRANCH   7   8
ENDBRANCH   6   7
ENDBRANCH   5   6
ENDBRANCH   4   5
ENDBRANCH   3   4
ENDBRANCH   2   3
ENDBRANCH   1   2
BRANCH   1  11
ATOM     11  C   UNL     1      11.394 -17.094   5.070  1.00  0.00    -0.031 C 
ATOM     12  C   UNL     1      12.126 -15.980   5.255  1.00  0.00    -0.027 C 
BRANCH  12  13
ATOM     13  C   UNL     1      12.373 -15.338   6.597  1.00  0.00     0.054 C 
BRANCH  13  14
ATOM     14  C   UNL     1      11.572 -14.071   6.761  1.00  0.00    -0.027 C 
ATOM     15  C   UNL     1      10.622 -13.881   7.696  1.00  0.00    -0.031 C 
BRANCH  15  16
ATOM     16  C   UNL     1      10.158 -14.933   8.674  1.00  0.00     0.027 C 
BRANCH  16  17
ATOM     17  C   UNL     1      10.945 -14.879   9.992  1.00  0.00     0.004 C 
BRANCH  17  18
ATOM     18  C   UNL     1      11.178 -16.278  10.586  1.00  0.00     0.000 C 
BRANCH  18  19
ATOM     19  C   UNL     1      12.056 -17.163   9.686  1.00  0.00    -0.003 C 
ATOM     20  C   UNL     1      13.550 -16.937   9.914  1.00  0.00     0.004 C 
ENDBRANCH  18  19
ENDBRANCH  17  18
ENDBRANCH  16  17
ENDBRANCH  15  16
ENDBRANCH  13  14
ENDBRANCH  12  13
ENDBRANCH   1  11
TORSDOF 14
ENDMDL
MODEL 4
REMARK VINA RESULT:    -2.959     13.311     15.672
REMARK INTER + INTRA:          -8.127
REMARK INTER:                  -5.367
REMARK INTRA:                  -2.761
REMARK UNBOUND:                -2.748
REMARK SMILES CCCCCC=CCC=CCCCCCCCC(=O)[O-]
REMARK SMILES IDX 11 1 12 2 13 3 14 4 15 5 16 6 17 7 18 8 19 9 20 10 10 11
REMARK SMILES IDX 9 12 8 13 7 14 6 15 5 16 4 17 3 18 2 19 1 20
REMARK H PARENT
REMARK Flexibility Score: inf
ROOT
ATOM      1  C   UNL     1       3.558 -10.607  22.899  1.00  0.00     0.027 C 
ENDROOT
BRANCH   1   2
ATOM      2  C   UNL     1       3.798 -10.253  21.422  1.00  0.00     0.004 C 
BRANCH   2   3
ATOM      3  C   UNL     1       2.983 -11.106  20.430  1.00  0.00     0.000 C 
BRANCH   3   4
ATOM      4  C   UNL     1       3.866 -11.807  19.382  1.00  0.00     0.000 C 
BRANCH   4   5
ATOM      5  C   UNL     1       5.352 -11.432  19.522  1.00  0.00     0.000 C 
BRANCH   5   6
ATOM      6  C   UNL     1       6.293 -12.531  18.996  1.00  0.00     0.006 C 
BRANCH   6   7
ATOM      7  C   UNL     1       7.676 -12.474  19.658  1.00  0.00     0.053 C 
BRANCH   7   8
ATOM      8  C   UNL     1       8.510 -11.353  19.116  1.00  0.00     0.041 C 
ATOM      9  O   UNL     1       9.235 -10.672  19.888  1.00  0.00    -0.550 OA
ATOM     10  O   UNL     1       8.462 -11.040  17.764  1.00  0.00    -0.550 OA
ENDBRANCH   7   8
ENDBRANCH   6   7
ENDBRANCH   5   6
ENDBRANCH   4   5
ENDBRANCH   3   4
ENDBRANCH   2   3
ENDBRANCH   1   2
BRANCH   1  11
ATOM     11  C   UNL     1       2.807  -9.522  23.635  1.00  0.00    -0.031 C 
ATOM     12  C   UNL     1       1.479  -9.552  23.853  1.00  0.00    -0.027 C 
BRANCH  12  13
ATOM     13  C   UNL     1       0.569 -10.669  23.407  1.00  0.00     0.054 C 
BRANCH  13  14
ATOM     14  C   UNL     1       0.477 -11.758  24.446  1.00  0.00    -0.027 C 
ATOM     15  C   UNL     1       0.883 -13.028  24.262  1.00  0.00    -0.031 C 
BRANCH  15  16
ATOM     16  C   UNL     1       1.421 -13.578  22.964  1.00  0.00     0.027 C 
BRANCH  16  17
ATOM     17  C   UNL     1       2.825 -14.179  23.132  1.00  0.00     0.004 C 
BRANCH  17  18
ATOM     18  C   UNL     1       3.434 -14.613  21.788  1.00  0.00     0.000 C 
BRANCH  18  19
ATOM     19  C   UNL     1       4.970 -14.537  21.784  1.00  0.00    -0.003 C 
ATOM     20  C   UNL     1       5.518 -13.624  22.880  1.00  0.00     0.004 C 
ENDBRANCH  18  19
ENDBRANCH  17  18
ENDBRANCH  16  17
ENDBRANCH  15  16
ENDBRANCH  13  14
ENDBRANCH  12  13
ENDBRANCH   1  11
TORSDOF 14
ENDMDL
MODEL 5
REMARK VINA RESULT:    -2.950     11.046     12.853
REMARK INTER + INTRA:          -8.112
REMARK INTER:                  -5.407
REMARK INTRA:                  -2.705
REMARK UNBOUND:                -2.748
REMARK SMILES CCCCCC=CCC=CCCCCCCCC(=O)[O-]
REMARK SMILES IDX 11 1 12 2 13 3 14 4 15 5 16 6 17 7 18 8 19 9 20 10 10 11
REMARK SMILES IDX 9 12 8 13 7 14 6 15 5 16 4 17 3 18 2 19 1 20
REMARK H PARENT
REMARK Flexibility Score: inf
ROOT
ATOM      1  C   UNL     1       8.898 -11.100  19.836  1.00  0.00     0.027 C 
ENDROOT
BRANCH   1   2
ATOM      2  C   UNL     1       8.110 -10.307  18.781  1.00  0.00     0.004 C 
BRANCH   2   3
ATOM      3  C   UNL     1       7.670 -11.145  17.564  1.00  0.00     0.000 C 
BRANCH   3   4
ATOM      4  C   UNL     1       6.167 -11.003  17.258  1.00  0.00     0.000 C 
BRANCH   4   5
ATOM      5  C   UNL     1       5.488 -12.362  17.013  1.00  0.00     0.000 C 
BRANCH   5   6
ATOM      6  C   UNL     1       6.500 -13.509  16.841  1.00  0.00     0.006 C 
BRANCH   6   7
ATOM      7  C   UNL     1       5.823 -14.885  16.856  1.00  0.00     0.053 C 
BRANCH   7   8
ATOM      8  C   UNL     1       6.527 -15.865  15.967  1.00  0.00     0.041 C 
ATOM      9  O   UNL     1       7.018 -15.487  14.871  1.00  0.00    -0.550 OA
ATOM     10  O   UNL     1       6.616 -17.202  16.335  1.00  0.00    -0.550 OA
ENDBRANCH   7   8
ENDBRANCH   6   7
ENDBRANCH   5   6
ENDBRANCH   4   5
ENDBRANCH   3   4
ENDBRANCH   2   3
ENDBRANCH   1   2
BRANCH   1  11
ATOM     11  C   UNL     1       8.877 -12.587  19.571  1.00  0.00    -0.031 C 
ATOM     12  C   UNL     1       8.060 -13.446  20.208  1.00  0.00    -0.027 C 
BRANCH  12  13
ATOM     13  C   UNL     1       7.054 -13.044  21.257  1.00  0.00     0.054 C 
BRANCH  13  14
ATOM     14  C   UNL     1       5.643 -13.332  20.812  1.00  0.00    -0.027 C 
ATOM     15  C   UNL     1       4.712 -12.393  20.559  1.00  0.00    -0.031 C 
BRANCH  15  16
ATOM     16  C   UNL     1       4.914 -10.910  20.756  1.00  0.00     0.027 C 
BRANCH  16  17
ATOM     17  C   UNL     1       3.640 -10.220  21.265  1.00  0.00     0.004 C 
BRANCH  17  18
ATOM     18  C   UNL     1       3.465 -10.375  22.785  1.00  0.00     0.000 C 
BRANCH  18  19
ATOM     19  C   UNL     1       2.099 -10.969  23.165  1.00  0.00    -0.003 C 
ATOM     20  C   UNL     1       1.194 -11.191  21.954  1.00  0.00     0.004 C 
ENDBRANCH  18  19
ENDBRANCH  17  18
ENDBRANCH  16  17
ENDBRANCH  15  16
ENDBRANCH  13  14
ENDBRANCH  12  13
ENDBRANCH   1  11
TORSDOF 14
ENDMDL
MODEL 6
REMARK VINA RESULT:    -2.938      1.405      2.854
REMARK INTER + INTRA:          -8.091
REMARK INTER:                  -5.502
REMARK INTRA:                  -2.588
REMARK UNBOUND:                -2.748
REMARK SMILES CCCCCC=CCC=CCCCCCCCC(=O)[O-]
REMARK SMILES IDX 11 1 12 2 13 3 14 4 15 5 16 6 17 7 18 8 19 9 20 10 10 11
REMARK SMILES IDX 9 12 8 13 7 14 6 15 5 16 4 17 3 18 2 19 1 20
REMARK H PARENT
REMARK Flexibility Score: inf
ROOT
ATOM      1  C   UNL     1       7.320 -13.127   6.882  1.00  0.00     0.027 C 
ENDROOT
BRANCH   1   2
ATOM      2  C   UNL     1       8.741 -13.530   6.455  1.00  0.00     0.004 C 
BRANCH   2   3
ATOM      3  C   UNL     1       8.818 -14.173   5.056  1.00  0.00     0.000 C 
BRANCH   3   4
ATOM      4  C   UNL     1       9.551 -15.527   5.064  1.00  0.00     0.000 C 
BRANCH   4   5
ATOM      5  C   UNL     1       8.837 -16.577   5.933  1.00  0.00     0.000 C 
BRANCH   5   6
ATOM      6  C   UNL     1       9.799 -17.643   6.485  1.00  0.00     0.006 C 
BRANCH   6   7
ATOM      7  C   UNL     1      11.058 -17.021   7.105  1.00  0.00     0.053 C 
BRANCH   7   8
ATOM      8  C   UNL     1      10.731 -16.159   8.287  1.00  0.00     0.041 C 
ATOM      9  O   UNL     1      11.215 -15.000   8.378  1.00  0.00    -0.550 OA
ATOM     10  O   UNL     1       9.918 -16.646   9.302  1.00  0.00    -0.550 OA
ENDBRANCH   7   8
ENDBRANCH   6   7
ENDBRANCH   5   6
ENDBRANCH   4   5
ENDBRANCH   3   4
ENDBRANCH   2   3
ENDBRANCH   1   2
BRANCH   1  11
ATOM     11  C   UNL     1       6.692 -14.138   7.814  1.00  0.00    -0.031 C 
ATOM     12  C   UNL     1       5.868 -15.119   7.403  1.00  0.00    -0.027 C 
BRANCH  12  13
ATOM     13  C   UNL     1       5.472 -15.350   5.967  1.00  0.00     0.054 C 
BRANCH  13  14
ATOM     14  C   UNL     1       3.989 -15.169   5.764  1.00  0.00    -0.027 C 
ATOM     15  C   UNL     1       3.404 -14.024   5.365  1.00  0.00    -0.031 C 
BRANCH  15  16
ATOM     16  C   UNL     1       4.134 -12.723   5.133  1.00  0.00     0.027 C 
BRANCH  16  17
ATOM     17  C   UNL     1       3.817 -11.685   6.220  1.00  0.00     0.004 C 
BRANCH  17  18
ATOM     18  C   UNL     1       2.857 -12.237   7.287  1.00  0.00     0.000 C 
BRANCH  18  19
ATOM     19  C   UNL     1       3.477 -12.245   8.693  1.00  0.00    -0.003 C 
ATOM     20  C   UNL     1       4.672 -11.300   8.817  1.00  0.00     0.004 C 
ENDBRANCH  18  19
ENDBRANCH  17  18
ENDBRANCH  16  17
ENDBRANCH  15  16
ENDBRANCH  13  14
ENDBRANCH  12  13
ENDBRANCH   1  11
TORSDOF 14
ENDMDL
MODEL 7
REMARK VINA RESULT:    -2.922      3.448      6.598
REMARK INTER + INTRA:          -8.061
REMARK INTER:                  -5.149
REMARK INTRA:                  -2.912
REMARK UNBOUND:                -2.748
REMARK SMILES CCCCCC=CCC=CCCCCCCCC(=O)[O-]
REMARK SMILES IDX 11 1 12 2 13 3 14 4 15 5 16 6 17 7 18 8 19 9 20 10 10 11
REMARK SMILES IDX 9 12 8 13 7 14 6 15 5 16 4 17 3 18 2 19 1 20
REMARK H PARENT
REMARK Flexibility Score: inf
ROOT
ATOM      1  C   UNL     1      10.706 -14.979   5.189  1.00  0.00     0.027 C 
ENDROOT
BRANCH   1   2
ATOM      2  C   UNL     1       9.738 -13.826   4.875  1.00  0.00     0.004 C 
BRANCH   2   3
ATOM      3  C   UNL     1       9.234 -13.072   6.121  1.00  0.00     0.000 C 
BRANCH   3   4
ATOM      4  C   UNL     1       7.697 -13.046   6.219  1.00  0.00     0.000 C 
BRANCH   4   5
ATOM      5  C   UNL     1       7.032 -14.066   5.277  1.00  0.00     0.000 C 
BRANCH   5   6
ATOM      6  C   UNL     1       6.580 -15.342   6.010  1.00  0.00     0.006 C 
BRANCH   6   7
ATOM      7  C   UNL     1       5.532 -15.047   7.092  1.00  0.00     0.053 C 
BRANCH   7   8
ATOM      8  C   UNL     1       4.274 -14.476   6.512  1.00  0.00     0.041 C 
ATOM      9  O   UNL     1       3.616 -15.128   5.660  1.00  0.00    -0.550 OA
ATOM     10  O   UNL     1       3.846 -13.209   6.889  1.00  0.00    -0.550 OA
ENDBRANCH   7   8
ENDBRANCH   6   7
ENDBRANCH   5   6
ENDBRANCH   4   5
ENDBRANCH   3   4
ENDBRANCH   2   3
ENDBRANCH   1   2
BRANCH   1  11
ATOM     11  C   UNL     1      10.048 -16.333   5.062  1.00  0.00    -0.031 C 
ATOM     12  C   UNL     1       9.880 -17.180   6.094  1.00  0.00    -0.027 C 
BRANCH  12  13
ATOM     13  C   UNL     1      10.311 -16.890   7.510  1.00  0.00     0.054 C 
BRANCH  13  14
ATOM     14  C   UNL     1       9.201 -16.258   8.310  1.00  0.00    -0.027 C 
ATOM     15  C   UNL     1       9.334 -15.151   9.064  1.00  0.00    -0.031 C 
BRANCH  15  16
ATOM     16  C   UNL     1      10.633 -14.416   9.286  1.00  0.00     0.027 C 
BRANCH  16  17
ATOM     17  C   UNL     1      10.974 -14.289  10.779  1.00  0.00     0.004 C 
BRANCH  17  18
ATOM     18  C   UNL     1      12.098 -15.250  11.200  1.00  0.00     0.000 C 
BRANCH  18  19
ATOM     19  C   UNL     1      12.809 -15.892   9.998  1.00  0.00    -0.003 C 
ATOM     20  C   UNL     1      12.959 -17.405  10.140  1.00  0.00     0.004 C 
ENDBRANCH  18  19
ENDBRANCH  17  18
ENDBRANCH  16  17
ENDBRANCH  15  16
ENDBRANCH  13  14
ENDBRANCH  12  13
ENDBRANCH   1  11
TORSDOF 14
ENDMDL
MODEL 8
REMARK VINA RESULT:    -2.890     12.717     15.061
REMARK INTER + INTRA:          -8.003
REMARK INTER:                  -5.751
REMARK INTRA:                  -2.252
REMARK UNBOUND:                -2.748
REMARK SMILES CCCCCC=CCC=CCCCCCCCC(=O)[O-]
REMARK SMILES IDX 11 1 12 2 13 3 14 4 15 5 16 6 17 7 18 8 19 9 20 10 10 11
REMARK SMILES IDX 9 12 8 13 7 14 6 15 5 16 4 17 3 18 2 19 1 20
REMARK H PARENT
REMARK Flexibility Score: inf
ROOT
ATOM      1  C   UNL     1       5.681 -11.891  17.340  1.00  0.00     0.027 C 
ENDROOT
BRANCH   1   2
ATOM      2  C   UNL     1       5.586 -13.298  17.952  1.00  0.00     0.004 C 
BRANCH   2   3
ATOM      3  C   UNL     1       4.921 -13.336  19.342  1.00  0.00     0.000 C 
BRANCH   3   4
ATOM      4  C   UNL     1       4.299 -11.985  19.739  1.00  0.00     0.000 C 
BRANCH   4   5
ATOM      5  C   UNL     1       4.931 -11.400  21.014  1.00  0.00     0.000 C 
BRANCH   5   6
ATOM      6  C   UNL     1       4.076 -11.652  22.269  1.00  0.00     0.006 C 
BRANCH   6   7
ATOM      7  C   UNL     1       3.645 -10.344  22.948  1.00  0.00     0.053 C 
BRANCH   7   8
ATOM      8  C   UNL     1       2.159 -10.154  22.902  1.00  0.00     0.041 C 
ATOM      9  O   UNL     1       1.492 -10.605  21.935  1.00  0.00    -0.550 OA
ATOM     10  O   UNL     1       1.516  -9.452  23.914  1.00  0.00    -0.550 OA
ENDBRANCH   7   8
ENDBRANCH   6   7
ENDBRANCH   5   6
ENDBRANCH   4   5
ENDBRANCH   3   4
ENDBRANCH   2   3
ENDBRANCH   1   2
BRANCH   1  11
ATOM     11  C   UNL     1       7.060 -11.591  16.800  1.00  0.00    -0.031 C 
ATOM     12  C   UNL     1       8.025 -10.985  17.516  1.00  0.00    -0.027 C 
BRANCH  12  13
ATOM     13  C   UNL     1       7.868 -10.537  18.947  1.00  0.00     0.054 C 
BRANCH  13  14
ATOM     14  C   UNL     1       9.087 -10.869  19.770  1.00  0.00    -0.027 C 
ATOM     15  C   UNL     1       9.259 -12.015  20.455  1.00  0.00    -0.031 C 
BRANCH  15  16
ATOM     16  C   UNL     1       8.227 -13.110  20.570  1.00  0.00     0.027 C 
BRANCH  16  17
ATOM     17  C   UNL     1       7.887 -13.429  22.033  1.00  0.00     0.004 C 
BRANCH  17  18
ATOM     18  C   UNL     1       8.879 -14.426  22.655  1.00  0.00     0.000 C 
BRANCH  18  19
ATOM     19  C   UNL     1       9.727 -13.797  23.772  1.00  0.00    -0.003 C 
ATOM     20  C   UNL     1       9.114 -12.511  24.326  1.00  0.00     0.004 C 
ENDBRANCH  18  19
ENDBRANCH  17  18
ENDBRANCH  16  17
ENDBRANCH  15  16
ENDBRANCH  13  14
ENDBRANCH  12  13
ENDBRANCH   1  11
TORSDOF 14
ENDMDL
MODEL 9
REMARK VINA RESULT:    -2.864     13.132     15.474
REMARK INTER + INTRA:          -7.955
REMARK INTER:                  -5.307
REMARK INTRA:                  -2.649
REMARK UNBOUND:                -2.748
REMARK SMILES CCCCCC=CCC=CCCCCCCCC(=O)[O-]
REMARK SMILES IDX 11 1 12 2 13 3 14 4 15 5 16 6 17 7 18 8 19 9 20 10 10 11
REMARK SMILES IDX 9 12 8 13 7 14 6 15 5 16 4 17 3 18 2 19 1 20
REMARK H PARENT
REMARK Flexibility Score: inf
ROOT
ATOM      1  C   UNL     1       2.784 -13.503  22.856  1.00  0.00     0.027 C 
ENDROOT
BRANCH   1   2
ATOM      2  C   UNL     1       3.794 -13.414  21.701  1.00  0.00     0.004 C 
BRANCH   2   3
ATOM      3  C   UNL     1       5.218 -13.871  22.074  1.00  0.00     0.000 C 
BRANCH   3   4
ATOM      4  C   UNL     1       6.293 -12.840  21.686  1.00  0.00     0.000 C 
BRANCH   4   5
ATOM      5  C   UNL     1       5.883 -11.993  20.469  1.00  0.00     0.000 C 
BRANCH   5   6
ATOM      6  C   UNL     1       6.397 -12.576  19.141  1.00  0.00     0.006 C 
BRANCH   6   7
ATOM      7  C   UNL     1       7.924 -12.484  19.020  1.00  0.00     0.053 C 
BRANCH   7   8
ATOM      8  C   UNL     1       8.401 -11.063  19.031  1.00  0.00     0.041 C 
ATOM      9  O   UNL     1       9.226 -10.678  19.900  1.00  0.00    -0.550 OA
ATOM     10  O   UNL     1       7.910 -10.157  18.099  1.00  0.00    -0.550 OA
ENDBRANCH   7   8
ENDBRANCH   6   7
ENDBRANCH   5   6
ENDBRANCH   4   5
ENDBRANCH   3   4
ENDBRANCH   2   3
ENDBRANCH   1   2
BRANCH   1  11
ATOM     11  C   UNL     1       1.353 -13.418  22.377  1.00  0.00    -0.031 C 
ATOM     12  C   UNL     1       0.398 -12.709  23.005  1.00  0.00    -0.027 C 
BRANCH  12  13
ATOM     13  C   UNL     1       0.624 -11.899  24.256  1.00  0.00     0.054 C 
BRANCH  13  14
ATOM     14  C   UNL     1       0.384 -10.429  24.017  1.00  0.00    -0.027 C 
ATOM     15  C   UNL     1       1.334  -9.547  23.656  1.00  0.00    -0.031 C 
BRANCH  15  16
ATOM     16  C   UNL     1       2.800  -9.876  23.508  1.00  0.00     0.027 C 
BRANCH  16  17
ATOM     17  C   UNL     1       3.250  -9.851  22.040  1.00  0.00     0.004 C 
BRANCH  17  18
ATOM     18  C   UNL     1       2.101  -9.477  21.088  1.00  0.00     0.000 C 
BRANCH  18  19
ATOM     19  C   UNL     1       1.780 -10.594  20.082  1.00  0.00    -0.003 C 
ATOM     20  C   UNL     1       2.830 -10.715  18.979  1.00  0.00     0.004 C 
ENDBRANCH  18  19
ENDBRANCH  17  18
ENDBRANCH  16  17
ENDBRANCH  15  16
ENDBRANCH  13  14
ENDBRANCH  12  13
ENDBRANCH   1  11
TORSDOF 14
ENDMDL
