MODEL 1
REMARK VINA RESULT:    -4.170      0.000      0.000
REMARK INTER + INTRA:          -6.177
REMARK INTER:                  -5.877
REMARK INTRA:                  -0.300
REMARK UNBOUND:                -0.300
REMARK SMILES C=CCCCCCCC(=O)[O-]
REMARK SMILES IDX 6 1 7 2 8 3 9 4 10 5 11 6 5 7 4 8 3 9 2 10 1 11
REMARK H PARENT
REMARK Flexibility Score: inf
ROOT
ATOM      1  C   UNL     1     -13.233 -13.283  20.096  1.00  0.00     0.000 C 
ENDROOT
BRANCH   1   2
ATOM      2  C   UNL     1     -13.874 -13.475  21.483  1.00  0.00     0.006 C 
BRANCH   2   3
ATOM      3  C   UNL     1     -13.077 -14.392  22.426  1.00  0.00     0.053 C 
BRANCH   3   4
ATOM      4  C   UNL     1     -13.689 -15.753  22.537  1.00  0.00     0.041 C 
ATOM      5  O   UNL     1     -14.132 -16.161  23.644  1.00  0.00    -0.550 OA
ATOM      6  O   UNL     1     -13.741 -16.587  21.426  1.00  0.00    -0.550 OA
ENDBRANCH   3   4
ENDBRANCH   2   3
ENDBRANCH   1   2
BRANCH   1   7
ATOM      7  C   UNL     1     -11.762 -13.719  20.054  1.00  0.00     0.000 C 
BRANCH   7   8
ATOM      8  C   UNL     1     -10.923 -12.740  19.218  1.00  0.00     0.004 C 
BRANCH   8   9
ATOM      9  C   UNL     1     -11.469 -12.580  17.791  1.00  0.00     0.027 C 
BRANCH   9  10
ATOM     10  C   UNL     1     -12.028 -11.204  17.543  1.00  0.00    -0.035 C 
ATOM     11  C   UNL     1     -11.326 -10.264  16.902  1.00  0.00     0.004 C 
ENDBRANCH   9  10
ENDBRANCH   8   9
ENDBRANCH   7   8
ENDBRANCH   1   7
TORSDOF 7
ENDMDL
MODEL 2
REMARK VINA RESULT:    -4.054      1.149      2.172
REMARK INTER + INTRA:          -6.012
REMARK INTER:                  -5.400
REMARK INTRA:                  -0.612
REMARK UNBOUND:                -0.300
REMARK SMILES C=CCCCCCCC(=O)[O-]
REMARK SMILES IDX 6 1 7 2 8 3 9 4 10 5 11 6 5 7 4 8 3 9 2 10 1 11
REMARK H PARENT
REMARK Flexibility Score: inf
ROOT
ATOM      1  C   UNL     1     -14.318 -12.915  21.900  1.00  0.00     0.000 C 
ENDROOT
BRANCH   1   2
ATOM      2  C   UNL     1     -13.030 -13.750  22.023  1.00  0.00     0.006 C 
BRANCH   2   3
ATOM      3  C   UNL     1     -13.171 -15.004  22.900  1.00  0.00     0.053 C 
BRANCH   3   4
ATOM      4  C   UNL     1     -13.887 -16.110  22.188  1.00  0.00     0.041 C 
ATOM      5  O   UNL     1     -13.528 -16.456  21.032  1.00  0.00    -0.550 OA
ATOM      6  O   UNL     1     -14.973 -16.736  22.788  1.00  0.00    -0.550 OA
ENDBRANCH   3   4
ENDBRANCH   2   3
ENDBRANCH   1   2
BRANCH   1   7
ATOM      7  C   UNL     1     -14.652 -12.544  20.448  1.00  0.00     0.000 C 
BRANCH   7   8
ATOM      8  C   UNL     1     -13.633 -13.157  19.476  1.00  0.00     0.004 C 
BRANCH   8   9
ATOM      9  C   UNL     1     -13.099 -12.127  18.469  1.00  0.00     0.027 C 
BRANCH   9  10
ATOM     10  C   UNL     1     -11.598 -12.160  18.356  1.00  0.00    -0.035 C 
ATOM     11  C   UNL     1     -10.838 -12.782  19.262  1.00  0.00     0.004 C 
ENDBRANCH   9  10
ENDBRANCH   8   9
ENDBRANCH   7   8
ENDBRANCH   1   7
TORSDOF 7
ENDMDL
MODEL 3
REMARK VINA RESULT:    -4.039      2.823      5.254
REMARK INTER + INTRA:          -5.991
REMARK INTER:                  -5.325
REMARK INTRA:                  -0.666
REMARK UNBOUND:                -0.300
REMARK SMILES C=CCCCCCCC(=O)[O-]
REMARK SMILES IDX 6 1 7 2 8 3 9 4 10 5 11 6 5 7 4 8 3 9 2 10 1 11
REMARK H PARENT
REMARK Flexibility Score: inf
ROOT
ATOM      1  C   UNL     1     -15.125 -12.543  20.137  1.00  0.00     0.000 C 
ENDROOT
BRANCH   1   2
ATOM      2  C   UNL     1     -14.094 -12.127  19.071  1.00  0.00     0.006 C 
BRANCH   2   3
ATOM      3  C   UNL     1     -13.010 -13.182  18.795  1.00  0.00     0.053 C 
BRANCH   3   4
ATOM      4  C   UNL     1     -11.649 -12.570  18.675  1.00  0.00     0.041 C 
ATOM      5  O   UNL     1     -10.751 -12.853  19.512  1.00  0.00    -0.550 OA
ATOM      6  O   UNL     1     -11.380 -11.661  17.659  1.00  0.00    -0.550 OA
ENDBRANCH   3   4
ENDBRANCH   2   3
ENDBRANCH   1   2
BRANCH   1   7
ATOM      7  C   UNL     1     -14.756 -12.054  21.545  1.00  0.00     0.000 C 
BRANCH   7   8
ATOM      8  C   UNL     1     -14.707 -13.224  22.538  1.00  0.00     0.004 C 
BRANCH   8   9
ATOM      9  C   UNL     1     -13.268 -13.593  22.930  1.00  0.00     0.027 C 
BRANCH   9  10
ATOM     10  C   UNL     1     -12.862 -14.948  22.415  1.00  0.00    -0.035 C 
ATOM     11  C   UNL     1     -13.626 -15.633  21.559  1.00  0.00     0.004 C 
ENDBRANCH   9  10
ENDBRANCH   8   9
ENDBRANCH   7   8
ENDBRANCH   1   7
TORSDOF 7
ENDMDL
MODEL 4
REMARK VINA RESULT:    -4.036      2.911      5.359
REMARK INTER + INTRA:          -5.987
REMARK INTER:                  -5.462
REMARK INTRA:                  -0.525
REMARK UNBOUND:                -0.300
REMARK SMILES C=CCCCCCCC(=O)[O-]
REMARK SMILES IDX 6 1 7 2 8 3 9 4 10 5 11 6 5 7 4 8 3 9 2 10 1 11
REMARK H PARENT
REMARK Flexibility Score: inf
ROOT
ATOM      1  C   UNL     1     -14.924 -13.513  19.789  1.00  0.00     0.000 C 
ENDROOT
BRANCH   1   2
ATOM      2  C   UNL     1     -13.703 -13.653  18.860  1.00  0.00     0.006 C 
BRANCH   2   3
ATOM      3  C   UNL     1     -12.966 -12.334  18.582  1.00  0.00     0.053 C 
BRANCH   3   4
ATOM      4  C   UNL     1     -11.500 -12.544  18.365  1.00  0.00     0.041 C 
ATOM      5  O   UNL     1     -11.042 -12.657  17.196  1.00  0.00    -0.550 OA
ATOM      6  O   UNL     1     -10.642 -12.650  19.453  1.00  0.00    -0.550 OA
ENDBRANCH   3   4
ENDBRANCH   2   3
ENDBRANCH   1   2
BRANCH   1   7
ATOM      7  C   UNL     1     -15.125 -12.078  20.296  1.00  0.00     0.000 C 
BRANCH   7   8
ATOM      8  C   UNL     1     -14.976 -12.008  21.823  1.00  0.00     0.004 C 
BRANCH   8   9
ATOM      9  C   UNL     1     -14.678 -13.383  22.440  1.00  0.00     0.027 C 
BRANCH   9  10
ATOM     10  C   UNL     1     -13.239 -13.523  22.862  1.00  0.00    -0.035 C 
ATOM     11  C   UNL     1     -12.610 -14.701  22.835  1.00  0.00     0.004 C 
ENDBRANCH   9  10
ENDBRANCH   8   9
ENDBRANCH   7   8
ENDBRANCH   1   7
TORSDOF 7
ENDMDL
MODEL 5
REMARK VINA RESULT:    -3.991      1.295      2.136
REMARK INTER + INTRA:          -5.924
REMARK INTER:                  -5.379
REMARK INTRA:                  -0.545
REMARK UNBOUND:                -0.300
REMARK SMILES C=CCCCCCCC(=O)[O-]
REMARK SMILES IDX 6 1 7 2 8 3 9 4 10 5 11 6 5 7 4 8 3 9 2 10 1 11
REMARK H PARENT
REMARK Flexibility Score: inf
ROOT
ATOM      1  C   UNL     1     -12.880 -13.668  22.008  1.00  0.00     0.000 C 
ENDROOT
BRANCH   1   2
ATOM      2  C   UNL     1     -13.038 -15.120  22.494  1.00  0.00     0.006 C 
BRANCH   2   3
ATOM      3  C   UNL     1     -14.298 -15.828  21.970  1.00  0.00     0.053 C 
BRANCH   3   4
ATOM      4  C   UNL     1     -13.968 -16.917  20.998  1.00  0.00     0.041 C 
ATOM      5  O   UNL     1     -14.124 -18.125  21.321  1.00  0.00    -0.550 OA
ATOM      6  O   UNL     1     -13.456 -16.601  19.745  1.00  0.00    -0.550 OA
ENDBRANCH   3   4
ENDBRANCH   2   3
ENDBRANCH   1   2
BRANCH   1   7
ATOM      7  C   UNL     1     -13.967 -13.253  21.005  1.00  0.00     0.000 C 
BRANCH   7   8
ATOM      8  C   UNL     1     -13.357 -12.953  19.627  1.00  0.00     0.004 C 
BRANCH   8   9
ATOM      9  C   UNL     1     -11.860 -13.292  19.568  1.00  0.00     0.027 C 
BRANCH   9  10
ATOM     10  C   UNL     1     -11.115 -12.432  18.582  1.00  0.00    -0.035 C 
ATOM     11  C   UNL     1     -11.755 -11.657  17.701  1.00  0.00     0.004 C 
ENDBRANCH   9  10
ENDBRANCH   8   9
ENDBRANCH   7   8
ENDBRANCH   1   7
TORSDOF 7
ENDMDL
MODEL 6
REMARK VINA RESULT:    -3.919      3.199      5.330
REMARK INTER + INTRA:          -5.823
REMARK INTER:                  -5.324
REMARK INTRA:                  -0.499
REMARK UNBOUND:                -0.300
REMARK SMILES C=CCCCCCCC(=O)[O-]
REMARK SMILES IDX 6 1 7 2 8 3 9 4 10 5 11 6 5 7 4 8 3 9 2 10 1 11
REMARK H PARENT
REMARK Flexibility Score: inf
ROOT
ATOM      1  C   UNL     1     -11.776 -13.873  20.214  1.00  0.00     0.000 C 
ENDROOT
BRANCH   1   2
ATOM      2  C   UNL     1     -10.943 -12.862  19.403  1.00  0.00     0.006 C 
BRANCH   2   3
ATOM      3  C   UNL     1     -11.357 -12.742  17.928  1.00  0.00     0.053 C 
BRANCH   3   4
ATOM      4  C   UNL     1     -12.134 -11.491  17.662  1.00  0.00     0.041 C 
ATOM      5  O   UNL     1     -11.560 -10.479  17.179  1.00  0.00    -0.550 OA
ATOM      6  O   UNL     1     -13.486 -11.429  17.978  1.00  0.00    -0.550 OA
ENDBRANCH   3   4
ENDBRANCH   2   3
ENDBRANCH   1   2
BRANCH   1   7
ATOM      7  C   UNL     1     -12.859 -14.563  19.373  1.00  0.00     0.000 C 
BRANCH   7   8
ATOM      8  C   UNL     1     -14.165 -14.706  20.169  1.00  0.00     0.004 C 
BRANCH   8   9
ATOM      9  C   UNL     1     -15.073 -13.475  20.021  1.00  0.00     0.027 C 
BRANCH   9  10
ATOM     10  C   UNL     1     -14.867 -12.474  21.127  1.00  0.00    -0.035 C 
ATOM     11  C   UNL     1     -14.691 -12.854  22.396  1.00  0.00     0.004 C 
ENDBRANCH   9  10
ENDBRANCH   8   9
ENDBRANCH   7   8
ENDBRANCH   1   7
TORSDOF 7
ENDMDL
MODEL 7
REMARK VINA RESULT:    -3.908      1.977      2.419
REMARK INTER + INTRA:          -5.807
REMARK INTER:                  -5.192
REMARK INTRA:                  -0.615
REMARK UNBOUND:                -0.300
REMARK SMILES C=CCCCCCCC(=O)[O-]
REMARK SMILES IDX 6 1 7 2 8 3 9 4 10 5 11 6 5 7 4 8 3 9 2 10 1 11
REMARK H PARENT
REMARK Flexibility Score: inf
ROOT
ATOM      1  C   UNL     1     -14.356 -14.806  19.096  1.00  0.00     0.000 C 
ENDROOT
BRANCH   1   2
ATOM      2  C   UNL     1     -14.733 -15.176  20.542  1.00  0.00     0.006 C 
BRANCH   2   3
ATOM      3  C   UNL     1     -13.561 -15.121  21.535  1.00  0.00     0.053 C 
BRANCH   3   4
ATOM      4  C   UNL     1     -13.533 -13.836  22.302  1.00  0.00     0.041 C 
ATOM      5  O   UNL     1     -14.503 -13.035  22.231  1.00  0.00    -0.550 OA
ATOM      6  O   UNL     1     -12.422 -13.506  23.069  1.00  0.00    -0.550 OA
ENDBRANCH   3   4
ENDBRANCH   2   3
ENDBRANCH   1   2
BRANCH   1   7
ATOM      7  C   UNL     1     -14.866 -13.418  18.683  1.00  0.00     0.000 C 
BRANCH   7   8
ATOM      8  C   UNL     1     -13.744 -12.372  18.770  1.00  0.00     0.004 C 
BRANCH   8   9
ATOM      9  C   UNL     1     -12.349 -13.010  18.697  1.00  0.00     0.027 C 
BRANCH   9  10
ATOM     10  C   UNL     1     -11.346 -12.119  18.014  1.00  0.00    -0.035 C 
ATOM     11  C   UNL     1     -11.720 -11.035  17.327  1.00  0.00     0.004 C 
ENDBRANCH   9  10
ENDBRANCH   8   9
ENDBRANCH   7   8
ENDBRANCH   1   7
TORSDOF 7
ENDMDL
MODEL 8
REMARK VINA RESULT:    -3.855      2.683      5.215
REMARK INTER + INTRA:          -5.733
REMARK INTER:                  -5.100
REMARK INTRA:                  -0.633
REMARK UNBOUND:                -0.300
REMARK SMILES C=CCCCCCCC(=O)[O-]
REMARK SMILES IDX 6 1 7 2 8 3 9 4 10 5 11 6 5 7 4 8 3 9 2 10 1 11
REMARK H PARENT
REMARK Flexibility Score: inf
ROOT
ATOM      1  C   UNL     1     -14.691 -14.031  18.825  1.00  0.00     0.000 C 
ENDROOT
BRANCH   1   2
ATOM      2  C   UNL     1     -13.983 -12.782  19.382  1.00  0.00     0.006 C 
BRANCH   2   3
ATOM      3  C   UNL     1     -13.025 -12.104  18.389  1.00  0.00     0.053 C 
BRANCH   3   4
ATOM      4  C   UNL     1     -11.649 -12.690  18.445  1.00  0.00     0.041 C 
ATOM      5  O   UNL     1     -10.903 -12.653  17.431  1.00  0.00    -0.550 OA
ATOM      6  O   UNL     1     -11.201 -13.309  19.606  1.00  0.00    -0.550 OA
ENDBRANCH   3   4
ENDBRANCH   2   3
ENDBRANCH   1   2
BRANCH   1   7
ATOM      7  C   UNL     1     -14.345 -15.309  19.602  1.00  0.00     0.000 C 
BRANCH   7   8
ATOM      8  C   UNL     1     -14.691 -15.157  21.091  1.00  0.00     0.004 C 
BRANCH   8   9
ATOM      9  C   UNL     1     -13.653 -15.833  22.000  1.00  0.00     0.027 C 
BRANCH   9  10
ATOM     10  C   UNL     1     -12.786 -14.835  22.721  1.00  0.00    -0.035 C 
ATOM     11  C   UNL     1     -13.151 -13.558  22.861  1.00  0.00     0.004 C 
ENDBRANCH   9  10
ENDBRANCH   8   9
ENDBRANCH   7   8
ENDBRANCH   1   7
TORSDOF 7
ENDMDL
MODEL 9
REMARK VINA RESULT:    -3.804     21.673     23.659
REMARK INTER + INTRA:          -5.661
REMARK INTER:                  -5.301
REMARK INTRA:                  -0.360
REMARK UNBOUND:                -0.300
REMARK SMILES C=CCCCCCCC(=O)[O-]
REMARK SMILES IDX 6 1 7 2 8 3 9 4 10 5 11 6 5 7 4 8 3 9 2 10 1 11
REMARK H PARENT
REMARK Flexibility Score: inf
ROOT
ATOM      1  C   UNL     1       4.464  -1.819   8.311  1.00  0.00     0.000 C 
ENDROOT
BRANCH   1   2
ATOM      2  C   UNL     1       4.671  -0.305   8.509  1.00  0.00     0.006 C 
BRANCH   2   3
ATOM      3  C   UNL     1       4.866   0.118   9.974  1.00  0.00     0.053 C 
BRANCH   3   4
ATOM      4  C   UNL     1       3.965   1.250  10.357  1.00  0.00     0.041 C 
ATOM      5  O   UNL     1       3.161   1.733   9.515  1.00  0.00    -0.550 OA
ATOM      6  O   UNL     1       4.035   1.797  11.633  1.00  0.00    -0.550 OA
ENDBRANCH   3   4
ENDBRANCH   2   3
ENDBRANCH   1   2
BRANCH   1   7
ATOM      7  C   UNL     1       4.922  -2.647   9.519  1.00  0.00     0.000 C 
BRANCH   7   8
ATOM      8  C   UNL     1       3.770  -3.503  10.067  1.00  0.00     0.004 C 
BRANCH   8   9
ATOM      9  C   UNL     1       3.629  -3.378  11.592  1.00  0.00     0.027 C 
BRANCH   9  10
ATOM     10  C   UNL     1       4.010  -4.646  12.309  1.00  0.00    -0.035 C 
ATOM     11  C   UNL     1       4.889  -4.648  13.316  1.00  0.00     0.004 C 
ENDBRANCH   9  10
ENDBRANCH   8   9
ENDBRANCH   7   8
ENDBRANCH   1   7
TORSDOF 7
ENDMDL
