MODEL 1
REMARK VINA RESULT:    -2.511      0.000      0.000
REMARK INTER + INTRA:          -2.511
REMARK INTER:                  -2.511
REMARK INTRA:                   0.000
REMARK UNBOUND:                 0.000
REMARK SMILES CC(=O)[O-]
REMARK SMILES IDX 1 1 2 2 3 3 4 4
REMARK H PARENT
REMARK Flexibility Score: inf
ROOT
ATOM      1  C   UNL     1      -5.564  27.067  29.605  1.00  0.00     0.063 C 
ATOM      2  C   UNL     1      -5.174  25.629  29.549  1.00  0.00     0.038 C 
ATOM      3  O   UNL     1      -5.839  24.822  28.849  1.00  0.00    -0.550 OA
ATOM      4  O   UNL     1      -4.107  25.167  30.309  1.00  0.00    -0.550 OA
ENDROOT
TORSDOF 0
ENDMDL
MODEL 2
REMARK VINA RESULT:    -2.448     13.739     14.170
REMARK INTER + INTRA:          -2.448
REMARK INTER:                  -2.448
REMARK INTRA:                   0.000
REMARK UNBOUND:                 0.000
REMARK SMILES CC(=O)[O-]
REMARK SMILES IDX 1 1 2 2 3 3 4 4
REMARK H PARENT
REMARK Flexibility Score: inf
ROOT
ATOM      1  C   UNL     1      -5.702  35.644  21.459  1.00  0.00     0.063 C 
ATOM      2  C   UNL     1      -5.236  36.100  20.118  1.00  0.00     0.038 C 
ATOM      3  O   UNL     1      -4.721  35.277  19.315  1.00  0.00    -0.550 OA
ATOM      4  O   UNL     1      -5.320  37.442  19.770  1.00  0.00    -0.550 OA
ENDROOT
TORSDOF 0
ENDMDL
MODEL 3
REMARK VINA RESULT:    -2.408     13.610     14.050
REMARK INTER + INTRA:          -2.408
REMARK INTER:                  -2.408
REMARK INTRA:                   0.000
REMARK UNBOUND:                 0.000
REMARK SMILES CC(=O)[O-]
REMARK SMILES IDX 1 1 2 2 3 3 4 4
REMARK H PARENT
REMARK Flexibility Score: inf
ROOT
ATOM      1  C   UNL     1      -6.112  35.376  21.346  1.00  0.00     0.063 C 
ATOM      2  C   UNL     1      -5.358  36.082  20.271  1.00  0.00     0.038 C 
ATOM      3  O   UNL     1      -5.375  37.339  20.209  1.00  0.00    -0.550 OA
ATOM      4  O   UNL     1      -4.677  35.353  19.303  1.00  0.00    -0.550 OA
ENDROOT
TORSDOF 0
ENDMDL
MODEL 4
REMARK VINA RESULT:    -2.399     13.636     14.076
REMARK INTER + INTRA:          -2.399
REMARK INTER:                  -2.399
REMARK INTRA:                   0.000
REMARK UNBOUND:                 0.000
REMARK SMILES CC(=O)[O-]
REMARK SMILES IDX 1 1 2 2 3 3 4 4
REMARK H PARENT
REMARK Flexibility Score: inf
ROOT
ATOM      1  C   UNL     1      -5.313  37.506  20.235  1.00  0.00     0.063 C 
ATOM      2  C   UNL     1      -5.399  36.019  20.168  1.00  0.00     0.038 C 
ATOM      3  O   UNL     1      -6.101  35.389  21.002  1.00  0.00    -0.550 OA
ATOM      4  O   UNL     1      -4.662  35.321  19.220  1.00  0.00    -0.550 OA
ENDROOT
TORSDOF 0
ENDMDL
MODEL 5
REMARK VINA RESULT:    -2.326      1.308      2.286
REMARK INTER + INTRA:          -2.326
REMARK INTER:                  -2.326
REMARK INTRA:                   0.000
REMARK UNBOUND:                 0.000
REMARK SMILES CC(=O)[O-]
REMARK SMILES IDX 1 1 2 2 3 3 4 4
REMARK H PARENT
REMARK Flexibility Score: inf
ROOT
ATOM      1  C   UNL     1      -5.400  24.055  29.070  1.00  0.00     0.063 C 
ATOM      2  C   UNL     1      -4.939  25.340  29.668  1.00  0.00     0.038 C 
ATOM      3  O   UNL     1      -3.958  25.353  30.458  1.00  0.00    -0.550 OA
ATOM      4  O   UNL     1      -5.623  26.519  29.398  1.00  0.00    -0.550 OA
ENDROOT
TORSDOF 0
ENDMDL
MODEL 6
REMARK VINA RESULT:    -2.287     10.927     11.390
REMARK INTER + INTRA:          -2.287
REMARK INTER:                  -2.287
REMARK INTRA:                   0.000
REMARK UNBOUND:                 0.000
REMARK SMILES CC(=O)[O-]
REMARK SMILES IDX 1 1 2 2 3 3 4 4
REMARK H PARENT
REMARK Flexibility Score: inf
ROOT
ATOM      1  C   UNL     1      -6.123  33.801  23.793  1.00  0.00     0.063 C 
ATOM      2  C   UNL     1      -5.891  35.269  23.908  1.00  0.00     0.038 C 
ATOM      3  O   UNL     1      -5.576  35.773  25.018  1.00  0.00    -0.550 OA
ATOM      4  O   UNL     1      -6.072  36.092  22.804  1.00  0.00    -0.550 OA
ENDROOT
TORSDOF 0
ENDMDL
MODEL 7
REMARK VINA RESULT:    -2.244     10.871     11.318
REMARK INTER + INTRA:          -2.244
REMARK INTER:                  -2.244
REMARK INTRA:                   0.000
REMARK UNBOUND:                 0.000
REMARK SMILES CC(=O)[O-]
REMARK SMILES IDX 1 1 2 2 3 3 4 4
REMARK H PARENT
REMARK Flexibility Score: inf
ROOT
ATOM      1  C   UNL     1      -6.083  36.022  24.881  1.00  0.00     0.063 C 
ATOM      2  C   UNL     1      -6.028  35.210  23.632  1.00  0.00     0.038 C 
ATOM      3  O   UNL     1      -6.125  35.771  22.509  1.00  0.00    -0.550 OA
ATOM      4  O   UNL     1      -5.923  33.826  23.704  1.00  0.00    -0.550 OA
ENDROOT
TORSDOF 0
ENDMDL
MODEL 8
REMARK VINA RESULT:    -2.238     10.887     11.366
REMARK INTER + INTRA:          -2.238
REMARK INTER:                  -2.238
REMARK INTRA:                   0.000
REMARK UNBOUND:                 0.000
REMARK SMILES CC(=O)[O-]
REMARK SMILES IDX 1 1 2 2 3 3 4 4
REMARK H PARENT
REMARK Flexibility Score: inf
ROOT
ATOM      1  C   UNL     1      -6.102  36.026  24.769  1.00  0.00     0.063 C 
ATOM      2  C   UNL     1      -6.020  35.127  23.582  1.00  0.00     0.038 C 
ATOM      3  O   UNL     1      -5.886  33.885  23.740  1.00  0.00    -0.550 OA
ATOM      4  O   UNL     1      -6.038  35.662  22.300  1.00  0.00    -0.550 OA
ENDROOT
TORSDOF 0
ENDMDL
MODEL 9
REMARK VINA RESULT:    -2.202     13.334     13.733
REMARK INTER + INTRA:          -2.202
REMARK INTER:                  -2.202
REMARK INTRA:                   0.000
REMARK UNBOUND:                 0.000
REMARK SMILES CC(=O)[O-]
REMARK SMILES IDX 1 1 2 2 3 3 4 4
REMARK H PARENT
REMARK Flexibility Score: inf
ROOT
ATOM      1  C   UNL     1      -5.284  37.368  20.332  1.00  0.00     0.063 C 
ATOM      2  C   UNL     1      -5.370  35.883  20.441  1.00  0.00     0.038 C 
ATOM      3  O   UNL     1      -5.647  35.191  19.426  1.00  0.00    -0.550 OA
ATOM      4  O   UNL     1      -5.197  35.264  21.672  1.00  0.00    -0.550 OA
ENDROOT
TORSDOF 0
ENDMDL
