MODEL 1
REMARK VINA RESULT:    -6.030      0.000      0.000
REMARK INTER + INTRA:         -10.148
REMARK INTER:                  -9.379
REMARK INTRA:                  -0.769
REMARK UNBOUND:                -0.769
REMARK SMILES C[C@]12C[C@]3(O)O[C@H](O1)[C@@]1(COC(=O)c4ccccc4)[C@@H]3C[C@]12O[C@H]1O[C@@H](CO)[C@@H](O)[C@H](O)[C@H]1O
REMARK SMILES IDX 1 1 2 2 3 3 4 4 20 5 21 6 22 7 9 8 7 9 8 10 6 11 23 12 24 13
REMARK SMILES IDX 33 14 25 15 31 16 26 17 29 18 34 19 32 21 27 23 28 24 30 26
REMARK SMILES IDX 5 28 10 30 11 31 12 32 13 33 14 34 15 35 19 36 16 37 18 38
REMARK SMILES IDX 17 39
REMARK H PARENT 34 20 32 22 28 25 30 27 5 29
REMARK Flexibility Score: inf
ROOT
ATOM      1  C   UNL     1      64.246  26.525  60.899  1.00  0.00     0.046 C 
ATOM      2  C   UNL     1      64.327  27.987  60.456  1.00  0.00     0.104 C 
ATOM      3  C   UNL     1      64.980  28.120  59.031  1.00  0.00     0.104 C 
ATOM      4  C   UNL     1      64.899  29.661  58.730  1.00  0.00     0.175 C 
ATOM      5  C   UNL     1      63.456  30.203  59.007  1.00  0.00     0.070 C 
ATOM      6  C   UNL     1      62.400  29.091  59.063  1.00  0.00     0.050 C 
ATOM      7  C   UNL     1      62.958  28.760  60.466  1.00  0.00     0.115 C 
ATOM      8  C   UNL     1      63.512  30.182  60.526  1.00  0.00     0.096 C 
ATOM      9  C   UNL     1      64.975  30.068  60.909  1.00  0.00     0.267 C 
ATOM     10  O   UNL     1      65.161  28.726  61.330  1.00  0.00    -0.342 OA
ATOM     11  O   UNL     1      65.702  30.285  59.709  1.00  0.00    -0.320 OA
ENDROOT
BRANCH   7  12
ATOM     12  O   UNL     1      62.048  28.488  61.522  1.00  0.00    -0.339 OA
BRANCH  12  13
ATOM     13  C   UNL     1      61.197  27.388  61.240  1.00  0.00     0.282 C 
ATOM     14  C   UNL     1      59.831  27.933  60.773  1.00  0.00     0.202 C 
ATOM     15  O   UNL     1      61.033  26.643  62.436  1.00  0.00    -0.341 OA
ATOM     16  C   UNL     1      58.826  26.774  60.582  1.00  0.00     0.179 C 
ATOM     17  C   UNL     1      60.270  25.473  62.195  1.00  0.00     0.178 C 
ATOM     18  C   UNL     1      58.819  25.847  61.814  1.00  0.00     0.177 C 
BRANCH  14  19
ATOM     19  O   UNL     1      59.342  28.847  61.724  1.00  0.00    -0.385 OA
ATOM     20  H   UNL     1      58.778  28.328  62.356  1.00  0.00     0.211 HD
ENDBRANCH  14  19
BRANCH  16  21
ATOM     21  O   UNL     1      59.167  26.025  59.442  1.00  0.00    -0.387 OA
ATOM     22  H   UNL     1      58.348  25.533  59.167  1.00  0.00     0.211 HD
ENDBRANCH  16  21
BRANCH  17  23
ATOM     23  C   UNL     1      60.305  24.591  63.447  1.00  0.00     0.191 C 
BRANCH  23  24
ATOM     24  O   UNL     1      60.420  25.398  64.586  1.00  0.00    -0.394 OA
ATOM     25  H   UNL     1      61.328  25.799  64.548  1.00  0.00     0.210 HD
ENDBRANCH  23  24
ENDBRANCH  17  23
BRANCH  18  26
ATOM     26  O   UNL     1      58.193  26.493  62.895  1.00  0.00    -0.387 OA
ATOM     27  H   UNL     1      58.777  27.256  63.151  1.00  0.00     0.211 HD
ENDBRANCH  18  26
ENDBRANCH  12  13
ENDBRANCH   7  12
BRANCH   4  28
ATOM     28  O   UNL     1      65.354  29.977  57.443  1.00  0.00    -0.365 OA
ATOM     29  H   UNL     1      64.597  30.414  56.973  1.00  0.00     0.214 HD
ENDBRANCH   4  28
BRANCH   8  30
ATOM     30  C   UNL     1      62.670  31.233  61.280  1.00  0.00     0.249 C 
BRANCH  30  31
ATOM     31  O   UNL     1      63.490  32.322  61.704  1.00  0.00    -0.461 OA
BRANCH  31  32
ATOM     32  C   UNL     1      63.693  33.485  60.950  1.00  0.00     0.338 C 
ATOM     33  O   UNL     1      64.578  33.512  60.051  1.00  0.00    -0.246 OA
BRANCH  32  34
ATOM     34  C   UNL     1      62.862  34.681  61.206  1.00  0.00     0.060 A 
ATOM     35  C   UNL     1      63.414  35.807  61.843  1.00  0.00     0.015 A 
ATOM     36  C   UNL     1      61.509  34.711  60.816  1.00  0.00     0.015 A 
ATOM     37  C   UNL     1      62.627  36.938  62.087  1.00  0.00     0.001 A 
ATOM     38  C   UNL     1      60.728  35.845  61.061  1.00  0.00     0.001 A 
ATOM     39  C   UNL     1      61.286  36.958  61.697  1.00  0.00     0.000 A 
ENDBRANCH  32  34
ENDBRANCH  31  32
ENDBRANCH  30  31
ENDBRANCH   8  30
TORSDOF 12
ENDMDL
MODEL 2
REMARK VINA RESULT:    -5.911      9.032     12.714
REMARK INTER + INTRA:          -9.962
REMARK INTER:                  -9.255
REMARK INTRA:                  -0.707
REMARK UNBOUND:                -0.769
REMARK SMILES C[C@]12C[C@]3(O)O[C@H](O1)[C@@]1(COC(=O)c4ccccc4)[C@@H]3C[C@]12O[C@H]1O[C@@H](CO)[C@@H](O)[C@H](O)[C@H]1O
REMARK SMILES IDX 1 1 2 2 3 3 4 4 20 5 21 6 22 7 9 8 7 9 8 10 6 11 23 12 24 13
REMARK SMILES IDX 33 14 25 15 31 16 26 17 29 18 34 19 32 21 27 23 28 24 30 26
REMARK SMILES IDX 5 28 10 30 11 31 12 32 13 33 14 34 15 35 19 36 16 37 18 38
REMARK SMILES IDX 17 39
REMARK H PARENT 34 20 32 22 28 25 30 27 5 29
REMARK Flexibility Score: inf
ROOT
ATOM      1  C   UNL     1      63.323  24.919  51.235  1.00  0.00     0.046 C 
ATOM      2  C   UNL     1      61.860  24.840  51.672  1.00  0.00     0.104 C 
ATOM      3  C   UNL     1      61.720  24.192  53.099  1.00  0.00     0.104 C 
ATOM      4  C   UNL     1      60.178  24.275  53.393  1.00  0.00     0.175 C 
ATOM      5  C   UNL     1      59.637  25.717  53.108  1.00  0.00     0.070 C 
ATOM      6  C   UNL     1      60.751  26.773  53.053  1.00  0.00     0.050 C 
ATOM      7  C   UNL     1      61.088  26.210  51.654  1.00  0.00     0.115 C 
ATOM      8  C   UNL     1      59.665  25.656  51.589  1.00  0.00     0.096 C 
ATOM      9  C   UNL     1      59.781  24.191  51.213  1.00  0.00     0.267 C 
ATOM     10  O   UNL     1      61.124  24.003  50.798  1.00  0.00    -0.342 OA
ATOM     11  O   UNL     1      59.557  23.469  52.414  1.00  0.00    -0.320 OA
ENDROOT
BRANCH   7  12
ATOM     12  O   UNL     1      61.364  27.115  50.595  1.00  0.00    -0.339 OA
BRANCH  12  13
ATOM     13  C   UNL     1      62.539  27.878  50.823  1.00  0.00     0.282 C 
ATOM     14  C   UNL     1      62.125  29.284  51.305  1.00  0.00     0.202 C 
ATOM     15  O   UNL     1      63.239  27.980  49.594  1.00  0.00    -0.341 OA
ATOM     16  C   UNL     1      63.367  30.194  51.438  1.00  0.00     0.179 C 
ATOM     17  C   UNL     1      64.476  28.649  49.776  1.00  0.00     0.178 C 
ATOM     18  C   UNL     1      64.235  30.125  50.165  1.00  0.00     0.177 C 
BRANCH  14  19
ATOM     19  O   UNL     1      61.210  29.840  50.394  1.00  0.00    -0.385 OA
ATOM     20  H   UNL     1      60.302  29.671  50.759  1.00  0.00     0.211 HD
ENDBRANCH  14  19
BRANCH  16  21
ATOM     21  O   UNL     1      64.138  29.798  52.545  1.00  0.00    -0.387 OA
ATOM     22  H   UNL     1      64.032  30.504  53.236  1.00  0.00     0.211 HD
ENDBRANCH  16  21
BRANCH  17  23
ATOM     23  C   UNL     1      65.295  28.541  48.486  1.00  0.00     0.191 C 
BRANCH  23  24
ATOM     24  O   UNL     1      64.434  28.560  47.381  1.00  0.00    -0.394 OA
ATOM     25  H   UNL     1      63.524  28.388  47.739  1.00  0.00     0.210 HD
ENDBRANCH  23  24
ENDBRANCH  17  23
BRANCH  18  26
ATOM     26  O   UNL     1      63.592  30.798  49.111  1.00  0.00    -0.387 OA
ATOM     27  H   UNL     1      62.951  31.435  49.525  1.00  0.00     0.211 HD
ENDBRANCH  18  26
ENDBRANCH  12  13
ENDBRANCH   7  12
BRANCH   4  28
ATOM     28  O   UNL     1      59.857  23.825  54.680  1.00  0.00    -0.365 OA
ATOM     29  H   UNL     1      59.616  22.866  54.594  1.00  0.00     0.214 HD
ENDBRANCH   4  28
BRANCH   8  30
ATOM     30  C   UNL     1      58.617  26.495  50.828  1.00  0.00     0.249 C 
BRANCH  30  31
ATOM     31  O   UNL     1      57.453  25.716  50.554  1.00  0.00    -0.461 OA
BRANCH  31  32
ATOM     32  C   UNL     1      56.325  25.681  51.383  1.00  0.00     0.338 C 
ATOM     33  O   UNL     1      56.322  24.965  52.422  1.00  0.00    -0.246 OA
BRANCH  32  34
ATOM     34  C   UNL     1      55.137  26.493  51.040  1.00  0.00     0.060 A 
ATOM     35  C   UNL     1      54.046  25.909  50.370  1.00  0.00     0.015 A 
ATOM     36  C   UNL     1      55.079  27.859  51.379  1.00  0.00     0.015 A 
ATOM     37  C   UNL     1      52.923  26.677  50.044  1.00  0.00     0.001 A 
ATOM     38  C   UNL     1      53.953  28.620  51.052  1.00  0.00     0.001 A 
ATOM     39  C   UNL     1      52.876  28.031  50.384  1.00  0.00     0.000 A 
ENDBRANCH  32  34
ENDBRANCH  31  32
ENDBRANCH  30  31
ENDBRANCH   8  30
TORSDOF 12
ENDMDL
MODEL 3
REMARK VINA RESULT:    -5.843      8.650     12.571
REMARK INTER + INTRA:          -9.857
REMARK INTER:                  -8.921
REMARK INTRA:                  -0.936
REMARK UNBOUND:                -0.769
REMARK SMILES C[C@]12C[C@]3(O)O[C@H](O1)[C@@]1(COC(=O)c4ccccc4)[C@@H]3C[C@]12O[C@H]1O[C@@H](CO)[C@@H](O)[C@H](O)[C@H]1O
REMARK SMILES IDX 1 1 2 2 3 3 4 4 20 5 21 6 22 7 9 8 7 9 8 10 6 11 23 12 24 13
REMARK SMILES IDX 33 14 25 15 31 16 26 17 29 18 34 19 32 21 27 23 28 24 30 26
REMARK SMILES IDX 5 28 10 30 11 31 12 32 13 33 14 34 15 35 19 36 16 37 18 38
REMARK SMILES IDX 17 39
REMARK H PARENT 34 20 32 22 28 25 30 27 5 29
REMARK Flexibility Score: inf
ROOT
ATOM      1  C   UNL     1      62.969  26.328  50.732  1.00  0.00     0.046 C 
ATOM      2  C   UNL     1      61.594  26.504  51.378  1.00  0.00     0.104 C 
ATOM      3  C   UNL     1      61.482  25.691  52.720  1.00  0.00     0.104 C 
ATOM      4  C   UNL     1      60.052  26.063  53.259  1.00  0.00     0.175 C 
ATOM      5  C   UNL     1      59.839  27.614  53.238  1.00  0.00     0.070 C 
ATOM      6  C   UNL     1      61.156  28.397  53.139  1.00  0.00     0.050 C 
ATOM      7  C   UNL     1      61.174  27.996  51.647  1.00  0.00     0.115 C 
ATOM      8  C   UNL     1      59.664  27.783  51.738  1.00  0.00     0.096 C 
ATOM      9  C   UNL     1      59.380  26.404  51.173  1.00  0.00     0.267 C 
ATOM     10  O   UNL     1      60.578  25.993  50.535  1.00  0.00    -0.342 OA
ATOM     11  O   UNL     1      59.141  25.572  52.297  1.00  0.00    -0.320 OA
ENDROOT
BRANCH   7  12
ATOM     12  O   UNL     1      61.525  28.971  50.676  1.00  0.00    -0.339 OA
BRANCH  12  13
ATOM     13  C   UNL     1      62.643  29.753  51.067  1.00  0.00     0.282 C 
ATOM     14  C   UNL     1      62.176  31.210  51.265  1.00  0.00     0.202 C 
ATOM     15  O   UNL     1      63.604  29.694  50.026  1.00  0.00    -0.341 OA
ATOM     16  C   UNL     1      63.385  32.126  51.563  1.00  0.00     0.179 C 
ATOM     17  C   UNL     1      64.789  30.377  50.400  1.00  0.00     0.178 C 
ATOM     18  C   UNL     1      64.514  31.892  50.539  1.00  0.00     0.177 C 
BRANCH  14  19
ATOM     19  O   UNL     1      61.508  31.648  50.109  1.00  0.00    -0.385 OA
ATOM     20  H   UNL     1      61.694  32.620  50.021  1.00  0.00     0.211 HD
ENDBRANCH  14  19
BRANCH  16  21
ATOM     21  O   UNL     1      63.875  31.873  52.856  1.00  0.00    -0.387 OA
ATOM     22  H   UNL     1      63.088  31.657  53.424  1.00  0.00     0.211 HD
ENDBRANCH  16  21
BRANCH  17  23
ATOM     23  C   UNL     1      65.873  30.103  49.353  1.00  0.00     0.191 C 
BRANCH  23  24
ATOM     24  O   UNL     1      65.286  30.013  48.084  1.00  0.00    -0.394 OA
ATOM     25  H   UNL     1      64.305  30.002  48.235  1.00  0.00     0.210 HD
ENDBRANCH  23  24
ENDBRANCH  17  23
BRANCH  18  26
ATOM     26  O   UNL     1      64.146  32.426  49.291  1.00  0.00    -0.387 OA
ATOM     27  H   UNL     1      64.647  33.278  49.184  1.00  0.00     0.211 HD
ENDBRANCH  18  26
ENDBRANCH  12  13
ENDBRANCH   7  12
BRANCH   4  28
ATOM     28  O   UNL     1      59.794  25.501  54.516  1.00  0.00    -0.365 OA
ATOM     29  H   UNL     1      59.711  24.522  54.378  1.00  0.00     0.214 HD
ENDBRANCH   4  28
BRANCH   8  30
ATOM     30  C   UNL     1      58.760  28.937  51.257  1.00  0.00     0.249 C 
BRANCH  30  31
ATOM     31  O   UNL     1      57.526  28.431  50.748  1.00  0.00    -0.461 OA
BRANCH  31  32
ATOM     32  C   UNL     1      56.360  28.305  51.514  1.00  0.00     0.338 C 
ATOM     33  O   UNL     1      56.284  28.852  52.649  1.00  0.00    -0.246 OA
BRANCH  32  34
ATOM     34  C   UNL     1      55.213  27.535  50.985  1.00  0.00     0.060 A 
ATOM     35  C   UNL     1      53.961  28.153  50.816  1.00  0.00     0.015 A 
ATOM     36  C   UNL     1      55.357  26.177  50.644  1.00  0.00     0.015 A 
ATOM     37  C   UNL     1      52.875  27.425  50.317  1.00  0.00     0.001 A 
ATOM     38  C   UNL     1      54.269  25.455  50.145  1.00  0.00     0.001 A 
ATOM     39  C   UNL     1      53.028  26.077  49.982  1.00  0.00     0.000 A 
ENDBRANCH  32  34
ENDBRANCH  31  32
ENDBRANCH  30  31
ENDBRANCH   8  30
TORSDOF 12
ENDMDL
MODEL 4
REMARK VINA RESULT:    -5.730      2.020      5.325
REMARK INTER + INTRA:          -9.681
REMARK INTER:                  -9.045
REMARK INTRA:                  -0.637
REMARK UNBOUND:                -0.769
REMARK SMILES C[C@]12C[C@]3(O)O[C@H](O1)[C@@]1(COC(=O)c4ccccc4)[C@@H]3C[C@]12O[C@H]1O[C@@H](CO)[C@@H](O)[C@H](O)[C@H]1O
REMARK SMILES IDX 1 1 2 2 3 3 4 4 20 5 21 6 22 7 9 8 7 9 8 10 6 11 23 12 24 13
REMARK SMILES IDX 33 14 25 15 31 16 26 17 29 18 34 19 32 21 27 23 28 24 30 26
REMARK SMILES IDX 5 28 10 30 11 31 12 32 13 33 14 34 15 35 19 36 16 37 18 38
REMARK SMILES IDX 17 39
REMARK H PARENT 34 20 32 22 28 25 30 27 5 29
REMARK Flexibility Score: inf
ROOT
ATOM      1  C   UNL     1      62.553  27.541  57.980  1.00  0.00     0.046 C 
ATOM      2  C   UNL     1      61.917  28.095  59.256  1.00  0.00     0.104 C 
ATOM      3  C   UNL     1      60.814  27.123  59.817  1.00  0.00     0.104 C 
ATOM      4  C   UNL     1      60.349  27.821  61.147  1.00  0.00     0.175 C 
ATOM      5  C   UNL     1      61.584  28.226  62.020  1.00  0.00     0.070 C 
ATOM      6  C   UNL     1      62.867  27.485  61.621  1.00  0.00     0.050 C 
ATOM      7  C   UNL     1      62.930  28.439  60.408  1.00  0.00     0.115 C 
ATOM      8  C   UNL     1      62.049  29.411  61.189  1.00  0.00     0.096 C 
ATOM      9  C   UNL     1      60.895  29.788  60.279  1.00  0.00     0.267 C 
ATOM     10  O   UNL     1      61.251  29.316  58.990  1.00  0.00    -0.342 OA
ATOM     11  O   UNL     1      59.779  29.051  60.754  1.00  0.00    -0.320 OA
ENDROOT
BRANCH   7  12
ATOM     12  O   UNL     1      64.179  29.012  60.046  1.00  0.00    -0.339 OA
BRANCH  12  13
ATOM     13  C   UNL     1      65.277  28.368  60.674  1.00  0.00     0.282 C 
ATOM     14  C   UNL     1      66.431  29.384  60.802  1.00  0.00     0.202 C 
ATOM     15  O   UNL     1      65.679  27.286  59.850  1.00  0.00    -0.341 OA
ATOM     16  C   UNL     1      67.697  28.692  61.360  1.00  0.00     0.179 C 
ATOM     17  C   UNL     1      66.712  26.541  60.472  1.00  0.00     0.178 C 
ATOM     18  C   UNL     1      67.997  27.394  60.583  1.00  0.00     0.177 C 
BRANCH  14  19
ATOM     19  O   UNL     1      66.701  29.947  59.543  1.00  0.00    -0.385 OA
ATOM     20  H   UNL     1      67.680  29.862  59.394  1.00  0.00     0.211 HD
ENDBRANCH  14  19
BRANCH  16  21
ATOM     21  O   UNL     1      67.518  28.385  62.721  1.00  0.00    -0.387 OA
ATOM     22  H   UNL     1      67.163  29.205  63.155  1.00  0.00     0.211 HD
ENDBRANCH  16  21
BRANCH  17  23
ATOM     23  C   UNL     1      66.962  25.265  59.664  1.00  0.00     0.191 C 
BRANCH  23  24
ATOM     24  O   UNL     1      67.444  24.259  60.511  1.00  0.00    -0.394 OA
ATOM     25  H   UNL     1      67.748  24.718  61.338  1.00  0.00     0.210 HD
ENDBRANCH  23  24
ENDBRANCH  17  23
BRANCH  18  26
ATOM     26  O   UNL     1      68.475  27.706  59.298  1.00  0.00    -0.387 OA
ATOM     27  H   UNL     1      68.866  28.618  59.350  1.00  0.00     0.211 HD
ENDBRANCH  18  26
ENDBRANCH  12  13
ENDBRANCH   7  12
BRANCH   4  28
ATOM     28  O   UNL     1      59.419  27.048  61.855  1.00  0.00    -0.365 OA
ATOM     29  H   UNL     1      59.100  26.345  61.233  1.00  0.00     0.214 HD
ENDBRANCH   4  28
BRANCH   8  30
ATOM     30  C   UNL     1      62.758  30.562  61.934  1.00  0.00     0.249 C 
BRANCH  30  31
ATOM     31  O   UNL     1      62.553  31.801  61.255  1.00  0.00    -0.461 OA
BRANCH  31  32
ATOM     32  C   UNL     1      63.579  32.711  60.967  1.00  0.00     0.338 C 
ATOM     33  O   UNL     1      64.604  32.332  60.336  1.00  0.00    -0.246 OA
BRANCH  32  34
ATOM     34  C   UNL     1      63.452  34.120  61.396  1.00  0.00     0.060 A 
ATOM     35  C   UNL     1      64.533  34.772  62.019  1.00  0.00     0.015 A 
ATOM     36  C   UNL     1      62.254  34.829  61.189  1.00  0.00     0.015 A 
ATOM     37  C   UNL     1      64.413  36.105  62.428  1.00  0.00     0.001 A 
ATOM     38  C   UNL     1      62.141  36.162  61.598  1.00  0.00     0.001 A 
ATOM     39  C   UNL     1      63.219  36.799  62.218  1.00  0.00     0.000 A 
ENDBRANCH  32  34
ENDBRANCH  31  32
ENDBRANCH  30  31
ENDBRANCH   8  30
TORSDOF 12
ENDMDL
MODEL 5
REMARK VINA RESULT:    -5.668      8.399     11.921
REMARK INTER + INTRA:          -9.584
REMARK INTER:                  -8.480
REMARK INTRA:                  -1.104
REMARK UNBOUND:                -0.769
REMARK SMILES C[C@]12C[C@]3(O)O[C@H](O1)[C@@]1(COC(=O)c4ccccc4)[C@@H]3C[C@]12O[C@H]1O[C@@H](CO)[C@@H](O)[C@H](O)[C@H]1O
REMARK SMILES IDX 1 1 2 2 3 3 4 4 20 5 21 6 22 7 9 8 7 9 8 10 6 11 23 12 24 13
REMARK SMILES IDX 33 14 25 15 31 16 26 17 29 18 34 19 32 21 27 23 28 24 30 26
REMARK SMILES IDX 5 28 10 30 11 31 12 32 13 33 14 34 15 35 19 36 16 37 18 38
REMARK SMILES IDX 17 39
REMARK H PARENT 34 20 32 22 28 25 30 27 5 29
REMARK Flexibility Score: inf
ROOT
ATOM      1  C   UNL     1      63.257  28.182  49.545  1.00  0.00     0.046 C 
ATOM      2  C   UNL     1      62.606  27.311  50.620  1.00  0.00     0.104 C 
ATOM      3  C   UNL     1      63.636  26.293  51.236  1.00  0.00     0.104 C 
ATOM      4  C   UNL     1      62.808  25.563  52.356  1.00  0.00     0.175 C 
ATOM      5  C   UNL     1      62.064  26.603  53.262  1.00  0.00     0.070 C 
ATOM      6  C   UNL     1      62.644  28.020  53.144  1.00  0.00     0.050 C 
ATOM      7  C   UNL     1      61.912  28.106  51.786  1.00  0.00     0.115 C 
ATOM      8  C   UNL     1      60.978  27.001  52.276  1.00  0.00     0.096 C 
ATOM      9  C   UNL     1      60.954  25.935  51.197  1.00  0.00     0.267 C 
ATOM     10  O   UNL     1      61.573  26.520  50.063  1.00  0.00    -0.342 OA
ATOM     11  O   UNL     1      61.771  24.881  51.683  1.00  0.00    -0.320 OA
ENDROOT
BRANCH   7  12
ATOM     12  O   UNL     1      61.213  29.297  51.455  1.00  0.00    -0.339 OA
BRANCH  12  13
ATOM     13  C   UNL     1      61.952  30.468  51.767  1.00  0.00     0.282 C 
ATOM     14  C   UNL     1      61.333  31.117  53.023  1.00  0.00     0.202 C 
ATOM     15  O   UNL     1      61.849  31.357  50.667  1.00  0.00    -0.341 OA
ATOM     16  C   UNL     1      62.021  32.469  53.324  1.00  0.00     0.179 C 
ATOM     17  C   UNL     1      62.649  32.508  50.878  1.00  0.00     0.178 C 
ATOM     18  C   UNL     1      62.092  33.341  52.055  1.00  0.00     0.177 C 
BRANCH  14  19
ATOM     19  O   UNL     1      59.955  31.309  52.819  1.00  0.00    -0.385 OA
ATOM     20  H   UNL     1      59.846  31.633  51.887  1.00  0.00     0.211 HD
ENDBRANCH  14  19
BRANCH  16  21
ATOM     21  O   UNL     1      63.323  32.249  53.807  1.00  0.00    -0.387 OA
ATOM     22  H   UNL     1      63.410  31.271  53.963  1.00  0.00     0.211 HD
ENDBRANCH  16  21
BRANCH  17  23
ATOM     23  C   UNL     1      62.688  33.330  49.586  1.00  0.00     0.191 C 
BRANCH  23  24
ATOM     24  O   UNL     1      61.400  33.405  49.039  1.00  0.00    -0.394 OA
ATOM     25  H   UNL     1      60.777  33.145  49.767  1.00  0.00     0.210 HD
ENDBRANCH  23  24
ENDBRANCH  17  23
BRANCH  18  26
ATOM     26  O   UNL     1      60.811  33.823  51.734  1.00  0.00    -0.387 OA
ATOM     27  H   UNL     1      60.157  33.215  52.171  1.00  0.00     0.211 HD
ENDBRANCH  18  26
ENDBRANCH  12  13
ENDBRANCH   7  12
BRANCH   4  28
ATOM     28  O   UNL     1      63.590  24.667  53.097  1.00  0.00    -0.365 OA
ATOM     29  H   UNL     1      63.402  24.850  54.054  1.00  0.00     0.214 HD
ENDBRANCH   4  28
BRANCH   8  30
ATOM     30  C   UNL     1      59.618  27.436  52.861  1.00  0.00     0.249 C 
BRANCH  30  31
ATOM     31  O   UNL     1      58.567  27.191  51.926  1.00  0.00    -0.461 OA
BRANCH  31  32
ATOM     32  C   UNL     1      57.581  28.130  51.597  1.00  0.00     0.338 C 
ATOM     33  O   UNL     1      57.843  29.364  51.633  1.00  0.00    -0.246 OA
BRANCH  32  34
ATOM     34  C   UNL     1      56.233  27.671  51.199  1.00  0.00     0.060 A 
ATOM     35  C   UNL     1      56.027  26.339  50.795  1.00  0.00     0.015 A 
ATOM     36  C   UNL     1      55.138  28.556  51.219  1.00  0.00     0.015 A 
ATOM     37  C   UNL     1      54.752  25.904  50.417  1.00  0.00     0.001 A 
ATOM     38  C   UNL     1      53.866  28.115  50.841  1.00  0.00     0.001 A 
ATOM     39  C   UNL     1      53.673  26.790  50.439  1.00  0.00     0.000 A 
ENDBRANCH  32  34
ENDBRANCH  31  32
ENDBRANCH  30  31
ENDBRANCH   8  30
TORSDOF 12
ENDMDL
MODEL 6
REMARK VINA RESULT:    -5.628      8.993     11.660
REMARK INTER + INTRA:          -9.523
REMARK INTER:                  -8.590
REMARK INTRA:                  -0.933
REMARK UNBOUND:                -0.769
REMARK SMILES C[C@]12C[C@]3(O)O[C@H](O1)[C@@]1(COC(=O)c4ccccc4)[C@@H]3C[C@]12O[C@H]1O[C@@H](CO)[C@@H](O)[C@H](O)[C@H]1O
REMARK SMILES IDX 1 1 2 2 3 3 4 4 20 5 21 6 22 7 9 8 7 9 8 10 6 11 23 12 24 13
REMARK SMILES IDX 33 14 25 15 31 16 26 17 29 18 34 19 32 21 27 23 28 24 30 26
REMARK SMILES IDX 5 28 10 30 11 31 12 32 13 33 14 34 15 35 19 36 16 37 18 38
REMARK SMILES IDX 17 39
REMARK H PARENT 34 20 32 22 28 25 30 27 5 29
REMARK Flexibility Score: inf
ROOT
ATOM      1  C   UNL     1      62.305  27.127  54.087  1.00  0.00     0.046 C 
ATOM      2  C   UNL     1      61.790  27.746  52.786  1.00  0.00     0.104 C 
ATOM      3  C   UNL     1      62.867  28.688  52.132  1.00  0.00     0.104 C 
ATOM      4  C   UNL     1      62.188  29.151  50.792  1.00  0.00     0.175 C 
ATOM      5  C   UNL     1      61.613  27.922  50.010  1.00  0.00     0.070 C 
ATOM      6  C   UNL     1      62.211  26.586  50.473  1.00  0.00     0.050 C 
ATOM      7  C   UNL     1      61.294  26.711  51.711  1.00  0.00     0.115 C 
ATOM      8  C   UNL     1      60.408  27.653  50.897  1.00  0.00     0.096 C 
ATOM      9  C   UNL     1      60.199  28.897  51.739  1.00  0.00     0.267 C 
ATOM     10  O   UNL     1      60.665  28.567  53.037  1.00  0.00    -0.342 OA
ATOM     11  O   UNL     1      61.045  29.886  51.176  1.00  0.00    -0.320 OA
ENDROOT
BRANCH   7  12
ATOM     12  O   UNL     1      60.591  25.565  52.166  1.00  0.00    -0.339 OA
BRANCH  12  13
ATOM     13  C   UNL     1      61.048  24.367  51.557  1.00  0.00     0.282 C 
ATOM     14  C   UNL     1      59.855  23.396  51.431  1.00  0.00     0.202 C 
ATOM     15  O   UNL     1      62.040  23.800  52.397  1.00  0.00    -0.341 OA
ATOM     16  C   UNL     1      60.331  22.026  50.894  1.00  0.00     0.179 C 
ATOM     17  C   UNL     1      62.608  22.650  51.794  1.00  0.00     0.178 C 
ATOM     18  C   UNL     1      61.554  21.524  51.688  1.00  0.00     0.177 C 
BRANCH  14  19
ATOM     19  O   UNL     1      59.244  23.240  52.687  1.00  0.00    -0.385 OA
ATOM     20  H   UNL     1      58.292  23.503  52.577  1.00  0.00     0.211 HD
ENDBRANCH  14  19
BRANCH  16  21
ATOM     21  O   UNL     1      60.675  22.134  49.535  1.00  0.00    -0.387 OA
ATOM     22  H   UNL     1      61.541  21.661  49.420  1.00  0.00     0.211 HD
ENDBRANCH  16  21
BRANCH  17  23
ATOM     23  C   UNL     1      63.818  22.202  52.619  1.00  0.00     0.191 C 
BRANCH  23  24
ATOM     24  O   UNL     1      63.606  22.511  53.968  1.00  0.00    -0.394 OA
ATOM     25  H   UNL     1      64.501  22.495  54.398  1.00  0.00     0.210 HD
ENDBRANCH  23  24
ENDBRANCH  17  23
BRANCH  18  26
ATOM     26  O   UNL     1      61.156  21.120  52.975  1.00  0.00    -0.387 OA
ATOM     27  H   UNL     1      61.191  21.928  53.553  1.00  0.00     0.211 HD
ENDBRANCH  18  26
ENDBRANCH  12  13
ENDBRANCH   7  12
BRANCH   4  28
ATOM     28  O   UNL     1      63.041  29.937  50.007  1.00  0.00    -0.365 OA
ATOM     29  H   UNL     1      62.730  30.874  50.099  1.00  0.00     0.214 HD
ENDBRANCH   4  28
BRANCH   8  30
ATOM     30  C   UNL     1      59.160  27.041  50.227  1.00  0.00     0.249 C 
BRANCH  30  31
ATOM     31  O   UNL     1      57.976  27.423  50.927  1.00  0.00    -0.461 OA
BRANCH  31  32
ATOM     32  C   UNL     1      56.990  26.520  51.343  1.00  0.00     0.338 C 
ATOM     33  O   UNL     1      57.299  25.529  52.060  1.00  0.00    -0.246 OA
BRANCH  32  34
ATOM     34  C   UNL     1      55.582  26.735  50.945  1.00  0.00     0.060 A 
ATOM     35  C   UNL     1      54.961  27.977  51.174  1.00  0.00     0.015 A 
ATOM     36  C   UNL     1      54.843  25.704  50.332  1.00  0.00     0.015 A 
ATOM     37  C   UNL     1      53.628  28.180  50.800  1.00  0.00     0.001 A 
ATOM     38  C   UNL     1      53.512  25.915  49.959  1.00  0.00     0.001 A 
ATOM     39  C   UNL     1      52.904  27.151  50.193  1.00  0.00     0.000 A 
ENDBRANCH  32  34
ENDBRANCH  31  32
ENDBRANCH  30  31
ENDBRANCH   8  30
TORSDOF 12
ENDMDL
MODEL 7
REMARK VINA RESULT:    -5.560      9.691     12.534
REMARK INTER + INTRA:          -9.417
REMARK INTER:                  -8.489
REMARK INTRA:                  -0.928
REMARK UNBOUND:                -0.769
REMARK SMILES C[C@]12C[C@]3(O)O[C@H](O1)[C@@]1(COC(=O)c4ccccc4)[C@@H]3C[C@]12O[C@H]1O[C@@H](CO)[C@@H](O)[C@H](O)[C@H]1O
REMARK SMILES IDX 1 1 2 2 3 3 4 4 20 5 21 6 22 7 9 8 7 9 8 10 6 11 23 12 24 13
REMARK SMILES IDX 33 14 25 15 31 16 26 17 29 18 34 19 32 21 27 23 28 24 30 26
REMARK SMILES IDX 5 28 10 30 11 31 12 32 13 33 14 34 15 35 19 36 16 37 18 38
REMARK SMILES IDX 17 39
REMARK H PARENT 34 20 32 22 28 25 30 27 5 29
REMARK Flexibility Score: inf
ROOT
ATOM      1  C   UNL     1      65.915  29.444  48.168  1.00  0.00     0.046 C 
ATOM      2  C   UNL     1      65.529  28.453  49.267  1.00  0.00     0.104 C 
ATOM      3  C   UNL     1      66.798  27.896  50.011  1.00  0.00     0.104 C 
ATOM      4  C   UNL     1      66.194  26.976  51.133  1.00  0.00     0.175 C 
ATOM      5  C   UNL     1      65.067  27.728  51.919  1.00  0.00     0.070 C 
ATOM      6  C   UNL     1      65.122  29.251  51.731  1.00  0.00     0.050 C 
ATOM      7  C   UNL     1      64.513  29.007  50.332  1.00  0.00     0.115 C 
ATOM      8  C   UNL     1      63.989  27.668  50.849  1.00  0.00     0.096 C 
ATOM      9  C   UNL     1      64.422  26.611  49.850  1.00  0.00     0.267 C 
ATOM     10  O   UNL     1      64.883  27.322  48.712  1.00  0.00    -0.342 OA
ATOM     11  O   UNL     1      65.515  25.939  50.455  1.00  0.00    -0.320 OA
ENDROOT
BRANCH   7  12
ATOM     12  O   UNL     1      63.470  29.857  49.878  1.00  0.00    -0.339 OA
BRANCH  12  13
ATOM     13  C   UNL     1      63.496  31.133  50.499  1.00  0.00     0.282 C 
ATOM     14  C   UNL     1      62.177  31.325  51.277  1.00  0.00     0.202 C 
ATOM     15  O   UNL     1      63.599  32.114  49.480  1.00  0.00    -0.341 OA
ATOM     16  C   UNL     1      62.101  32.755  51.861  1.00  0.00     0.179 C 
ATOM     17  C   UNL     1      63.729  33.408  50.043  1.00  0.00     0.178 C 
ATOM     18  C   UNL     1      62.430  33.805  50.781  1.00  0.00     0.177 C 
BRANCH  14  19
ATOM     19  O   UNL     1      61.089  31.094  50.417  1.00  0.00    -0.385 OA
ATOM     20  H   UNL     1      61.339  30.326  49.839  1.00  0.00     0.211 HD
ENDBRANCH  14  19
BRANCH  16  21
ATOM     21  O   UNL     1      63.009  32.888  52.927  1.00  0.00    -0.387 OA
ATOM     22  H   UNL     1      63.216  33.856  53.008  1.00  0.00     0.211 HD
ENDBRANCH  16  21
BRANCH  17  23
ATOM     23  C   UNL     1      64.061  34.404  48.929  1.00  0.00     0.191 C 
BRANCH  23  24
ATOM     24  O   UNL     1      63.221  34.177  47.831  1.00  0.00    -0.394 OA
ATOM     25  H   UNL     1      63.623  34.673  47.070  1.00  0.00     0.210 HD
ENDBRANCH  23  24
ENDBRANCH  17  23
BRANCH  18  26
ATOM     26  O   UNL     1      61.369  33.896  49.863  1.00  0.00    -0.387 OA
ATOM     27  H   UNL     1      60.531  33.947  50.397  1.00  0.00     0.211 HD
ENDBRANCH  18  26
ENDBRANCH  12  13
ENDBRANCH   7  12
BRANCH   4  28
ATOM     28  O   UNL     1      67.180  26.451  51.979  1.00  0.00    -0.365 OA
ATOM     29  H   UNL     1      67.008  25.476  52.045  1.00  0.00     0.214 HD
ENDBRANCH   4  28
BRANCH   8  30
ATOM     30  C   UNL     1      62.522  27.623  51.325  1.00  0.00     0.249 C 
BRANCH  30  31
ATOM     31  O   UNL     1      61.679  27.087  50.305  1.00  0.00    -0.461 OA
BRANCH  31  32
ATOM     32  C   UNL     1      60.570  26.269  50.560  1.00  0.00     0.338 C 
ATOM     33  O   UNL     1      60.711  25.018  50.645  1.00  0.00    -0.246 OA
BRANCH  32  34
ATOM     34  C   UNL     1      59.234  26.878  50.736  1.00  0.00     0.060 A 
ATOM     35  C   UNL     1      58.126  26.074  51.064  1.00  0.00     0.015 A 
ATOM     36  C   UNL     1      59.050  28.265  50.580  1.00  0.00     0.015 A 
ATOM     37  C   UNL     1      56.861  26.649  51.229  1.00  0.00     0.001 A 
ATOM     38  C   UNL     1      57.784  28.833  50.748  1.00  0.00     0.001 A 
ATOM     39  C   UNL     1      56.689  28.027  51.072  1.00  0.00     0.000 A 
ENDBRANCH  32  34
ENDBRANCH  31  32
ENDBRANCH  30  31
ENDBRANCH   8  30
TORSDOF 12
ENDMDL
MODEL 8
REMARK VINA RESULT:    -5.558      2.539      5.184
REMARK INTER + INTRA:          -9.413
REMARK INTER:                  -8.403
REMARK INTRA:                  -1.011
REMARK UNBOUND:                -0.769
REMARK SMILES C[C@]12C[C@]3(O)O[C@H](O1)[C@@]1(COC(=O)c4ccccc4)[C@@H]3C[C@]12O[C@H]1O[C@@H](CO)[C@@H](O)[C@H](O)[C@H]1O
REMARK SMILES IDX 1 1 2 2 3 3 4 4 20 5 21 6 22 7 9 8 7 9 8 10 6 11 23 12 24 13
REMARK SMILES IDX 33 14 25 15 31 16 26 17 29 18 34 19 32 21 27 23 28 24 30 26
REMARK SMILES IDX 5 28 10 30 11 31 12 32 13 33 14 34 15 35 19 36 16 37 18 38
REMARK SMILES IDX 17 39
REMARK H PARENT 34 20 32 22 28 25 30 27 5 29
REMARK Flexibility Score: inf
ROOT
ATOM      1  C   UNL     1      59.436  23.780  63.874  1.00  0.00     0.046 C 
ATOM      2  C   UNL     1      60.542  23.960  62.833  1.00  0.00     0.104 C 
ATOM      3  C   UNL     1      60.915  22.593  62.149  1.00  0.00     0.104 C 
ATOM      4  C   UNL     1      61.990  22.998  61.076  1.00  0.00     0.175 C 
ATOM      5  C   UNL     1      61.492  24.215  60.225  1.00  0.00     0.070 C 
ATOM      6  C   UNL     1      59.974  24.427  60.317  1.00  0.00     0.050 C 
ATOM      7  C   UNL     1      60.237  25.025  61.717  1.00  0.00     0.115 C 
ATOM      8  C   UNL     1      61.674  25.297  61.277  1.00  0.00     0.096 C 
ATOM      9  C   UNL     1      62.579  24.717  62.348  1.00  0.00     0.267 C 
ATOM     10  O   UNL     1      61.734  24.417  63.447  1.00  0.00    -0.342 OA
ATOM     11  O   UNL     1      63.086  23.508  61.806  1.00  0.00    -0.320 OA
ENDROOT
BRANCH   7  12
ATOM     12  O   UNL     1      59.555  26.211  62.098  1.00  0.00    -0.339 OA
BRANCH  12  13
ATOM     13  C   UNL     1      58.270  26.317  61.504  1.00  0.00     0.282 C 
ATOM     14  C   UNL     1      58.172  27.681  60.790  1.00  0.00     0.202 C 
ATOM     15  O   UNL     1      57.302  26.247  62.538  1.00  0.00    -0.341 OA
ATOM     16  C   UNL     1      56.744  27.899  60.239  1.00  0.00     0.179 C 
ATOM     17  C   UNL     1      55.992  26.248  61.997  1.00  0.00     0.178 C 
ATOM     18  C   UNL     1      55.689  27.607  61.326  1.00  0.00     0.177 C 
BRANCH  14  19
ATOM     19  O   UNL     1      58.507  28.706  61.691  1.00  0.00    -0.385 OA
ATOM     20  H   UNL     1      57.674  29.220  61.863  1.00  0.00     0.211 HD
ENDBRANCH  14  19
BRANCH  16  21
ATOM     21  O   UNL     1      56.518  27.055  59.138  1.00  0.00    -0.387 OA
ATOM     22  H   UNL     1      57.377  26.993  58.642  1.00  0.00     0.211 HD
ENDBRANCH  16  21
BRANCH  17  23
ATOM     23  C   UNL     1      54.991  25.947  63.117  1.00  0.00     0.191 C 
BRANCH  23  24
ATOM     24  O   UNL     1      55.247  26.783  64.211  1.00  0.00    -0.394 OA
ATOM     25  H   UNL     1      55.894  26.295  64.785  1.00  0.00     0.210 HD
ENDBRANCH  23  24
ENDBRANCH  17  23
BRANCH  18  26
ATOM     26  O   UNL     1      55.702  28.629  62.291  1.00  0.00    -0.387 OA
ATOM     27  H   UNL     1      54.939  29.231  62.083  1.00  0.00     0.211 HD
ENDBRANCH  18  26
ENDBRANCH  12  13
ENDBRANCH   7  12
BRANCH   4  28
ATOM     28  O   UNL     1      62.386  21.913  60.283  1.00  0.00    -0.365 OA
ATOM     29  H   UNL     1      63.356  21.781  60.446  1.00  0.00     0.214 HD
ENDBRANCH   4  28
BRANCH   8  30
ATOM     30  C   UNL     1      62.001  26.720  60.779  1.00  0.00     0.249 C 
BRANCH  30  31
ATOM     31  O   UNL     1      62.800  27.416  61.735  1.00  0.00    -0.461 OA
BRANCH  31  32
ATOM     32  C   UNL     1      63.490  28.604  61.458  1.00  0.00     0.338 C 
ATOM     33  O   UNL     1      64.737  28.584  61.270  1.00  0.00    -0.246 OA
BRANCH  32  34
ATOM     34  C   UNL     1      62.749  29.882  61.380  1.00  0.00     0.060 A 
ATOM     35  C   UNL     1      63.242  30.941  60.596  1.00  0.00     0.015 A 
ATOM     36  C   UNL     1      61.544  30.057  62.086  1.00  0.00     0.015 A 
ATOM     37  C   UNL     1      62.543  32.151  60.523  1.00  0.00     0.001 A 
ATOM     38  C   UNL     1      60.849  31.268  62.007  1.00  0.00     0.001 A 
ATOM     39  C   UNL     1      61.348  32.315  61.227  1.00  0.00     0.000 A 
ENDBRANCH  32  34
ENDBRANCH  31  32
ENDBRANCH  30  31
ENDBRANCH   8  30
TORSDOF 12
ENDMDL
MODEL 9
REMARK VINA RESULT:    -5.520      1.706      2.436
REMARK INTER + INTRA:          -9.353
REMARK INTER:                  -8.664
REMARK INTRA:                  -0.690
REMARK UNBOUND:                -0.769
REMARK SMILES C[C@]12C[C@]3(O)O[C@H](O1)[C@@]1(COC(=O)c4ccccc4)[C@@H]3C[C@]12O[C@H]1O[C@@H](CO)[C@@H](O)[C@H](O)[C@H]1O
REMARK SMILES IDX 1 1 2 2 3 3 4 4 20 5 21 6 22 7 9 8 7 9 8 10 6 11 23 12 24 13
REMARK SMILES IDX 33 14 25 15 31 16 26 17 29 18 34 19 32 21 27 23 28 24 30 26
REMARK SMILES IDX 5 28 10 30 11 31 12 32 13 33 14 34 15 35 19 36 16 37 18 38
REMARK SMILES IDX 17 39
REMARK H PARENT 34 20 32 22 28 25 30 27 5 29
REMARK Flexibility Score: inf
ROOT
ATOM      1  C   UNL     1      62.003  27.246  62.000  1.00  0.00     0.046 C 
ATOM      2  C   UNL     1      62.884  28.187  61.177  1.00  0.00     0.104 C 
ATOM      3  C   UNL     1      64.110  27.426  60.552  1.00  0.00     0.104 C 
ATOM      4  C   UNL     1      64.831  28.529  59.694  1.00  0.00     0.175 C 
ATOM      5  C   UNL     1      63.803  29.282  58.784  1.00  0.00     0.070 C 
ATOM      6  C   UNL     1      62.487  28.513  58.606  1.00  0.00     0.050 C 
ATOM      7  C   UNL     1      62.133  28.971  60.039  1.00  0.00     0.115 C 
ATOM      8  C   UNL     1      63.133  30.113  59.867  1.00  0.00     0.096 C 
ATOM      9  C   UNL     1      64.051  30.080  61.075  1.00  0.00     0.267 C 
ATOM     10  O   UNL     1      63.439  29.197  62.000  1.00  0.00    -0.342 OA
ATOM     11  O   UNL     1      65.265  29.507  60.616  1.00  0.00    -0.320 OA
ENDROOT
BRANCH   7  12
ATOM     12  O   UNL     1      60.820  29.439  60.308  1.00  0.00    -0.339 OA
BRANCH  12  13
ATOM     13  C   UNL     1      59.817  28.572  59.799  1.00  0.00     0.282 C 
ATOM     14  C   UNL     1      58.970  29.352  58.773  1.00  0.00     0.202 C 
ATOM     15  O   UNL     1      59.000  28.164  60.884  1.00  0.00    -0.341 OA
ATOM     16  C   UNL     1      57.782  28.489  58.290  1.00  0.00     0.179 C 
ATOM     17  C   UNL     1      58.037  27.216  60.456  1.00  0.00     0.178 C 
ATOM     18  C   UNL     1      57.029  27.875  59.488  1.00  0.00     0.177 C 
BRANCH  14  19
ATOM     19  O   UNL     1      58.500  30.540  59.360  1.00  0.00    -0.385 OA
ATOM     20  H   UNL     1      59.216  31.219  59.246  1.00  0.00     0.211 HD
ENDBRANCH  14  19
BRANCH  16  21
ATOM     21  O   UNL     1      58.244  27.456  57.456  1.00  0.00    -0.387 OA
ATOM     22  H   UNL     1      59.119  27.753  57.089  1.00  0.00     0.211 HD
ENDBRANCH  16  21
BRANCH  17  23
ATOM     23  C   UNL     1      57.329  26.637  61.685  1.00  0.00     0.191 C 
BRANCH  23  24
ATOM     24  O   UNL     1      58.234  26.549  62.750  1.00  0.00    -0.394 OA
ATOM     25  H   UNL     1      58.556  25.610  62.760  1.00  0.00     0.210 HD
ENDBRANCH  23  24
ENDBRANCH  17  23
BRANCH  18  26
ATOM     26  O   UNL     1      56.304  28.875  60.160  1.00  0.00    -0.387 OA
ATOM     27  H   UNL     1      56.897  29.227  60.877  1.00  0.00     0.211 HD
ENDBRANCH  18  26
ENDBRANCH  12  13
ENDBRANCH   7  12
BRANCH   4  28
ATOM     28  O   UNL     1      65.916  28.016  58.971  1.00  0.00    -0.365 OA
ATOM     29  H   UNL     1      65.537  27.570  58.169  1.00  0.00     0.214 HD
ENDBRANCH   4  28
BRANCH   8  30
ATOM     30  C   UNL     1      62.567  31.488  59.454  1.00  0.00     0.249 C 
BRANCH  30  31
ATOM     31  O   UNL     1      62.765  32.445  60.494  1.00  0.00    -0.461 OA
BRANCH  31  32
ATOM     32  C   UNL     1      62.016  33.622  60.623  1.00  0.00     0.338 C 
ATOM     33  O   UNL     1      60.829  33.669  60.198  1.00  0.00    -0.246 OA
BRANCH  32  34
ATOM     34  C   UNL     1      62.619  34.810  61.267  1.00  0.00     0.060 A 
ATOM     35  C   UNL     1      61.881  36.001  61.393  1.00  0.00     0.015 A 
ATOM     36  C   UNL     1      63.936  34.766  61.762  1.00  0.00     0.015 A 
ATOM     37  C   UNL     1      62.451  37.125  62.000  1.00  0.00     0.001 A 
ATOM     38  C   UNL     1      64.500  35.892  62.369  1.00  0.00     0.001 A 
ATOM     39  C   UNL     1      63.759  37.071  62.488  1.00  0.00     0.000 A 
ENDBRANCH  32  34
ENDBRANCH  31  32
ENDBRANCH  30  31
ENDBRANCH   8  30
TORSDOF 12
ENDMDL
