MODEL 1
REMARK VINA RESULT:    -4.156      0.000      0.000
REMARK INTER + INTRA:          -4.277
REMARK INTER:                  -4.277
REMARK INTRA:                   0.000
REMARK UNBOUND:                 0.000
REMARK SMILES Cc1ccccc1O
REMARK SMILES IDX 1 1 2 2 3 3 4 4 5 5 6 6 7 7 8 8
REMARK H PARENT 8 9
REMARK Flexibility Score: inf
ROOT
ATOM      1  C   UNL     1      -1.741  -0.644  26.624  1.00  0.00     0.048 C 
ATOM      2  C   UNL     1      -1.347   0.551  27.446  1.00  0.00    -0.009 A 
ATOM      3  C   UNL     1      -0.624   0.366  28.639  1.00  0.00     0.007 A 
ATOM      4  C   UNL     1      -0.249   1.464  29.417  1.00  0.00     0.001 A 
ATOM      5  C   UNL     1      -0.589   2.756  29.014  1.00  0.00     0.004 A 
ATOM      6  C   UNL     1      -1.306   2.954  27.832  1.00  0.00     0.046 A 
ATOM      7  C   UNL     1      -1.689   1.863  27.043  1.00  0.00     0.118 A 
ENDROOT
BRANCH   7   8
ATOM      8  O   UNL     1      -2.405   2.113  25.870  1.00  0.00    -0.508 OA
ATOM      9  H   UNL     1      -3.245   2.678  25.847  1.00  0.00     0.293 HD
ENDBRANCH   7   8
TORSDOF 1
ENDMDL
MODEL 2
REMARK VINA RESULT:    -4.143      1.699      2.754
REMARK INTER + INTRA:          -4.264
REMARK INTER:                  -4.264
REMARK INTRA:                   0.000
REMARK UNBOUND:                 0.000
REMARK SMILES Cc1ccccc1O
REMARK SMILES IDX 1 1 2 2 3 3 4 4 5 5 6 6 7 7 8 8
REMARK H PARENT 8 9
REMARK Flexibility Score: inf
ROOT
ATOM      1  C   UNL     1      -4.223   1.992  25.844  1.00  0.00     0.048 C 
ATOM      2  C   UNL     1      -3.067   1.335  26.545  1.00  0.00    -0.009 A 
ATOM      3  C   UNL     1      -2.581   1.882  27.746  1.00  0.00     0.007 A 
ATOM      4  C   UNL     1      -1.506   1.287  28.412  1.00  0.00     0.001 A 
ATOM      5  C   UNL     1      -0.906   0.141  27.888  1.00  0.00     0.004 A 
ATOM      6  C   UNL     1      -1.379  -0.412  26.696  1.00  0.00     0.046 A 
ATOM      7  C   UNL     1      -2.454   0.174  26.018  1.00  0.00     0.118 A 
ENDROOT
BRANCH   7   8
ATOM      8  O   UNL     1      -2.890  -0.418  24.830  1.00  0.00    -0.508 OA
ATOM      9  H   UNL     1      -3.156  -1.392  24.765  1.00  0.00     0.293 HD
ENDBRANCH   7   8
TORSDOF 1
ENDMDL
MODEL 3
REMARK VINA RESULT:    -4.128     15.215     16.520
REMARK INTER + INTRA:          -4.249
REMARK INTER:                  -4.249
REMARK INTRA:                   0.000
REMARK UNBOUND:                 0.000
REMARK SMILES Cc1ccccc1O
REMARK SMILES IDX 1 1 2 2 3 3 4 4 5 5 6 6 7 7 8 8
REMARK H PARENT 8 9
REMARK Flexibility Score: inf
ROOT
ATOM      1  C   UNL     1      -9.301  12.641  19.134  1.00  0.00     0.048 C 
ATOM      2  C   UNL     1     -10.264  11.585  18.665  1.00  0.00    -0.009 A 
ATOM      3  C   UNL     1     -11.387  11.958  17.905  1.00  0.00     0.007 A 
ATOM      4  C   UNL     1     -12.294  10.993  17.461  1.00  0.00     0.001 A 
ATOM      5  C   UNL     1     -12.091   9.647  17.769  1.00  0.00     0.004 A 
ATOM      6  C   UNL     1     -10.980   9.263  18.523  1.00  0.00     0.046 A 
ATOM      7  C   UNL     1     -10.063  10.220  18.975  1.00  0.00     0.118 A 
ENDROOT
BRANCH   7   8
ATOM      8  O   UNL     1      -8.968   9.785  19.726  1.00  0.00    -0.508 OA
ATOM      9  H   UNL     1      -8.025  10.116  19.566  1.00  0.00     0.293 HD
ENDBRANCH   7   8
TORSDOF 1
ENDMDL
MODEL 4
REMARK VINA RESULT:    -3.985      2.502      3.289
REMARK INTER + INTRA:          -4.102
REMARK INTER:                  -4.102
REMARK INTRA:                   0.000
REMARK UNBOUND:                 0.000
REMARK SMILES Cc1ccccc1O
REMARK SMILES IDX 1 1 2 2 3 3 4 4 5 5 6 6 7 7 8 8
REMARK H PARENT 8 9
REMARK Flexibility Score: inf
ROOT
ATOM      1  C   UNL     1      -1.376   0.386  26.554  1.00  0.00     0.048 C 
ATOM      2  C   UNL     1      -1.967   0.089  27.904  1.00  0.00    -0.009 A 
ATOM      3  C   UNL     1      -3.279  -0.413  27.992  1.00  0.00     0.007 A 
ATOM      4  C   UNL     1      -3.847  -0.694  29.237  1.00  0.00     0.001 A 
ATOM      5  C   UNL     1      -3.115  -0.479  30.405  1.00  0.00     0.004 A 
ATOM      6  C   UNL     1      -1.812   0.019  30.332  1.00  0.00     0.046 A 
ATOM      7  C   UNL     1      -1.230   0.306  29.091  1.00  0.00     0.118 A 
ENDROOT
BRANCH   7   8
ATOM      8  O   UNL     1       0.076   0.802  29.071  1.00  0.00    -0.508 OA
ATOM      9  H   UNL     1       0.315   1.705  28.681  1.00  0.00     0.293 HD
ENDBRANCH   7   8
TORSDOF 1
ENDMDL
MODEL 5
REMARK VINA RESULT:    -3.959      1.746      3.120
REMARK INTER + INTRA:          -4.075
REMARK INTER:                  -4.075
REMARK INTRA:                   0.000
REMARK UNBOUND:                 0.000
REMARK SMILES Cc1ccccc1O
REMARK SMILES IDX 1 1 2 2 3 3 4 4 5 5 6 6 7 7 8 8
REMARK H PARENT 8 9
REMARK Flexibility Score: inf
ROOT
ATOM      1  C   UNL     1      -0.433   0.611  29.089  1.00  0.00     0.048 C 
ATOM      2  C   UNL     1      -1.465   0.563  27.996  1.00  0.00    -0.009 A 
ATOM      3  C   UNL     1      -1.252  -0.262  26.877  1.00  0.00     0.007 A 
ATOM      4  C   UNL     1      -2.198  -0.321  25.850  1.00  0.00     0.001 A 
ATOM      5  C   UNL     1      -3.365   0.441  25.930  1.00  0.00     0.004 A 
ATOM      6  C   UNL     1      -3.588   1.264  27.036  1.00  0.00     0.046 A 
ATOM      7  C   UNL     1      -2.649   1.333  28.071  1.00  0.00     0.118 A 
ENDROOT
BRANCH   7   8
ATOM      8  O   UNL     1      -2.918   2.171  29.156  1.00  0.00    -0.508 OA
ATOM      9  H   UNL     1      -3.741   2.759  29.206  1.00  0.00     0.293 HD
ENDBRANCH   7   8
TORSDOF 1
ENDMDL
MODEL 6
REMARK VINA RESULT:    -3.953      2.373      3.575
REMARK INTER + INTRA:          -4.069
REMARK INTER:                  -4.069
REMARK INTRA:                   0.000
REMARK UNBOUND:                 0.000
REMARK SMILES Cc1ccccc1O
REMARK SMILES IDX 1 1 2 2 3 3 4 4 5 5 6 6 7 7 8 8
REMARK H PARENT 8 9
REMARK Flexibility Score: inf
ROOT
ATOM      1  C   UNL     1      -2.718   0.654  30.253  1.00  0.00     0.048 C 
ATOM      2  C   UNL     1      -2.490   0.369  28.795  1.00  0.00    -0.009 A 
ATOM      3  C   UNL     1      -3.590   0.294  27.921  1.00  0.00     0.007 A 
ATOM      4  C   UNL     1      -3.399   0.030  26.563  1.00  0.00     0.001 A 
ATOM      5  C   UNL     1      -2.110  -0.161  26.061  1.00  0.00     0.004 A 
ATOM      6  C   UNL     1      -1.009  -0.089  26.917  1.00  0.00     0.046 A 
ATOM      7  C   UNL     1      -1.186   0.174  28.281  1.00  0.00     0.118 A 
ENDROOT
BRANCH   7   8
ATOM      8  O   UNL     1      -0.053   0.237  29.096  1.00  0.00    -0.508 OA
ATOM      9  H   UNL     1      -0.054  -0.059  30.064  1.00  0.00     0.293 HD
ENDBRANCH   7   8
TORSDOF 1
ENDMDL
MODEL 7
REMARK VINA RESULT:    -3.793      2.626      3.545
REMARK INTER + INTRA:          -3.903
REMARK INTER:                  -3.903
REMARK INTRA:                   0.000
REMARK UNBOUND:                 0.000
REMARK SMILES Cc1ccccc1O
REMARK SMILES IDX 1 1 2 2 3 3 4 4 5 5 6 6 7 7 8 8
REMARK H PARENT 8 9
REMARK Flexibility Score: inf
ROOT
ATOM      1  C   UNL     1      -4.439   0.075  29.841  1.00  0.00     0.048 C 
ATOM      2  C   UNL     1      -3.224   0.054  28.956  1.00  0.00    -0.009 A 
ATOM      3  C   UNL     1      -3.358  -0.300  27.601  1.00  0.00     0.007 A 
ATOM      4  C   UNL     1      -2.240  -0.327  26.762  1.00  0.00     0.001 A 
ATOM      5  C   UNL     1      -0.980  -0.001  27.265  1.00  0.00     0.004 A 
ATOM      6  C   UNL     1      -0.833   0.352  28.608  1.00  0.00     0.046 A 
ATOM      7  C   UNL     1      -1.944   0.382  29.460  1.00  0.00     0.118 A 
ENDROOT
BRANCH   7   8
ATOM      8  O   UNL     1      -1.745   0.742  30.795  1.00  0.00    -0.508 OA
ATOM      9  H   UNL     1      -2.343   0.422  31.547  1.00  0.00     0.293 HD
ENDBRANCH   7   8
TORSDOF 1
ENDMDL
MODEL 8
REMARK VINA RESULT:    -3.793      0.790      2.580
REMARK INTER + INTRA:          -3.903
REMARK INTER:                  -3.903
REMARK INTRA:                   0.000
REMARK UNBOUND:                 0.000
REMARK SMILES Cc1ccccc1O
REMARK SMILES IDX 1 1 2 2 3 3 4 4 5 5 6 6 7 7 8 8
REMARK H PARENT 8 9
REMARK Flexibility Score: inf
ROOT
ATOM      1  C   UNL     1      -1.403   4.087  28.331  1.00  0.00     0.048 C 
ATOM      2  C   UNL     1      -1.340   2.628  27.974  1.00  0.00    -0.009 A 
ATOM      3  C   UNL     1      -0.745   1.718  28.867  1.00  0.00     0.007 A 
ATOM      4  C   UNL     1      -0.677   0.359  28.552  1.00  0.00     0.001 A 
ATOM      5  C   UNL     1      -1.201  -0.108  27.346  1.00  0.00     0.004 A 
ATOM      6  C   UNL     1      -1.795   0.784  26.451  1.00  0.00     0.046 A 
ATOM      7  C   UNL     1      -1.870   2.149  26.752  1.00  0.00     0.118 A 
ENDROOT
BRANCH   7   8
ATOM      8  O   UNL     1      -2.474   3.001  25.824  1.00  0.00    -0.508 OA
ATOM      9  H   UNL     1      -3.477   3.117  25.754  1.00  0.00     0.293 HD
ENDBRANCH   7   8
TORSDOF 1
ENDMDL
MODEL 9
REMARK VINA RESULT:    -3.734     15.054     16.195
REMARK INTER + INTRA:          -3.843
REMARK INTER:                  -3.843
REMARK INTRA:                   0.000
REMARK UNBOUND:                 0.000
REMARK SMILES Cc1ccccc1O
REMARK SMILES IDX 1 1 2 2 3 3 4 4 5 5 6 6 7 7 8 8
REMARK H PARENT 8 9
REMARK Flexibility Score: inf
ROOT
ATOM      1  C   UNL     1      -9.564   8.602  19.558  1.00  0.00     0.048 C 
ATOM      2  C   UNL     1     -10.395   9.647  18.867  1.00  0.00    -0.009 A 
ATOM      3  C   UNL     1     -11.570   9.266  18.194  1.00  0.00     0.007 A 
ATOM      4  C   UNL     1     -12.356  10.222  17.546  1.00  0.00     0.001 A 
ATOM      5  C   UNL     1     -11.979  11.566  17.562  1.00  0.00     0.004 A 
ATOM      6  C   UNL     1     -10.815  11.957  18.226  1.00  0.00     0.046 A 
ATOM      7  C   UNL     1     -10.017  11.010  18.880  1.00  0.00     0.118 A 
ENDROOT
BRANCH   7   8
ATOM      8  O   UNL     1      -8.863  11.452  19.530  1.00  0.00    -0.508 OA
ATOM      9  H   UNL     1      -7.974  10.973  19.460  1.00  0.00     0.293 HD
ENDBRANCH   7   8
TORSDOF 1
ENDMDL
