MODEL 1
REMARK VINA RESULT:    -1.451      0.000      0.000
REMARK INTER + INTRA:          -4.903
REMARK INTER:                  -3.317
REMARK INTRA:                  -1.586
REMARK UNBOUND:                -1.586
REMARK SMILES CCCCCCCCCCCCCCCCCCCCCCCC(=O)[O-]
REMARK SMILES IDX 13 1 14 2 15 3 16 4 17 5 18 6 19 7 20 8 21 9 22 10 23 11
REMARK SMILES IDX 24 12 25 13 26 14 12 15 11 16 10 17 9 18 8 19 7 20 6 21 5 22
REMARK SMILES IDX 4 23 3 24 2 25 1 26
REMARK H PARENT
REMARK Flexibility Score: inf
ROOT
ATOM      1  C   UNL     1       4.497   2.603  12.969  1.00  0.00     0.000 C 
ENDROOT
BRANCH   1   2
ATOM      2  C   UNL     1       6.036   2.509  12.948  1.00  0.00     0.000 C 
BRANCH   2   3
ATOM      3  C   UNL     1       6.601   1.079  12.875  1.00  0.00     0.000 C 
BRANCH   3   4
ATOM      4  C   UNL     1       6.591   0.364  14.237  1.00  0.00     0.000 C 
BRANCH   4   5
ATOM      5  C   UNL     1       6.887  -1.144  14.127  1.00  0.00     0.000 C 
BRANCH   5   6
ATOM      6  C   UNL     1       6.161  -1.874  12.982  1.00  0.00     0.000 C 
BRANCH   6   7
ATOM      7  C   UNL     1       4.674  -2.122  13.273  1.00  0.00     0.000 C 
BRANCH   7   8
ATOM      8  C   UNL     1       4.400  -2.125  14.782  1.00  0.00     0.000 C 
BRANCH   8   9
ATOM      9  C   UNL     1       3.165  -1.276  15.117  1.00  0.00     0.000 C 
BRANCH   9  10
ATOM     10  C   UNL     1       2.938  -0.130  14.114  1.00  0.00     0.006 C 
BRANCH  10  11
ATOM     11  C   UNL     1       1.459   0.196  13.852  1.00  0.00     0.053 C 
BRANCH  11  12
ATOM     12  C   UNL     1       0.641   0.154  15.108  1.00  0.00     0.041 C 
ATOM     13  O   UNL     1      -0.523  -0.326  15.090  1.00  0.00    -0.550 OA
ATOM     14  O   UNL     1       1.161   0.656  16.295  1.00  0.00    -0.550 OA
ENDBRANCH  11  12
ENDBRANCH  10  11
ENDBRANCH   9  10
ENDBRANCH   8   9
ENDBRANCH   7   8
ENDBRANCH   6   7
ENDBRANCH   5   6
ENDBRANCH   4   5
ENDBRANCH   3   4
ENDBRANCH   2   3
ENDBRANCH   1   2
BRANCH   1  15
ATOM     15  C   UNL     1       3.930   4.031  13.102  1.00  0.00     0.000 C 
BRANCH  15  16
ATOM     16  C   UNL     1       2.782   4.188  14.116  1.00  0.00     0.000 C 
BRANCH  16  17
ATOM     17  C   UNL     1       2.951   3.293  15.355  1.00  0.00     0.000 C 
BRANCH  17  18
ATOM     18  C   UNL     1       4.425   2.972  15.664  1.00  0.00    -0.000 C 
BRANCH  18  19
ATOM     19  C   UNL     1       4.658   1.685  16.482  1.00  0.00    -0.000 C 
BRANCH  19  20
ATOM     20  C   UNL     1       3.701   1.485  17.674  1.00  0.00    -0.000 C 
BRANCH  20  21
ATOM     21  C   UNL     1       4.243   1.969  19.035  1.00  0.00    -0.000 C 
BRANCH  21  22
ATOM     22  C   UNL     1       4.110   0.952  20.183  1.00  0.00    -0.000 C 
BRANCH  22  23
ATOM     23  C   UNL     1       4.620  -0.464  19.856  1.00  0.00    -0.000 C 
BRANCH  23  24
ATOM     24  C   UNL     1       6.157  -0.595  19.905  1.00  0.00    -0.000 C 
BRANCH  24  25
ATOM     25  C   UNL     1       6.672  -1.777  19.069  1.00  0.00    -0.003 C 
ATOM     26  C   UNL     1       6.141  -1.714  17.641  1.00  0.00     0.004 C 
ENDBRANCH  24  25
ENDBRANCH  23  24
ENDBRANCH  22  23
ENDBRANCH  21  22
ENDBRANCH  20  21
ENDBRANCH  19  20
ENDBRANCH  18  19
ENDBRANCH  17  18
ENDBRANCH  16  17
ENDBRANCH  15  16
ENDBRANCH   1  15
TORSDOF 22
ENDMDL
MODEL 2
REMARK VINA RESULT:    -1.132      1.825      5.138
REMARK INTER + INTRA:          -4.173
REMARK INTER:                  -2.378
REMARK INTRA:                  -1.795
REMARK UNBOUND:                -1.586
REMARK SMILES CCCCCCCCCCCCCCCCCCCCCCCC(=O)[O-]
REMARK SMILES IDX 13 1 14 2 15 3 16 4 17 5 18 6 19 7 20 8 21 9 22 10 23 11
REMARK SMILES IDX 24 12 25 13 26 14 12 15 11 16 10 17 9 18 8 19 7 20 6 21 5 22
REMARK SMILES IDX 4 23 3 24 2 25 1 26
REMARK H PARENT
REMARK Flexibility Score: inf
ROOT
ATOM      1  C   UNL     1       2.707   3.433  15.130  1.00  0.00     0.000 C 
ENDROOT
BRANCH   1   2
ATOM      2  C   UNL     1       2.932   1.920  15.322  1.00  0.00     0.000 C 
BRANCH   2   3
ATOM      3  C   UNL     1       3.848   1.540  16.499  1.00  0.00     0.000 C 
BRANCH   3   4
ATOM      4  C   UNL     1       4.330   0.081  16.431  1.00  0.00     0.000 C 
BRANCH   4   5
ATOM      5  C   UNL     1       5.851  -0.060  16.634  1.00  0.00     0.000 C 
BRANCH   5   6
ATOM      6  C   UNL     1       6.302  -1.355  17.336  1.00  0.00     0.000 C 
BRANCH   6   7
ATOM      7  C   UNL     1       5.779  -1.474  18.774  1.00  0.00     0.000 C 
BRANCH   7   8
ATOM      8  C   UNL     1       5.722  -0.101  19.455  1.00  0.00     0.000 C 
BRANCH   8   9
ATOM      9  C   UNL     1       4.354   0.128  20.116  1.00  0.00     0.000 C 
BRANCH   9  10
ATOM     10  C   UNL     1       3.838   1.568  19.937  1.00  0.00     0.006 C 
BRANCH  10  11
ATOM     11  C   UNL     1       2.441   1.664  19.304  1.00  0.00     0.053 C 
BRANCH  11  12
ATOM     12  C   UNL     1       1.373   1.901  20.329  1.00  0.00     0.041 C 
ATOM     13  O   UNL     1       0.991   0.960  21.075  1.00  0.00    -0.550 OA
ATOM     14  O   UNL     1       0.792   3.157  20.453  1.00  0.00    -0.550 OA
ENDBRANCH  11  12
ENDBRANCH  10  11
ENDBRANCH   9  10
ENDBRANCH   8   9
ENDBRANCH   7   8
ENDBRANCH   6   7
ENDBRANCH   5   6
ENDBRANCH   4   5
ENDBRANCH   3   4
ENDBRANCH   2   3
ENDBRANCH   1   2
BRANCH   1  15
ATOM     15  C   UNL     1       3.990   4.288  15.102  1.00  0.00     0.000 C 
BRANCH  15  16
ATOM     16  C   UNL     1       5.045   3.854  14.067  1.00  0.00     0.000 C 
BRANCH  16  17
ATOM     17  C   UNL     1       4.439   3.081  12.884  1.00  0.00     0.000 C 
BRANCH  17  18
ATOM     18  C   UNL     1       4.835   1.593  12.875  1.00  0.00    -0.000 C 
BRANCH  18  19
ATOM     19  C   UNL     1       6.243   1.287  13.426  1.00  0.00    -0.000 C 
BRANCH  19  20
ATOM     20  C   UNL     1       6.891  -0.004  12.886  1.00  0.00    -0.000 C 
BRANCH  20  21
ATOM     21  C   UNL     1       6.464  -1.299  13.605  1.00  0.00    -0.000 C 
BRANCH  21  22
ATOM     22  C   UNL     1       5.177  -1.947  13.062  1.00  0.00    -0.000 C 
BRANCH  22  23
ATOM     23  C   UNL     1       4.054  -2.125  14.102  1.00  0.00    -0.000 C 
BRANCH  23  24
ATOM     24  C   UNL     1       2.692  -1.561  13.645  1.00  0.00    -0.000 C 
BRANCH  24  25
ATOM     25  C   UNL     1       1.671  -1.492  14.791  1.00  0.00    -0.003 C 
ATOM     26  C   UNL     1       0.851  -0.208  14.723  1.00  0.00     0.004 C 
ENDBRANCH  24  25
ENDBRANCH  23  24
ENDBRANCH  22  23
ENDBRANCH  21  22
ENDBRANCH  20  21
ENDBRANCH  19  20
ENDBRANCH  18  19
ENDBRANCH  17  18
ENDBRANCH  16  17
ENDBRANCH  15  16
ENDBRANCH   1  15
TORSDOF 22
ENDMDL
MODEL 3
REMARK VINA RESULT:    -0.970      1.887      3.947
REMARK INTER + INTRA:          -3.804
REMARK INTER:                  -2.279
REMARK INTRA:                  -1.525
REMARK UNBOUND:                -1.586
REMARK SMILES CCCCCCCCCCCCCCCCCCCCCCCC(=O)[O-]
REMARK SMILES IDX 13 1 14 2 15 3 16 4 17 5 18 6 19 7 20 8 21 9 22 10 23 11
REMARK SMILES IDX 24 12 25 13 26 14 12 15 11 16 10 17 9 18 8 19 7 20 6 21 5 22
REMARK SMILES IDX 4 23 3 24 2 25 1 26
REMARK H PARENT
REMARK Flexibility Score: inf
ROOT
ATOM      1  C   UNL     1       5.859   1.907  14.450  1.00  0.00     0.000 C 
ENDROOT
BRANCH   1   2
ATOM      2  C   UNL     1       5.520   1.159  13.146  1.00  0.00     0.000 C 
BRANCH   2   3
ATOM      3  C   UNL     1       6.299  -0.151  12.922  1.00  0.00     0.000 C 
BRANCH   3   4
ATOM      4  C   UNL     1       5.435  -1.403  13.145  1.00  0.00     0.000 C 
BRANCH   4   5
ATOM      5  C   UNL     1       3.924  -1.115  13.059  1.00  0.00     0.000 C 
BRANCH   5   6
ATOM      6  C   UNL     1       3.020  -2.125  13.790  1.00  0.00     0.000 C 
BRANCH   6   7
ATOM      7  C   UNL     1       2.358  -1.542  15.047  1.00  0.00     0.000 C 
BRANCH   7   8
ATOM      8  C   UNL     1       1.048  -0.824  14.697  1.00  0.00     0.000 C 
BRANCH   8   9
ATOM      9  C   UNL     1       1.105   0.654  15.113  1.00  0.00     0.000 C 
BRANCH   9  10
ATOM     10  C   UNL     1       2.523   1.247  15.018  1.00  0.00     0.006 C 
BRANCH  10  11
ATOM     11  C   UNL     1       2.740   2.505  15.873  1.00  0.00     0.053 C 
BRANCH  11  12
ATOM     12  C   UNL     1       3.025   3.714  15.034  1.00  0.00     0.041 C 
ATOM     13  O   UNL     1       2.388   3.909  13.966  1.00  0.00    -0.550 OA
ATOM     14  O   UNL     1       4.004   4.619  15.428  1.00  0.00    -0.550 OA
ENDBRANCH  11  12
ENDBRANCH  10  11
ENDBRANCH   9  10
ENDBRANCH   8   9
ENDBRANCH   7   8
ENDBRANCH   6   7
ENDBRANCH   5   6
ENDBRANCH   4   5
ENDBRANCH   3   4
ENDBRANCH   2   3
ENDBRANCH   1   2
BRANCH   1  15
ATOM     15  C   UNL     1       6.510   1.045  15.550  1.00  0.00     0.000 C 
BRANCH  15  16
ATOM     16  C   UNL     1       5.581   0.659  16.716  1.00  0.00     0.000 C 
BRANCH  16  17
ATOM     17  C   UNL     1       4.848  -0.673  16.481  1.00  0.00     0.000 C 
BRANCH  17  18
ATOM     18  C   UNL     1       5.628  -1.888  17.018  1.00  0.00    -0.000 C 
BRANCH  18  19
ATOM     19  C   UNL     1       5.620  -2.046  18.552  1.00  0.00    -0.000 C 
BRANCH  19  20
ATOM     20  C   UNL     1       6.601  -1.130  19.310  1.00  0.00    -0.000 C 
BRANCH  20  21
ATOM     21  C   UNL     1       5.959   0.104  19.976  1.00  0.00    -0.000 C 
BRANCH  21  22
ATOM     22  C   UNL     1       4.435   0.221  19.792  1.00  0.00    -0.000 C 
BRANCH  22  23
ATOM     23  C   UNL     1       3.959   1.545  19.165  1.00  0.00    -0.000 C 
BRANCH  23  24
ATOM     24  C   UNL     1       2.427   1.633  18.993  1.00  0.00    -0.000 C 
BRANCH  24  25
ATOM     25  C   UNL     1       1.672   1.314  20.292  1.00  0.00    -0.003 C 
ATOM     26  C   UNL     1       1.132   2.584  20.941  1.00  0.00     0.004 C 
ENDBRANCH  24  25
ENDBRANCH  23  24
ENDBRANCH  22  23
ENDBRANCH  21  22
ENDBRANCH  20  21
ENDBRANCH  19  20
ENDBRANCH  18  19
ENDBRANCH  17  18
ENDBRANCH  16  17
ENDBRANCH  15  16
ENDBRANCH   1  15
TORSDOF 22
ENDMDL
MODEL 4
REMARK VINA RESULT:    -0.770      1.718      5.425
REMARK INTER + INTRA:          -3.346
REMARK INTER:                  -1.638
REMARK INTRA:                  -1.708
REMARK UNBOUND:                -1.586
REMARK SMILES CCCCCCCCCCCCCCCCCCCCCCCC(=O)[O-]
REMARK SMILES IDX 13 1 14 2 15 3 16 4 17 5 18 6 19 7 20 8 21 9 22 10 23 11
REMARK SMILES IDX 24 12 25 13 26 14 12 15 11 16 10 17 9 18 8 19 7 20 6 21 5 22
REMARK SMILES IDX 4 23 3 24 2 25 1 26
REMARK H PARENT
REMARK Flexibility Score: inf
ROOT
ATOM      1  C   UNL     1       6.008   1.447  14.875  1.00  0.00     0.000 C 
ENDROOT
BRANCH   1   2
ATOM      2  C   UNL     1       6.271   0.798  16.247  1.00  0.00     0.000 C 
BRANCH   2   3
ATOM      3  C   UNL     1       6.301  -0.741  16.247  1.00  0.00     0.000 C 
BRANCH   3   4
ATOM      4  C   UNL     1       4.955  -1.363  16.652  1.00  0.00     0.000 C 
BRANCH   4   5
ATOM      5  C   UNL     1       4.926  -1.835  18.118  1.00  0.00     0.000 C 
BRANCH   5   6
ATOM      6  C   UNL     1       6.298  -1.895  18.816  1.00  0.00     0.000 C 
BRANCH   6   7
ATOM      7  C   UNL     1       6.591  -0.656  19.673  1.00  0.00     0.000 C 
BRANCH   7   8
ATOM      8  C   UNL     1       5.298   0.090  20.025  1.00  0.00     0.000 C 
BRANCH   8   9
ATOM      9  C   UNL     1       4.768   0.871  18.814  1.00  0.00     0.000 C 
BRANCH   9  10
ATOM     10  C   UNL     1       3.749   1.958  19.203  1.00  0.00     0.006 C 
BRANCH  10  11
ATOM     11  C   UNL     1       2.727   1.515  20.262  1.00  0.00     0.053 C 
BRANCH  11  12
ATOM     12  C   UNL     1       1.343   1.998  19.945  1.00  0.00     0.041 C 
ATOM     13  O   UNL     1       0.551   2.305  20.875  1.00  0.00    -0.550 OA
ATOM     14  O   UNL     1       0.926   2.097  18.623  1.00  0.00    -0.550 OA
ENDBRANCH  11  12
ENDBRANCH  10  11
ENDBRANCH   9  10
ENDBRANCH   8   9
ENDBRANCH   7   8
ENDBRANCH   6   7
ENDBRANCH   5   6
ENDBRANCH   4   5
ENDBRANCH   3   4
ENDBRANCH   2   3
ENDBRANCH   1   2
BRANCH   1  15
ATOM     15  C   UNL     1       6.433   0.602  13.657  1.00  0.00     0.000 C 
BRANCH  15  16
ATOM     16  C   UNL     1       5.277  -0.049  12.875  1.00  0.00     0.000 C 
BRANCH  16  17
ATOM     17  C   UNL     1       5.201  -1.571  13.077  1.00  0.00     0.000 C 
BRANCH  17  18
ATOM     18  C   UNL     1       3.878  -2.024  13.723  1.00  0.00    -0.000 C 
BRANCH  18  19
ATOM     19  C   UNL     1       2.723  -1.005  13.636  1.00  0.00    -0.000 C 
BRANCH  19  20
ATOM     20  C   UNL     1       1.609  -1.186  14.685  1.00  0.00    -0.000 C 
BRANCH  20  21
ATOM     21  C   UNL     1       1.417   0.004  15.646  1.00  0.00    -0.000 C 
BRANCH  21  22
ATOM     22  C   UNL     1       2.648   0.914  15.804  1.00  0.00    -0.000 C 
BRANCH  22  23
ATOM     23  C   UNL     1       2.450   2.361  15.313  1.00  0.00    -0.000 C 
BRANCH  23  24
ATOM     24  C   UNL     1       3.107   2.645  13.944  1.00  0.00    -0.000 C 
BRANCH  24  25
ATOM     25  C   UNL     1       3.547   4.110  13.798  1.00  0.00    -0.003 C 
ATOM     26  C   UNL     1       4.810   4.223  12.952  1.00  0.00     0.004 C 
ENDBRANCH  24  25
ENDBRANCH  23  24
ENDBRANCH  22  23
ENDBRANCH  21  22
ENDBRANCH  20  21
ENDBRANCH  19  20
ENDBRANCH  18  19
ENDBRANCH  17  18
ENDBRANCH  16  17
ENDBRANCH  15  16
ENDBRANCH   1  15
TORSDOF 22
ENDMDL
MODEL 5
REMARK VINA RESULT:    -0.136      2.290      4.447
REMARK INTER + INTRA:          -1.897
REMARK INTER:                  -1.398
REMARK INTRA:                  -0.499
REMARK UNBOUND:                -1.586
REMARK SMILES CCCCCCCCCCCCCCCCCCCCCCCC(=O)[O-]
REMARK SMILES IDX 13 1 14 2 15 3 16 4 17 5 18 6 19 7 20 8 21 9 22 10 23 11
REMARK SMILES IDX 24 12 25 13 26 14 12 15 11 16 10 17 9 18 8 19 7 20 6 21 5 22
REMARK SMILES IDX 4 23 3 24 2 25 1 26
REMARK H PARENT
REMARK Flexibility Score: inf
ROOT
ATOM      1  C   UNL     1       2.524   1.448  15.163  1.00  0.00     0.000 C 
ENDROOT
BRANCH   1   2
ATOM      2  C   UNL     1       1.405   0.389  15.189  1.00  0.00     0.000 C 
BRANCH   2   3
ATOM      3  C   UNL     1       1.888  -1.069  15.286  1.00  0.00     0.000 C 
BRANCH   3   4
ATOM      4  C   UNL     1       2.029  -1.742  13.910  1.00  0.00     0.000 C 
BRANCH   4   5
ATOM      5  C   UNL     1       3.484  -2.121  13.573  1.00  0.00     0.000 C 
BRANCH   5   6
ATOM      6  C   UNL     1       4.402  -0.940  13.207  1.00  0.00     0.000 C 
BRANCH   6   7
ATOM      7  C   UNL     1       5.856  -1.364  12.955  1.00  0.00     0.000 C 
BRANCH   7   8
ATOM      8  C   UNL     1       6.437  -2.091  14.174  1.00  0.00     0.000 C 
BRANCH   8   9
ATOM      9  C   UNL     1       5.503  -1.963  15.386  1.00  0.00     0.000 C 
BRANCH   9  10
ATOM     10  C   UNL     1       6.241  -2.125  16.728  1.00  0.00     0.006 C 
BRANCH  10  11
ATOM     11  C   UNL     1       5.411  -1.724  17.958  1.00  0.00     0.053 C 
BRANCH  11  12
ATOM     12  C   UNL     1       6.276  -1.327  19.116  1.00  0.00     0.041 C 
ATOM     13  O   UNL     1       7.285  -2.017  19.420  1.00  0.00    -0.550 OA
ATOM     14  O   UNL     1       5.960  -0.201  19.867  1.00  0.00    -0.550 OA
ENDBRANCH  11  12
ENDBRANCH  10  11
ENDBRANCH   9  10
ENDBRANCH   8   9
ENDBRANCH   7   8
ENDBRANCH   6   7
ENDBRANCH   5   6
ENDBRANCH   4   5
ENDBRANCH   3   4
ENDBRANCH   2   3
ENDBRANCH   1   2
BRANCH   1  15
ATOM     15  C   UNL     1       2.067   2.893  15.449  1.00  0.00     0.000 C 
BRANCH  15  16
ATOM     16  C   UNL     1       1.665   3.712  14.209  1.00  0.00     0.000 C 
BRANCH  16  17
ATOM     17  C   UNL     1       2.838   4.508  13.612  1.00  0.00     0.000 C 
BRANCH  17  18
ATOM     18  C   UNL     1       4.208   4.035  14.131  1.00  0.00    -0.000 C 
BRANCH  18  19
ATOM     19  C   UNL     1       4.871   2.914  13.303  1.00  0.00    -0.000 C 
BRANCH  19  20
ATOM     20  C   UNL     1       5.767   1.950  14.105  1.00  0.00    -0.000 C 
BRANCH  20  21
ATOM     21  C   UNL     1       6.017   2.359  15.571  1.00  0.00    -0.000 C 
BRANCH  21  22
ATOM     22  C   UNL     1       5.741   1.254  16.607  1.00  0.00    -0.000 C 
BRANCH  22  23
ATOM     23  C   UNL     1       4.329   1.284  17.223  1.00  0.00    -0.000 C 
BRANCH  23  24
ATOM     24  C   UNL     1       4.252   2.053  18.559  1.00  0.00    -0.000 C 
BRANCH  24  25
ATOM     25  C   UNL     1       3.234   1.439  19.532  1.00  0.00    -0.003 C 
ATOM     26  C   UNL     1       1.818   1.908  19.216  1.00  0.00     0.004 C 
ENDBRANCH  24  25
ENDBRANCH  23  24
ENDBRANCH  22  23
ENDBRANCH  21  22
ENDBRANCH  20  21
ENDBRANCH  19  20
ENDBRANCH  18  19
ENDBRANCH  17  18
ENDBRANCH  16  17
ENDBRANCH  15  16
ENDBRANCH   1  15
TORSDOF 22
ENDMDL
MODEL 6
REMARK VINA RESULT:    -0.132      1.886      5.642
REMARK INTER + INTRA:          -1.887
REMARK INTER:                   0.485
REMARK INTRA:                  -2.373
REMARK UNBOUND:                -1.586
REMARK SMILES CCCCCCCCCCCCCCCCCCCCCCCC(=O)[O-]
REMARK SMILES IDX 13 1 14 2 15 3 16 4 17 5 18 6 19 7 20 8 21 9 22 10 23 11
REMARK SMILES IDX 24 12 25 13 26 14 12 15 11 16 10 17 9 18 8 19 7 20 6 21 5 22
REMARK SMILES IDX 4 23 3 24 2 25 1 26
REMARK H PARENT
REMARK Flexibility Score: inf
ROOT
ATOM      1  C   UNL     1       1.798  -0.331  14.549  1.00  0.00     0.000 C 
ENDROOT
BRANCH   1   2
ATOM      2  C   UNL     1       2.376   0.372  15.793  1.00  0.00     0.000 C 
BRANCH   2   3
ATOM      3  C   UNL     1       3.826  -0.007  16.143  1.00  0.00     0.000 C 
BRANCH   3   4
ATOM      4  C   UNL     1       3.916  -1.233  17.066  1.00  0.00     0.000 C 
BRANCH   4   5
ATOM      5  C   UNL     1       5.329  -1.844  17.121  1.00  0.00     0.000 C 
BRANCH   5   6
ATOM      6  C   UNL     1       6.479  -0.827  17.246  1.00  0.00     0.000 C 
BRANCH   6   7
ATOM      7  C   UNL     1       6.088   0.430  18.036  1.00  0.00     0.000 C 
BRANCH   7   8
ATOM      8  C   UNL     1       5.847   0.099  19.515  1.00  0.00     0.000 C 
BRANCH   8   9
ATOM      9  C   UNL     1       4.373   0.309  19.891  1.00  0.00     0.000 C 
BRANCH   9  10
ATOM     10  C   UNL     1       3.821   1.664  19.409  1.00  0.00     0.006 C 
BRANCH  10  11
ATOM     11  C   UNL     1       2.309   1.669  19.134  1.00  0.00     0.053 C 
BRANCH  11  12
ATOM     12  C   UNL     1       1.509   1.850  20.389  1.00  0.00     0.041 C 
ATOM     13  O   UNL     1       1.066   0.847  21.009  1.00  0.00    -0.550 OA
ATOM     14  O   UNL     1       1.242   3.128  20.866  1.00  0.00    -0.550 OA
ENDBRANCH  11  12
ENDBRANCH  10  11
ENDBRANCH   9  10
ENDBRANCH   8   9
ENDBRANCH   7   8
ENDBRANCH   6   7
ENDBRANCH   5   6
ENDBRANCH   4   5
ENDBRANCH   3   4
ENDBRANCH   2   3
ENDBRANCH   1   2
BRANCH   1  15
ATOM     15  C   UNL     1       2.780  -0.489  13.370  1.00  0.00     0.000 C 
BRANCH  15  16
ATOM     16  C   UNL     1       3.315  -1.915  13.149  1.00  0.00     0.000 C 
BRANCH  16  17
ATOM     17  C   UNL     1       4.720  -2.125  13.739  1.00  0.00     0.000 C 
BRANCH  17  18
ATOM     18  C   UNL     1       5.830  -1.487  12.883  1.00  0.00    -0.000 C 
BRANCH  18  19
ATOM     19  C   UNL     1       6.643  -0.379  13.582  1.00  0.00    -0.000 C 
BRANCH  19  20
ATOM     20  C   UNL     1       6.626   0.991  12.876  1.00  0.00    -0.000 C 
BRANCH  20  21
ATOM     21  C   UNL     1       5.475   1.928  13.296  1.00  0.00    -0.000 C 
BRANCH  21  22
ATOM     22  C   UNL     1       5.258   2.047  14.816  1.00  0.00    -0.000 C 
BRANCH  22  23
ATOM     23  C   UNL     1       5.110   3.488  15.337  1.00  0.00    -0.000 C 
BRANCH  23  24
ATOM     24  C   UNL     1       3.990   4.288  14.638  1.00  0.00    -0.000 C 
BRANCH  24  25
ATOM     25  C   UNL     1       2.609   3.642  14.817  1.00  0.00    -0.003 C 
ATOM     26  C   UNL     1       1.561   4.334  13.951  1.00  0.00     0.004 C 
ENDBRANCH  24  25
ENDBRANCH  23  24
ENDBRANCH  22  23
ENDBRANCH  21  22
ENDBRANCH  20  21
ENDBRANCH  19  20
ENDBRANCH  18  19
ENDBRANCH  17  18
ENDBRANCH  16  17
ENDBRANCH  15  16
ENDBRANCH   1  15
TORSDOF 22
ENDMDL
MODEL 7
REMARK VINA RESULT:    -0.059      1.610      4.972
REMARK INTER + INTRA:          -1.719
REMARK INTER:                  -0.132
REMARK INTRA:                  -1.587
REMARK UNBOUND:                -1.586
REMARK SMILES CCCCCCCCCCCCCCCCCCCCCCCC(=O)[O-]
REMARK SMILES IDX 13 1 14 2 15 3 16 4 17 5 18 6 19 7 20 8 21 9 22 10 23 11
REMARK SMILES IDX 24 12 25 13 26 14 12 15 11 16 10 17 9 18 8 19 7 20 6 21 5 22
REMARK SMILES IDX 4 23 3 24 2 25 1 26
REMARK H PARENT
REMARK Flexibility Score: inf
ROOT
ATOM      1  C   UNL     1       4.194  -1.328  13.945  1.00  0.00     0.000 C 
ENDROOT
BRANCH   1   2
ATOM      2  C   UNL     1       5.335  -1.796  13.020  1.00  0.00     0.000 C 
BRANCH   2   3
ATOM      3  C   UNL     1       6.691  -1.105  13.254  1.00  0.00     0.000 C 
BRANCH   3   4
ATOM      4  C   UNL     1       7.552  -1.825  14.305  1.00  0.00     0.000 C 
BRANCH   4   5
ATOM      5  C   UNL     1       6.786  -2.125  15.608  1.00  0.00     0.000 C 
BRANCH   5   6
ATOM      6  C   UNL     1       6.106  -0.909  16.264  1.00  0.00     0.000 C 
BRANCH   6   7
ATOM      7  C   UNL     1       5.389  -1.256  17.577  1.00  0.00     0.000 C 
BRANCH   7   8
ATOM      8  C   UNL     1       6.279  -0.950  18.788  1.00  0.00     0.000 C 
BRANCH   8   9
ATOM      9  C   UNL     1       5.595   0.048  19.734  1.00  0.00     0.000 C 
BRANCH   9  10
ATOM     10  C   UNL     1       4.181   0.440  19.266  1.00  0.00     0.006 C 
BRANCH  10  11
ATOM     11  C   UNL     1       3.578   1.639  20.014  1.00  0.00     0.053 C 
BRANCH  11  12
ATOM     12  C   UNL     1       2.083   1.672  19.915  1.00  0.00     0.041 C 
ATOM     13  O   UNL     1       1.526   2.071  18.858  1.00  0.00    -0.550 OA
ATOM     14  O   UNL     1       1.304   1.272  20.994  1.00  0.00    -0.550 OA
ENDBRANCH  11  12
ENDBRANCH  10  11
ENDBRANCH   9  10
ENDBRANCH   8   9
ENDBRANCH   7   8
ENDBRANCH   6   7
ENDBRANCH   5   6
ENDBRANCH   4   5
ENDBRANCH   3   4
ENDBRANCH   2   3
ENDBRANCH   1   2
BRANCH   1  15
ATOM     15  C   UNL     1       2.847  -1.064  13.243  1.00  0.00     0.000 C 
BRANCH  15  16
ATOM     16  C   UNL     1       1.620  -1.708  13.915  1.00  0.00     0.000 C 
BRANCH  16  17
ATOM     17  C   UNL     1       1.412  -1.231  15.362  1.00  0.00     0.000 C 
BRANCH  17  18
ATOM     18  C   UNL     1       0.744   0.155  15.445  1.00  0.00    -0.000 C 
BRANCH  18  19
ATOM     19  C   UNL     1       1.488   1.286  14.706  1.00  0.00    -0.000 C 
BRANCH  19  20
ATOM     20  C   UNL     1       2.339   2.205  15.604  1.00  0.00    -0.000 C 
BRANCH  20  21
ATOM     21  C   UNL     1       3.570   1.533  16.246  1.00  0.00    -0.000 C 
BRANCH  21  22
ATOM     22  C   UNL     1       4.851   2.386  16.241  1.00  0.00    -0.000 C 
BRANCH  22  23
ATOM     23  C   UNL     1       5.683   2.296  14.949  1.00  0.00    -0.000 C 
BRANCH  23  24
ATOM     24  C   UNL     1       4.830   2.116  13.674  1.00  0.00    -0.000 C 
BRANCH  24  25
ATOM     25  C   UNL     1       4.687   3.420  12.875  1.00  0.00    -0.003 C 
ATOM     26  C   UNL     1       3.496   4.237  13.365  1.00  0.00     0.004 C 
ENDBRANCH  24  25
ENDBRANCH  23  24
ENDBRANCH  22  23
ENDBRANCH  21  22
ENDBRANCH  20  21
ENDBRANCH  19  20
ENDBRANCH  18  19
ENDBRANCH  17  18
ENDBRANCH  16  17
ENDBRANCH  15  16
ENDBRANCH   1  15
TORSDOF 22
ENDMDL
MODEL 8
REMARK VINA RESULT:     0.066      1.807      4.465
REMARK INTER + INTRA:          -1.434
REMARK INTER:                  -2.276
REMARK INTRA:                   0.842
REMARK UNBOUND:                -1.586
REMARK SMILES CCCCCCCCCCCCCCCCCCCCCCCC(=O)[O-]
REMARK SMILES IDX 13 1 14 2 15 3 16 4 17 5 18 6 19 7 20 8 21 9 22 10 23 11
REMARK SMILES IDX 24 12 25 13 26 14 12 15 11 16 10 17 9 18 8 19 7 20 6 21 5 22
REMARK SMILES IDX 4 23 3 24 2 25 1 26
REMARK H PARENT
REMARK Flexibility Score: inf
ROOT
ATOM      1  C   UNL     1       5.853   2.677  14.377  1.00  0.00     0.000 C 
ENDROOT
BRANCH   1   2
ATOM      2  C   UNL     1       6.548   1.314  14.558  1.00  0.00     0.000 C 
BRANCH   2   3
ATOM      3  C   UNL     1       6.872   0.568  13.251  1.00  0.00     0.000 C 
BRANCH   3   4
ATOM      4  C   UNL     1       6.343  -0.876  13.242  1.00  0.00     0.000 C 
BRANCH   4   5
ATOM      5  C   UNL     1       7.231  -1.847  14.043  1.00  0.00     0.000 C 
BRANCH   5   6
ATOM      6  C   UNL     1       6.809  -2.068  15.507  1.00  0.00     0.000 C 
BRANCH   6   7
ATOM      7  C   UNL     1       5.454  -1.429  15.846  1.00  0.00     0.000 C 
BRANCH   7   8
ATOM      8  C   UNL     1       5.049  -1.731  17.294  1.00  0.00     0.000 C 
BRANCH   8   9
ATOM      9  C   UNL     1       6.250  -1.592  18.241  1.00  0.00     0.000 C 
BRANCH   9  10
ATOM     10  C   UNL     1       6.249  -0.261  19.015  1.00  0.00     0.006 C 
BRANCH  10  11
ATOM     11  C   UNL     1       4.907   0.081  19.681  1.00  0.00     0.053 C 
BRANCH  11  12
ATOM     12  C   UNL     1       4.233   1.248  19.025  1.00  0.00     0.041 C 
ATOM     13  O   UNL     1       3.220   1.777  19.556  1.00  0.00    -0.550 OA
ATOM     14  O   UNL     1       4.717   1.744  17.820  1.00  0.00    -0.550 OA
ENDBRANCH  11  12
ENDBRANCH  10  11
ENDBRANCH   9  10
ENDBRANCH   8   9
ENDBRANCH   7   8
ENDBRANCH   6   7
ENDBRANCH   5   6
ENDBRANCH   4   5
ENDBRANCH   3   4
ENDBRANCH   2   3
ENDBRANCH   1   2
BRANCH   1  15
ATOM     15  C   UNL     1       5.343   2.970  12.952  1.00  0.00     0.000 C 
BRANCH  15  16
ATOM     16  C   UNL     1       4.079   3.847  12.875  1.00  0.00     0.000 C 
BRANCH  16  17
ATOM     17  C   UNL     1       3.591   4.315  14.256  1.00  0.00     0.000 C 
BRANCH  17  18
ATOM     18  C   UNL     1       3.462   3.161  15.268  1.00  0.00    -0.000 C 
BRANCH  18  19
ATOM     19  C   UNL     1       2.630   1.955  14.786  1.00  0.00    -0.000 C 
BRANCH  19  20
ATOM     20  C   UNL     1       3.445   0.696  14.432  1.00  0.00    -0.000 C 
BRANCH  20  21
ATOM     21  C   UNL     1       3.140   0.089  13.047  1.00  0.00    -0.000 C 
BRANCH  21  22
ATOM     22  C   UNL     1       2.827  -1.419  13.056  1.00  0.00    -0.000 C 
BRANCH  22  23
ATOM     23  C   UNL     1       3.087  -2.125  14.400  1.00  0.00    -0.000 C 
BRANCH  23  24
ATOM     24  C   UNL     1       1.895  -2.054  15.379  1.00  0.00    -0.000 C 
BRANCH  24  25
ATOM     25  C   UNL     1       0.627  -1.493  14.718  1.00  0.00    -0.003 C 
ATOM     26  C   UNL     1       0.278  -0.118  15.278  1.00  0.00     0.004 C 
ENDBRANCH  24  25
ENDBRANCH  23  24
ENDBRANCH  22  23
ENDBRANCH  21  22
ENDBRANCH  20  21
ENDBRANCH  19  20
ENDBRANCH  18  19
ENDBRANCH  17  18
ENDBRANCH  16  17
ENDBRANCH  15  16
ENDBRANCH   1  15
TORSDOF 22
ENDMDL
