MODEL 1
REMARK VINA RESULT:    27.295      0.000      0.000
REMARK INTER + INTRA:          31.308
REMARK INTER:                  30.487
REMARK INTRA:                   0.821
REMARK UNBOUND:                 0.821
REMARK SMILES CC1(C)CC[C@]2(C(=O)[O-])[C@@H](O)C[C@]3(C)C(=CC[C@H]4[C@@]5(C)CC[C@@H](O)C(C)(C)[C@H]5CC[C@]43C)[C@@H]2C1
REMARK SMILES IDX 6 1 5 2 33 3 10 4 4 5 34 6 15 7 12 8 2 9 16 10 13 11 1 12
REMARK SMILES IDX 3 13 17 14 31 15 14 16 18 17 30 18 32 19 19 20 29 21 21 22
REMARK SMILES IDX 20 23 28 24 22 25 25 26 23 27 26 28 27 29 7 30 8 31 9 32
REMARK SMILES IDX 11 33 24 35
REMARK H PARENT 11 34 24 36
REMARK Flexibility Score: inf
ROOT
ATOM      1  C   UNL     1      15.559 -15.066  15.639  1.00  0.00     0.042 C 
ATOM      2  C   UNL     1      14.819 -14.938  17.022  1.00  0.00     0.017 C 
ATOM      3  C   UNL     1      14.568 -15.543  14.531  1.00  0.00     0.030 C 
ATOM      4  C   UNL     1      16.141 -13.654  15.271  1.00  0.00     0.127 C 
ATOM      5  C   UNL     1      13.558 -15.816  17.120  1.00  0.00     0.007 C 
ATOM      6  C   UNL     1      13.158 -14.946  14.718  1.00  0.00     0.015 C 
ATOM      7  C   UNL     1      15.185 -15.362  13.133  1.00  0.00    -0.063 C 
ATOM      8  C   UNL     1      16.681 -13.506  13.819  1.00  0.00     0.044 C 
ATOM      9  C   UNL     1      12.488 -15.439  16.046  1.00  0.00    -0.035 C 
ATOM     10  C   UNL     1      15.558 -16.496  12.515  1.00  0.00    -0.027 C 
ATOM     11  C   UNL     1      15.710 -13.986  12.675  1.00  0.00    -0.003 C 
ATOM     12  C   UNL     1      11.607 -16.676  15.757  1.00  0.00     0.011 C 
ATOM     13  C   UNL     1      11.577 -14.318  16.598  1.00  0.00     0.011 C 
ATOM     14  C   UNL     1      16.473 -16.578  11.344  1.00  0.00     0.032 C 
ATOM     15  C   UNL     1      16.467 -14.033  11.231  1.00  0.00    -0.020 C 
ATOM     16  C   UNL     1      14.509 -12.985  12.574  1.00  0.00     0.017 C 
ATOM     17  C   UNL     1      17.354 -15.322  11.091  1.00  0.00     0.006 C 
ATOM     18  C   UNL     1      15.443 -14.060  10.039  1.00  0.00     0.008 C 
ATOM     19  C   UNL     1      17.342 -12.734  11.123  1.00  0.00     0.012 C 
ATOM     20  C   UNL     1      18.211 -15.417   9.717  1.00  0.00    -0.025 C 
ATOM     21  C   UNL     1      15.920 -14.716   8.712  1.00  0.00     0.005 C 
ATOM     22  C   UNL     1      18.537 -16.921   9.380  1.00  0.00     0.010 C 
ATOM     23  C   UNL     1      19.586 -14.715   9.979  1.00  0.00     0.012 C 
ATOM     24  C   UNL     1      17.459 -14.710   8.493  1.00  0.00     0.003 C 
ATOM     25  C   UNL     1      19.129 -17.170   7.994  1.00  0.00     0.033 C 
ATOM     26  C   UNL     1      17.924 -15.139   7.021  1.00  0.00    -0.006 C 
ATOM     27  C   UNL     1      18.179 -16.668   6.903  1.00  0.00     0.120 C 
ATOM     28  C   UNL     1      19.216 -14.368   6.614  1.00  0.00     0.014 C 
ATOM     29  C   UNL     1      16.879 -14.744   5.936  1.00  0.00     0.014 C 
ENDROOT
BRANCH   1  30
ATOM     30  C   UNL     1      16.658 -16.123  15.761  1.00  0.00     0.051 C 
ATOM     31  O   UNL     1      17.105 -16.715  14.744  1.00  0.00    -0.549 OA
ATOM     32  O   UNL     1      17.088 -16.546  17.014  1.00  0.00    -0.549 OA
ENDBRANCH   1  30
BRANCH   4  33
ATOM     33  O   UNL     1      17.110 -13.239  16.206  1.00  0.00    -0.392 OA
ATOM     34  H   UNL     1      16.707 -12.540  16.778  1.00  0.00     0.210 HD
ENDBRANCH   4  33
BRANCH  27  35
ATOM     35  O   UNL     1      16.959 -17.367   6.981  1.00  0.00    -0.393 OA
ATOM     36  H   UNL     1      16.377 -17.030   6.251  1.00  0.00     0.210 HD
ENDBRANCH  27  35
TORSDOF 3
ENDMDL
