MODEL 1
REMARK VINA RESULT:    -3.117      0.000      0.000
REMARK INTER + INTRA:         -14.170
REMARK INTER:                  -8.218
REMARK INTRA:                  -5.952
REMARK UNBOUND:                -5.952
REMARK SMILES CCCCCCCCCCCCCCCCCCCCCCCCCCCCCC(=O)[O-]
REMARK SMILES IDX 16 1 17 2 18 3 19 4 20 5 21 6 22 7 23 8 24 9 25 10 26 11
REMARK SMILES IDX 27 12 28 13 29 14 30 15 31 16 32 17 15 18 14 19 13 20 12 21
REMARK SMILES IDX 11 22 10 23 9 24 8 25 7 26 6 27 5 28 4 29 3 30 2 31 1 32
REMARK H PARENT
REMARK Flexibility Score: inf
ROOT
ATOM      1  C   UNL     1    -100.900  72.308  26.722  1.00  0.00     0.000 C 
ENDROOT
BRANCH   1   2
ATOM      2  C   UNL     1    -100.967  70.942  26.016  1.00  0.00     0.000 C 
BRANCH   2   3
ATOM      3  C   UNL     1    -101.674  69.828  26.813  1.00  0.00     0.000 C 
BRANCH   3   4
ATOM      4  C   UNL     1    -100.741  68.755  27.406  1.00  0.00     0.000 C 
BRANCH   4   5
ATOM      5  C   UNL     1     -99.235  69.074  27.314  1.00  0.00     0.000 C 
BRANCH   5   6
ATOM      6  C   UNL     1     -98.551  69.395  28.656  1.00  0.00     0.000 C 
BRANCH   6   7
ATOM      7  C   UNL     1     -97.872  70.775  28.739  1.00  0.00     0.000 C 
BRANCH   7   8
ATOM      8  C   UNL     1     -98.612  71.794  29.631  1.00  0.00     0.000 C 
BRANCH   8   9
ATOM      9  C   UNL     1     -99.532  71.124  30.670  1.00  0.00     0.000 C 
BRANCH   9  10
ATOM     10  C   UNL     1    -101.023  71.340  30.370  1.00  0.00     0.000 C 
BRANCH  10  11
ATOM     11  C   UNL     1    -101.885  70.125  30.747  1.00  0.00     0.000 C 
BRANCH  11  12
ATOM     12  C   UNL     1    -103.282  70.234  30.117  1.00  0.00     0.000 C 
BRANCH  12  13
ATOM     13  C   UNL     1    -103.561  71.624  29.513  1.00  0.00     0.006 C 
BRANCH  13  14
ATOM     14  C   UNL     1    -104.522  71.614  28.314  1.00  0.00     0.053 C 
BRANCH  14  15
ATOM     15  C   UNL     1    -105.914  72.014  28.704  1.00  0.00     0.041 C 
ATOM     16  O   UNL     1    -106.236  72.081  29.920  1.00  0.00    -0.550 OA
ATOM     17  O   UNL     1    -106.863  72.279  27.724  1.00  0.00    -0.550 OA
ENDBRANCH  14  15
ENDBRANCH  13  14
ENDBRANCH  12  13
ENDBRANCH  11  12
ENDBRANCH  10  11
ENDBRANCH   9  10
ENDBRANCH   8   9
ENDBRANCH   7   8
ENDBRANCH   6   7
ENDBRANCH   5   6
ENDBRANCH   4   5
ENDBRANCH   3   4
ENDBRANCH   2   3
ENDBRANCH   1   2
BRANCH   1  18
ATOM     18  C   UNL     1     -99.636  73.138  26.423  1.00  0.00     0.000 C 
BRANCH  18  19
ATOM     19  C   UNL     1     -98.563  72.378  25.613  1.00  0.00     0.000 C 
BRANCH  19  20
ATOM     20  C   UNL     1     -97.903  73.257  24.539  1.00  0.00     0.000 C 
BRANCH  20  21
ATOM     21  C   UNL     1     -96.777  72.507  23.819  1.00  0.00     0.000 C 
BRANCH  21  22
ATOM     22  C   UNL     1     -95.773  73.494  23.200  1.00  0.00     0.000 C 
BRANCH  22  23
ATOM     23  C   UNL     1     -95.501  73.211  21.714  1.00  0.00     0.000 C 
BRANCH  23  24
ATOM     24  C   UNL     1     -96.319  72.024  21.176  1.00  0.00    -0.000 C 
BRANCH  24  25
ATOM     25  C   UNL     1     -97.085  72.369  19.881  1.00  0.00    -0.000 C 
BRANCH  25  26
ATOM     26  C   UNL     1     -98.012  73.594  20.011  1.00  0.00    -0.000 C 
BRANCH  26  27
ATOM     27  C   UNL     1     -99.088  73.483  21.109  1.00  0.00    -0.000 C 
BRANCH  27  28
ATOM     28  C   UNL     1     -99.985  72.232  21.013  1.00  0.00    -0.000 C 
BRANCH  28  29
ATOM     29  C   UNL     1    -100.388  71.609  22.367  1.00  0.00    -0.000 C 
BRANCH  29  30
ATOM     30  C   UNL     1    -100.266  70.076  22.437  1.00  0.00    -0.000 C 
BRANCH  30  31
ATOM     31  C   UNL     1     -98.987  69.615  23.152  1.00  0.00    -0.003 C 
ATOM     32  C   UNL     1     -99.198  68.273  23.848  1.00  0.00     0.004 C 
ENDBRANCH  30  31
ENDBRANCH  29  30
ENDBRANCH  28  29
ENDBRANCH  27  28
ENDBRANCH  26  27
ENDBRANCH  25  26
ENDBRANCH  24  25
ENDBRANCH  23  24
ENDBRANCH  22  23
ENDBRANCH  21  22
ENDBRANCH  20  21
ENDBRANCH  19  20
ENDBRANCH  18  19
ENDBRANCH   1  18
TORSDOF 28
ENDMDL
MODEL 2
REMARK VINA RESULT:    -3.040      1.941      5.968
REMARK INTER + INTRA:         -13.968
REMARK INTER:                  -7.458
REMARK INTRA:                  -6.511
REMARK UNBOUND:                -5.952
REMARK SMILES CCCCCCCCCCCCCCCCCCCCCCCCCCCCCC(=O)[O-]
REMARK SMILES IDX 16 1 17 2 18 3 19 4 20 5 21 6 22 7 23 8 24 9 25 10 26 11
REMARK SMILES IDX 27 12 28 13 29 14 30 15 31 16 32 17 15 18 14 19 13 20 12 21
REMARK SMILES IDX 11 22 10 23 9 24 8 25 7 26 6 27 5 28 4 29 3 30 2 31 1 32
REMARK H PARENT
REMARK Flexibility Score: inf
ROOT
ATOM      1  C   UNL     1     -97.215  71.765  21.955  1.00  0.00     0.000 C 
ENDROOT
BRANCH   1   2
ATOM      2  C   UNL     1     -98.250  70.686  22.321  1.00  0.00     0.000 C 
BRANCH   2   3
ATOM      3  C   UNL     1     -99.713  71.046  21.997  1.00  0.00     0.000 C 
BRANCH   3   4
ATOM      4  C   UNL     1    -100.759  70.014  22.462  1.00  0.00     0.000 C 
BRANCH   4   5
ATOM      5  C   UNL     1    -102.092  70.610  22.958  1.00  0.00     0.000 C 
BRANCH   5   6
ATOM      6  C   UNL     1    -102.208  72.141  22.838  1.00  0.00     0.000 C 
BRANCH   6   7
ATOM      7  C   UNL     1    -103.099  72.821  23.894  1.00  0.00     0.000 C 
BRANCH   7   8
ATOM      8  C   UNL     1    -103.462  71.918  25.093  1.00  0.00     0.000 C 
BRANCH   8   9
ATOM      9  C   UNL     1    -103.586  72.700  26.415  1.00  0.00     0.000 C 
BRANCH   9  10
ATOM     10  C   UNL     1    -103.355  71.818  27.651  1.00  0.00     0.000 C 
BRANCH  10  11
ATOM     11  C   UNL     1    -102.314  72.410  28.615  1.00  0.00     0.000 C 
BRANCH  11  12
ATOM     12  C   UNL     1    -102.590  71.957  30.057  1.00  0.00     0.000 C 
BRANCH  12  13
ATOM     13  C   UNL     1    -103.217  70.551  30.135  1.00  0.00     0.006 C 
BRANCH  13  14
ATOM     14  C   UNL     1    -102.986  69.827  31.471  1.00  0.00     0.053 C 
BRANCH  14  15
ATOM     15  C   UNL     1    -104.261  69.635  32.235  1.00  0.00     0.041 C 
ATOM     16  O   UNL     1    -104.976  68.617  32.029  1.00  0.00    -0.550 OA
ATOM     17  O   UNL     1    -104.677  70.596  33.150  1.00  0.00    -0.550 OA
ENDBRANCH  14  15
ENDBRANCH  13  14
ENDBRANCH  12  13
ENDBRANCH  11  12
ENDBRANCH  10  11
ENDBRANCH   9  10
ENDBRANCH   8   9
ENDBRANCH   7   8
ENDBRANCH   6   7
ENDBRANCH   5   6
ENDBRANCH   4   5
ENDBRANCH   3   4
ENDBRANCH   2   3
ENDBRANCH   1   2
BRANCH   1  18
ATOM     18  C   UNL     1     -96.496  72.416  23.152  1.00  0.00     0.000 C 
BRANCH  18  19
ATOM     19  C   UNL     1     -97.266  73.599  23.780  1.00  0.00     0.000 C 
BRANCH  19  20
ATOM     20  C   UNL     1     -97.882  73.245  25.143  1.00  0.00     0.000 C 
BRANCH  20  21
ATOM     21  C   UNL     1     -99.403  73.092  25.045  1.00  0.00     0.000 C 
BRANCH  21  22
ATOM     22  C   UNL     1     -99.875  71.835  25.795  1.00  0.00     0.000 C 
BRANCH  22  23
ATOM     23  C   UNL     1     -98.803  70.735  25.846  1.00  0.00     0.000 C 
BRANCH  23  24
ATOM     24  C   UNL     1     -99.407  69.320  25.908  1.00  0.00    -0.000 C 
BRANCH  24  25
ATOM     25  C   UNL     1    -100.859  69.318  26.433  1.00  0.00    -0.000 C 
BRANCH  25  26
ATOM     26  C   UNL     1    -100.990  68.889  27.907  1.00  0.00    -0.000 C 
BRANCH  26  27
ATOM     27  C   UNL     1     -99.714  68.286  28.526  1.00  0.00    -0.000 C 
BRANCH  27  28
ATOM     28  C   UNL     1     -99.303  68.893  29.883  1.00  0.00    -0.000 C 
BRANCH  28  29
ATOM     29  C   UNL     1     -99.370  70.433  29.960  1.00  0.00    -0.000 C 
BRANCH  29  30
ATOM     30  C   UNL     1     -98.216  71.168  29.253  1.00  0.00    -0.000 C 
BRANCH  30  31
ATOM     31  C   UNL     1     -98.042  72.612  29.745  1.00  0.00    -0.003 C 
ATOM     32  C   UNL     1     -98.745  73.600  28.818  1.00  0.00     0.004 C 
ENDBRANCH  30  31
ENDBRANCH  29  30
ENDBRANCH  28  29
ENDBRANCH  27  28
ENDBRANCH  26  27
ENDBRANCH  25  26
ENDBRANCH  24  25
ENDBRANCH  23  24
ENDBRANCH  22  23
ENDBRANCH  21  22
ENDBRANCH  20  21
ENDBRANCH  19  20
ENDBRANCH  18  19
ENDBRANCH   1  18
TORSDOF 28
ENDMDL
MODEL 3
REMARK VINA RESULT:    -3.035      1.969      6.555
REMARK INTER + INTRA:         -13.955
REMARK INTER:                  -7.791
REMARK INTRA:                  -6.164
REMARK UNBOUND:                -5.952
REMARK SMILES CCCCCCCCCCCCCCCCCCCCCCCCCCCCCC(=O)[O-]
REMARK SMILES IDX 16 1 17 2 18 3 19 4 20 5 21 6 22 7 23 8 24 9 25 10 26 11
REMARK SMILES IDX 27 12 28 13 29 14 30 15 31 16 32 17 15 18 14 19 13 20 12 21
REMARK SMILES IDX 11 22 10 23 9 24 8 25 7 26 6 27 5 28 4 29 3 30 2 31 1 32
REMARK H PARENT
REMARK Flexibility Score: inf
ROOT
ATOM      1  C   UNL     1     -95.251  72.872  22.753  1.00  0.00     0.000 C 
ENDROOT
BRANCH   1   2
ATOM      2  C   UNL     1     -95.898  73.096  21.374  1.00  0.00     0.000 C 
BRANCH   2   3
ATOM      3  C   UNL     1     -96.671  71.887  20.811  1.00  0.00     0.000 C 
BRANCH   3   4
ATOM      4  C   UNL     1     -98.143  72.165  20.446  1.00  0.00     0.000 C 
BRANCH   4   5
ATOM      5  C   UNL     1     -98.554  73.651  20.469  1.00  0.00     0.000 C 
BRANCH   5   6
ATOM      6  C   UNL     1    -100.057  73.910  20.676  1.00  0.00     0.000 C 
BRANCH   6   7
ATOM      7  C   UNL     1    -100.836  72.774  21.365  1.00  0.00     0.000 C 
BRANCH   7   8
ATOM      8  C   UNL     1    -102.106  72.327  20.611  1.00  0.00     0.000 C 
BRANCH   8   9
ATOM      9  C   UNL     1    -102.150  70.807  20.360  1.00  0.00     0.000 C 
BRANCH   9  10
ATOM     10  C   UNL     1    -102.410  70.001  21.643  1.00  0.00     0.000 C 
BRANCH  10  11
ATOM     11  C   UNL     1    -103.850  70.156  22.158  1.00  0.00     0.000 C 
BRANCH  11  12
ATOM     12  C   UNL     1    -103.881  71.020  23.428  1.00  0.00     0.000 C 
BRANCH  12  13
ATOM     13  C   UNL     1    -102.644  70.816  24.324  1.00  0.00     0.006 C 
BRANCH  13  14
ATOM     14  C   UNL     1    -102.405  71.941  25.344  1.00  0.00     0.053 C 
BRANCH  14  15
ATOM     15  C   UNL     1    -103.334  71.844  26.517  1.00  0.00     0.041 C 
ATOM     16  O   UNL     1    -102.967  71.252  27.568  1.00  0.00    -0.550 OA
ATOM     17  O   UNL     1    -104.615  72.377  26.437  1.00  0.00    -0.550 OA
ENDBRANCH  14  15
ENDBRANCH  13  14
ENDBRANCH  12  13
ENDBRANCH  11  12
ENDBRANCH  10  11
ENDBRANCH   9  10
ENDBRANCH   8   9
ENDBRANCH   7   8
ENDBRANCH   6   7
ENDBRANCH   5   6
ENDBRANCH   4   5
ENDBRANCH   3   4
ENDBRANCH   2   3
ENDBRANCH   1   2
BRANCH   1  18
ATOM     18  C   UNL     1     -95.677  73.870  23.846  1.00  0.00     0.000 C 
BRANCH  18  19
ATOM     19  C   UNL     1     -96.761  74.873  23.393  1.00  0.00     0.000 C 
BRANCH  19  20
ATOM     20  C   UNL     1     -98.118  74.620  24.070  1.00  0.00     0.000 C 
BRANCH  20  21
ATOM     21  C   UNL     1     -98.078  73.363  24.946  1.00  0.00     0.000 C 
BRANCH  21  22
ATOM     22  C   UNL     1     -99.024  72.283  24.393  1.00  0.00     0.000 C 
BRANCH  22  23
ATOM     23  C   UNL     1     -98.282  71.012  23.953  1.00  0.00     0.000 C 
BRANCH  23  24
ATOM     24  C   UNL     1     -99.155  70.086  23.087  1.00  0.00    -0.000 C 
BRANCH  24  25
ATOM     25  C   UNL     1     -99.384  68.705  23.739  1.00  0.00    -0.000 C 
BRANCH  25  26
ATOM     26  C   UNL     1     -99.026  68.655  25.237  1.00  0.00    -0.000 C 
BRANCH  26  27
ATOM     27  C   UNL     1    -100.184  68.995  26.196  1.00  0.00    -0.000 C 
BRANCH  27  28
ATOM     28  C   UNL     1     -99.748  69.449  27.604  1.00  0.00    -0.000 C 
BRANCH  28  29
ATOM     29  C   UNL     1     -98.407  70.210  27.662  1.00  0.00    -0.000 C 
BRANCH  29  30
ATOM     30  C   UNL     1     -98.253  71.163  28.861  1.00  0.00    -0.000 C 
BRANCH  30  31
ATOM     31  C   UNL     1     -98.417  72.640  28.471  1.00  0.00    -0.003 C 
ATOM     32  C   UNL     1     -99.880  72.980  28.202  1.00  0.00     0.004 C 
ENDBRANCH  30  31
ENDBRANCH  29  30
ENDBRANCH  28  29
ENDBRANCH  27  28
ENDBRANCH  26  27
ENDBRANCH  25  26
ENDBRANCH  24  25
ENDBRANCH  23  24
ENDBRANCH  22  23
ENDBRANCH  21  22
ENDBRANCH  20  21
ENDBRANCH  19  20
ENDBRANCH  18  19
ENDBRANCH   1  18
TORSDOF 28
ENDMDL
MODEL 4
REMARK VINA RESULT:    -3.028      2.141      7.536
REMARK INTER + INTRA:         -13.938
REMARK INTER:                  -7.858
REMARK INTRA:                  -6.080
REMARK UNBOUND:                -5.952
REMARK SMILES CCCCCCCCCCCCCCCCCCCCCCCCCCCCCC(=O)[O-]
REMARK SMILES IDX 16 1 17 2 18 3 19 4 20 5 21 6 22 7 23 8 24 9 25 10 26 11
REMARK SMILES IDX 27 12 28 13 29 14 30 15 31 16 32 17 15 18 14 19 13 20 12 21
REMARK SMILES IDX 11 22 10 23 9 24 8 25 7 26 6 27 5 28 4 29 3 30 2 31 1 32
REMARK H PARENT
REMARK Flexibility Score: inf
ROOT
ATOM      1  C   UNL     1     -98.265  69.857  27.702  1.00  0.00     0.000 C 
ENDROOT
BRANCH   1   2
ATOM      2  C   UNL     1     -98.243  71.254  28.350  1.00  0.00     0.000 C 
BRANCH   2   3
ATOM      3  C   UNL     1     -98.643  72.413  27.416  1.00  0.00     0.000 C 
BRANCH   3   4
ATOM      4  C   UNL     1     -98.687  72.060  25.917  1.00  0.00     0.000 C 
BRANCH   4   5
ATOM      5  C   UNL     1     -98.929  73.252  24.970  1.00  0.00     0.000 C 
BRANCH   5   6
ATOM      6  C   UNL     1     -97.730  73.638  24.084  1.00  0.00     0.000 C 
BRANCH   6   7
ATOM      7  C   UNL     1     -96.824  72.470  23.653  1.00  0.00     0.000 C 
BRANCH   7   8
ATOM      8  C   UNL     1     -96.731  72.269  22.125  1.00  0.00     0.000 C 
BRANCH   8   9
ATOM      9  C   UNL     1     -97.855  71.374  21.570  1.00  0.00     0.000 C 
BRANCH   9  10
ATOM     10  C   UNL     1     -98.310  70.301  22.570  1.00  0.00     0.000 C 
BRANCH  10  11
ATOM     11  C   UNL     1     -99.831  70.307  22.795  1.00  0.00     0.000 C 
BRANCH  11  12
ATOM     12  C   UNL     1    -100.470  71.543  22.146  1.00  0.00     0.000 C 
BRANCH  12  13
ATOM     13  C   UNL     1    -101.767  71.217  21.381  1.00  0.00     0.006 C 
BRANCH  13  14
ATOM     14  C   UNL     1    -102.241  69.762  21.526  1.00  0.00     0.053 C 
BRANCH  14  15
ATOM     15  C   UNL     1    -103.702  69.675  21.852  1.00  0.00     0.041 C 
ATOM     16  O   UNL     1    -104.197  70.413  22.746  1.00  0.00    -0.550 OA
ATOM     17  O   UNL     1    -104.510  68.756  21.193  1.00  0.00    -0.550 OA
ENDBRANCH  14  15
ENDBRANCH  13  14
ENDBRANCH  12  13
ENDBRANCH  11  12
ENDBRANCH  10  11
ENDBRANCH   9  10
ENDBRANCH   8   9
ENDBRANCH   7   8
ENDBRANCH   6   7
ENDBRANCH   5   6
ENDBRANCH   4   5
ENDBRANCH   3   4
ENDBRANCH   2   3
ENDBRANCH   1   2
BRANCH   1  18
ATOM     18  C   UNL     1     -98.818  68.731  28.596  1.00  0.00     0.000 C 
BRANCH  18  19
ATOM     19  C   UNL     1    -100.318  68.435  28.380  1.00  0.00     0.000 C 
BRANCH  19  20
ATOM     20  C   UNL     1    -100.792  68.798  26.964  1.00  0.00     0.000 C 
BRANCH  20  21
ATOM     21  C   UNL     1    -101.869  69.888  26.998  1.00  0.00     0.000 C 
BRANCH  21  22
ATOM     22  C   UNL     1    -101.966  70.603  25.640  1.00  0.00     0.000 C 
BRANCH  22  23
ATOM     23  C   UNL     1    -102.785  71.902  25.708  1.00  0.00     0.000 C 
BRANCH  23  24
ATOM     24  C   UNL     1    -102.278  72.866  26.796  1.00  0.00    -0.000 C 
BRANCH  24  25
ATOM     25  C   UNL     1    -103.384  73.268  27.795  1.00  0.00    -0.000 C 
BRANCH  25  26
ATOM     26  C   UNL     1    -104.687  72.459  27.644  1.00  0.00    -0.000 C 
BRANCH  26  27
ATOM     27  C   UNL     1    -104.911  71.378  28.718  1.00  0.00    -0.000 C 
BRANCH  27  28
ATOM     28  C   UNL     1    -104.071  71.554  30.000  1.00  0.00    -0.000 C 
BRANCH  28  29
ATOM     29  C   UNL     1    -103.499  70.250  30.594  1.00  0.00    -0.000 C 
BRANCH  29  30
ATOM     30  C   UNL     1    -102.012  70.316  30.991  1.00  0.00    -0.000 C 
BRANCH  30  31
ATOM     31  C   UNL     1    -101.259  71.454  30.287  1.00  0.00    -0.003 C 
ATOM     32  C   UNL     1    -100.421  72.257  31.278  1.00  0.00     0.004 C 
ENDBRANCH  30  31
ENDBRANCH  29  30
ENDBRANCH  28  29
ENDBRANCH  27  28
ENDBRANCH  26  27
ENDBRANCH  25  26
ENDBRANCH  24  25
ENDBRANCH  23  24
ENDBRANCH  22  23
ENDBRANCH  21  22
ENDBRANCH  20  21
ENDBRANCH  19  20
ENDBRANCH  18  19
ENDBRANCH   1  18
TORSDOF 28
ENDMDL
MODEL 5
REMARK VINA RESULT:    -2.987      1.860      7.053
REMARK INTER + INTRA:         -13.828
REMARK INTER:                  -7.651
REMARK INTRA:                  -6.177
REMARK UNBOUND:                -5.952
REMARK SMILES CCCCCCCCCCCCCCCCCCCCCCCCCCCCCC(=O)[O-]
REMARK SMILES IDX 16 1 17 2 18 3 19 4 20 5 21 6 22 7 23 8 24 9 25 10 26 11
REMARK SMILES IDX 27 12 28 13 29 14 30 15 31 16 32 17 15 18 14 19 13 20 12 21
REMARK SMILES IDX 11 22 10 23 9 24 8 25 7 26 6 27 5 28 4 29 3 30 2 31 1 32
REMARK H PARENT
REMARK Flexibility Score: inf
ROOT
ATOM      1  C   UNL     1     -99.492  72.295  24.897  1.00  0.00     0.000 C 
ENDROOT
BRANCH   1   2
ATOM      2  C   UNL     1     -98.865  73.670  24.605  1.00  0.00     0.000 C 
BRANCH   2   3
ATOM      3  C   UNL     1     -97.471  73.897  25.223  1.00  0.00     0.000 C 
BRANCH   3   4
ATOM      4  C   UNL     1     -96.372  74.307  24.223  1.00  0.00     0.000 C 
BRANCH   4   5
ATOM      5  C   UNL     1     -95.664  73.136  23.512  1.00  0.00     0.000 C 
BRANCH   5   6
ATOM      6  C   UNL     1     -95.628  73.231  21.975  1.00  0.00     0.000 C 
BRANCH   6   7
ATOM      7  C   UNL     1     -95.948  71.924  21.225  1.00  0.00     0.000 C 
BRANCH   7   8
ATOM      8  C   UNL     1     -97.387  71.408  21.437  1.00  0.00     0.000 C 
BRANCH   8   9
ATOM      9  C   UNL     1     -98.456  72.482  21.158  1.00  0.00     0.000 C 
BRANCH   9  10
ATOM     10  C   UNL     1     -99.889  71.940  21.277  1.00  0.00     0.000 C 
BRANCH  10  11
ATOM     11  C   UNL     1    -100.938  73.059  21.375  1.00  0.00     0.000 C 
BRANCH  11  12
ATOM     12  C   UNL     1    -102.255  72.518  21.953  1.00  0.00     0.000 C 
BRANCH  12  13
ATOM     13  C   UNL     1    -102.113  71.104  22.548  1.00  0.00     0.006 C 
BRANCH  13  14
ATOM     14  C   UNL     1    -102.862  70.895  23.874  1.00  0.00     0.053 C 
BRANCH  14  15
ATOM     15  C   UNL     1    -104.270  71.405  23.812  1.00  0.00     0.041 C 
ATOM     16  O   UNL     1    -105.108  70.862  23.042  1.00  0.00    -0.550 OA
ATOM     17  O   UNL     1    -104.649  72.501  24.579  1.00  0.00    -0.550 OA
ENDBRANCH  14  15
ENDBRANCH  13  14
ENDBRANCH  12  13
ENDBRANCH  11  12
ENDBRANCH  10  11
ENDBRANCH   9  10
ENDBRANCH   8   9
ENDBRANCH   7   8
ENDBRANCH   6   7
ENDBRANCH   5   6
ENDBRANCH   4   5
ENDBRANCH   3   4
ENDBRANCH   2   3
ENDBRANCH   1   2
BRANCH   1  18
ATOM     18  C   UNL     1     -98.512  71.107  24.854  1.00  0.00     0.000 C 
BRANCH  18  19
ATOM     19  C   UNL     1     -99.124  69.808  24.284  1.00  0.00     0.000 C 
BRANCH  19  20
ATOM     20  C   UNL     1     -99.335  68.733  25.362  1.00  0.00     0.000 C 
BRANCH  20  21
ATOM     21  C   UNL     1    -100.480  69.110  26.309  1.00  0.00     0.000 C 
BRANCH  21  22
ATOM     22  C   UNL     1    -100.073  68.884  27.774  1.00  0.00     0.000 C 
BRANCH  22  23
ATOM     23  C   UNL     1     -98.560  69.033  28.002  1.00  0.00     0.000 C 
BRANCH  23  24
ATOM     24  C   UNL     1     -98.150  70.479  28.334  1.00  0.00    -0.000 C 
BRANCH  24  25
ATOM     25  C   UNL     1     -99.320  71.313  28.898  1.00  0.00    -0.000 C 
BRANCH  25  26
ATOM     26  C   UNL     1     -99.088  72.836  28.837  1.00  0.00    -0.000 C 
BRANCH  26  27
ATOM     27  C   UNL     1    -100.214  73.639  28.158  1.00  0.00    -0.000 C 
BRANCH  27  28
ATOM     28  C   UNL     1    -101.641  73.136  28.459  1.00  0.00    -0.000 C 
BRANCH  28  29
ATOM     29  C   UNL     1    -102.345  72.421  27.286  1.00  0.00    -0.000 C 
BRANCH  29  30
ATOM     30  C   UNL     1    -103.066  71.113  27.663  1.00  0.00    -0.000 C 
BRANCH  30  31
ATOM     31  C   UNL     1    -104.030  71.286  28.846  1.00  0.00    -0.003 C 
ATOM     32  C   UNL     1    -103.578  70.464  30.050  1.00  0.00     0.004 C 
ENDBRANCH  30  31
ENDBRANCH  29  30
ENDBRANCH  28  29
ENDBRANCH  27  28
ENDBRANCH  26  27
ENDBRANCH  25  26
ENDBRANCH  24  25
ENDBRANCH  23  24
ENDBRANCH  22  23
ENDBRANCH  21  22
ENDBRANCH  20  21
ENDBRANCH  19  20
ENDBRANCH  18  19
ENDBRANCH   1  18
TORSDOF 28
ENDMDL
MODEL 6
REMARK VINA RESULT:    -2.985      2.681      3.928
REMARK INTER + INTRA:         -13.823
REMARK INTER:                  -7.825
REMARK INTRA:                  -5.998
REMARK UNBOUND:                -5.952
REMARK SMILES CCCCCCCCCCCCCCCCCCCCCCCCCCCCCC(=O)[O-]
REMARK SMILES IDX 16 1 17 2 18 3 19 4 20 5 21 6 22 7 23 8 24 9 25 10 26 11
REMARK SMILES IDX 27 12 28 13 29 14 30 15 31 16 32 17 15 18 14 19 13 20 12 21
REMARK SMILES IDX 11 22 10 23 9 24 8 25 7 26 6 27 5 28 4 29 3 30 2 31 1 32
REMARK H PARENT
REMARK Flexibility Score: inf
ROOT
ATOM      1  C   UNL     1     -99.703  68.774  24.494  1.00  0.00     0.000 C 
ENDROOT
BRANCH   1   2
ATOM      2  C   UNL     1     -99.648  69.080  26.002  1.00  0.00     0.000 C 
BRANCH   2   3
ATOM      3  C   UNL     1    -101.008  69.039  26.727  1.00  0.00     0.000 C 
BRANCH   3   4
ATOM      4  C   UNL     1    -101.999  70.147  26.321  1.00  0.00     0.000 C 
BRANCH   4   5
ATOM      5  C   UNL     1    -101.918  71.437  27.163  1.00  0.00     0.000 C 
BRANCH   5   6
ATOM      6  C   UNL     1    -101.386  72.673  26.416  1.00  0.00     0.000 C 
BRANCH   6   7
ATOM      7  C   UNL     1    -100.174  73.367  27.066  1.00  0.00     0.000 C 
BRANCH   7   8
ATOM      8  C   UNL     1     -99.123  72.396  27.646  1.00  0.00     0.000 C 
BRANCH   8   9
ATOM      9  C   UNL     1     -98.619  72.820  29.038  1.00  0.00     0.000 C 
BRANCH   9  10
ATOM     10  C   UNL     1     -99.762  73.167  30.004  1.00  0.00     0.000 C 
BRANCH  10  11
ATOM     11  C   UNL     1    -100.008  72.067  31.049  1.00  0.00     0.000 C 
BRANCH  11  12
ATOM     12  C   UNL     1    -101.299  71.297  30.733  1.00  0.00     0.000 C 
BRANCH  12  13
ATOM     13  C   UNL     1    -101.048  69.811  30.408  1.00  0.00     0.006 C 
BRANCH  13  14
ATOM     14  C   UNL     1     -99.710  69.264  30.933  1.00  0.00     0.053 C 
BRANCH  14  15
ATOM     15  C   UNL     1     -98.907  68.606  29.851  1.00  0.00     0.041 C 
ATOM     16  O   UNL     1     -98.249  69.307  29.035  1.00  0.00    -0.550 OA
ATOM     17  O   UNL     1     -98.913  67.222  29.722  1.00  0.00    -0.550 OA
ENDBRANCH  14  15
ENDBRANCH  13  14
ENDBRANCH  12  13
ENDBRANCH  11  12
ENDBRANCH  10  11
ENDBRANCH   9  10
ENDBRANCH   8   9
ENDBRANCH   7   8
ENDBRANCH   6   7
ENDBRANCH   5   6
ENDBRANCH   4   5
ENDBRANCH   3   4
ENDBRANCH   2   3
ENDBRANCH   1   2
BRANCH   1  18
ATOM     18  C   UNL     1     -98.978  69.793  23.593  1.00  0.00     0.000 C 
BRANCH  18  19
ATOM     19  C   UNL     1     -98.940  71.225  24.169  1.00  0.00     0.000 C 
BRANCH  19  20
ATOM     20  C   UNL     1     -97.523  71.820  24.176  1.00  0.00     0.000 C 
BRANCH  20  21
ATOM     21  C   UNL     1     -97.553  73.329  24.444  1.00  0.00     0.000 C 
BRANCH  21  22
ATOM     22  C   UNL     1     -96.361  74.027  23.767  1.00  0.00     0.000 C 
BRANCH  22  23
ATOM     23  C   UNL     1     -95.508  73.065  22.926  1.00  0.00     0.000 C 
BRANCH  23  24
ATOM     24  C   UNL     1     -95.130  73.652  21.554  1.00  0.00    -0.000 C 
BRANCH  24  25
ATOM     25  C   UNL     1     -96.221  73.417  20.487  1.00  0.00    -0.000 C 
BRANCH  25  26
ATOM     26  C   UNL     1     -96.999  72.099  20.669  1.00  0.00    -0.000 C 
BRANCH  26  27
ATOM     27  C   UNL     1     -98.528  72.220  20.525  1.00  0.00    -0.000 C 
BRANCH  27  28
ATOM     28  C   UNL     1     -99.106  73.604  20.887  1.00  0.00    -0.000 C 
BRANCH  28  29
ATOM     29  C   UNL     1    -100.259  73.586  21.912  1.00  0.00    -0.000 C 
BRANCH  29  30
ATOM     30  C   UNL     1    -101.326  72.503  21.670  1.00  0.00    -0.000 C 
BRANCH  30  31
ATOM     31  C   UNL     1    -102.218  72.263  22.896  1.00  0.00    -0.003 C 
ATOM     32  C   UNL     1    -103.683  72.118  22.493  1.00  0.00     0.004 C 
ENDBRANCH  30  31
ENDBRANCH  29  30
ENDBRANCH  28  29
ENDBRANCH  27  28
ENDBRANCH  26  27
ENDBRANCH  25  26
ENDBRANCH  24  25
ENDBRANCH  23  24
ENDBRANCH  22  23
ENDBRANCH  21  22
ENDBRANCH  20  21
ENDBRANCH  19  20
ENDBRANCH  18  19
ENDBRANCH   1  18
TORSDOF 28
ENDMDL
MODEL 7
REMARK VINA RESULT:    -2.981      2.532      7.485
REMARK INTER + INTRA:         -13.812
REMARK INTER:                  -7.552
REMARK INTRA:                  -6.260
REMARK UNBOUND:                -5.952
REMARK SMILES CCCCCCCCCCCCCCCCCCCCCCCCCCCCCC(=O)[O-]
REMARK SMILES IDX 16 1 17 2 18 3 19 4 20 5 21 6 22 7 23 8 24 9 25 10 26 11
REMARK SMILES IDX 27 12 28 13 29 14 30 15 31 16 32 17 15 18 14 19 13 20 12 21
REMARK SMILES IDX 11 22 10 23 9 24 8 25 7 26 6 27 5 28 4 29 3 30 2 31 1 32
REMARK H PARENT
REMARK Flexibility Score: inf
ROOT
ATOM      1  C   UNL     1     -98.248  71.277  22.262  1.00  0.00     0.000 C 
ENDROOT
BRANCH   1   2
ATOM      2  C   UNL     1     -96.938  71.367  21.459  1.00  0.00     0.000 C 
BRANCH   2   3
ATOM      3  C   UNL     1     -96.105  72.639  21.708  1.00  0.00     0.000 C 
BRANCH   3   4
ATOM      4  C   UNL     1     -95.567  72.798  23.143  1.00  0.00     0.000 C 
BRANCH   4   5
ATOM      5  C   UNL     1     -96.156  73.983  23.935  1.00  0.00     0.000 C 
BRANCH   5   6
ATOM      6  C   UNL     1     -97.328  74.710  23.250  1.00  0.00     0.000 C 
BRANCH   6   7
ATOM      7  C   UNL     1     -98.646  74.734  24.046  1.00  0.00     0.000 C 
BRANCH   7   8
ATOM      8  C   UNL     1     -99.914  74.587  23.177  1.00  0.00     0.000 C 
BRANCH   8   9
ATOM      9  C   UNL     1     -99.614  74.636  21.667  1.00  0.00     0.000 C 
BRANCH   9  10
ATOM     10  C   UNL     1    -100.506  73.685  20.853  1.00  0.00     0.000 C 
BRANCH  10  11
ATOM     11  C   UNL     1    -101.459  72.864  21.738  1.00  0.00     0.000 C 
BRANCH  11  12
ATOM     12  C   UNL     1    -101.741  71.494  21.105  1.00  0.00     0.000 C 
BRANCH  12  13
ATOM     13  C   UNL     1    -102.159  70.430  22.138  1.00  0.00     0.006 C 
BRANCH  13  14
ATOM     14  C   UNL     1    -103.545  70.659  22.761  1.00  0.00     0.053 C 
BRANCH  14  15
ATOM     15  C   UNL     1    -104.623  69.924  22.023  1.00  0.00     0.041 C 
ATOM     16  O   UNL     1    -104.327  68.978  21.245  1.00  0.00    -0.550 OA
ATOM     17  O   UNL     1    -105.952  70.307  22.167  1.00  0.00    -0.550 OA
ENDBRANCH  14  15
ENDBRANCH  13  14
ENDBRANCH  12  13
ENDBRANCH  11  12
ENDBRANCH  10  11
ENDBRANCH   9  10
ENDBRANCH   8   9
ENDBRANCH   7   8
ENDBRANCH   6   7
ENDBRANCH   5   6
ENDBRANCH   4   5
ENDBRANCH   3   4
ENDBRANCH   2   3
ENDBRANCH   1   2
BRANCH   1  18
ATOM     18  C   UNL     1     -98.634  69.860  22.727  1.00  0.00     0.000 C 
BRANCH  18  19
ATOM     19  C   UNL     1     -99.076  69.781  24.205  1.00  0.00     0.000 C 
BRANCH  19  20
ATOM     20  C   UNL     1     -99.070  71.154  24.896  1.00  0.00     0.000 C 
BRANCH  20  21
ATOM     21  C   UNL     1    -100.489  71.600  25.263  1.00  0.00     0.000 C 
BRANCH  21  22
ATOM     22  C   UNL     1    -101.323  70.409  25.764  1.00  0.00     0.000 C 
BRANCH  22  23
ATOM     23  C   UNL     1    -101.780  70.573  27.222  1.00  0.00     0.000 C 
BRANCH  23  24
ATOM     24  C   UNL     1    -101.303  69.422  28.126  1.00  0.00    -0.000 C 
BRANCH  24  25
ATOM     25  C   UNL     1    -100.095  68.664  27.534  1.00  0.00    -0.000 C 
BRANCH  25  26
ATOM     26  C   UNL     1     -98.788  68.854  28.328  1.00  0.00    -0.000 C 
BRANCH  26  27
ATOM     27  C   UNL     1     -98.304  70.312  28.446  1.00  0.00    -0.000 C 
BRANCH  27  28
ATOM     28  C   UNL     1     -98.652  71.005  29.779  1.00  0.00    -0.000 C 
BRANCH  28  29
ATOM     29  C   UNL     1     -98.598  72.547  29.751  1.00  0.00    -0.000 C 
BRANCH  29  30
ATOM     30  C   UNL     1     -99.499  73.209  28.691  1.00  0.00    -0.000 C 
BRANCH  30  31
ATOM     31  C   UNL     1     -98.701  73.800  27.519  1.00  0.00    -0.003 C 
ATOM     32  C   UNL     1     -97.288  74.181  27.951  1.00  0.00     0.004 C 
ENDBRANCH  30  31
ENDBRANCH  29  30
ENDBRANCH  28  29
ENDBRANCH  27  28
ENDBRANCH  26  27
ENDBRANCH  25  26
ENDBRANCH  24  25
ENDBRANCH  23  24
ENDBRANCH  22  23
ENDBRANCH  21  22
ENDBRANCH  20  21
ENDBRANCH  19  20
ENDBRANCH  18  19
ENDBRANCH   1  18
TORSDOF 28
ENDMDL
MODEL 8
REMARK VINA RESULT:    -2.972      2.615      4.383
REMARK INTER + INTRA:         -13.789
REMARK INTER:                  -8.135
REMARK INTRA:                  -5.654
REMARK UNBOUND:                -5.952
REMARK SMILES CCCCCCCCCCCCCCCCCCCCCCCCCCCCCC(=O)[O-]
REMARK SMILES IDX 16 1 17 2 18 3 19 4 20 5 21 6 22 7 23 8 24 9 25 10 26 11
REMARK SMILES IDX 27 12 28 13 29 14 30 15 31 16 32 17 15 18 14 19 13 20 12 21
REMARK SMILES IDX 11 22 10 23 9 24 8 25 7 26 6 27 5 28 4 29 3 30 2 31 1 32
REMARK H PARENT
REMARK Flexibility Score: inf
ROOT
ATOM      1  C   UNL     1     -98.647  72.642  23.378  1.00  0.00     0.000 C 
ENDROOT
BRANCH   1   2
ATOM      2  C   UNL     1     -98.088  71.216  23.217  1.00  0.00     0.000 C 
BRANCH   2   3
ATOM      3  C   UNL     1     -98.982  70.251  22.413  1.00  0.00     0.000 C 
BRANCH   3   4
ATOM      4  C   UNL     1     -99.825  69.280  23.262  1.00  0.00     0.000 C 
BRANCH   4   5
ATOM      5  C   UNL     1     -99.064  68.585  24.409  1.00  0.00     0.000 C 
BRANCH   5   6
ATOM      6  C   UNL     1     -99.360  69.133  25.817  1.00  0.00     0.000 C 
BRANCH   6   7
ATOM      7  C   UNL     1    -100.824  69.009  26.281  1.00  0.00     0.000 C 
BRANCH   7   8
ATOM      8  C   UNL     1    -101.587  70.350  26.337  1.00  0.00     0.000 C 
BRANCH   8   9
ATOM      9  C   UNL     1    -100.652  71.573  26.286  1.00  0.00     0.000 C 
BRANCH   9  10
ATOM     10  C   UNL     1    -101.095  72.699  27.234  1.00  0.00     0.000 C 
BRANCH  10  11
ATOM     11  C   UNL     1    -100.056  72.992  28.329  1.00  0.00     0.000 C 
BRANCH  11  12
ATOM     12  C   UNL     1     -98.723  72.300  28.012  1.00  0.00     0.000 C 
BRANCH  12  13
ATOM     13  C   UNL     1     -98.217  71.413  29.166  1.00  0.00     0.006 C 
BRANCH  13  14
ATOM     14  C   UNL     1     -98.210  69.907  28.853  1.00  0.00     0.053 C 
BRANCH  14  15
ATOM     15  C   UNL     1     -99.187  69.151  29.701  1.00  0.00     0.041 C 
ATOM     16  O   UNL     1    -100.300  69.665  29.998  1.00  0.00    -0.550 OA
ATOM     17  O   UNL     1     -98.857  67.893  30.193  1.00  0.00    -0.550 OA
ENDBRANCH  14  15
ENDBRANCH  13  14
ENDBRANCH  12  13
ENDBRANCH  11  12
ENDBRANCH  10  11
ENDBRANCH   9  10
ENDBRANCH   8   9
ENDBRANCH   7   8
ENDBRANCH   6   7
ENDBRANCH   5   6
ENDBRANCH   4   5
ENDBRANCH   3   4
ENDBRANCH   2   3
ENDBRANCH   1   2
BRANCH   1  18
ATOM     18  C   UNL     1     -97.585  73.750  23.511  1.00  0.00     0.000 C 
BRANCH  18  19
ATOM     19  C   UNL     1     -96.156  73.222  23.770  1.00  0.00     0.000 C 
BRANCH  19  20
ATOM     20  C   UNL     1     -95.266  73.294  22.519  1.00  0.00     0.000 C 
BRANCH  20  21
ATOM     21  C   UNL     1     -95.635  74.494  21.640  1.00  0.00     0.000 C 
BRANCH  21  22
ATOM     22  C   UNL     1     -95.753  74.073  20.165  1.00  0.00     0.000 C 
BRANCH  22  23
ATOM     23  C   UNL     1     -96.085  72.582  19.996  1.00  0.00     0.000 C 
BRANCH  23  24
ATOM     24  C   UNL     1     -97.574  72.337  19.693  1.00  0.00    -0.000 C 
BRANCH  24  25
ATOM     25  C   UNL     1     -98.335  73.638  19.364  1.00  0.00    -0.000 C 
BRANCH  25  26
ATOM     26  C   UNL     1     -99.643  73.815  20.160  1.00  0.00    -0.000 C 
BRANCH  26  27
ATOM     27  C   UNL     1    -100.861  73.065  19.586  1.00  0.00    -0.000 C 
BRANCH  27  28
ATOM     28  C   UNL     1    -101.659  72.240  20.616  1.00  0.00    -0.000 C 
BRANCH  28  29
ATOM     29  C   UNL     1    -102.177  73.035  21.833  1.00  0.00    -0.000 C 
BRANCH  29  30
ATOM     30  C   UNL     1    -102.297  72.222  23.136  1.00  0.00    -0.000 C 
BRANCH  30  31
ATOM     31  C   UNL     1    -102.973  70.859  22.925  1.00  0.00    -0.003 C 
ATOM     32  C   UNL     1    -104.486  70.962  23.092  1.00  0.00     0.004 C 
ENDBRANCH  30  31
ENDBRANCH  29  30
ENDBRANCH  28  29
ENDBRANCH  27  28
ENDBRANCH  26  27
ENDBRANCH  25  26
ENDBRANCH  24  25
ENDBRANCH  23  24
ENDBRANCH  22  23
ENDBRANCH  21  22
ENDBRANCH  20  21
ENDBRANCH  19  20
ENDBRANCH  18  19
ENDBRANCH   1  18
TORSDOF 28
ENDMDL
MODEL 9
REMARK VINA RESULT:    -2.924      2.217      7.193
REMARK INTER + INTRA:         -13.662
REMARK INTER:                  -7.432
REMARK INTRA:                  -6.230
REMARK UNBOUND:                -5.952
REMARK SMILES CCCCCCCCCCCCCCCCCCCCCCCCCCCCCC(=O)[O-]
REMARK SMILES IDX 16 1 17 2 18 3 19 4 20 5 21 6 22 7 23 8 24 9 25 10 26 11
REMARK SMILES IDX 27 12 28 13 29 14 30 15 31 16 32 17 15 18 14 19 13 20 12 21
REMARK SMILES IDX 11 22 10 23 9 24 8 25 7 26 6 27 5 28 4 29 3 30 2 31 1 32
REMARK H PARENT
REMARK Flexibility Score: inf
ROOT
ATOM      1  C   UNL     1     -98.457  74.673  24.066  1.00  0.00     0.000 C 
ENDROOT
BRANCH   1   2
ATOM      2  C   UNL     1     -97.034  74.816  23.496  1.00  0.00     0.000 C 
BRANCH   2   3
ATOM      3  C   UNL     1     -95.995  73.839  24.081  1.00  0.00     0.000 C 
BRANCH   3   4
ATOM      4  C   UNL     1     -95.294  72.935  23.047  1.00  0.00     0.000 C 
BRANCH   4   5
ATOM      5  C   UNL     1     -95.343  73.444  21.593  1.00  0.00     0.000 C 
BRANCH   5   6
ATOM      6  C   UNL     1     -96.172  72.580  20.625  1.00  0.00     0.000 C 
BRANCH   6   7
ATOM      7  C   UNL     1     -96.833  71.337  21.250  1.00  0.00     0.000 C 
BRANCH   7   8
ATOM      8  C   UNL     1     -98.340  71.501  21.546  1.00  0.00     0.000 C 
BRANCH   8   9
ATOM      9  C   UNL     1     -98.943  72.763  20.900  1.00  0.00     0.000 C 
BRANCH   9  10
ATOM     10  C   UNL     1    -100.437  72.936  21.215  1.00  0.00     0.000 C 
BRANCH  10  11
ATOM     11  C   UNL     1    -101.113  71.616  21.619  1.00  0.00     0.000 C 
BRANCH  11  12
ATOM     12  C   UNL     1    -102.301  71.880  22.556  1.00  0.00     0.000 C 
BRANCH  12  13
ATOM     13  C   UNL     1    -103.045  70.592  22.960  1.00  0.00     0.006 C 
BRANCH  13  14
ATOM     14  C   UNL     1    -104.545  70.592  22.621  1.00  0.00     0.053 C 
BRANCH  14  15
ATOM     15  C   UNL     1    -105.127  71.973  22.644  1.00  0.00     0.041 C 
ATOM     16  O   UNL     1    -105.321  72.597  21.565  1.00  0.00    -0.550 OA
ATOM     17  O   UNL     1    -105.425  72.585  23.856  1.00  0.00    -0.550 OA
ENDBRANCH  14  15
ENDBRANCH  13  14
ENDBRANCH  12  13
ENDBRANCH  11  12
ENDBRANCH  10  11
ENDBRANCH   9  10
ENDBRANCH   8   9
ENDBRANCH   7   8
ENDBRANCH   6   7
ENDBRANCH   5   6
ENDBRANCH   4   5
ENDBRANCH   3   4
ENDBRANCH   2   3
ENDBRANCH   1   2
BRANCH   1  18
ATOM     18  C   UNL     1     -98.604  73.651  25.209  1.00  0.00     0.000 C 
BRANCH  18  19
ATOM     19  C   UNL     1     -99.554  72.477  24.884  1.00  0.00     0.000 C 
BRANCH  19  20
ATOM     20  C   UNL     1     -98.910  71.107  25.151  1.00  0.00     0.000 C 
BRANCH  20  21
ATOM     21  C   UNL     1     -99.847  69.963  24.751  1.00  0.00     0.000 C 
BRANCH  21  22
ATOM     22  C   UNL     1     -99.749  68.801  25.754  1.00  0.00     0.000 C 
BRANCH  22  23
ATOM     23  C   UNL     1    -100.782  68.905  26.888  1.00  0.00     0.000 C 
BRANCH  23  24
ATOM     24  C   UNL     1    -100.149  68.752  28.282  1.00  0.00    -0.000 C 
BRANCH  24  25
ATOM     25  C   UNL     1     -98.615  68.923  28.260  1.00  0.00    -0.000 C 
BRANCH  25  26
ATOM     26  C   UNL     1     -98.137  70.334  28.654  1.00  0.00    -0.000 C 
BRANCH  26  27
ATOM     27  C   UNL     1     -99.179  71.190  29.400  1.00  0.00    -0.000 C 
BRANCH  27  28
ATOM     28  C   UNL     1     -99.736  72.382  28.594  1.00  0.00    -0.000 C 
BRANCH  28  29
ATOM     29  C   UNL     1    -101.251  72.329  28.306  1.00  0.00    -0.000 C 
BRANCH  29  30
ATOM     30  C   UNL     1    -101.830  73.595  27.648  1.00  0.00    -0.000 C 
BRANCH  30  31
ATOM     31  C   UNL     1    -102.705  73.281  26.426  1.00  0.00    -0.003 C 
ATOM     32  C   UNL     1    -103.102  71.808  26.395  1.00  0.00     0.004 C 
ENDBRANCH  30  31
ENDBRANCH  29  30
ENDBRANCH  28  29
ENDBRANCH  27  28
ENDBRANCH  26  27
ENDBRANCH  25  26
ENDBRANCH  24  25
ENDBRANCH  23  24
ENDBRANCH  22  23
ENDBRANCH  21  22
ENDBRANCH  20  21
ENDBRANCH  19  20
ENDBRANCH  18  19
ENDBRANCH   1  18
TORSDOF 28
ENDMDL
