MODEL 1
REMARK VINA RESULT:    -5.205      0.000      0.000
REMARK INTER + INTRA:          -7.956
REMARK INTER:                  -7.944
REMARK INTRA:                  -0.012
REMARK UNBOUND:                -0.012
REMARK SMILES CC1=CCC[C@H](C)C(=O)C[C@H](C(C)C)C(=O)C1
REMARK SMILES IDX 8 1 9 2 6 3 7 4 5 5 4 6 3 7 2 8 1 9 10 11 11 12 15 13 16 14
REMARK SMILES IDX 17 15 12 17 13 18 14 19
REMARK H PARENT
REMARK Flexibility Score: 70.00
ROOT
ATOM      1  C   UNL     1      -7.628  34.551  23.583  1.00  0.00     0.136 C 
ATOM      2  O   UNL     1      -6.785  34.950  22.792  1.00  0.00    -0.299 OA
ENDROOT
BRANCH   1   3
ATOM      3  C   UNL     1      -7.715  35.230  24.938  1.00  0.00     0.053 C 
ATOM      4  C   UNL     1      -9.044  35.965  25.189  1.00  0.00     0.016 C 
BRANCH   3   5
ATOM      5  C   UNL     1      -7.367  34.257  26.085  1.00  0.00     0.015 C 
BRANCH   5   6
ATOM      6  C   UNL     1      -8.539  33.359  26.546  1.00  0.00     0.028 C 
BRANCH   6   7
ATOM      7  C   UNL     1      -8.082  31.941  26.802  1.00  0.00    -0.028 C 
ATOM      8  C   UNL     1      -8.284  30.859  26.012  1.00  0.00    -0.070 CG0
ATOM      9  C   UNL     1      -7.759  29.532  26.503  1.00  0.00     0.039 C 
ATOM     10  G   UNL     1      -8.976  30.894  24.660  1.00  0.00     0.000 G0
ENDBRANCH   6   7
ENDBRANCH   5   6
ENDBRANCH   3   5
ENDBRANCH   1   3
BRANCH   1  11
ATOM     11  C   UNL     1      -8.590  33.455  23.161  1.00  0.00     0.087 C 
BRANCH  11  12
ATOM     12  C   UNL     1      -7.885  32.198  22.598  1.00  0.00     0.066 C 
BRANCH  12  13
ATOM     13  C   UNL     1      -7.972  30.991  23.523  1.00  0.00     0.140 C 
ATOM     14  O   UNL     1      -7.234  30.041  23.303  1.00  0.00    -0.299 OA
BRANCH  13  15
ATOM     15  C   UNL     1      -8.970  30.881  24.654  1.00  0.00     0.106 CG0
ATOM     16  G   UNL     1      -8.272  30.870  26.003  1.00  0.00     0.000 G0
ENDBRANCH  13  15
ENDBRANCH  12  13
BRANCH  12  17
ATOM     17  C   UNL     1      -8.320  31.880  21.134  1.00  0.00    -0.006 C 
ATOM     18  C   UNL     1      -9.838  32.043  20.954  1.00  0.00     0.008 C 
ATOM     19  C   UNL     1      -7.578  32.695  20.063  1.00  0.00     0.008 C 
ENDBRANCH  12  17
ENDBRANCH  11  12
ENDBRANCH   1  11
TORSDOF 1
ENDMDL
MODEL 2
REMARK VINA RESULT:    -5.141      1.764      3.871
REMARK INTER + INTRA:          -7.858
REMARK INTER:                  -7.416
REMARK INTRA:                  -0.442
REMARK UNBOUND:                -0.012
REMARK SMILES CC1=CCC[C@H](C)C(=O)C[C@H](C(C)C)C(=O)C1
REMARK SMILES IDX 8 1 9 2 6 3 7 4 5 5 4 6 3 7 2 8 1 9 10 11 11 12 15 13 16 14
REMARK SMILES IDX 17 15 12 17 13 18 14 19
REMARK H PARENT
REMARK Flexibility Score: 70.00
ROOT
ATOM      1  C   UNL     1      -7.284  30.054  23.201  1.00  0.00     0.136 C 
ATOM      2  O   UNL     1      -6.188  29.544  23.385  1.00  0.00    -0.299 OA
ENDROOT
BRANCH   1   3
ATOM      3  C   UNL     1      -8.508  29.157  23.259  1.00  0.00     0.053 C 
ATOM      4  C   UNL     1      -8.622  28.173  22.081  1.00  0.00     0.016 C 
BRANCH   3   5
ATOM      5  C   UNL     1      -8.625  28.443  24.622  1.00  0.00     0.015 C 
BRANCH   5   6
ATOM      6  C   UNL     1      -9.450  29.210  25.682  1.00  0.00     0.028 C 
BRANCH   6   7
ATOM      7  C   UNL     1      -8.574  30.115  26.518  1.00  0.00    -0.028 C 
ATOM      8  C   UNL     1      -8.590  31.469  26.550  1.00  0.00    -0.070 CG0
ATOM      9  C   UNL     1      -7.587  32.155  27.446  1.00  0.00     0.039 C 
ATOM     10  G   UNL     1      -9.559  32.341  25.771  1.00  0.00     0.000 G0
ENDBRANCH   6   7
ENDBRANCH   5   6
ENDBRANCH   3   5
ENDBRANCH   1   3
BRANCH   1  11
ATOM     11  C   UNL     1      -7.385  31.554  22.996  1.00  0.00     0.087 C 
BRANCH  11  12
ATOM     12  C   UNL     1      -8.810  32.114  23.224  1.00  0.00     0.066 C 
BRANCH  12  13
ATOM     13  C   UNL     1      -8.948  32.905  24.519  1.00  0.00     0.140 C 
ATOM     14  O   UNL     1      -8.476  34.032  24.560  1.00  0.00    -0.299 OA
BRANCH  13  15
ATOM     15  C   UNL     1      -9.577  32.341  25.774  1.00  0.00     0.106 CG0
ATOM     16  G   UNL     1      -8.591  31.477  26.540  1.00  0.00     0.000 G0
ENDBRANCH  13  15
ENDBRANCH  12  13
BRANCH  12  17
ATOM     17  C   UNL     1      -9.353  32.880  21.978  1.00  0.00    -0.006 C 
ATOM     18  C   UNL     1      -8.237  33.672  21.279  1.00  0.00     0.008 C 
ATOM     19  C   UNL     1     -10.078  31.990  20.956  1.00  0.00     0.008 C 
ENDBRANCH  12  17
ENDBRANCH  11  12
ENDBRANCH   1  11
TORSDOF 1
ENDMDL
MODEL 3
REMARK VINA RESULT:    -5.125      1.545      3.948
REMARK INTER + INTRA:          -7.833
REMARK INTER:                  -7.641
REMARK INTRA:                  -0.193
REMARK UNBOUND:                -0.012
REMARK SMILES CC1=CCC[C@H](C)C(=O)C[C@H](C(C)C)C(=O)C1
REMARK SMILES IDX 8 1 9 2 6 3 7 4 5 5 4 6 3 7 2 8 1 9 10 11 11 12 15 13 16 14
REMARK SMILES IDX 17 15 12 17 13 18 14 19
REMARK H PARENT
REMARK Flexibility Score: 70.00
ROOT
ATOM      1  C   UNL     1      -8.318  30.409  23.600  1.00  0.00     0.136 C 
ATOM      2  O   UNL     1      -8.872  29.569  22.904  1.00  0.00    -0.299 OA
ENDROOT
BRANCH   1   3
ATOM      3  C   UNL     1      -8.398  30.253  25.108  1.00  0.00     0.053 C 
ATOM      4  C   UNL     1      -7.070  29.840  25.768  1.00  0.00     0.016 C 
BRANCH   3   5
ATOM      5  C   UNL     1      -9.014  31.500  25.777  1.00  0.00     0.015 C 
BRANCH   5   6
ATOM      6  C   UNL     1      -7.994  32.416  26.493  1.00  0.00     0.028 C 
BRANCH   6   7
ATOM      7  C   UNL     1      -8.334  33.877  26.306  1.00  0.00    -0.028 C 
ATOM      8  C   UNL     1      -7.912  34.697  25.314  1.00  0.00    -0.070 CG0
ATOM      9  C   UNL     1      -8.364  36.136  25.362  1.00  0.00     0.039 C 
ATOM     10  G   UNL     1      -7.041  34.265  24.147  1.00  0.00     0.000 G0
ENDBRANCH   6   7
ENDBRANCH   5   6
ENDBRANCH   3   5
ENDBRANCH   1   3
BRANCH   1  11
ATOM     11  C   UNL     1      -7.522  31.520  22.940  1.00  0.00     0.087 C 
BRANCH  11  12
ATOM     12  C   UNL     1      -8.396  32.703  22.460  1.00  0.00     0.066 C 
BRANCH  12  13
ATOM     13  C   UNL     1      -7.855  34.064  22.884  1.00  0.00     0.140 C 
ATOM     14  O   UNL     1      -8.045  35.016  22.141  1.00  0.00    -0.299 OA
BRANCH  13  15
ATOM     15  C   UNL     1      -7.039  34.279  24.139  1.00  0.00     0.106 CG0
ATOM     16  G   UNL     1      -7.924  34.686  25.305  1.00  0.00     0.000 G0
ENDBRANCH  13  15
ENDBRANCH  12  13
BRANCH  12  17
ATOM     17  C   UNL     1      -8.720  32.621  20.936  1.00  0.00    -0.006 C 
ATOM     18  C   UNL     1      -7.470  32.266  20.117  1.00  0.00     0.008 C 
ATOM     19  C   UNL     1      -9.865  31.657  20.585  1.00  0.00     0.008 C 
ENDBRANCH  12  17
ENDBRANCH  11  12
ENDBRANCH   1  11
TORSDOF 1
ENDMDL
MODEL 4
REMARK VINA RESULT:    -5.101      1.586      3.903
REMARK INTER + INTRA:          -7.796
REMARK INTER:                  -7.655
REMARK INTRA:                  -0.141
REMARK UNBOUND:                -0.012
REMARK SMILES CC1=CCC[C@H](C)C(=O)C[C@H](C(C)C)C(=O)C1
REMARK SMILES IDX 8 1 9 2 6 3 7 4 5 5 4 6 3 7 2 8 1 9 10 11 11 12 15 13 16 14
REMARK SMILES IDX 17 15 12 17 13 18 14 19
REMARK H PARENT
REMARK Flexibility Score: 70.00
ROOT
ATOM      1  C   UNL     1      -7.745  33.683  22.230  1.00  0.00     0.136 C 
ATOM      2  O   UNL     1      -7.654  34.871  21.957  1.00  0.00    -0.299 OA
ENDROOT
BRANCH   1   3
ATOM      3  C   UNL     1      -8.075  32.715  21.108  1.00  0.00     0.053 C 
ATOM      4  C   UNL     1      -7.456  33.093  19.750  1.00  0.00     0.016 C 
BRANCH   3   5
ATOM      5  C   UNL     1      -7.759  31.257  21.502  1.00  0.00     0.015 C 
BRANCH   5   6
ATOM      6  C   UNL     1      -8.953  30.477  22.099  1.00  0.00     0.028 C 
BRANCH   6   7
ATOM      7  C   UNL     1      -8.559  29.737  23.356  1.00  0.00    -0.028 C 
ATOM      8  C   UNL     1      -8.883  30.058  24.632  1.00  0.00    -0.070 CG0
ATOM      9  C   UNL     1      -8.339  29.177  25.730  1.00  0.00     0.039 C 
ATOM     10  G   UNL     1      -9.775  31.222  25.031  1.00  0.00     0.000 G0
ENDBRANCH   6   7
ENDBRANCH   5   6
ENDBRANCH   3   5
ENDBRANCH   1   3
BRANCH   1  11
ATOM     11  C   UNL     1      -7.458  33.217  23.646  1.00  0.00     0.087 C 
BRANCH  11  12
ATOM     12  C   UNL     1      -8.574  33.580  24.653  1.00  0.00     0.066 C 
BRANCH  12  13
ATOM     13  C   UNL     1      -8.995  32.411  25.536  1.00  0.00     0.140 C 
ATOM     14  O   UNL     1      -8.624  32.404  26.700  1.00  0.00    -0.299 OA
BRANCH  13  15
ATOM     15  C   UNL     1      -9.789  31.229  25.025  1.00  0.00     0.106 CG0
ATOM     16  G   UNL     1      -8.874  30.073  24.657  1.00  0.00     0.000 G0
ENDBRANCH  13  15
ENDBRANCH  12  13
BRANCH  12  17
ATOM     17  C   UNL     1      -8.245  34.871  25.465  1.00  0.00    -0.006 C 
ATOM     18  C   UNL     1      -6.733  35.147  25.486  1.00  0.00     0.008 C 
ATOM     19  C   UNL     1      -8.997  36.125  24.989  1.00  0.00     0.008 C 
ENDBRANCH  12  17
ENDBRANCH  11  12
ENDBRANCH   1  11
TORSDOF 1
ENDMDL
MODEL 5
REMARK VINA RESULT:    -4.837      2.001      4.163
REMARK INTER + INTRA:          -7.394
REMARK INTER:                  -7.446
REMARK INTRA:                   0.052
REMARK UNBOUND:                -0.012
REMARK SMILES CC1=CCC[C@H](C)C(=O)C[C@H](C(C)C)C(=O)C1
REMARK SMILES IDX 8 1 9 2 6 3 7 4 5 5 4 6 3 7 2 8 1 9 10 11 11 12 15 13 16 14
REMARK SMILES IDX 17 15 12 17 13 18 14 19
REMARK H PARENT
REMARK Flexibility Score: 70.00
ROOT
ATOM      1  C   UNL     1      -8.446  32.856  25.196  1.00  0.00     0.136 C 
ATOM      2  O   UNL     1      -8.976  32.899  26.297  1.00  0.00    -0.299 OA
ENDROOT
BRANCH   1   3
ATOM      3  C   UNL     1      -8.548  34.082  24.306  1.00  0.00     0.053 C 
ATOM      4  C   UNL     1      -8.973  35.363  25.047  1.00  0.00     0.016 C 
BRANCH   3   5
ATOM      5  C   UNL     1      -7.263  34.292  23.477  1.00  0.00     0.015 C 
BRANCH   5   6
ATOM      6  C   UNL     1      -7.500  34.506  21.964  1.00  0.00     0.028 C 
BRANCH   6   7
ATOM      7  C   UNL     1      -8.665  33.684  21.464  1.00  0.00    -0.028 C 
ATOM      8  C   UNL     1      -8.724  32.336  21.339  1.00  0.00    -0.070 CG0
ATOM      9  C   UNL     1      -9.995  31.744  20.779  1.00  0.00     0.039 C 
ATOM     10  G   UNL     1      -7.615  31.381  21.746  1.00  0.00     0.000 G0
ENDBRANCH   6   7
ENDBRANCH   5   6
ENDBRANCH   3   5
ENDBRANCH   1   3
BRANCH   1  11
ATOM     11  C   UNL     1      -7.656  31.624  24.795  1.00  0.00     0.087 C 
BRANCH  11  12
ATOM     12  C   UNL     1      -8.520  30.525  24.132  1.00  0.00     0.066 C 
BRANCH  12  13
ATOM     13  C   UNL     1      -8.172  30.282  22.669  1.00  0.00     0.140 C 
ATOM     14  O   UNL     1      -8.283  29.147  22.230  1.00  0.00    -0.299 OA
BRANCH  13  15
ATOM     15  C   UNL     1      -7.631  31.359  21.754  1.00  0.00     0.106 CG0
ATOM     16  G   UNL     1      -8.724  32.333  21.347  1.00  0.00     0.000 G0
ENDBRANCH  13  15
ENDBRANCH  12  13
BRANCH  12  17
ATOM     17  C   UNL     1      -8.561  29.214  24.977  1.00  0.00    -0.006 C 
ATOM     18  C   UNL     1      -8.172  29.479  26.439  1.00  0.00     0.008 C 
ATOM     19  C   UNL     1      -9.905  28.470  24.922  1.00  0.00     0.008 C 
ENDBRANCH  12  17
ENDBRANCH  11  12
ENDBRANCH   1  11
TORSDOF 1
ENDMDL
MODEL 6
REMARK VINA RESULT:    -4.788      1.928      3.965
REMARK INTER + INTRA:          -7.319
REMARK INTER:                  -7.921
REMARK INTRA:                   0.602
REMARK UNBOUND:                -0.012
REMARK SMILES CC1=CCC[C@H](C)C(=O)C[C@H](C(C)C)C(=O)C1
REMARK SMILES IDX 8 1 9 2 6 3 7 4 5 5 4 6 3 7 2 8 1 9 10 11 11 12 15 13 16 14
REMARK SMILES IDX 17 15 12 17 13 18 14 19
REMARK H PARENT
REMARK Flexibility Score: 70.00
ROOT
ATOM      1  C   UNL     1      -8.233  31.481  21.408  1.00  0.00     0.136 C 
ATOM      2  O   UNL     1      -9.402  31.269  21.118  1.00  0.00    -0.299 OA
ENDROOT
BRANCH   1   3
ATOM      3  C   UNL     1      -7.681  32.876  21.173  1.00  0.00     0.053 C 
ATOM      4  C   UNL     1      -7.502  33.238  19.687  1.00  0.00     0.016 C 
BRANCH   3   5
ATOM      5  C   UNL     1      -8.494  33.945  21.934  1.00  0.00     0.015 C 
BRANCH   5   6
ATOM      6  C   UNL     1      -7.660  34.825  22.893  1.00  0.00     0.028 C 
BRANCH   6   7
ATOM      7  C   UNL     1      -8.138  34.695  24.321  1.00  0.00    -0.028 C 
ATOM      8  C   UNL     1      -8.027  33.612  25.128  1.00  0.00    -0.070 CG0
ATOM      9  C   UNL     1      -8.616  33.714  26.513  1.00  0.00     0.039 C 
ATOM     10  G   UNL     1      -7.330  32.317  24.745  1.00  0.00     0.000 G0
ENDBRANCH   6   7
ENDBRANCH   5   6
ENDBRANCH   3   5
ENDBRANCH   1   3
BRANCH   1  11
ATOM     11  C   UNL     1      -7.410  30.379  22.048  1.00  0.00     0.087 C 
BRANCH  11  12
ATOM     12  C   UNL     1      -7.866  30.022  23.483  1.00  0.00     0.066 C 
BRANCH  12  13
ATOM     13  C   UNL     1      -8.288  31.236  24.303  1.00  0.00     0.140 C 
ATOM     14  O   UNL     1      -9.477  31.383  24.543  1.00  0.00    -0.299 OA
BRANCH  13  15
ATOM     15  C   UNL     1      -7.320  32.298  24.772  1.00  0.00     0.106 CG0
ATOM     16  G   UNL     1      -8.045  33.590  25.111  1.00  0.00     0.000 G0
ENDBRANCH  13  15
ENDBRANCH  12  13
BRANCH  12  17
ATOM     17  C   UNL     1      -8.921  28.873  23.502  1.00  0.00    -0.006 C 
ATOM     18  C   UNL     1      -8.683  27.878  22.356  1.00  0.00     0.008 C 
ATOM     19  C   UNL     1      -9.009  28.118  24.838  1.00  0.00     0.008 C 
ENDBRANCH  12  17
ENDBRANCH  11  12
ENDBRANCH   1  11
TORSDOF 1
ENDMDL
MODEL 7
REMARK VINA RESULT:    -4.658      1.675      2.455
REMARK INTER + INTRA:          -7.120
REMARK INTER:                  -6.898
REMARK INTRA:                  -0.222
REMARK UNBOUND:                -0.012
REMARK SMILES CC1=CCC[C@H](C)C(=O)C[C@H](C(C)C)C(=O)C1
REMARK SMILES IDX 8 1 9 2 6 3 7 4 5 5 4 6 3 7 2 8 1 9 10 11 11 12 15 13 16 14
REMARK SMILES IDX 17 15 12 17 13 18 14 19
REMARK H PARENT
REMARK Flexibility Score: 70.00
ROOT
ATOM      1  C   UNL     1      -8.183  33.807  22.674  1.00  0.00     0.136 C 
ATOM      2  O   UNL     1      -8.114  34.247  21.534  1.00  0.00    -0.299 OA
ENDROOT
BRANCH   1   3
ATOM      3  C   UNL     1      -7.422  34.533  23.767  1.00  0.00     0.053 C 
ATOM      4  C   UNL     1      -6.004  34.974  23.359  1.00  0.00     0.016 C 
BRANCH   3   5
ATOM      5  C   UNL     1      -8.244  35.700  24.354  1.00  0.00     0.015 C 
BRANCH   5   6
ATOM      6  C   UNL     1      -8.720  35.485  25.810  1.00  0.00     0.028 C 
BRANCH   6   7
ATOM      7  C   UNL     1      -7.890  34.437  26.515  1.00  0.00    -0.028 C 
ATOM      8  C   UNL     1      -8.192  33.126  26.679  1.00  0.00    -0.070 CG0
ATOM      9  C   UNL     1      -7.212  32.280  27.455  1.00  0.00     0.039 C 
ATOM     10  G   UNL     1      -9.428  32.446  26.116  1.00  0.00     0.000 G0
ENDBRANCH   6   7
ENDBRANCH   5   6
ENDBRANCH   3   5
ENDBRANCH   1   3
BRANCH   1  11
ATOM     11  C   UNL     1      -9.072  32.610  22.959  1.00  0.00     0.087 C 
BRANCH  11  12
ATOM     12  C   UNL     1      -8.393  31.533  23.838  1.00  0.00     0.066 C 
BRANCH  12  13
ATOM     13  C   UNL     1      -9.092  31.315  25.175  1.00  0.00     0.140 C 
ATOM     14  O   UNL     1      -9.438  30.179  25.466  1.00  0.00    -0.299 OA
BRANCH  13  15
ATOM     15  C   UNL     1      -9.439  32.440  26.124  1.00  0.00     0.106 CG0
ATOM     16  G   UNL     1      -8.186  33.107  26.665  1.00  0.00     0.000 G0
ENDBRANCH  13  15
ENDBRANCH  12  13
BRANCH  12  17
ATOM     17  C   UNL     1      -8.136  30.206  23.059  1.00  0.00    -0.006 C 
ATOM     18  C   UNL     1      -8.646  30.300  21.613  1.00  0.00     0.008 C 
ATOM     19  C   UNL     1      -6.670  29.744  23.065  1.00  0.00     0.008 C 
ENDBRANCH  12  17
ENDBRANCH  11  12
ENDBRANCH   1  11
TORSDOF 1
ENDMDL
MODEL 8
REMARK VINA RESULT:    -4.622      1.538      2.195
REMARK INTER + INTRA:          -7.066
REMARK INTER:                  -7.245
REMARK INTRA:                   0.179
REMARK UNBOUND:                -0.012
REMARK SMILES CC1=CCC[C@H](C)C(=O)C[C@H](C(C)C)C(=O)C1
REMARK SMILES IDX 8 1 9 2 6 3 7 4 5 5 4 6 3 7 2 8 1 9 10 11 11 12 15 13 16 14
REMARK SMILES IDX 17 15 12 17 13 18 14 19
REMARK H PARENT
REMARK Flexibility Score: 70.00
ROOT
ATOM      1  C   UNL     1      -7.959  33.410  24.032  1.00  0.00     0.136 C 
ATOM      2  O   UNL     1      -7.617  34.021  23.029  1.00  0.00    -0.299 OA
ENDROOT
BRANCH   1   3
ATOM      3  C   UNL     1      -7.554  33.972  25.383  1.00  0.00     0.053 C 
ATOM      4  C   UNL     1      -7.609  35.508  25.467  1.00  0.00     0.016 C 
BRANCH   3   5
ATOM      5  C   UNL     1      -8.334  33.302  26.535  1.00  0.00     0.015 C 
BRANCH   5   6
ATOM      6  C   UNL     1      -7.493  32.345  27.411  1.00  0.00     0.028 C 
BRANCH   6   7
ATOM      7  C   UNL     1      -8.354  31.284  28.057  1.00  0.00    -0.028 C 
ATOM      8  C   UNL     1      -8.604  30.036  27.593  1.00  0.00    -0.070 CG0
ATOM      9  C   UNL     1      -9.531  29.165  28.406  1.00  0.00     0.039 C 
ATOM     10  G   UNL     1      -7.999  29.445  26.331  1.00  0.00     0.000 G0
ENDBRANCH   6   7
ENDBRANCH   5   6
ENDBRANCH   3   5
ENDBRANCH   1   3
BRANCH   1  11
ATOM     11  C   UNL     1      -8.825  32.171  23.894  1.00  0.00     0.087 C 
BRANCH  11  12
ATOM     12  C   UNL     1      -8.044  30.849  24.084  1.00  0.00     0.066 C 
BRANCH  12  13
ATOM     13  C   UNL     1      -8.697  29.900  25.082  1.00  0.00     0.140 C 
ATOM     14  O   UNL     1      -9.857  29.565  24.886  1.00  0.00    -0.299 OA
BRANCH  13  15
ATOM     15  C   UNL     1      -8.007  29.410  26.335  1.00  0.00     0.106 CG0
ATOM     16  G   UNL     1      -8.614  30.039  27.578  1.00  0.00     0.000 G0
ENDBRANCH  13  15
ENDBRANCH  12  13
BRANCH  12  17
ATOM     17  C   UNL     1      -7.697  30.164  22.726  1.00  0.00    -0.006 C 
ATOM     18  C   UNL     1      -7.849  28.638  22.815  1.00  0.00     0.008 C 
ATOM     19  C   UNL     1      -8.497  30.698  21.527  1.00  0.00     0.008 C 
ENDBRANCH  12  17
ENDBRANCH  11  12
ENDBRANCH   1  11
TORSDOF 1
ENDMDL
MODEL 9
REMARK VINA RESULT:    -4.523      1.896      4.074
REMARK INTER + INTRA:          -6.914
REMARK INTER:                  -7.260
REMARK INTRA:                   0.346
REMARK UNBOUND:                -0.012
REMARK SMILES CC1=CCC[C@H](C)C(=O)C[C@H](C(C)C)C(=O)C1
REMARK SMILES IDX 8 1 9 2 6 3 7 4 5 5 4 6 3 7 2 8 1 9 10 11 11 12 15 13 16 14
REMARK SMILES IDX 17 15 12 17 13 18 14 19
REMARK H PARENT
REMARK Flexibility Score: 70.00
ROOT
ATOM      1  C   UNL     1      -9.609  29.813  25.593  1.00  0.00     0.136 C 
ATOM      2  O   UNL     1      -9.956  28.643  25.512  1.00  0.00    -0.299 OA
ENDROOT
BRANCH   1   3
ATOM      3  C   UNL     1      -8.731  30.218  26.763  1.00  0.00     0.053 C 
ATOM      4  C   UNL     1      -7.233  29.931  26.553  1.00  0.00     0.016 C 
BRANCH   3   5
ATOM      5  C   UNL     1      -8.986  31.681  27.186  1.00  0.00     0.015 C 
BRANCH   5   6
ATOM      6  C   UNL     1      -7.773  32.623  27.009  1.00  0.00     0.028 C 
BRANCH   6   7
ATOM      7  C   UNL     1      -8.081  33.749  26.050  1.00  0.00    -0.028 C 
ATOM      8  C   UNL     1      -7.877  33.765  24.711  1.00  0.00    -0.070 CG0
ATOM      9  C   UNL     1      -8.237  35.028  23.967  1.00  0.00     0.039 C 
ATOM     10  G   UNL     1      -7.338  32.595  23.905  1.00  0.00     0.000 G0
ENDBRANCH   6   7
ENDBRANCH   5   6
ENDBRANCH   3   5
ENDBRANCH   1   3
BRANCH   1  11
ATOM     11  C   UNL     1     -10.005  30.787  24.499  1.00  0.00     0.087 C 
BRANCH  11  12
ATOM     12  C   UNL     1      -9.099  30.712  23.248  1.00  0.00     0.066 C 
BRANCH  12  13
ATOM     13  C   UNL     1      -8.353  32.010  22.962  1.00  0.00     0.140 C 
ATOM     14  O   UNL     1      -8.565  32.575  21.899  1.00  0.00    -0.299 OA
BRANCH  13  15
ATOM     15  C   UNL     1      -7.316  32.594  23.896  1.00  0.00     0.106 CG0
ATOM     16  G   UNL     1      -7.890  33.749  24.700  1.00  0.00     0.000 G0
ENDBRANCH  13  15
ENDBRANCH  12  13
BRANCH  12  17
ATOM     17  C   UNL     1      -8.167  29.462  23.264  1.00  0.00    -0.006 C 
ATOM     18  C   UNL     1      -8.722  28.340  22.372  1.00  0.00     0.008 C 
ATOM     19  C   UNL     1      -6.707  29.757  22.882  1.00  0.00     0.008 C 
ENDBRANCH  12  17
ENDBRANCH  11  12
ENDBRANCH   1  11
TORSDOF 1
ENDMDL
