MODEL 1
REMARK VINA RESULT:    -1.033      0.000      0.000
REMARK INTER + INTRA:          -2.191
REMARK INTER:                  -1.365
REMARK INTRA:                  -0.826
REMARK UNBOUND:                -0.826
REMARK SMILES CC[C@@H](C=C[C@@H](C)[C@H]1CC[C@@H]2[C@@H]3CC=C4C[C@@H](O)CC[C@@]4(C)[C@H]3CC[C@@]21C)C(C)C
REMARK SMILES IDX 6 1 7 2 5 3 4 4 3 5 2 6 1 7 28 8 29 9 30 10 8 11 9 12 26 13
REMARK SMILES IDX 10 14 11 15 25 16 27 17 12 18 24 19 23 20 13 21 21 22 14 23
REMARK SMILES IDX 15 24 20 25 22 26 16 27 19 28 17 29 18 30
REMARK H PARENT 18 31
REMARK Flexibility Score: inf
ROOT
ATOM      1  C   UNL     1      -0.114  23.170   2.018  1.00  0.00     0.012 C 
ATOM      2  C   UNL     1      -0.421  24.690   2.033  1.00  0.00     0.012 C 
ENDROOT
BRANCH   1   3
ATOM      3  C   UNL     1      -1.376  22.400   2.334  1.00  0.00    -0.028 C 
ATOM      4  C   UNL     1      -2.207  22.788   3.315  1.00  0.00    -0.027 C 
BRANCH   4   5
ATOM      5  C   UNL     1      -3.057  21.815   4.104  1.00  0.00     0.014 C 
BRANCH   5   6
ATOM      6  C   UNL     1      -2.112  20.875   4.889  1.00  0.00     0.004 C 
ATOM      7  C   UNL     1      -1.602  21.461   6.210  1.00  0.00     0.004 C 
ENDBRANCH   5   6
BRANCH   5   8
ATOM      8  C   UNL     1      -4.200  21.106   3.297  1.00  0.00    -0.011 C 
ATOM      9  C   UNL     1      -4.567  21.744   1.936  1.00  0.00     0.008 C 
ATOM     10  C   UNL     1      -5.459  20.912   4.156  1.00  0.00     0.008 C 
ENDBRANCH   5   8
ENDBRANCH   4   5
ENDBRANCH   1   3
BRANCH   1  11
ATOM     11  C   UNL     1       1.173  22.695   2.788  1.00  0.00     0.002 C 
ATOM     12  C   UNL     1       2.409  22.805   1.876  1.00  0.00     0.005 C 
ATOM     13  C   UNL     1       1.627  23.342   4.151  1.00  0.00    -0.026 C 
ATOM     14  C   UNL     1       3.197  24.022   2.327  1.00  0.00     0.005 C 
ATOM     15  C   UNL     1       2.862  24.245   3.808  1.00  0.00    -0.001 C 
ATOM     16  C   UNL     1       2.001  22.200   5.178  1.00  0.00     0.007 C 
ATOM     17  C   UNL     1       0.559  24.191   4.871  1.00  0.00     0.012 C 
ATOM     18  C   UNL     1       4.051  23.982   4.771  1.00  0.00     0.000 C 
ATOM     19  C   UNL     1       3.384  21.529   5.001  1.00  0.00     0.005 C 
ATOM     20  C   UNL     1       4.558  22.516   4.665  1.00  0.00     0.003 C 
ATOM     21  C   UNL     1       5.216  24.968   4.653  1.00  0.00     0.031 C 
ATOM     22  C   UNL     1       6.007  22.286   5.335  1.00  0.00    -0.008 C 
ATOM     23  C   UNL     1       6.078  24.738   5.867  1.00  0.00    -0.027 C 
ATOM     24  C   UNL     1       6.320  23.472   6.291  1.00  0.00    -0.065 C 
ATOM     25  C   UNL     1       6.126  20.875   6.023  1.00  0.00     0.014 C 
ATOM     26  C   UNL     1       7.124  22.330   4.227  1.00  0.00     0.016 C 
ATOM     27  C   UNL     1       6.652  23.300   7.760  1.00  0.00     0.063 C 
ATOM     28  C   UNL     1       5.905  20.923   7.529  1.00  0.00     0.033 C 
ATOM     29  C   UNL     1       6.968  21.849   8.144  1.00  0.00     0.118 C 
BRANCH  29  30
ATOM     30  O   UNL     1       6.944  21.723   9.543  1.00  0.00    -0.393 OA
ATOM     31  H   UNL     1       6.043  21.372   9.774  1.00  0.00     0.210 HD
ENDBRANCH  29  30
ENDBRANCH   1  11
TORSDOF 6
ENDMDL
