MODEL 1
REMARK VINA RESULT:    -4.901      0.000      0.000
REMARK INTER + INTRA:          -5.418
REMARK INTER:                  -5.904
REMARK INTRA:                   0.486
REMARK UNBOUND:                 0.486
REMARK SMILES O=c1c(O)c(-c2ccc(O)c(O)c2)oc2cc(O)cc(O)c12
REMARK SMILES IDX 5 1 3 2 2 3 1 4 22 5 20 6 19 7 17 8 16 9 15 10 14 11 6 12
REMARK SMILES IDX 7 13 8 14 9 15 13 16 11 17 10 18 12 20 4 22 21 24 18 26
REMARK H PARENT 10 19 12 21 4 23 21 25 18 27
REMARK Flexibility Score: inf
ROOT
ATOM      1  C   UNL     1      32.304  11.532  36.505  1.00  0.00     0.180 A 
ATOM      2  C   UNL     1      31.386  10.751  37.232  1.00  0.00     0.208 A 
ATOM      3  C   UNL     1      30.985  11.184  38.506  1.00  0.00     0.238 A 
ATOM      4  O   UNL     1      30.155  10.498  39.162  1.00  0.00    -0.285 OA
ATOM      5  C   UNL     1      31.522  12.373  39.038  1.00  0.00     0.111 A 
ATOM      6  C   UNL     1      31.175  12.877  40.315  1.00  0.00     0.134 A 
ATOM      7  C   UNL     1      31.761  14.064  40.778  1.00  0.00     0.093 A 
ATOM      8  C   UNL     1      32.687  14.757  39.989  1.00  0.00     0.123 A 
ATOM      9  C   UNL     1      33.032  14.265  38.729  1.00  0.00     0.094 A 
ATOM     10  C   UNL     1      32.458  13.084  38.250  1.00  0.00     0.146 A 
ATOM     11  O   UNL     1      32.801  12.642  37.045  1.00  0.00    -0.452 OA
ENDROOT
BRANCH   1  12
ATOM     12  C   UNL     1      32.760  11.153  35.149  1.00  0.00     0.025 A 
ATOM     13  C   UNL     1      33.905  11.730  34.573  1.00  0.00     0.016 A 
ATOM     14  C   UNL     1      34.331  11.339  33.302  1.00  0.00     0.051 A 
ATOM     15  C   UNL     1      33.631  10.360  32.591  1.00  0.00     0.157 A 
ATOM     16  C   UNL     1      32.071  10.153  34.441  1.00  0.00     0.062 A 
ATOM     17  C   UNL     1      32.497   9.761  33.164  1.00  0.00     0.158 A 
BRANCH  15  18
ATOM     18  O   UNL     1      34.078   9.991  31.323  1.00  0.00    -0.504 OA
ATOM     19  H   UNL     1      33.712  10.414  30.479  1.00  0.00     0.293 HD
ENDBRANCH  15  18
BRANCH  17  20
ATOM     20  O   UNL     1      31.798   8.777  32.465  1.00  0.00    -0.504 OA
ATOM     21  H   UNL     1      32.050   7.797  32.533  1.00  0.00     0.293 HD
ENDBRANCH  17  20
ENDBRANCH   1  12
BRANCH   2  22
ATOM     22  O   UNL     1      30.905   9.550  36.702  1.00  0.00    -0.502 OA
ATOM     23  H   UNL     1      31.432   9.005  36.030  1.00  0.00     0.293 HD
ENDBRANCH   2  22
BRANCH   6  24
ATOM     24  O   UNL     1      30.255  12.209  41.124  1.00  0.00    -0.507 OA
ATOM     25  H   UNL     1      29.810  12.663  41.913  1.00  0.00     0.293 HD
ENDBRANCH   6  24
BRANCH   8  26
ATOM     26  O   UNL     1      33.270  15.936  40.449  1.00  0.00    -0.508 OA
ATOM     27  H   UNL     1      32.790  16.826  40.381  1.00  0.00     0.293 HD
ENDBRANCH   8  26
TORSDOF 6
ENDMDL
MODEL 2
REMARK VINA RESULT:    -3.841      1.025      6.716
REMARK INTER + INTRA:          -4.140
REMARK INTER:                  -4.598
REMARK INTRA:                   0.458
REMARK UNBOUND:                 0.486
REMARK SMILES O=c1c(O)c(-c2ccc(O)c(O)c2)oc2cc(O)cc(O)c12
REMARK SMILES IDX 5 1 3 2 2 3 1 4 22 5 20 6 19 7 17 8 16 9 15 10 14 11 6 12
REMARK SMILES IDX 7 13 8 14 9 15 13 16 11 17 10 18 12 20 4 22 21 24 18 26
REMARK H PARENT 10 19 12 21 4 23 21 25 18 27
REMARK Flexibility Score: inf
ROOT
ATOM      1  C   UNL     1      32.261  12.016  36.599  1.00  0.00     0.180 A 
ATOM      2  C   UNL     1      31.225  11.084  36.404  1.00  0.00     0.208 A 
ATOM      3  C   UNL     1      31.263  10.254  35.272  1.00  0.00     0.238 A 
ATOM      4  O   UNL     1      30.346   9.408  35.092  1.00  0.00    -0.285 OA
ATOM      5  C   UNL     1      32.320  10.384  34.349  1.00  0.00     0.111 A 
ATOM      6  C   UNL     1      32.431   9.590  33.181  1.00  0.00     0.134 A 
ATOM      7  C   UNL     1      33.508   9.787  32.306  1.00  0.00     0.093 A 
ATOM      8  C   UNL     1      34.477  10.761  32.575  1.00  0.00     0.123 A 
ATOM      9  C   UNL     1      34.372  11.545  33.725  1.00  0.00     0.094 A 
ATOM     10  C   UNL     1      33.307  11.364  34.610  1.00  0.00     0.146 A 
ATOM     11  O   UNL     1      33.235  12.121  35.699  1.00  0.00    -0.452 OA
ENDROOT
BRANCH   1  12
ATOM     12  C   UNL     1      32.302  12.913  37.777  1.00  0.00     0.025 A 
ATOM     13  C   UNL     1      33.080  14.084  37.779  1.00  0.00     0.016 A 
ATOM     14  C   UNL     1      33.084  14.928  38.892  1.00  0.00     0.051 A 
ATOM     15  C   UNL     1      32.305  14.625  40.013  1.00  0.00     0.157 A 
ATOM     16  C   UNL     1      31.503  12.623  38.895  1.00  0.00     0.062 A 
ATOM     17  C   UNL     1      31.507  13.468  40.014  1.00  0.00     0.158 A 
BRANCH  15  18
ATOM     18  O   UNL     1      32.331  15.485  41.110  1.00  0.00    -0.504 OA
ATOM     19  H   UNL     1      32.054  16.456  41.039  1.00  0.00     0.293 HD
ENDBRANCH  15  18
BRANCH  17  20
ATOM     20  O   UNL     1      30.721  13.164  41.125  1.00  0.00    -0.504 OA
ATOM     21  H   UNL     1      30.710  12.234  41.528  1.00  0.00     0.293 HD
ENDBRANCH  17  20
ENDBRANCH   1  12
BRANCH   2  22
ATOM     22  O   UNL     1      30.163  11.009  37.309  1.00  0.00    -0.502 OA
ATOM     23  H   UNL     1      30.130  10.319  38.051  1.00  0.00     0.293 HD
ENDBRANCH   2  22
BRANCH   6  24
ATOM     24  O   UNL     1      31.481   8.611  32.886  1.00  0.00    -0.507 OA
ATOM     25  H   UNL     1      31.052   8.049  33.611  1.00  0.00     0.293 HD
ENDBRANCH   6  24
BRANCH   8  26
ATOM     26  O   UNL     1      35.548  10.957  31.705  1.00  0.00    -0.508 OA
ATOM     27  H   UNL     1      35.402  11.130  30.716  1.00  0.00     0.293 HD
ENDBRANCH   8  26
TORSDOF 6
ENDMDL
MODEL 3
REMARK VINA RESULT:    -2.487      1.459      3.126
REMARK INTER + INTRA:          -2.510
REMARK INTER:                  -2.755
REMARK INTRA:                   0.245
REMARK UNBOUND:                 0.486
REMARK SMILES O=c1c(O)c(-c2ccc(O)c(O)c2)oc2cc(O)cc(O)c12
REMARK SMILES IDX 5 1 3 2 2 3 1 4 22 5 20 6 19 7 17 8 16 9 15 10 14 11 6 12
REMARK SMILES IDX 7 13 8 14 9 15 13 16 11 17 10 18 12 20 4 22 21 24 18 26
REMARK H PARENT 10 19 12 21 4 23 21 25 18 27
REMARK Flexibility Score: inf
ROOT
ATOM      1  C   UNL     1      31.979  11.264  36.430  1.00  0.00     0.180 A 
ATOM      2  C   UNL     1      31.961  12.554  36.994  1.00  0.00     0.208 A 
ATOM      3  C   UNL     1      31.582  12.702  38.338  1.00  0.00     0.238 A 
ATOM      4  O   UNL     1      31.574  13.851  38.857  1.00  0.00    -0.285 OA
ATOM      5  C   UNL     1      31.209  11.567  39.085  1.00  0.00     0.111 A 
ATOM      6  C   UNL     1      30.810  11.630  40.443  1.00  0.00     0.134 A 
ATOM      7  C   UNL     1      30.443  10.455  41.115  1.00  0.00     0.093 A 
ATOM      8  C   UNL     1      30.468   9.220  40.457  1.00  0.00     0.123 A 
ATOM      9  C   UNL     1      30.861   9.153  39.120  1.00  0.00     0.094 A 
ATOM     10  C   UNL     1      31.231  10.312  38.432  1.00  0.00     0.146 A 
ATOM     11  O   UNL     1      31.606  10.217  37.161  1.00  0.00    -0.452 OA
ENDROOT
BRANCH   1  12
ATOM     12  C   UNL     1      32.384  11.024  35.027  1.00  0.00     0.025 A 
ATOM     13  C   UNL     1      33.315  11.857  34.380  1.00  0.00     0.016 A 
ATOM     14  C   UNL     1      33.701  11.597  33.064  1.00  0.00     0.051 A 
ATOM     15  C   UNL     1      33.177  10.499  32.376  1.00  0.00     0.157 A 
ATOM     16  C   UNL     1      31.876   9.909  34.341  1.00  0.00     0.062 A 
ATOM     17  C   UNL     1      32.262   9.647  33.018  1.00  0.00     0.158 A 
BRANCH  15  18
ATOM     18  O   UNL     1      33.580  10.265  31.062  1.00  0.00    -0.504 OA
ATOM     19  H   UNL     1      33.669  11.013  30.386  1.00  0.00     0.293 HD
ENDBRANCH  15  18
BRANCH  17  20
ATOM     20  O   UNL     1      31.742   8.545  32.341  1.00  0.00    -0.504 OA
ATOM     21  H   UNL     1      31.714   8.508  31.328  1.00  0.00     0.293 HD
ENDBRANCH  17  20
ENDBRANCH   1  12
BRANCH   2  22
ATOM     22  O   UNL     1      32.290  13.668  36.218  1.00  0.00    -0.502 OA
ATOM     23  H   UNL     1      33.130  13.708  35.653  1.00  0.00     0.293 HD
ENDBRANCH   2  22
BRANCH   6  24
ATOM     24  O   UNL     1      30.776  12.846  41.125  1.00  0.00    -0.507 OA
ATOM     25  H   UNL     1      30.518  12.902  42.103  1.00  0.00     0.293 HD
ENDBRANCH   6  24
BRANCH   8  26
ATOM     26  O   UNL     1      30.103   8.052  41.125  1.00  0.00    -0.508 OA
ATOM     27  H   UNL     1      29.526   8.077  41.959  1.00  0.00     0.293 HD
ENDBRANCH   8  26
TORSDOF 6
ENDMDL
