MODEL 1
REMARK VINA RESULT:    -4.950      0.000      0.000
REMARK INTER + INTRA:          -6.610
REMARK INTER:                  -6.976
REMARK INTRA:                   0.366
REMARK UNBOUND:                 0.366
REMARK SMILES CC1=CCC(=C(C)C)C(=O)CC(C)=CCC1
REMARK SMILES IDX 12 1 14 2 13 3 15 4 16 5 2 6 1 7 3 8 11 10 9 11 10 12 5 13
REMARK SMILES IDX 6 14 7 15 8 16 4 17
REMARK H PARENT
REMARK Flexibility Score: 60.00
ROOT
ATOM      1  C   UNL     1     -10.534 -16.380  32.123  1.00  0.00    -0.070 C 
ATOM      2  C   UNL     1     -10.042 -15.787  31.013  1.00  0.00    -0.027 C 
ATOM      3  C   UNL     1     -10.610 -15.560  33.386  1.00  0.00     0.039 C 
ENDROOT
BRANCH   2   4
ATOM      4  C   UNL     1      -9.978 -16.410  29.635  1.00  0.00     0.032 C 
BRANCH   4   5
ATOM      5  C   UNL     1     -11.037 -15.893  28.639  1.00  0.00     0.034 C 
BRANCH   5   6
ATOM      6  C   UNL     1     -11.612 -16.987  27.757  1.00  0.00    -0.077 C 
ATOM      7  C   UNL     1     -10.924 -17.263  26.444  1.00  0.00     0.039 C 
ATOM      8  C   UNL     1     -12.658 -17.776  28.103  1.00  0.00    -0.023 CG0
ATOM      9  G   UNL     1     -13.509 -17.672  29.354  1.00  0.00     0.000 G0
ENDBRANCH   5   6
ENDBRANCH   4   5
ENDBRANCH   2   4
BRANCH   1  10
ATOM     10  C   UNL     1     -11.095 -17.787  32.136  1.00  0.00     0.111 C 
BRANCH  10  11
ATOM     11  C   UNL     1     -12.541 -17.813  31.718  1.00  0.00     0.163 C 
ATOM     12  O   UNL     1     -13.370 -17.157  32.405  1.00  0.00    -0.294 OA
BRANCH  11  13
ATOM     13  C   UNL     1     -13.010 -18.529  30.495  1.00  0.00    -0.002 C 
ATOM     14  C   UNL     1     -13.051 -19.895  30.457  1.00  0.00    -0.069 C 
ATOM     15  C   UNL     1     -13.665 -20.646  29.297  1.00  0.00     0.039 C 
ATOM     16  C   UNL     1     -12.480 -20.729  31.583  1.00  0.00     0.039 C 
BRANCH  13  17
ATOM     17  C   UNL     1     -13.523 -17.678  29.344  1.00  0.00     0.066 CG0
ATOM     18  G   UNL     1     -12.641 -17.780  28.114  1.00  0.00     0.000 G0
ENDBRANCH  13  17
ENDBRANCH  11  13
ENDBRANCH  10  11
ENDBRANCH   1  10
TORSDOF 0
ENDMDL
MODEL 2
REMARK VINA RESULT:    -4.790      1.886      3.883
REMARK INTER + INTRA:          -6.384
REMARK INTER:                  -6.716
REMARK INTRA:                   0.331
REMARK UNBOUND:                 0.366
REMARK SMILES CC1=CCC(=C(C)C)C(=O)CC(C)=CCC1
REMARK SMILES IDX 12 1 14 2 13 3 15 4 16 5 2 6 1 7 3 8 11 10 9 11 10 12 5 13
REMARK SMILES IDX 6 14 7 15 8 16 4 17
REMARK H PARENT
REMARK Flexibility Score: 60.00
ROOT
ATOM      1  C   UNL     1     -12.874 -16.619  31.427  1.00  0.00    -0.070 C 
ATOM      2  C   UNL     1     -13.243 -17.859  31.817  1.00  0.00    -0.027 C 
ATOM      3  C   UNL     1     -13.919 -15.532  31.450  1.00  0.00     0.039 C 
ENDROOT
BRANCH   2   4
ATOM      4  C   UNL     1     -12.321 -19.051  31.955  1.00  0.00     0.032 C 
BRANCH   4   5
ATOM      5  C   UNL     1     -11.627 -19.489  30.647  1.00  0.00     0.034 C 
BRANCH   5   6
ATOM      6  C   UNL     1     -12.591 -19.654  29.485  1.00  0.00    -0.077 C 
ATOM      7  C   UNL     1     -13.654 -20.718  29.602  1.00  0.00     0.039 C 
ATOM      8  C   UNL     1     -12.603 -18.862  28.385  1.00  0.00    -0.023 CG0
ATOM      9  G   UNL     1     -11.629 -17.751  28.047  1.00  0.00     0.000 G0
ENDBRANCH   5   6
ENDBRANCH   4   5
ENDBRANCH   2   4
BRANCH   1  10
ATOM     10  C   UNL     1     -11.451 -16.251  31.062  1.00  0.00     0.111 C 
BRANCH  10  11
ATOM     11  C   UNL     1     -11.352 -15.758  29.642  1.00  0.00     0.163 C 
ATOM     12  O   UNL     1     -10.558 -14.809  29.397  1.00  0.00    -0.294 OA
BRANCH  11  13
ATOM     13  C   UNL     1     -12.106 -16.388  28.520  1.00  0.00    -0.002 C 
ATOM     14  C   UNL     1     -13.125 -15.721  27.899  1.00  0.00    -0.069 C 
ATOM     15  C   UNL     1     -13.804 -16.265  26.662  1.00  0.00     0.039 C 
ATOM     16  C   UNL     1     -13.627 -14.393  28.423  1.00  0.00     0.039 C 
BRANCH  13  17
ATOM     17  C   UNL     1     -11.633 -17.752  28.042  1.00  0.00     0.066 CG0
ATOM     18  G   UNL     1     -12.608 -18.858  28.396  1.00  0.00     0.000 G0
ENDBRANCH  13  17
ENDBRANCH  11  13
ENDBRANCH  10  11
ENDBRANCH   1  10
TORSDOF 0
ENDMDL
MODEL 3
REMARK VINA RESULT:    -4.608      2.282      4.840
REMARK INTER + INTRA:          -6.128
REMARK INTER:                  -6.976
REMARK INTRA:                   0.847
REMARK UNBOUND:                 0.366
REMARK SMILES CC1=CCC(=C(C)C)C(=O)CC(C)=CCC1
REMARK SMILES IDX 12 1 14 2 13 3 15 4 16 5 2 6 1 7 3 8 11 10 9 11 10 12 5 13
REMARK SMILES IDX 6 14 7 15 8 16 4 17
REMARK H PARENT
REMARK Flexibility Score: 60.00
ROOT
ATOM      1  C   UNL     1     -12.911 -19.308  29.482  1.00  0.00    -0.070 C 
ATOM      2  C   UNL     1     -13.207 -19.522  30.783  1.00  0.00    -0.027 C 
ATOM      3  C   UNL     1     -14.007 -19.514  28.467  1.00  0.00     0.039 C 
ENDROOT
BRANCH   2   4
ATOM      4  C   UNL     1     -12.277 -19.276  31.952  1.00  0.00     0.032 C 
BRANCH   4   5
ATOM      5  C   UNL     1     -12.046 -17.789  32.294  1.00  0.00     0.034 C 
BRANCH   5   6
ATOM      6  C   UNL     1     -13.209 -16.896  31.898  1.00  0.00    -0.077 C 
ATOM      7  C   UNL     1     -14.450 -16.941  32.754  1.00  0.00     0.039 C 
ATOM      8  C   UNL     1     -13.179 -16.014  30.870  1.00  0.00    -0.023 CG0
ATOM      9  G   UNL     1     -12.056 -15.810  29.871  1.00  0.00     0.000 G0
ENDBRANCH   5   6
ENDBRANCH   4   5
ENDBRANCH   2   4
BRANCH   1  10
ATOM     10  C   UNL     1     -11.571 -18.786  29.010  1.00  0.00     0.111 C 
BRANCH  10  11
ATOM     11  C   UNL     1     -11.729 -17.617  28.073  1.00  0.00     0.163 C 
ATOM     12  O   UNL     1     -11.335 -17.753  26.883  1.00  0.00    -0.294 OA
BRANCH  11  13
ATOM     13  C   UNL     1     -12.385 -16.342  28.486  1.00  0.00    -0.002 C 
ATOM     14  C   UNL     1     -13.311 -15.739  27.681  1.00  0.00    -0.069 C 
ATOM     15  C   UNL     1     -14.106 -14.536  28.136  1.00  0.00     0.039 C 
ATOM     16  C   UNL     1     -13.587 -16.250  26.284  1.00  0.00     0.039 C 
BRANCH  13  17
ATOM     17  C   UNL     1     -12.051 -15.803  29.868  1.00  0.00     0.066 CG0
ATOM     18  G   UNL     1     -13.184 -16.008  30.855  1.00  0.00     0.000 G0
ENDBRANCH  13  17
ENDBRANCH  11  13
ENDBRANCH  10  11
ENDBRANCH   1  10
TORSDOF 0
ENDMDL
MODEL 4
REMARK VINA RESULT:    -4.500      1.797      2.421
REMARK INTER + INTRA:          -5.975
REMARK INTER:                  -6.690
REMARK INTRA:                   0.714
REMARK UNBOUND:                 0.366
REMARK SMILES CC1=CCC(=C(C)C)C(=O)CC(C)=CCC1
REMARK SMILES IDX 12 1 14 2 13 3 15 4 16 5 2 6 1 7 3 8 11 10 9 11 10 12 5 13
REMARK SMILES IDX 6 14 7 15 8 16 4 17
REMARK H PARENT
REMARK Flexibility Score: 60.00
ROOT
ATOM      1  C   UNL     1     -13.087 -15.843  31.060  1.00  0.00    -0.070 C 
ATOM      2  C   UNL     1     -13.689 -15.518  29.895  1.00  0.00    -0.027 C 
ATOM      3  C   UNL     1     -13.966 -16.158  32.244  1.00  0.00     0.039 C 
ENDROOT
BRANCH   2   4
ATOM      4  C   UNL     1     -12.986 -15.267  28.579  1.00  0.00     0.032 C 
BRANCH   4   5
ATOM      5  C   UNL     1     -13.345 -16.258  27.452  1.00  0.00     0.034 C 
BRANCH   5   6
ATOM      6  C   UNL     1     -12.212 -17.211  27.111  1.00  0.00    -0.077 C 
ATOM      7  C   UNL     1     -11.370 -16.893  25.901  1.00  0.00     0.039 C 
ATOM      8  C   UNL     1     -11.867 -18.285  27.861  1.00  0.00    -0.023 CG0
ATOM      9  G   UNL     1     -12.574 -18.804  29.098  1.00  0.00     0.000 G0
ENDBRANCH   5   6
ENDBRANCH   4   5
ENDBRANCH   2   4
BRANCH   1  10
ATOM     10  C   UNL     1     -11.588 -15.996  31.207  1.00  0.00     0.111 C 
BRANCH  10  11
ATOM     11  C   UNL     1     -11.069 -17.169  30.418  1.00  0.00     0.163 C 
ATOM     12  O   UNL     1      -9.967 -17.041  29.819  1.00  0.00    -0.294 OA
BRANCH  11  13
ATOM     13  C   UNL     1     -11.777 -18.482  30.375  1.00  0.00    -0.002 C 
ATOM     14  C   UNL     1     -11.779 -19.312  31.461  1.00  0.00    -0.069 C 
ATOM     15  C   UNL     1     -12.614 -20.572  31.505  1.00  0.00     0.039 C 
ATOM     16  C   UNL     1     -10.941 -19.007  32.683  1.00  0.00     0.039 C 
BRANCH  13  17
ATOM     17  C   UNL     1     -12.565 -18.806  29.116  1.00  0.00     0.066 CG0
ATOM     18  G   UNL     1     -11.887 -18.291  27.862  1.00  0.00     0.000 G0
ENDBRANCH  13  17
ENDBRANCH  11  13
ENDBRANCH  10  11
ENDBRANCH   1  10
TORSDOF 0
ENDMDL
MODEL 5
REMARK VINA RESULT:    -4.469      1.785      3.544
REMARK INTER + INTRA:          -5.931
REMARK INTER:                  -7.136
REMARK INTRA:                   1.205
REMARK UNBOUND:                 0.366
REMARK SMILES CC1=CCC(=C(C)C)C(=O)CC(C)=CCC1
REMARK SMILES IDX 12 1 14 2 13 3 15 4 16 5 2 6 1 7 3 8 11 10 9 11 10 12 5 13
REMARK SMILES IDX 6 14 7 15 8 16 4 17
REMARK H PARENT
REMARK Flexibility Score: 60.00
ROOT
ATOM      1  C   UNL     1     -12.453 -19.831  30.710  1.00  0.00    -0.070 C 
ATOM      2  C   UNL     1     -13.425 -19.951  29.779  1.00  0.00    -0.027 C 
ATOM      3  C   UNL     1     -12.500 -20.753  31.902  1.00  0.00     0.039 C 
ENDROOT
BRANCH   2   4
ATOM      4  C   UNL     1     -13.497 -19.189  28.474  1.00  0.00     0.032 C 
BRANCH   4   5
ATOM      5  C   UNL     1     -12.339 -18.196  28.239  1.00  0.00     0.034 C 
BRANCH   5   6
ATOM      6  C   UNL     1     -12.813 -16.803  27.865  1.00  0.00    -0.077 C 
ATOM      7  C   UNL     1     -13.625 -16.654  26.602  1.00  0.00     0.039 C 
ATOM      8  C   UNL     1     -12.616 -15.699  28.626  1.00  0.00    -0.023 CG0
ATOM      9  G   UNL     1     -11.821 -15.606  29.914  1.00  0.00     0.000 G0
ENDBRANCH   5   6
ENDBRANCH   4   5
ENDBRANCH   2   4
BRANCH   1  10
ATOM     10  C   UNL     1     -11.278 -18.886  30.567  1.00  0.00     0.111 C 
BRANCH  10  11
ATOM     11  C   UNL     1     -11.451 -17.653  31.414  1.00  0.00     0.163 C 
ATOM     12  O   UNL     1     -10.781 -17.566  32.479  1.00  0.00    -0.294 OA
BRANCH  11  13
ATOM     13  C   UNL     1     -12.330 -16.518  31.008  1.00  0.00    -0.002 C 
ATOM     14  C   UNL     1     -13.507 -16.276  31.659  1.00  0.00    -0.069 C 
ATOM     15  C   UNL     1     -14.341 -15.047  31.377  1.00  0.00     0.039 C 
ATOM     16  C   UNL     1     -14.037 -17.234  32.704  1.00  0.00     0.039 C 
BRANCH  13  17
ATOM     17  C   UNL     1     -11.816 -15.597  29.912  1.00  0.00     0.066 CG0
ATOM     18  G   UNL     1     -12.636 -15.700  28.641  1.00  0.00     0.000 G0
ENDBRANCH  13  17
ENDBRANCH  11  13
ENDBRANCH  10  11
ENDBRANCH   1  10
TORSDOF 0
ENDMDL
MODEL 6
REMARK VINA RESULT:    -4.394      2.326      4.131
REMARK INTER + INTRA:          -5.827
REMARK INTER:                  -6.823
REMARK INTRA:                   0.997
REMARK UNBOUND:                 0.366
REMARK SMILES CC1=CCC(=C(C)C)C(=O)CC(C)=CCC1
REMARK SMILES IDX 12 1 14 2 13 3 15 4 16 5 2 6 1 7 3 8 11 10 9 11 10 12 5 13
REMARK SMILES IDX 6 14 7 15 8 16 4 17
REMARK H PARENT
REMARK Flexibility Score: 60.00
ROOT
ATOM      1  C   UNL     1     -12.969 -15.502  29.468  1.00  0.00    -0.070 C 
ATOM      2  C   UNL     1     -13.735 -15.507  30.580  1.00  0.00    -0.027 C 
ATOM      3  C   UNL     1     -13.611 -15.080  28.171  1.00  0.00     0.039 C 
ENDROOT
BRANCH   2   4
ATOM      4  C   UNL     1     -13.253 -15.804  31.983  1.00  0.00     0.032 C 
BRANCH   4   5
ATOM      5  C   UNL     1     -12.590 -17.187  32.162  1.00  0.00     0.034 C 
BRANCH   5   6
ATOM      6  C   UNL     1     -11.098 -17.103  32.435  1.00  0.00    -0.077 C 
ATOM      7  C   UNL     1     -10.635 -16.156  33.514  1.00  0.00     0.039 C 
ATOM      8  C   UNL     1     -10.165 -17.872  31.823  1.00  0.00    -0.023 CG0
ATOM      9  G   UNL     1     -10.393 -18.871  30.705  1.00  0.00     0.000 G0
ENDBRANCH   5   6
ENDBRANCH   4   5
ENDBRANCH   2   4
BRANCH   1  10
ATOM     10  C   UNL     1     -11.485 -15.808  29.479  1.00  0.00     0.111 C 
BRANCH  10  11
ATOM     11  C   UNL     1     -11.197 -17.180  28.929  1.00  0.00     0.163 C 
ATOM     12  O   UNL     1     -10.669 -17.263  27.788  1.00  0.00    -0.294 OA
BRANCH  11  13
ATOM     13  C   UNL     1     -11.454 -18.426  29.709  1.00  0.00    -0.002 C 
ATOM     14  C   UNL     1     -12.571 -19.180  29.475  1.00  0.00    -0.069 C 
ATOM     15  C   UNL     1     -12.782 -20.524  30.133  1.00  0.00     0.039 C 
ATOM     16  C   UNL     1     -13.658 -18.701  28.537  1.00  0.00     0.039 C 
BRANCH  13  17
ATOM     17  C   UNL     1     -10.383 -18.864  30.695  1.00  0.00     0.066 CG0
ATOM     18  G   UNL     1     -10.181 -17.858  31.811  1.00  0.00     0.000 G0
ENDBRANCH  13  17
ENDBRANCH  11  13
ENDBRANCH  10  11
ENDBRANCH   1  10
TORSDOF 0
ENDMDL
MODEL 7
REMARK VINA RESULT:    -4.386      2.292      4.421
REMARK INTER + INTRA:          -5.816
REMARK INTER:                  -6.246
REMARK INTRA:                   0.430
REMARK UNBOUND:                 0.366
REMARK SMILES CC1=CCC(=C(C)C)C(=O)CC(C)=CCC1
REMARK SMILES IDX 12 1 14 2 13 3 15 4 16 5 2 6 1 7 3 8 11 10 9 11 10 12 5 13
REMARK SMILES IDX 6 14 7 15 8 16 4 17
REMARK H PARENT
REMARK Flexibility Score: 60.00
ROOT
ATOM      1  C   UNL     1     -10.701 -16.970  29.216  1.00  0.00    -0.070 C 
ATOM      2  C   UNL     1     -10.064 -17.776  30.094  1.00  0.00    -0.027 C 
ATOM      3  C   UNL     1     -10.646 -17.337  27.755  1.00  0.00     0.039 C 
ENDROOT
BRANCH   2   4
ATOM      4  C   UNL     1     -10.085 -17.631  31.600  1.00  0.00     0.032 C 
BRANCH   4   5
ATOM      5  C   UNL     1     -10.659 -18.845  32.360  1.00  0.00     0.034 C 
BRANCH   5   6
ATOM      6  C   UNL     1     -12.070 -19.208  31.929  1.00  0.00    -0.077 C 
ATOM      7  C   UNL     1     -12.318 -20.619  31.460  1.00  0.00     0.039 C 
ATOM      8  C   UNL     1     -13.131 -18.369  32.005  1.00  0.00    -0.023 CG0
ATOM      9  G   UNL     1     -13.118 -16.912  32.426  1.00  0.00     0.000 G0
ENDBRANCH   5   6
ENDBRANCH   4   5
ENDBRANCH   2   4
BRANCH   1  10
ATOM     10  C   UNL     1     -11.536 -15.779  29.636  1.00  0.00     0.111 C 
BRANCH  10  11
ATOM     11  C   UNL     1     -12.951 -16.180  29.964  1.00  0.00     0.163 C 
ATOM     12  O   UNL     1     -13.622 -16.769  29.074  1.00  0.00    -0.294 OA
BRANCH  11  13
ATOM     13  C   UNL     1     -13.553 -15.963  31.311  1.00  0.00    -0.002 C 
ATOM     14  C   UNL     1     -14.516 -15.011  31.502  1.00  0.00    -0.069 C 
ATOM     15  C   UNL     1     -15.256 -14.872  32.813  1.00  0.00     0.039 C 
ATOM     16  C   UNL     1     -14.892 -14.043  30.401  1.00  0.00     0.039 C 
BRANCH  13  17
ATOM     17  C   UNL     1     -13.121 -16.901  32.427  1.00  0.00     0.066 CG0
ATOM     18  G   UNL     1     -13.125 -18.354  31.992  1.00  0.00     0.000 G0
ENDBRANCH  13  17
ENDBRANCH  11  13
ENDBRANCH  10  11
ENDBRANCH   1  10
TORSDOF 0
ENDMDL
MODEL 8
REMARK VINA RESULT:    -4.271      2.219      3.568
REMARK INTER + INTRA:          -5.653
REMARK INTER:                  -6.326
REMARK INTRA:                   0.673
REMARK UNBOUND:                 0.366
REMARK SMILES CC1=CCC(=C(C)C)C(=O)CC(C)=CCC1
REMARK SMILES IDX 12 1 14 2 13 3 15 4 16 5 2 6 1 7 3 8 11 10 9 11 10 12 5 13
REMARK SMILES IDX 6 14 7 15 8 16 4 17
REMARK H PARENT
REMARK Flexibility Score: 60.00
ROOT
ATOM      1  C   UNL     1     -11.982 -18.805  31.683  1.00  0.00    -0.070 C 
ATOM      2  C   UNL     1     -11.786 -19.338  30.457  1.00  0.00    -0.027 C 
ATOM      3  C   UNL     1     -10.856 -18.904  32.682  1.00  0.00     0.039 C 
ENDROOT
BRANCH   2   4
ATOM      4  C   UNL     1     -12.752 -19.255  29.295  1.00  0.00     0.032 C 
BRANCH   4   5
ATOM      5  C   UNL     1     -12.361 -18.241  28.199  1.00  0.00     0.034 C 
BRANCH   5   6
ATOM      6  C   UNL     1     -11.547 -17.073  28.729  1.00  0.00    -0.077 C 
ATOM      7  C   UNL     1     -10.051 -17.118  28.538  1.00  0.00     0.039 C 
ATOM      8  C   UNL     1     -12.081 -15.965  29.296  1.00  0.00    -0.023 CG0
ATOM      9  G   UNL     1     -13.543 -15.708  29.604  1.00  0.00     0.000 G0
ENDBRANCH   5   6
ENDBRANCH   4   5
ENDBRANCH   2   4
BRANCH   1  10
ATOM     10  C   UNL     1     -13.230 -18.039  32.068  1.00  0.00     0.111 C 
BRANCH  10  11
ATOM     11  C   UNL     1     -13.014 -16.551  31.991  1.00  0.00     0.163 C 
ATOM     12  O   UNL     1     -12.072 -16.052  32.663  1.00  0.00    -0.294 OA
BRANCH  11  13
ATOM     13  C   UNL     1     -13.830 -15.667  31.107  1.00  0.00    -0.002 C 
ATOM     14  C   UNL     1     -14.740 -14.795  31.638  1.00  0.00    -0.069 C 
ATOM     15  C   UNL     1     -15.467 -13.779  30.785  1.00  0.00     0.039 C 
ATOM     16  C   UNL     1     -15.065 -14.803  33.115  1.00  0.00     0.039 C 
BRANCH  13  17
ATOM     17  C   UNL     1     -13.538 -15.714  29.616  1.00  0.00     0.066 CG0
ATOM     18  G   UNL     1     -12.068 -15.940  29.323  1.00  0.00     0.000 G0
ENDBRANCH  13  17
ENDBRANCH  11  13
ENDBRANCH  10  11
ENDBRANCH   1  10
TORSDOF 0
ENDMDL
MODEL 9
REMARK VINA RESULT:    -3.921      2.137      4.704
REMARK INTER + INTRA:          -5.159
REMARK INTER:                  -6.474
REMARK INTRA:                   1.314
REMARK UNBOUND:                 0.366
REMARK SMILES CC1=CCC(=C(C)C)C(=O)CC(C)=CCC1
REMARK SMILES IDX 12 1 14 2 13 3 15 4 16 5 2 6 1 7 3 8 11 10 9 11 10 12 5 13
REMARK SMILES IDX 6 14 7 15 8 16 4 17
REMARK H PARENT
REMARK Flexibility Score: 60.00
ROOT
ATOM      1  C   UNL     1     -12.175 -17.903  28.075  1.00  0.00    -0.070 C 
ATOM      2  C   UNL     1     -13.274 -18.672  28.234  1.00  0.00    -0.027 C 
ATOM      3  C   UNL     1     -12.102 -17.021  26.854  1.00  0.00     0.039 C 
ENDROOT
BRANCH   2   4
ATOM      4  C   UNL     1     -13.575 -19.544  29.434  1.00  0.00     0.032 C 
BRANCH   4   5
ATOM      5  C   UNL     1     -13.582 -18.804  30.788  1.00  0.00     0.034 C 
BRANCH   5   6
ATOM      6  C   UNL     1     -12.473 -19.256  31.722  1.00  0.00    -0.077 C 
ATOM      7  C   UNL     1     -12.257 -20.740  31.886  1.00  0.00     0.039 C 
ATOM      8  C   UNL     1     -11.622 -18.417  32.360  1.00  0.00    -0.023 CG0
ATOM      9  G   UNL     1     -11.659 -16.901  32.358  1.00  0.00     0.000 G0
ENDBRANCH   5   6
ENDBRANCH   4   5
ENDBRANCH   2   4
BRANCH   1  10
ATOM     10  C   UNL     1     -11.066 -17.814  29.103  1.00  0.00     0.111 C 
BRANCH  10  11
ATOM     11  C   UNL     1     -11.122 -16.520  29.871  1.00  0.00     0.163 C 
ATOM     12  O   UNL     1     -10.385 -15.571  29.489  1.00  0.00    -0.294 OA
BRANCH  11  13
ATOM     13  C   UNL     1     -12.055 -16.307  31.016  1.00  0.00    -0.002 C 
ATOM     14  C   UNL     1     -13.261 -15.690  30.830  1.00  0.00    -0.069 C 
ATOM     15  C   UNL     1     -14.293 -15.599  31.932  1.00  0.00     0.039 C 
ATOM     16  C   UNL     1     -13.625 -15.063  29.502  1.00  0.00     0.039 C 
BRANCH  13  17
ATOM     17  C   UNL     1     -11.649 -16.887  32.362  1.00  0.00     0.066 CG0
ATOM     18  G   UNL     1     -11.634 -18.403  32.355  1.00  0.00     0.000 G0
ENDBRANCH  13  17
ENDBRANCH  11  13
ENDBRANCH  10  11
ENDBRANCH   1  10
TORSDOF 0
ENDMDL
