MODEL 1
REMARK VINA RESULT:    -3.892      0.000      0.000
REMARK INTER + INTRA:          -5.909
REMARK INTER:                  -5.939
REMARK INTRA:                   0.030
REMARK UNBOUND:                 0.030
REMARK SMILES CC1=CCC[C@H](C)C(=O)C[C@H](C(C)C)C(=O)C1
REMARK SMILES IDX 8 1 9 2 6 3 7 4 5 5 4 6 3 7 2 8 1 9 10 11 11 12 15 13 16 14
REMARK SMILES IDX 17 15 12 17 13 18 14 19
REMARK H PARENT
REMARK Flexibility Score: 70.00
ROOT
ATOM      1  C   UNL     1      49.128  24.415  21.063  1.00  0.00     0.136 C 
ATOM      2  O   UNL     1      47.944  24.114  21.114  1.00  0.00    -0.299 OA
ENDROOT
BRANCH   1   3
ATOM      3  C   UNL     1      49.548  25.831  21.411  1.00  0.00     0.053 C 
ATOM      4  C   UNL     1      48.451  26.495  22.250  1.00  0.00     0.016 C 
BRANCH   3   5
ATOM      5  C   UNL     1      50.894  25.874  22.164  1.00  0.00     0.015 C 
BRANCH   5   6
ATOM      6  C   UNL     1      52.117  26.181  21.281  1.00  0.00     0.028 C 
BRANCH   6   7
ATOM      7  C   UNL     1      51.771  26.767  19.930  1.00  0.00    -0.028 C 
ATOM      8  C   UNL     1      51.772  26.147  18.721  1.00  0.00    -0.070 CG0
ATOM      9  C   UNL     1      51.493  27.016  17.517  1.00  0.00     0.039 C 
ATOM     10  G   UNL     1      51.929  24.648  18.485  1.00  0.00     0.000 G0
ENDBRANCH   6   7
ENDBRANCH   5   6
ENDBRANCH   3   5
ENDBRANCH   1   3
BRANCH   1  11
ATOM     11  C   UNL     1      50.133  23.407  20.550  1.00  0.00     0.087 C 
BRANCH  11  12
ATOM     12  C   UNL     1      49.966  22.977  19.062  1.00  0.00     0.066 C 
BRANCH  12  13
ATOM     13  C   UNL     1      50.660  23.911  18.071  1.00  0.00     0.140 C 
ATOM     14  O   UNL     1      50.145  24.186  16.998  1.00  0.00    -0.299 OA
BRANCH  13  15
ATOM     15  C   UNL     1      51.913  24.639  18.486  1.00  0.00     0.106 CG0
ATOM     16  G   UNL     1      51.770  26.141  18.708  1.00  0.00     0.000 G0
ENDBRANCH  13  15
ENDBRANCH  12  13
BRANCH  12  17
ATOM     17  C   UNL     1      50.190  21.445  18.830  1.00  0.00    -0.006 C 
ATOM     18  C   UNL     1      49.686  20.547  19.973  1.00  0.00     0.008 C 
ATOM     19  C   UNL     1      51.654  21.117  18.486  1.00  0.00     0.008 C 
ENDBRANCH  12  17
ENDBRANCH  11  12
ENDBRANCH   1  11
TORSDOF 1
ENDMDL
MODEL 2
REMARK VINA RESULT:    -3.857      1.904      4.080
REMARK INTER + INTRA:          -5.856
REMARK INTER:                  -5.477
REMARK INTRA:                  -0.379
REMARK UNBOUND:                 0.030
REMARK SMILES CC1=CCC[C@H](C)C(=O)C[C@H](C(C)C)C(=O)C1
REMARK SMILES IDX 8 1 9 2 6 3 7 4 5 5 4 6 3 7 2 8 1 9 10 11 11 12 15 13 16 14
REMARK SMILES IDX 17 15 12 17 13 18 14 19
REMARK H PARENT
REMARK Flexibility Score: 70.00
ROOT
ATOM      1  C   UNL     1      51.100  22.912  18.947  1.00  0.00     0.136 C 
ATOM      2  O   UNL     1      51.333  21.801  18.496  1.00  0.00    -0.299 OA
ENDROOT
BRANCH   1   3
ATOM      3  C   UNL     1      49.810  23.145  19.712  1.00  0.00     0.053 C 
ATOM      4  C   UNL     1      48.965  21.867  19.685  1.00  0.00     0.016 C 
BRANCH   3   5
ATOM      5  C   UNL     1      50.065  23.583  21.170  1.00  0.00     0.015 C 
BRANCH   5   6
ATOM      6  C   UNL     1      49.497  24.966  21.535  1.00  0.00     0.028 C 
BRANCH   6   7
ATOM      7  C   UNL     1      50.499  25.893  22.187  1.00  0.00    -0.028 C 
ATOM      8  C   UNL     1      51.263  26.851  21.600  1.00  0.00    -0.070 CG0
ATOM      9  C   UNL     1      52.267  27.550  22.485  1.00  0.00     0.039 C 
ATOM     10  G   UNL     1      51.127  27.345  20.163  1.00  0.00     0.000 G0
ENDBRANCH   6   7
ENDBRANCH   5   6
ENDBRANCH   3   5
ENDBRANCH   1   3
BRANCH   1  11
ATOM     11  C   UNL     1      52.042  24.056  18.641  1.00  0.00     0.087 C 
BRANCH  11  12
ATOM     12  C   UNL     1      51.370  25.434  18.363  1.00  0.00     0.066 C 
BRANCH  12  13
ATOM     13  C   UNL     1      51.988  26.589  19.150  1.00  0.00     0.140 C 
ATOM     14  O   UNL     1      53.104  27.008  18.882  1.00  0.00    -0.299 OA
BRANCH  13  15
ATOM     15  C   UNL     1      51.151  27.338  20.155  1.00  0.00     0.106 CG0
ATOM     16  G   UNL     1      51.267  26.868  21.602  1.00  0.00     0.000 G0
ENDBRANCH  13  15
ENDBRANCH  12  13
BRANCH  12  17
ATOM     17  C   UNL     1      51.113  25.702  16.842  1.00  0.00    -0.006 C 
ATOM     18  C   UNL     1      52.241  25.226  15.911  1.00  0.00     0.008 C 
ATOM     19  C   UNL     1      50.761  27.175  16.562  1.00  0.00     0.008 C 
ENDBRANCH  12  17
ENDBRANCH  11  12
ENDBRANCH   1  11
TORSDOF 1
ENDMDL
MODEL 3
REMARK VINA RESULT:    -3.839      1.432      3.958
REMARK INTER + INTRA:          -5.829
REMARK INTER:                  -5.646
REMARK INTRA:                  -0.183
REMARK UNBOUND:                 0.030
REMARK SMILES CC1=CCC[C@H](C)C(=O)C[C@H](C(C)C)C(=O)C1
REMARK SMILES IDX 8 1 9 2 6 3 7 4 5 5 4 6 3 7 2 8 1 9 10 11 11 12 15 13 16 14
REMARK SMILES IDX 17 15 12 17 13 18 14 19
REMARK H PARENT
REMARK Flexibility Score: 70.00
ROOT
ATOM      1  C   UNL     1      49.010  24.121  20.893  1.00  0.00     0.136 C 
ATOM      2  O   UNL     1      47.806  24.010  20.720  1.00  0.00    -0.299 OA
ENDROOT
BRANCH   1   3
ATOM      3  C   UNL     1      49.933  23.020  20.402  1.00  0.00     0.053 C 
ATOM      4  C   UNL     1      49.387  21.661  20.850  1.00  0.00     0.016 C 
BRANCH   3   5
ATOM      5  C   UNL     1      50.110  23.044  18.870  1.00  0.00     0.015 C 
BRANCH   5   6
ATOM      6  C   UNL     1      51.539  23.357  18.390  1.00  0.00     0.028 C 
BRANCH   6   7
ATOM      7  C   UNL     1      51.609  24.403  17.300  1.00  0.00    -0.028 C 
ATOM      8  C   UNL     1      51.639  25.755  17.433  1.00  0.00    -0.070 CG0
ATOM      9  C   UNL     1      51.592  26.560  16.156  1.00  0.00     0.039 C 
ATOM     10  G   UNL     1      51.814  26.519  18.741  1.00  0.00     0.000 G0
ENDBRANCH   6   7
ENDBRANCH   5   6
ENDBRANCH   3   5
ENDBRANCH   1   3
BRANCH   1  11
ATOM     11  C   UNL     1      49.547  25.293  21.685  1.00  0.00     0.087 C 
BRANCH  11  12
ATOM     12  C   UNL     1      50.819  25.980  21.104  1.00  0.00     0.066 C 
BRANCH  12  13
ATOM     13  C   UNL     1      50.635  26.518  19.686  1.00  0.00     0.140 C 
ATOM     14  O   UNL     1      49.591  27.056  19.347  1.00  0.00    -0.299 OA
BRANCH  13  15
ATOM     15  C   UNL     1      51.808  26.543  18.740  1.00  0.00     0.106 CG0
ATOM     16  G   UNL     1      51.634  25.765  17.439  1.00  0.00     0.000 G0
ENDBRANCH  13  15
ENDBRANCH  12  13
BRANCH  12  17
ATOM     17  C   UNL     1      51.518  26.948  22.117  1.00  0.00    -0.006 C 
ATOM     18  C   UNL     1      51.286  28.442  21.836  1.00  0.00     0.008 C 
ATOM     19  C   UNL     1      53.022  26.649  22.264  1.00  0.00     0.008 C 
ENDBRANCH  12  17
ENDBRANCH  11  12
ENDBRANCH   1  11
TORSDOF 1
ENDMDL
MODEL 4
REMARK VINA RESULT:    -3.794      2.116      3.255
REMARK INTER + INTRA:          -5.760
REMARK INTER:                  -5.078
REMARK INTRA:                  -0.682
REMARK UNBOUND:                 0.030
REMARK SMILES CC1=CCC[C@H](C)C(=O)C[C@H](C(C)C)C(=O)C1
REMARK SMILES IDX 8 1 9 2 6 3 7 4 5 5 4 6 3 7 2 8 1 9 10 11 11 12 15 13 16 14
REMARK SMILES IDX 17 15 12 17 13 18 14 19
REMARK H PARENT
REMARK Flexibility Score: 70.00
ROOT
ATOM      1  C   UNL     1      52.653  26.032  20.976  1.00  0.00     0.136 C 
ATOM      2  O   UNL     1      53.478  26.055  21.877  1.00  0.00    -0.299 OA
ENDROOT
BRANCH   1   3
ATOM      3  C   UNL     1      51.998  27.329  20.538  1.00  0.00     0.053 C 
ATOM      4  C   UNL     1      51.793  28.232  21.759  1.00  0.00     0.016 C 
BRANCH   3   5
ATOM      5  C   UNL     1      52.822  28.067  19.462  1.00  0.00     0.015 C 
BRANCH   5   6
ATOM      6  C   UNL     1      52.169  28.112  18.069  1.00  0.00     0.028 C 
BRANCH   6   7
ATOM      7  C   UNL     1      52.892  27.295  17.022  1.00  0.00    -0.028 C 
ATOM      8  C   UNL     1      52.577  26.058  16.557  1.00  0.00    -0.070 CG0
ATOM      9  C   UNL     1      53.553  25.434  15.586  1.00  0.00     0.039 C 
ATOM     10  G   UNL     1      51.289  25.295  16.849  1.00  0.00     0.000 G0
ENDBRANCH   6   7
ENDBRANCH   5   6
ENDBRANCH   3   5
ENDBRANCH   1   3
BRANCH   1  11
ATOM     11  C   UNL     1      52.221  24.704  20.392  1.00  0.00     0.087 C 
BRANCH  11  12
ATOM     12  C   UNL     1      51.017  24.757  19.404  1.00  0.00     0.066 C 
BRANCH  12  13
ATOM     13  C   UNL     1      51.363  24.293  17.990  1.00  0.00     0.140 C 
ATOM     14  O   UNL     1      51.570  23.114  17.746  1.00  0.00    -0.299 OA
BRANCH  13  15
ATOM     15  C   UNL     1      51.280  25.271  16.845  1.00  0.00     0.106 CG0
ATOM     16  G   UNL     1      52.551  26.061  16.549  1.00  0.00     0.000 G0
ENDBRANCH  13  15
ENDBRANCH  12  13
BRANCH  12  17
ATOM     17  C   UNL     1      49.693  24.180  20.009  1.00  0.00    -0.006 C 
ATOM     18  C   UNL     1      48.779  25.230  20.661  1.00  0.00     0.008 C 
ATOM     19  C   UNL     1      49.957  23.012  20.977  1.00  0.00     0.008 C 
ENDBRANCH  12  17
ENDBRANCH  11  12
ENDBRANCH   1  11
TORSDOF 1
ENDMDL
MODEL 5
REMARK VINA RESULT:    -3.790     10.244     12.371
REMARK INTER + INTRA:          -5.753
REMARK INTER:                  -5.375
REMARK INTRA:                  -0.378
REMARK UNBOUND:                 0.030
REMARK SMILES CC1=CCC[C@H](C)C(=O)C[C@H](C(C)C)C(=O)C1
REMARK SMILES IDX 8 1 9 2 6 3 7 4 5 5 4 6 3 7 2 8 1 9 10 11 11 12 15 13 16 14
REMARK SMILES IDX 17 15 12 17 13 18 14 19
REMARK H PARENT
REMARK Flexibility Score: 70.00
ROOT
ATOM      1  C   UNL     1      41.028  23.805  21.492  1.00  0.00     0.136 C 
ATOM      2  O   UNL     1      41.567  24.509  20.652  1.00  0.00    -0.299 OA
ENDROOT
BRANCH   1   3
ATOM      3  C   UNL     1      41.549  22.398  21.724  1.00  0.00     0.053 C 
ATOM      4  C   UNL     1      42.559  22.043  20.629  1.00  0.00     0.016 C 
BRANCH   3   5
ATOM      5  C   UNL     1      42.192  22.233  23.117  1.00  0.00     0.015 C 
BRANCH   5   6
ATOM      6  C   UNL     1      41.622  21.078  23.958  1.00  0.00     0.028 C 
BRANCH   6   7
ATOM      7  C   UNL     1      41.362  21.437  25.404  1.00  0.00    -0.028 C 
ATOM      8  C   UNL     1      40.232  21.959  25.950  1.00  0.00    -0.070 CG0
ATOM      9  C   UNL     1      40.298  22.327  27.413  1.00  0.00     0.039 C 
ATOM     10  G   UNL     1      38.888  22.111  25.245  1.00  0.00     0.000 G0
ENDBRANCH   6   7
ENDBRANCH   5   6
ENDBRANCH   3   5
ENDBRANCH   1   3
BRANCH   1  11
ATOM     11  C   UNL     1      39.790  24.305  22.204  1.00  0.00     0.087 C 
BRANCH  11  12
ATOM     12  C   UNL     1      38.891  23.210  22.853  1.00  0.00     0.066 C 
BRANCH  12  13
ATOM     13  C   UNL     1      38.749  23.351  24.368  1.00  0.00     0.140 C 
ATOM     14  O   UNL     1      38.382  24.402  24.872  1.00  0.00    -0.299 OA
BRANCH  13  15
ATOM     15  C   UNL     1      38.896  22.134  25.246  1.00  0.00     0.106 CG0
ATOM     16  G   UNL     1      40.247  21.966  25.934  1.00  0.00     0.000 G0
ENDBRANCH  13  15
ENDBRANCH  12  13
BRANCH  12  17
ATOM     17  C   UNL     1      37.565  22.949  22.063  1.00  0.00    -0.006 C 
ATOM     18  C   UNL     1      37.278  21.467  21.771  1.00  0.00     0.008 C 
ATOM     19  C   UNL     1      37.484  23.784  20.771  1.00  0.00     0.008 C 
ENDBRANCH  12  17
ENDBRANCH  11  12
ENDBRANCH   1  11
TORSDOF 1
ENDMDL
MODEL 6
REMARK VINA RESULT:    -3.748      1.496      1.862
REMARK INTER + INTRA:          -5.690
REMARK INTER:                  -5.238
REMARK INTRA:                  -0.452
REMARK UNBOUND:                 0.030
REMARK SMILES CC1=CCC[C@H](C)C(=O)C[C@H](C(C)C)C(=O)C1
REMARK SMILES IDX 8 1 9 2 6 3 7 4 5 5 4 6 3 7 2 8 1 9 10 11 11 12 15 13 16 14
REMARK SMILES IDX 17 15 12 17 13 18 14 19
REMARK H PARENT
REMARK Flexibility Score: 70.00
ROOT
ATOM      1  C   UNL     1      50.328  25.038  20.837  1.00  0.00     0.136 C 
ATOM      2  O   UNL     1      50.519  25.024  22.044  1.00  0.00    -0.299 OA
ENDROOT
BRANCH   1   3
ATOM      3  C   UNL     1      49.018  25.584  20.300  1.00  0.00     0.053 C 
ATOM      4  C   UNL     1      47.897  25.292  21.303  1.00  0.00     0.016 C 
BRANCH   3   5
ATOM      5  C   UNL     1      49.090  27.097  20.007  1.00  0.00     0.015 C 
BRANCH   5   6
ATOM      6  C   UNL     1      50.512  27.645  19.792  1.00  0.00     0.028 C 
BRANCH   6   7
ATOM      7  C   UNL     1      50.818  28.022  18.360  1.00  0.00    -0.028 C 
ATOM      8  C   UNL     1      51.671  27.413  17.495  1.00  0.00    -0.070 CG0
ATOM      9  C   UNL     1      51.865  28.082  16.155  1.00  0.00     0.039 C 
ATOM     10  G   UNL     1      52.367  26.074  17.720  1.00  0.00     0.000 G0
ENDBRANCH   6   7
ENDBRANCH   5   6
ENDBRANCH   3   5
ENDBRANCH   1   3
BRANCH   1  11
ATOM     11  C   UNL     1      51.350  24.413  19.913  1.00  0.00     0.087 C 
BRANCH  11  12
ATOM     12  C   UNL     1      50.850  24.079  18.475  1.00  0.00     0.066 C 
BRANCH  12  13
ATOM     13  C   UNL     1      51.594  24.835  17.375  1.00  0.00     0.140 C 
ATOM     14  O   UNL     1      51.448  24.539  16.198  1.00  0.00    -0.299 OA
BRANCH  13  15
ATOM     15  C   UNL     1      52.385  26.069  17.723  1.00  0.00     0.106 CG0
ATOM     16  G   UNL     1      51.677  27.402  17.501  1.00  0.00     0.000 G0
ENDBRANCH  13  15
ENDBRANCH  12  13
BRANCH  12  17
ATOM     17  C   UNL     1      50.642  22.546  18.232  1.00  0.00    -0.006 C 
ATOM     18  C   UNL     1      49.428  21.945  18.959  1.00  0.00     0.008 C 
ATOM     19  C   UNL     1      51.914  21.732  18.531  1.00  0.00     0.008 C 
ENDBRANCH  12  17
ENDBRANCH  11  12
ENDBRANCH   1  11
TORSDOF 1
ENDMDL
MODEL 7
REMARK VINA RESULT:    -3.722      9.432     11.554
REMARK INTER + INTRA:          -5.650
REMARK INTER:                  -5.187
REMARK INTRA:                  -0.462
REMARK UNBOUND:                 0.030
REMARK SMILES CC1=CCC[C@H](C)C(=O)C[C@H](C(C)C)C(=O)C1
REMARK SMILES IDX 8 1 9 2 6 3 7 4 5 5 4 6 3 7 2 8 1 9 10 11 11 12 15 13 16 14
REMARK SMILES IDX 17 15 12 17 13 18 14 19
REMARK H PARENT
REMARK Flexibility Score: 70.00
ROOT
ATOM      1  C   UNL     1      41.788  21.140  22.780  1.00  0.00     0.136 C 
ATOM      2  O   UNL     1      41.244  20.409  21.966  1.00  0.00    -0.299 OA
ENDROOT
BRANCH   1   3
ATOM      3  C   UNL     1      42.944  22.016  22.333  1.00  0.00     0.053 C 
ATOM      4  C   UNL     1      44.138  21.131  21.962  1.00  0.00     0.016 C 
BRANCH   3   5
ATOM      5  C   UNL     1      42.565  22.925  21.146  1.00  0.00     0.015 C 
BRANCH   5   6
ATOM      6  C   UNL     1      41.872  24.242  21.538  1.00  0.00     0.028 C 
BRANCH   6   7
ATOM      7  C   UNL     1      40.407  24.301  21.168  1.00  0.00    -0.028 C 
ATOM      8  C   UNL     1      39.328  24.189  21.988  1.00  0.00    -0.070 CG0
ATOM      9  C   UNL     1      37.973  24.171  21.321  1.00  0.00     0.039 C 
ATOM     10  G   UNL     1      39.363  24.181  23.512  1.00  0.00     0.000 G0
ENDBRANCH   6   7
ENDBRANCH   5   6
ENDBRANCH   3   5
ENDBRANCH   1   3
BRANCH   1  11
ATOM     11  C   UNL     1      41.373  21.079  24.234  1.00  0.00     0.087 C 
BRANCH  11  12
ATOM     12  C   UNL     1      40.786  22.394  24.829  1.00  0.00     0.066 C 
BRANCH  12  13
ATOM     13  C   UNL     1      39.467  22.824  24.188  1.00  0.00     0.140 C 
ATOM     14  O   UNL     1      38.455  22.152  24.317  1.00  0.00    -0.299 OA
BRANCH  13  15
ATOM     15  C   UNL     1      39.365  24.176  23.531  1.00  0.00     0.106 CG0
ATOM     16  G   UNL     1      39.316  24.177  22.006  1.00  0.00     0.000 G0
ENDBRANCH  13  15
ENDBRANCH  12  13
BRANCH  12  17
ATOM     17  C   UNL     1      40.834  22.442  26.393  1.00  0.00    -0.006 C 
ATOM     18  C   UNL     1      40.158  21.248  27.089  1.00  0.00     0.008 C 
ATOM     19  C   UNL     1      40.297  23.772  26.952  1.00  0.00     0.008 C 
ENDBRANCH  12  17
ENDBRANCH  11  12
ENDBRANCH   1  11
TORSDOF 1
ENDMDL
MODEL 8
REMARK VINA RESULT:    -3.586      1.987      4.433
REMARK INTER + INTRA:          -5.442
REMARK INTER:                  -4.889
REMARK INTRA:                  -0.554
REMARK UNBOUND:                 0.030
REMARK SMILES CC1=CCC[C@H](C)C(=O)C[C@H](C(C)C)C(=O)C1
REMARK SMILES IDX 8 1 9 2 6 3 7 4 5 5 4 6 3 7 2 8 1 9 10 11 11 12 15 13 16 14
REMARK SMILES IDX 17 15 12 17 13 18 14 19
REMARK H PARENT
REMARK Flexibility Score: 70.00
ROOT
ATOM      1  C   UNL     1      49.349  25.421  20.062  1.00  0.00     0.136 C 
ATOM      2  O   UNL     1      48.261  25.176  20.561  1.00  0.00    -0.299 OA
ENDROOT
BRANCH   1   3
ATOM      3  C   UNL     1      50.412  24.338  20.032  1.00  0.00     0.053 C 
ATOM      4  C   UNL     1      50.462  23.637  21.394  1.00  0.00     0.016 C 
BRANCH   3   5
ATOM      5  C   UNL     1      50.166  23.307  18.911  1.00  0.00     0.015 C 
BRANCH   5   6
ATOM      6  C   UNL     1      50.108  23.900  17.492  1.00  0.00     0.028 C 
BRANCH   6   7
ATOM      7  C   UNL     1      51.456  24.301  16.935  1.00  0.00    -0.028 C 
ATOM      8  C   UNL     1      51.924  25.553  16.688  1.00  0.00    -0.070 CG0
ATOM      9  C   UNL     1      53.274  25.648  16.018  1.00  0.00     0.039 C 
ATOM     10  G   UNL     1      51.256  26.856  17.115  1.00  0.00     0.000 G0
ENDBRANCH   6   7
ENDBRANCH   5   6
ENDBRANCH   3   5
ENDBRANCH   1   3
BRANCH   1  11
ATOM     11  C   UNL     1      49.652  26.825  19.584  1.00  0.00     0.087 C 
BRANCH  11  12
ATOM     12  C   UNL     1      51.139  27.276  19.703  1.00  0.00     0.066 C 
BRANCH  12  13
ATOM     13  C   UNL     1      51.817  27.521  18.356  1.00  0.00     0.140 C 
ATOM     14  O   UNL     1      52.880  28.120  18.285  1.00  0.00    -0.299 OA
BRANCH  13  15
ATOM     15  C   UNL     1      51.263  26.872  17.114  1.00  0.00     0.106 CG0
ATOM     16  G   UNL     1      51.923  25.562  16.693  1.00  0.00     0.000 G0
ENDBRANCH  13  15
ENDBRANCH  12  13
BRANCH  12  17
ATOM     17  C   UNL     1      51.366  28.377  20.794  1.00  0.00    -0.006 C 
ATOM     18  C   UNL     1      51.194  27.885  22.241  1.00  0.00     0.008 C 
ATOM     19  C   UNL     1      50.513  29.633  20.540  1.00  0.00     0.008 C 
ENDBRANCH  12  17
ENDBRANCH  11  12
ENDBRANCH   1  11
TORSDOF 1
ENDMDL
MODEL 9
REMARK VINA RESULT:    -3.573      2.332      4.800
REMARK INTER + INTRA:          -5.422
REMARK INTER:                  -4.973
REMARK INTRA:                  -0.449
REMARK UNBOUND:                 0.030
REMARK SMILES CC1=CCC[C@H](C)C(=O)C[C@H](C(C)C)C(=O)C1
REMARK SMILES IDX 8 1 9 2 6 3 7 4 5 5 4 6 3 7 2 8 1 9 10 11 11 12 15 13 16 14
REMARK SMILES IDX 17 15 12 17 13 18 14 19
REMARK H PARENT
REMARK Flexibility Score: 70.00
ROOT
ATOM      1  C   UNL     1      51.303  24.752  19.858  1.00  0.00     0.136 C 
ATOM      2  O   UNL     1      51.344  24.257  20.975  1.00  0.00    -0.299 OA
ENDROOT
BRANCH   1   3
ATOM      3  C   UNL     1      51.446  23.853  18.643  1.00  0.00     0.053 C 
ATOM      4  C   UNL     1      50.660  22.558  18.874  1.00  0.00     0.016 C 
BRANCH   3   5
ATOM      5  C   UNL     1      50.970  24.542  17.347  1.00  0.00     0.015 C 
BRANCH   5   6
ATOM      6  C   UNL     1      52.099  24.977  16.397  1.00  0.00     0.028 C 
BRANCH   6   7
ATOM      7  C   UNL     1      52.014  26.422  15.959  1.00  0.00    -0.028 C 
ATOM      8  C   UNL     1      52.531  27.518  16.574  1.00  0.00    -0.070 CG0
ATOM      9  C   UNL     1      52.188  28.858  15.965  1.00  0.00     0.039 C 
ATOM     10  G   UNL     1      53.497  27.508  17.754  1.00  0.00     0.000 G0
ENDBRANCH   6   7
ENDBRANCH   5   6
ENDBRANCH   3   5
ENDBRANCH   1   3
BRANCH   1  11
ATOM     11  C   UNL     1      51.221  26.256  19.711  1.00  0.00     0.087 C 
BRANCH  11  12
ATOM     12  C   UNL     1      52.497  27.049  20.125  1.00  0.00     0.066 C 
BRANCH  12  13
ATOM     13  C   UNL     1      52.980  28.035  19.062  1.00  0.00     0.140 C 
ATOM     14  O   UNL     1      53.079  29.228  19.307  1.00  0.00    -0.299 OA
BRANCH  13  15
ATOM     15  C   UNL     1      53.504  27.515  17.747  1.00  0.00     0.106 CG0
ATOM     16  G   UNL     1      52.515  27.519  16.586  1.00  0.00     0.000 G0
ENDBRANCH  13  15
ENDBRANCH  12  13
BRANCH  12  17
ATOM     17  C   UNL     1      52.438  27.597  21.590  1.00  0.00    -0.006 C 
ATOM     18  C   UNL     1      53.236  26.772  22.613  1.00  0.00     0.008 C 
ATOM     19  C   UNL     1      50.991  27.810  22.073  1.00  0.00     0.008 C 
ENDBRANCH  12  17
ENDBRANCH  11  12
ENDBRANCH   1  11
TORSDOF 1
ENDMDL
