MODEL 1
REMARK VINA RESULT:    -4.870      0.000      0.000
REMARK INTER + INTRA:          -5.644
REMARK INTER:                  -5.440
REMARK INTRA:                  -0.204
REMARK UNBOUND:                -0.204
REMARK SMILES CC(C)c1ccc(C(=O)[O-])cc1
REMARK SMILES IDX 7 1 6 2 11 3 5 4 12 5 4 6 8 7 9 8 10 9 2 10 1 11 3 12
REMARK H PARENT
REMARK Flexibility Score: inf
ROOT
ATOM      1  C   UNL     1      29.513  58.806 -11.755  1.00  0.00    -0.003 A 
ATOM      2  C   UNL     1      30.756  59.125 -11.182  1.00  0.00     0.010 A 
ATOM      3  C   UNL     1      29.481  58.009 -12.911  1.00  0.00     0.010 A 
ATOM      4  C   UNL     1      31.942  58.656 -11.754  1.00  0.00     0.004 A 
ATOM      5  C   UNL     1      30.667  57.540 -13.483  1.00  0.00     0.004 A 
ATOM      6  C   UNL     1      31.911  57.860 -12.911  1.00  0.00    -0.045 A 
ENDROOT
BRANCH   1   7
ATOM      7  C   UNL     1      28.254  59.299 -11.152  1.00  0.00     0.071 C 
ATOM      8  O   UNL     1      28.052  60.535 -11.013  1.00  0.00    -0.545 OA
ATOM      9  O   UNL     1      27.278  58.405 -10.730  1.00  0.00    -0.545 OA
ENDBRANCH   1   7
BRANCH   6  10
ATOM     10  C   UNL     1      33.207  57.358 -13.522  1.00  0.00     0.013 C 
ATOM     11  C   UNL     1      34.089  56.680 -12.468  1.00  0.00     0.012 C 
ATOM     12  C   UNL     1      33.961  58.493 -14.226  1.00  0.00     0.012 C 
ENDBRANCH   6  10
TORSDOF 2
ENDMDL
MODEL 2
REMARK VINA RESULT:    -4.865      0.067      1.399
REMARK INTER + INTRA:          -5.638
REMARK INTER:                  -5.436
REMARK INTRA:                  -0.202
REMARK UNBOUND:                -0.204
REMARK SMILES CC(C)c1ccc(C(=O)[O-])cc1
REMARK SMILES IDX 7 1 6 2 11 3 5 4 12 5 4 6 8 7 9 8 10 9 2 10 1 11 3 12
REMARK H PARENT
REMARK Flexibility Score: inf
ROOT
ATOM      1  C   UNL     1      29.539  58.852 -11.739  1.00  0.00    -0.003 A 
ATOM      2  C   UNL     1      29.510  58.017 -12.869  1.00  0.00     0.010 A 
ATOM      3  C   UNL     1      30.780  59.201 -11.183  1.00  0.00     0.010 A 
ATOM      4  C   UNL     1      30.697  57.543 -13.432  1.00  0.00     0.004 A 
ATOM      5  C   UNL     1      31.968  58.726 -11.746  1.00  0.00     0.004 A 
ATOM      6  C   UNL     1      31.940  57.891 -12.876  1.00  0.00    -0.045 A 
ENDROOT
BRANCH   1   7
ATOM      7  C   UNL     1      28.283  59.357 -11.140  1.00  0.00     0.071 C 
ATOM      8  O   UNL     1      28.119  60.590 -10.940  1.00  0.00    -0.545 OA
ATOM      9  O   UNL     1      27.267  58.476 -10.786  1.00  0.00    -0.545 OA
ENDBRANCH   1   7
BRANCH   6  10
ATOM     10  C   UNL     1      33.223  57.368 -13.497  1.00  0.00     0.013 C 
ATOM     11  C   UNL     1      34.092  56.659 -12.454  1.00  0.00     0.012 C 
ATOM     12  C   UNL     1      33.999  58.494 -14.191  1.00  0.00     0.012 C 
ENDBRANCH   6  10
TORSDOF 2
ENDMDL
MODEL 3
REMARK VINA RESULT:    -4.664      2.966      4.969
REMARK INTER + INTRA:          -5.413
REMARK INTER:                  -5.210
REMARK INTRA:                  -0.202
REMARK UNBOUND:                -0.204
REMARK SMILES CC(C)c1ccc(C(=O)[O-])cc1
REMARK SMILES IDX 7 1 6 2 11 3 5 4 12 5 4 6 8 7 9 8 10 9 2 10 1 11 3 12
REMARK H PARENT
REMARK Flexibility Score: inf
ROOT
ATOM      1  C   UNL     1      31.958  58.355 -12.822  1.00  0.00    -0.003 A 
ATOM      2  C   UNL     1      32.085  58.936 -11.549  1.00  0.00     0.010 A 
ATOM      3  C   UNL     1      30.673  58.103 -13.330  1.00  0.00     0.010 A 
ATOM      4  C   UNL     1      30.950  59.259 -10.800  1.00  0.00     0.004 A 
ATOM      5  C   UNL     1      29.538  58.426 -12.581  1.00  0.00     0.004 A 
ATOM      6  C   UNL     1      29.664  59.007 -11.306  1.00  0.00    -0.045 A 
ENDROOT
BRANCH   1   7
ATOM      7  C   UNL     1      33.157  58.011 -13.619  1.00  0.00     0.071 C 
ATOM      8  O   UNL     1      33.688  58.865 -14.378  1.00  0.00    -0.545 OA
ATOM      9  O   UNL     1      33.713  56.740 -13.542  1.00  0.00    -0.545 OA
ENDBRANCH   1   7
BRANCH   6  10
ATOM     10  C   UNL     1      28.440  59.363 -10.482  1.00  0.00     0.013 C 
ATOM     11  C   UNL     1      27.246  58.479 -10.857  1.00  0.00     0.012 C 
ATOM     12  C   UNL     1      28.093  60.850 -10.623  1.00  0.00     0.012 C 
ENDBRANCH   6  10
TORSDOF 2
ENDMDL
MODEL 4
REMARK VINA RESULT:    -4.647      2.876      5.106
REMARK INTER + INTRA:          -5.394
REMARK INTER:                  -5.188
REMARK INTRA:                  -0.206
REMARK UNBOUND:                -0.204
REMARK SMILES CC(C)c1ccc(C(=O)[O-])cc1
REMARK SMILES IDX 7 1 6 2 11 3 5 4 12 5 4 6 8 7 9 8 10 9 2 10 1 11 3 12
REMARK H PARENT
REMARK Flexibility Score: inf
ROOT
ATOM      1  C   UNL     1      31.671  58.091 -12.500  1.00  0.00    -0.003 A 
ATOM      2  C   UNL     1      31.612  58.884 -11.341  1.00  0.00     0.010 A 
ATOM      3  C   UNL     1      30.481  57.791 -13.181  1.00  0.00     0.010 A 
ATOM      4  C   UNL     1      30.387  59.367 -10.875  1.00  0.00     0.004 A 
ATOM      5  C   UNL     1      29.255  58.275 -12.714  1.00  0.00     0.004 A 
ATOM      6  C   UNL     1      29.194  59.068 -11.554  1.00  0.00    -0.045 A 
ENDROOT
BRANCH   1   7
ATOM      7  C   UNL     1      32.967  57.577 -12.998  1.00  0.00     0.071 C 
ATOM      8  O   UNL     1      33.554  56.635 -12.403  1.00  0.00    -0.545 OA
ATOM      9  O   UNL     1      33.555  58.128 -14.130  1.00  0.00    -0.545 OA
ENDBRANCH   1   7
BRANCH   6  10
ATOM     10  C   UNL     1      27.870  59.599 -11.036  1.00  0.00     0.013 C 
ATOM     11  C   UNL     1      28.087  60.726 -10.021  1.00  0.00     0.012 C 
ATOM     12  C   UNL     1      27.020  58.472 -10.437  1.00  0.00     0.012 C 
ENDBRANCH   6  10
TORSDOF 2
ENDMDL
MODEL 5
REMARK VINA RESULT:    -4.581     17.976     18.735
REMARK INTER + INTRA:          -5.320
REMARK INTER:                  -5.110
REMARK INTRA:                  -0.211
REMARK UNBOUND:                -0.204
REMARK SMILES CC(C)c1ccc(C(=O)[O-])cc1
REMARK SMILES IDX 7 1 6 2 11 3 5 4 12 5 4 6 8 7 9 8 10 9 2 10 1 11 3 12
REMARK H PARENT
REMARK Flexibility Score: inf
ROOT
ATOM      1  C   UNL     1      28.187  45.306  -0.283  1.00  0.00    -0.003 A 
ATOM      2  C   UNL     1      28.843  44.128  -0.677  1.00  0.00     0.010 A 
ATOM      3  C   UNL     1      28.660  46.005   0.839  1.00  0.00     0.010 A 
ATOM      4  C   UNL     1      29.948  43.658   0.037  1.00  0.00     0.004 A 
ATOM      5  C   UNL     1      29.766  45.536   1.554  1.00  0.00     0.004 A 
ATOM      6  C   UNL     1      30.422  44.356   1.160  1.00  0.00    -0.045 A 
ENDROOT
BRANCH   1   7
ATOM      7  C   UNL     1      27.015  45.808  -1.036  1.00  0.00     0.071 C 
ATOM      8  O   UNL     1      25.882  45.277  -0.886  1.00  0.00    -0.545 OA
ATOM      9  O   UNL     1      27.149  46.870  -1.921  1.00  0.00    -0.545 OA
ENDBRANCH   1   7
BRANCH   6  10
ATOM     10  C   UNL     1      31.624  43.834   1.927  1.00  0.00     0.013 C 
ATOM     11  C   UNL     1      32.046  44.815   3.026  1.00  0.00     0.012 C 
ATOM     12  C   UNL     1      32.792  43.529   0.981  1.00  0.00     0.012 C 
ENDBRANCH   6  10
TORSDOF 2
ENDMDL
MODEL 6
REMARK VINA RESULT:    -4.552     18.008     18.758
REMARK INTER + INTRA:          -5.288
REMARK INTER:                  -5.076
REMARK INTRA:                  -0.212
REMARK UNBOUND:                -0.204
REMARK SMILES CC(C)c1ccc(C(=O)[O-])cc1
REMARK SMILES IDX 7 1 6 2 11 3 5 4 12 5 4 6 8 7 9 8 10 9 2 10 1 11 3 12
REMARK H PARENT
REMARK Flexibility Score: inf
ROOT
ATOM      1  C   UNL     1      28.374  45.304  -0.069  1.00  0.00    -0.003 A 
ATOM      2  C   UNL     1      28.965  45.916   1.049  1.00  0.00     0.010 A 
ATOM      3  C   UNL     1      28.968  44.151  -0.607  1.00  0.00     0.010 A 
ATOM      4  C   UNL     1      30.126  45.386   1.617  1.00  0.00     0.004 A 
ATOM      5  C   UNL     1      30.130  43.621  -0.039  1.00  0.00     0.004 A 
ATOM      6  C   UNL     1      30.723  44.234   1.079  1.00  0.00    -0.045 A 
ENDROOT
BRANCH   1   7
ATOM      7  C   UNL     1      27.143  45.861  -0.675  1.00  0.00     0.071 C 
ATOM      8  O   UNL     1      26.170  45.112  -0.953  1.00  0.00    -0.545 OA
ATOM      9  O   UNL     1      27.046  47.221  -0.946  1.00  0.00    -0.545 OA
ENDBRANCH   1   7
BRANCH   6  10
ATOM     10  C   UNL     1      31.984  43.669   1.706  1.00  0.00     0.013 C 
ATOM     11  C   UNL     1      33.117  44.701   1.693  1.00  0.00     0.012 C 
ATOM     12  C   UNL     1      32.412  42.370   1.012  1.00  0.00     0.012 C 
ENDBRANCH   6  10
TORSDOF 2
ENDMDL
MODEL 7
REMARK VINA RESULT:    -4.383     23.472     24.492
REMARK INTER + INTRA:          -5.099
REMARK INTER:                  -4.888
REMARK INTRA:                  -0.211
REMARK UNBOUND:                -0.204
REMARK SMILES CC(C)c1ccc(C(=O)[O-])cc1
REMARK SMILES IDX 7 1 6 2 11 3 5 4 12 5 4 6 8 7 9 8 10 9 2 10 1 11 3 12
REMARK H PARENT
REMARK Flexibility Score: inf
ROOT
ATOM      1  C   UNL     1      18.660  42.708   0.661  1.00  0.00    -0.003 A 
ATOM      2  C   UNL     1      18.344  43.095   1.974  1.00  0.00     0.010 A 
ATOM      3  C   UNL     1      17.781  43.050  -0.380  1.00  0.00     0.010 A 
ATOM      4  C   UNL     1      17.172  43.808   2.241  1.00  0.00     0.004 A 
ATOM      5  C   UNL     1      16.609  43.763  -0.113  1.00  0.00     0.004 A 
ATOM      6  C   UNL     1      16.291  44.150   1.201  1.00  0.00    -0.045 A 
ENDROOT
BRANCH   1   7
ATOM      7  C   UNL     1      19.901  41.953   0.374  1.00  0.00     0.071 C 
ATOM      8  O   UNL     1      20.816  41.872   1.236  1.00  0.00    -0.545 OA
ATOM      9  O   UNL     1      20.073  41.323  -0.853  1.00  0.00    -0.545 OA
ENDBRANCH   1   7
BRANCH   6  10
ATOM     10  C   UNL     1      15.022  44.924   1.505  1.00  0.00     0.013 C 
ATOM     11  C   UNL     1      13.912  43.992   2.003  1.00  0.00     0.012 C 
ATOM     12  C   UNL     1      14.561  45.730   0.284  1.00  0.00     0.012 C 
ENDBRANCH   6  10
TORSDOF 2
ENDMDL
MODEL 8
REMARK VINA RESULT:    -4.329     22.281     23.327
REMARK INTER + INTRA:          -5.040
REMARK INTER:                  -4.838
REMARK INTRA:                  -0.202
REMARK UNBOUND:                -0.204
REMARK SMILES CC(C)c1ccc(C(=O)[O-])cc1
REMARK SMILES IDX 7 1 6 2 11 3 5 4 12 5 4 6 8 7 9 8 10 9 2 10 1 11 3 12
REMARK H PARENT
REMARK Flexibility Score: inf
ROOT
ATOM      1  C   UNL     1      15.867  44.931  -1.022  1.00  0.00    -0.003 A 
ATOM      2  C   UNL     1      17.153  45.321  -0.609  1.00  0.00     0.010 A 
ATOM      3  C   UNL     1      15.480  43.590  -0.866  1.00  0.00     0.010 A 
ATOM      4  C   UNL     1      18.032  44.389  -0.051  1.00  0.00     0.004 A 
ATOM      5  C   UNL     1      16.360  42.658  -0.308  1.00  0.00     0.004 A 
ATOM      6  C   UNL     1      17.646  43.047   0.105  1.00  0.00    -0.045 A 
ENDROOT
BRANCH   1   7
ATOM      7  C   UNL     1      14.933  45.915  -1.614  1.00  0.00     0.071 C 
ATOM      8  O   UNL     1      14.111  46.535  -0.887  1.00  0.00    -0.545 OA
ATOM      9  O   UNL     1      14.947  46.167  -2.980  1.00  0.00    -0.545 OA
ENDBRANCH   1   7
BRANCH   6  10
ATOM     10  C   UNL     1      18.611  42.045   0.712  1.00  0.00     0.013 C 
ATOM     11  C   UNL     1      18.880  42.362   2.187  1.00  0.00     0.012 C 
ATOM     12  C   UNL     1      19.918  41.983  -0.087  1.00  0.00     0.012 C 
ENDBRANCH   6  10
TORSDOF 2
ENDMDL
