MODEL 1
REMARK VINA RESULT:    -4.980      0.000      0.000
REMARK INTER + INTRA:          -8.896
REMARK INTER:                  -7.309
REMARK INTRA:                  -1.587
REMARK UNBOUND:                -1.587
REMARK SMILES Cc1cc2c(C(C)C)c(O)c(O)c(C=O)c2c(O)c1-c1c(C)cc2c(C(C)C)c(O)c(O)c(C=O)c2c1O
REMARK SMILES IDX 1 1 2 2 3 3 4 4 16 5 13 6 11 7 9 8 5 9 17 10 19 11 20 12
REMARK SMILES IDX 37 13 21 14 36 15 23 16 22 17 24 18 33 19 25 20 31 21 29 22
REMARK SMILES IDX 38 23 34 25 35 26 26 27 27 28 28 29 32 30 30 32 18 34 6 36
REMARK SMILES IDX 7 37 8 38 14 39 15 40 10 41 12 43
REMARK H PARENT 38 24 32 31 30 33 18 35 10 42 12 44
REMARK Flexibility Score: inf
ROOT
ATOM      1  C   UNL     1    -111.294  10.101  -0.776  1.00  0.00     0.045 C 
ATOM      2  C   UNL     1    -111.974   9.371   0.359  1.00  0.00    -0.039 A 
ATOM      3  C   UNL     1    -112.918   8.389   0.056  1.00  0.00     0.013 A 
ATOM      4  C   UNL     1    -113.619   7.688   1.065  1.00  0.00    -0.006 A 
ATOM      5  C   UNL     1    -113.404   8.077   2.415  1.00  0.00     0.039 A 
ATOM      6  C   UNL     1    -114.266   7.589   3.430  1.00  0.00     0.072 A 
ATOM      7  C   UNL     1    -115.166   6.549   3.138  1.00  0.00     0.169 A 
ATOM      8  C   UNL     1    -115.205   5.985   1.847  1.00  0.00     0.162 A 
ATOM      9  C   UNL     1    -114.495   6.592   0.769  1.00  0.00     0.008 A 
ATOM     10  C   UNL     1    -112.291   8.909   2.721  1.00  0.00     0.132 A 
ATOM     11  C   UNL     1    -111.582   9.556   1.692  1.00  0.00     0.031 A 
ENDROOT
BRANCH  11  12
ATOM     12  C   UNL     1    -110.368  10.349   2.021  1.00  0.00     0.031 A 
ATOM     13  C   UNL     1    -109.118   9.706   2.134  1.00  0.00     0.132 A 
ATOM     14  C   UNL     1    -110.476  11.724   2.296  1.00  0.00    -0.039 A 
ATOM     15  C   UNL     1    -107.975  10.421   2.605  1.00  0.00     0.039 A 
ATOM     16  C   UNL     1    -109.339  12.439   2.680  1.00  0.00     0.013 A 
ATOM     17  C   UNL     1    -111.801  12.439   2.188  1.00  0.00     0.045 C 
ATOM     18  C   UNL     1    -108.070  11.834   2.783  1.00  0.00    -0.006 A 
ATOM     19  C   UNL     1    -106.725   9.776   2.870  1.00  0.00     0.072 A 
ATOM     20  C   UNL     1    -106.900  12.608   3.068  1.00  0.00     0.008 A 
ATOM     21  C   UNL     1    -105.599  10.543   3.213  1.00  0.00     0.169 A 
ATOM     22  C   UNL     1    -105.682  11.936   3.301  1.00  0.00     0.162 A 
BRANCH  13  23
ATOM     23  O   UNL     1    -108.997   8.366   1.755  1.00  0.00    -0.507 OA
ATOM     24  H   UNL     1    -108.200   7.776   1.974  1.00  0.00     0.293 HD
ENDBRANCH  13  23
BRANCH  19  25
ATOM     25  C   UNL     1    -106.556   8.307   2.833  1.00  0.00     0.264 C 
ATOM     26  O   UNL     1    -105.978   7.737   1.862  1.00  0.00    -0.298 OA
ENDBRANCH  19  25
BRANCH  20  27
ATOM     27  C   UNL     1    -106.868  14.151   3.089  1.00  0.00     0.017 C 
ATOM     28  C   UNL     1    -107.099  14.806   1.712  1.00  0.00     0.012 C 
ATOM     29  C   UNL     1    -107.747  14.746   4.198  1.00  0.00     0.012 C 
ENDBRANCH  20  27
BRANCH  21  30
ATOM     30  O   UNL     1    -104.371   9.940   3.493  1.00  0.00    -0.504 OA
ATOM     31  H   UNL     1    -104.135   9.514   4.381  1.00  0.00     0.293 HD
ENDBRANCH  21  30
BRANCH  22  32
ATOM     32  O   UNL     1    -104.534  12.664   3.643  1.00  0.00    -0.504 OA
ATOM     33  H   UNL     1    -103.914  13.077   2.955  1.00  0.00     0.293 HD
ENDBRANCH  22  32
ENDBRANCH  11  12
BRANCH  10  34
ATOM     34  O   UNL     1    -111.863   9.025   4.047  1.00  0.00    -0.507 OA
ATOM     35  H   UNL     1    -111.325   8.313   4.520  1.00  0.00     0.293 HD
ENDBRANCH  10  34
BRANCH   9  36
ATOM     36  C   UNL     1    -114.513   5.966  -0.648  1.00  0.00     0.017 C 
ATOM     37  C   UNL     1    -113.384   4.936  -0.778  1.00  0.00     0.012 C 
ATOM     38  C   UNL     1    -115.841   5.344  -1.116  1.00  0.00     0.012 C 
ENDBRANCH   9  36
BRANCH   6  39
ATOM     39  C   UNL     1    -114.325   8.242   4.769  1.00  0.00     0.264 C 
ATOM     40  O   UNL     1    -113.911   7.653   5.803  1.00  0.00    -0.298 OA
ENDBRANCH   6  39
BRANCH   8  41
ATOM     41  O   UNL     1    -115.931   4.813   1.620  1.00  0.00    -0.504 OA
ATOM     42  H   UNL     1    -116.190   4.137   2.330  1.00  0.00     0.293 HD
ENDBRANCH   8  41
BRANCH   7  43
ATOM     43  O   UNL     1    -116.015   6.105   4.163  1.00  0.00    -0.504 OA
ATOM     44  H   UNL     1    -115.746   5.508   4.931  1.00  0.00     0.293 HD
ENDBRANCH   7  43
TORSDOF 11
ENDMDL
MODEL 2
REMARK VINA RESULT:    -4.599      0.915      8.949
REMARK INTER + INTRA:          -8.336
REMARK INTER:                  -7.085
REMARK INTRA:                  -1.252
REMARK UNBOUND:                -1.587
REMARK SMILES Cc1cc2c(C(C)C)c(O)c(O)c(C=O)c2c(O)c1-c1c(C)cc2c(C(C)C)c(O)c(O)c(C=O)c2c1O
REMARK SMILES IDX 1 1 2 2 3 3 4 4 16 5 13 6 11 7 9 8 5 9 17 10 19 11 20 12
REMARK SMILES IDX 37 13 21 14 36 15 23 16 22 17 24 18 33 19 25 20 31 21 29 22
REMARK SMILES IDX 38 23 34 25 35 26 26 27 27 28 28 29 32 30 30 32 18 34 6 36
REMARK SMILES IDX 7 37 8 38 14 39 15 40 10 41 12 43
REMARK H PARENT 38 24 32 31 30 33 18 35 10 42 12 44
REMARK Flexibility Score: inf
ROOT
ATOM      1  C   UNL     1    -111.140  12.104   0.327  1.00  0.00     0.045 C 
ATOM      2  C   UNL     1    -109.948  11.586   1.096  1.00  0.00    -0.039 A 
ATOM      3  C   UNL     1    -108.994  12.497   1.552  1.00  0.00     0.013 A 
ATOM      4  C   UNL     1    -107.836  12.081   2.251  1.00  0.00    -0.006 A 
ATOM      5  C   UNL     1    -107.616  10.685   2.399  1.00  0.00     0.039 A 
ATOM      6  C   UNL     1    -106.356  10.220   2.856  1.00  0.00     0.072 A 
ATOM      7  C   UNL     1    -105.425  11.133   3.382  1.00  0.00     0.169 A 
ATOM      8  C   UNL     1    -105.746  12.504   3.466  1.00  0.00     0.162 A 
ATOM      9  C   UNL     1    -106.917  13.015   2.833  1.00  0.00     0.008 A 
ATOM     10  C   UNL     1    -108.688   9.788   2.135  1.00  0.00     0.132 A 
ATOM     11  C   UNL     1    -109.850  10.241   1.481  1.00  0.00     0.031 A 
ENDROOT
BRANCH  11  12
ATOM     12  C   UNL     1    -110.996   9.313   1.292  1.00  0.00     0.031 A 
ATOM     13  C   UNL     1    -111.903   9.095   2.350  1.00  0.00     0.132 A 
ATOM     14  C   UNL     1    -111.134   8.596   0.091  1.00  0.00    -0.039 A 
ATOM     15  C   UNL     1    -112.913   8.090   2.242  1.00  0.00     0.039 A 
ATOM     16  C   UNL     1    -112.172   7.671  -0.041  1.00  0.00     0.013 A 
ATOM     17  C   UNL     1    -110.176   8.807  -1.057  1.00  0.00     0.045 C 
ATOM     18  C   UNL     1    -113.110   7.441   0.986  1.00  0.00    -0.006 A 
ATOM     19  C   UNL     1    -113.761   7.737   3.340  1.00  0.00     0.072 A 
ATOM     20  C   UNL     1    -114.230   6.572   0.788  1.00  0.00     0.008 A 
ATOM     21  C   UNL     1    -114.818   6.832   3.147  1.00  0.00     0.169 A 
ATOM     22  C   UNL     1    -115.055   6.266   1.890  1.00  0.00     0.162 A 
BRANCH  13  23
ATOM     23  O   UNL     1    -111.826   9.887   3.498  1.00  0.00    -0.507 OA
ATOM     24  H   UNL     1    -112.311  10.771   3.620  1.00  0.00     0.293 HD
ENDBRANCH  13  23
BRANCH  19  25
ATOM     25  C   UNL     1    -113.562   8.260   4.709  1.00  0.00     0.264 C 
ATOM     26  O   UNL     1    -114.369   9.092   5.218  1.00  0.00    -0.298 OA
ENDBRANCH  19  25
BRANCH  20  27
ATOM     27  C   UNL     1    -114.633   5.979  -0.580  1.00  0.00     0.017 C 
ATOM     28  C   UNL     1    -114.242   4.500  -0.766  1.00  0.00     0.012 C 
ATOM     29  C   UNL     1    -116.096   6.270  -0.943  1.00  0.00     0.012 C 
ENDBRANCH  20  27
BRANCH  21  30
ATOM     30  O   UNL     1    -115.651   6.456   4.203  1.00  0.00    -0.504 OA
ATOM     31  H   UNL     1    -116.492   5.904   4.096  1.00  0.00     0.293 HD
ENDBRANCH  21  30
BRANCH  22  32
ATOM     32  O   UNL     1    -116.123   5.371   1.739  1.00  0.00    -0.504 OA
ATOM     33  H   UNL     1    -116.073   4.542   1.158  1.00  0.00     0.293 HD
ENDBRANCH  22  32
ENDBRANCH  11  12
BRANCH  10  34
ATOM     34  O   UNL     1    -108.610   8.469   2.591  1.00  0.00    -0.507 OA
ATOM     35  H   UNL     1    -107.757   8.051   2.935  1.00  0.00     0.293 HD
ENDBRANCH  10  34
BRANCH   9  36
ATOM     36  C   UNL     1    -107.289  14.515   2.941  1.00  0.00     0.017 C 
ATOM     37  C   UNL     1    -107.485  15.105   1.539  1.00  0.00     0.012 C 
ATOM     38  C   UNL     1    -108.497  14.869   3.827  1.00  0.00     0.012 C 
ENDBRANCH   9  36
BRANCH   6  39
ATOM     39  C   UNL     1    -105.949   8.797   2.673  1.00  0.00     0.264 C 
ATOM     40  O   UNL     1    -105.966   7.983   3.635  1.00  0.00    -0.298 OA
ENDBRANCH   6  39
BRANCH   8  41
ATOM     41  O   UNL     1    -104.920  13.369   4.189  1.00  0.00    -0.504 OA
ATOM     42  H   UNL     1    -103.938  13.538   3.998  1.00  0.00     0.293 HD
ENDBRANCH   8  41
BRANCH   7  43
ATOM     43  O   UNL     1    -104.183  10.638   3.806  1.00  0.00    -0.504 OA
ATOM     44  H   UNL     1    -103.999  10.200   4.697  1.00  0.00     0.293 HD
ENDBRANCH   7  43
TORSDOF 11
ENDMDL
MODEL 3
REMARK VINA RESULT:    -3.254      2.118      8.930
REMARK INTER + INTRA:          -6.363
REMARK INTER:                  -5.749
REMARK INTRA:                  -0.615
REMARK UNBOUND:                -1.587
REMARK SMILES Cc1cc2c(C(C)C)c(O)c(O)c(C=O)c2c(O)c1-c1c(C)cc2c(C(C)C)c(O)c(O)c(C=O)c2c1O
REMARK SMILES IDX 1 1 2 2 3 3 4 4 16 5 13 6 11 7 9 8 5 9 17 10 19 11 20 12
REMARK SMILES IDX 37 13 21 14 36 15 23 16 22 17 24 18 33 19 25 20 31 21 29 22
REMARK SMILES IDX 38 23 34 25 35 26 26 27 27 28 28 29 32 30 30 32 18 34 6 36
REMARK SMILES IDX 7 37 8 38 14 39 15 40 10 41 12 43
REMARK H PARENT 38 24 32 31 30 33 18 35 10 42 12 44
REMARK Flexibility Score: inf
ROOT
ATOM      1  C   UNL     1    -110.814  13.579   2.263  1.00  0.00     0.045 C 
ATOM      2  C   UNL     1    -109.647  12.781   1.730  1.00  0.00    -0.039 A 
ATOM      3  C   UNL     1    -108.372  13.346   1.770  1.00  0.00     0.013 A 
ATOM      4  C   UNL     1    -107.238  12.671   1.261  1.00  0.00    -0.006 A 
ATOM      5  C   UNL     1    -107.444  11.424   0.611  1.00  0.00     0.039 A 
ATOM      6  C   UNL     1    -106.389  10.842  -0.137  1.00  0.00     0.072 A 
ATOM      7  C   UNL     1    -105.090  11.370  -0.037  1.00  0.00     0.169 A 
ATOM      8  C   UNL     1    -104.833  12.467   0.811  1.00  0.00     0.162 A 
ATOM      9  C   UNL     1    -105.908  13.186   1.411  1.00  0.00     0.008 A 
ATOM     10  C   UNL     1    -108.693  10.763   0.774  1.00  0.00     0.132 A 
ATOM     11  C   UNL     1    -109.792  11.445   1.330  1.00  0.00     0.031 A 
ENDROOT
BRANCH  11  12
ATOM     12  C   UNL     1    -111.063  10.714   1.575  1.00  0.00     0.031 A 
ATOM     13  C   UNL     1    -111.292  10.103   2.825  1.00  0.00     0.132 A 
ATOM     14  C   UNL     1    -112.003  10.565   0.541  1.00  0.00    -0.039 A 
ATOM     15  C   UNL     1    -112.431   9.264   3.025  1.00  0.00     0.039 A 
ATOM     16  C   UNL     1    -113.157   9.809   0.763  1.00  0.00     0.013 A 
ATOM     17  C   UNL     1    -111.784  11.204  -0.810  1.00  0.00     0.045 C 
ATOM     18  C   UNL     1    -113.429   9.202   2.006  1.00  0.00    -0.006 A 
ATOM     19  C   UNL     1    -112.627   8.513   4.227  1.00  0.00     0.072 A 
ATOM     20  C   UNL     1    -114.668   8.527   2.247  1.00  0.00     0.008 A 
ATOM     21  C   UNL     1    -113.822   7.802   4.424  1.00  0.00     0.169 A 
ATOM     22  C   UNL     1    -114.830   7.817   3.454  1.00  0.00     0.162 A 
BRANCH  13  23
ATOM     23  O   UNL     1    -110.409  10.345   3.882  1.00  0.00    -0.507 OA
ATOM     24  H   UNL     1    -110.038  11.258   4.123  1.00  0.00     0.293 HD
ENDBRANCH  13  23
BRANCH  19  25
ATOM     25  C   UNL     1    -111.601   8.414   5.288  1.00  0.00     0.264 C 
ATOM     26  O   UNL     1    -111.909   8.515   6.512  1.00  0.00    -0.298 OA
ENDBRANCH  19  25
BRANCH  20  27
ATOM     27  C   UNL     1    -115.876   8.568   1.286  1.00  0.00     0.017 C 
ATOM     28  C   UNL     1    -116.123   9.946   0.640  1.00  0.00     0.012 C 
ATOM     29  C   UNL     1    -115.862   7.416   0.271  1.00  0.00     0.012 C 
ENDBRANCH  20  27
BRANCH  21  30
ATOM     30  O   UNL     1    -114.033   7.046   5.578  1.00  0.00    -0.504 OA
ATOM     31  H   UNL     1    -114.480   7.398   6.416  1.00  0.00     0.293 HD
ENDBRANCH  21  30
BRANCH  22  32
ATOM     32  O   UNL     1    -116.009   7.096   3.691  1.00  0.00    -0.504 OA
ATOM     33  H   UNL     1    -116.093   6.394   4.416  1.00  0.00     0.293 HD
ENDBRANCH  22  32
ENDBRANCH  11  12
BRANCH  10  34
ATOM     34  O   UNL     1    -108.804   9.409   0.442  1.00  0.00    -0.507 OA
ATOM     35  H   UNL     1    -109.120   8.703   1.091  1.00  0.00     0.293 HD
ENDBRANCH  10  34
BRANCH   9  36
ATOM     36  C   UNL     1    -105.635  14.378   2.363  1.00  0.00     0.017 C 
ATOM     37  C   UNL     1    -106.003  13.992   3.801  1.00  0.00     0.012 C 
ATOM     38  C   UNL     1    -104.219  14.980   2.333  1.00  0.00     0.012 C 
ENDBRANCH   9  36
BRANCH   6  39
ATOM     39  C   UNL     1    -106.654   9.757  -1.125  1.00  0.00     0.264 C 
ATOM     40  O   UNL     1    -106.286   8.571  -0.909  1.00  0.00    -0.298 OA
ENDBRANCH   6  39
BRANCH   8  41
ATOM     41  O   UNL     1    -103.515  12.845   1.081  1.00  0.00    -0.504 OA
ATOM     42  H   UNL     1    -103.235  13.563   1.740  1.00  0.00     0.293 HD
ENDBRANCH   8  41
BRANCH   7  43
ATOM     43  O   UNL     1    -104.076  10.779  -0.806  1.00  0.00    -0.504 OA
ATOM     44  H   UNL     1    -104.094   9.841  -1.179  1.00  0.00     0.293 HD
ENDBRANCH   7  43
TORSDOF 11
ENDMDL
MODEL 4
REMARK VINA RESULT:    -3.073      2.247      8.522
REMARK INTER + INTRA:          -6.096
REMARK INTER:                  -5.110
REMARK INTRA:                  -0.986
REMARK UNBOUND:                -1.587
REMARK SMILES Cc1cc2c(C(C)C)c(O)c(O)c(C=O)c2c(O)c1-c1c(C)cc2c(C(C)C)c(O)c(O)c(C=O)c2c1O
REMARK SMILES IDX 1 1 2 2 3 3 4 4 16 5 13 6 11 7 9 8 5 9 17 10 19 11 20 12
REMARK SMILES IDX 37 13 21 14 36 15 23 16 22 17 24 18 33 19 25 20 31 21 29 22
REMARK SMILES IDX 38 23 34 25 35 26 26 27 27 28 28 29 32 30 30 32 18 34 6 36
REMARK SMILES IDX 7 37 8 38 14 39 15 40 10 41 12 43
REMARK H PARENT 38 24 32 31 30 33 18 35 10 42 12 44
REMARK Flexibility Score: inf
ROOT
ATOM      1  C   UNL     1    -111.669  12.620   1.294  1.00  0.00     0.045 C 
ATOM      2  C   UNL     1    -110.377  11.876   1.051  1.00  0.00    -0.039 A 
ATOM      3  C   UNL     1    -109.308  12.558   0.468  1.00  0.00     0.013 A 
ATOM      4  C   UNL     1    -108.080  11.918   0.181  1.00  0.00    -0.006 A 
ATOM      5  C   UNL     1    -107.989  10.519   0.417  1.00  0.00     0.039 A 
ATOM      6  C   UNL     1    -106.882   9.794  -0.093  1.00  0.00     0.072 A 
ATOM      7  C   UNL     1    -105.775  10.487  -0.613  1.00  0.00     0.169 A 
ATOM      8  C   UNL     1    -105.759  11.897  -0.618  1.00  0.00     0.162 A 
ATOM      9  C   UNL     1    -106.935  12.637  -0.297  1.00  0.00     0.008 A 
ATOM     10  C   UNL     1    -108.990   9.889   1.208  1.00  0.00     0.132 A 
ATOM     11  C   UNL     1    -110.183  10.569   1.519  1.00  0.00     0.031 A 
ENDROOT
BRANCH  11  12
ATOM     12  C   UNL     1    -111.179   9.931   2.420  1.00  0.00     0.031 A 
ATOM     13  C   UNL     1    -112.078   8.973   1.907  1.00  0.00     0.132 A 
ATOM     14  C   UNL     1    -111.277  10.335   3.763  1.00  0.00    -0.039 A 
ATOM     15  C   UNL     1    -113.142   8.470   2.718  1.00  0.00     0.039 A 
ATOM     16  C   UNL     1    -112.269   9.783   4.577  1.00  0.00     0.013 A 
ATOM     17  C   UNL     1    -110.330  11.361   4.339  1.00  0.00     0.045 C 
ATOM     18  C   UNL     1    -113.171   8.808   4.105  1.00  0.00    -0.006 A 
ATOM     19  C   UNL     1    -114.159   7.609   2.198  1.00  0.00     0.072 A 
ATOM     20  C   UNL     1    -114.106   8.174   4.984  1.00  0.00     0.008 A 
ATOM     21  C   UNL     1    -115.110   7.044   3.063  1.00  0.00     0.169 A 
ATOM     22  C   UNL     1    -115.079   7.314   4.435  1.00  0.00     0.162 A 
BRANCH  13  23
ATOM     23  O   UNL     1    -111.907   8.496   0.605  1.00  0.00    -0.507 OA
ATOM     24  H   UNL     1    -111.961   9.071  -0.230  1.00  0.00     0.293 HD
ENDBRANCH  13  23
BRANCH  19  25
ATOM     25  C   UNL     1    -114.287   7.298   0.757  1.00  0.00     0.264 C 
ATOM     26  O   UNL     1    -114.281   6.102   0.341  1.00  0.00    -0.298 OA
ENDBRANCH  19  25
BRANCH  20  27
ATOM     27  C   UNL     1    -114.089   8.329   6.520  1.00  0.00     0.017 C 
ATOM     28  C   UNL     1    -112.679   8.303   7.142  1.00  0.00     0.012 C 
ATOM     29  C   UNL     1    -114.944   9.508   7.005  1.00  0.00     0.012 C 
ENDBRANCH  20  27
BRANCH  21  30
ATOM     30  O   UNL     1    -116.124   6.214   2.581  1.00  0.00    -0.504 OA
ATOM     31  H   UNL     1    -117.103   6.312   2.820  1.00  0.00     0.293 HD
ENDBRANCH  21  30
BRANCH  22  32
ATOM     32  O   UNL     1    -116.044   6.727   5.264  1.00  0.00    -0.504 OA
ATOM     33  H   UNL     1    -116.840   6.209   4.908  1.00  0.00     0.293 HD
ENDBRANCH  22  32
ENDBRANCH  11  12
BRANCH  10  34
ATOM     34  O   UNL     1    -108.752   8.616   1.732  1.00  0.00    -0.507 OA
ATOM     35  H   UNL     1    -108.095   8.437   2.478  1.00  0.00     0.293 HD
ENDBRANCH  10  34
BRANCH   9  36
ATOM     36  C   UNL     1    -106.921  14.186  -0.277  1.00  0.00     0.017 C 
ATOM     37  C   UNL     1    -108.117  14.729  -1.069  1.00  0.00     0.012 C 
ATOM     38  C   UNL     1    -106.862  14.862   1.105  1.00  0.00     0.012 C 
ENDBRANCH   9  36
BRANCH   6  39
ATOM     39  C   UNL     1    -106.922   8.307  -0.205  1.00  0.00     0.264 C 
ATOM     40  O   UNL     1    -106.302   7.574   0.611  1.00  0.00    -0.298 OA
ENDBRANCH   6  39
BRANCH   8  41
ATOM     41  O   UNL     1    -104.578  12.579  -0.922  1.00  0.00    -0.504 OA
ATOM     42  H   UNL     1    -103.763  12.639  -0.321  1.00  0.00     0.293 HD
ENDBRANCH   8  41
BRANCH   7  43
ATOM     43  O   UNL     1    -104.707   9.735  -1.125  1.00  0.00    -0.504 OA
ATOM     44  H   UNL     1    -104.472   9.639  -2.102  1.00  0.00     0.293 HD
ENDBRANCH   7  43
TORSDOF 11
ENDMDL
MODEL 5
REMARK VINA RESULT:    -2.619      2.947      4.335
REMARK INTER + INTRA:          -5.431
REMARK INTER:                  -5.795
REMARK INTRA:                   0.365
REMARK UNBOUND:                -1.587
REMARK SMILES Cc1cc2c(C(C)C)c(O)c(O)c(C=O)c2c(O)c1-c1c(C)cc2c(C(C)C)c(O)c(O)c(C=O)c2c1O
REMARK SMILES IDX 1 1 2 2 3 3 4 4 16 5 13 6 11 7 9 8 5 9 17 10 19 11 20 12
REMARK SMILES IDX 37 13 21 14 36 15 23 16 22 17 24 18 33 19 25 20 31 21 29 22
REMARK SMILES IDX 38 23 34 25 35 26 26 27 27 28 28 29 32 30 30 32 18 34 6 36
REMARK SMILES IDX 7 37 8 38 14 39 15 40 10 41 12 43
REMARK H PARENT 38 24 32 31 30 33 18 35 10 42 12 44
REMARK Flexibility Score: inf
ROOT
ATOM      1  C   UNL     1    -111.586   8.876   1.790  1.00  0.00     0.045 C 
ATOM      2  C   UNL     1    -112.199   9.711   2.890  1.00  0.00    -0.039 A 
ATOM      3  C   UNL     1    -113.103   9.109   3.766  1.00  0.00     0.013 A 
ATOM      4  C   UNL     1    -113.740   9.835   4.799  1.00  0.00    -0.006 A 
ATOM      5  C   UNL     1    -113.506  11.235   4.868  1.00  0.00     0.039 A 
ATOM      6  C   UNL     1    -114.315  12.040   5.711  1.00  0.00     0.072 A 
ATOM      7  C   UNL     1    -115.172  11.429   6.643  1.00  0.00     0.169 A 
ATOM      8  C   UNL     1    -115.221  10.024   6.748  1.00  0.00     0.162 A 
ATOM      9  C   UNL     1    -114.571   9.202   5.781  1.00  0.00     0.008 A 
ATOM     10  C   UNL     1    -112.426  11.789   4.126  1.00  0.00     0.132 A 
ATOM     11  C   UNL     1    -111.778  11.025   3.136  1.00  0.00     0.031 A 
ENDROOT
BRANCH  11  12
ATOM     12  C   UNL     1    -110.595  11.586   2.432  1.00  0.00     0.031 A 
ATOM     13  C   UNL     1    -109.295  11.259   2.873  1.00  0.00     0.132 A 
ATOM     14  C   UNL     1    -110.767  12.502   1.380  1.00  0.00    -0.039 A 
ATOM     15  C   UNL     1    -108.155  11.912   2.313  1.00  0.00     0.039 A 
ATOM     16  C   UNL     1    -109.646  13.080   0.780  1.00  0.00     0.013 A 
ATOM     17  C   UNL     1    -112.146  12.875   0.890  1.00  0.00     0.045 C 
ATOM     18  C   UNL     1    -108.332  12.761   1.179  1.00  0.00    -0.006 A 
ATOM     19  C   UNL     1    -106.833  11.716   2.826  1.00  0.00     0.072 A 
ATOM     20  C   UNL     1    -107.197  13.278   0.478  1.00  0.00     0.008 A 
ATOM     21  C   UNL     1    -105.732  12.284   2.164  1.00  0.00     0.169 A 
ATOM     22  C   UNL     1    -105.910  13.044   1.003  1.00  0.00     0.162 A 
BRANCH  13  23
ATOM     23  O   UNL     1    -109.127  10.268   3.844  1.00  0.00    -0.507 OA
ATOM     24  H   UNL     1    -108.564   9.432   3.720  1.00  0.00     0.293 HD
ENDBRANCH  13  23
BRANCH  19  25
ATOM     25  C   UNL     1    -106.557  10.956   4.065  1.00  0.00     0.264 C 
ATOM     26  O   UNL     1    -105.973   9.833   4.030  1.00  0.00    -0.298 OA
ENDBRANCH  19  25
BRANCH  20  27
ATOM     27  C   UNL     1    -107.283  14.042  -0.861  1.00  0.00     0.017 C 
ATOM     28  C   UNL     1    -108.650  14.704  -1.124  1.00  0.00     0.012 C 
ATOM     29  C   UNL     1    -106.097  14.993  -1.077  1.00  0.00     0.012 C 
ENDBRANCH  20  27
BRANCH  21  30
ATOM     30  O   UNL     1    -104.433  12.124   2.651  1.00  0.00    -0.504 OA
ATOM     31  H   UNL     1    -104.188  12.130   3.633  1.00  0.00     0.293 HD
ENDBRANCH  21  30
BRANCH  22  32
ATOM     32  O   UNL     1    -104.784  13.590   0.371  1.00  0.00    -0.504 OA
ATOM     33  H   UNL     1    -104.439  14.524   0.563  1.00  0.00     0.293 HD
ENDBRANCH  22  32
ENDBRANCH  11  12
BRANCH  10  34
ATOM     34  O   UNL     1    -111.967  13.073   4.432  1.00  0.00    -0.507 OA
ATOM     35  H   UNL     1    -110.994  13.290   4.592  1.00  0.00     0.293 HD
ENDBRANCH  10  34
BRANCH   9  36
ATOM     36  C   UNL     1    -114.599   7.657   5.902  1.00  0.00     0.017 C 
ATOM     37  C   UNL     1    -114.001   7.228   7.248  1.00  0.00     0.012 C 
ATOM     38  C   UNL     1    -115.961   6.969   5.695  1.00  0.00     0.012 C 
ENDBRANCH   9  36
BRANCH   6  39
ATOM     39  C   UNL     1    -114.368  13.521   5.542  1.00  0.00     0.264 C 
ATOM     40  O   UNL     1    -114.167  14.297   6.514  1.00  0.00    -0.298 OA
ENDBRANCH   6  39
BRANCH   8  41
ATOM     41  O   UNL     1    -115.896   9.428   7.817  1.00  0.00    -0.504 OA
ATOM     42  H   UNL     1    -115.941   9.796   8.761  1.00  0.00     0.293 HD
ENDBRANCH   8  41
BRANCH   7  43
ATOM     43  O   UNL     1    -115.970  12.257   7.447  1.00  0.00    -0.504 OA
ATOM     44  H   UNL     1    -116.974  12.345   7.384  1.00  0.00     0.293 HD
ENDBRANCH   7  43
TORSDOF 11
ENDMDL
MODEL 6
REMARK VINA RESULT:    -2.599      2.180      2.721
REMARK INTER + INTRA:          -5.402
REMARK INTER:                  -5.582
REMARK INTRA:                   0.180
REMARK UNBOUND:                -1.587
REMARK SMILES Cc1cc2c(C(C)C)c(O)c(O)c(C=O)c2c(O)c1-c1c(C)cc2c(C(C)C)c(O)c(O)c(C=O)c2c1O
REMARK SMILES IDX 1 1 2 2 3 3 4 4 16 5 13 6 11 7 9 8 5 9 17 10 19 11 20 12
REMARK SMILES IDX 37 13 21 14 36 15 23 16 22 17 24 18 33 19 25 20 31 21 29 22
REMARK SMILES IDX 38 23 34 25 35 26 26 27 27 28 28 29 32 30 30 32 18 34 6 36
REMARK SMILES IDX 7 37 8 38 14 39 15 40 10 41 12 43
REMARK H PARENT 38 24 32 31 30 33 18 35 10 42 12 44
REMARK Flexibility Score: inf
ROOT
ATOM      1  C   UNL     1    -112.641  12.114   0.816  1.00  0.00     0.045 C 
ATOM      2  C   UNL     1    -112.660  11.054   1.892  1.00  0.00    -0.039 A 
ATOM      3  C   UNL     1    -113.807  10.275   2.047  1.00  0.00     0.013 A 
ATOM      4  C   UNL     1    -113.909   9.286   3.053  1.00  0.00    -0.006 A 
ATOM      5  C   UNL     1    -112.836   9.166   3.978  1.00  0.00     0.039 A 
ATOM      6  C   UNL     1    -113.004   8.380   5.146  1.00  0.00     0.072 A 
ATOM      7  C   UNL     1    -114.125   7.540   5.266  1.00  0.00     0.169 A 
ATOM      8  C   UNL     1    -115.074   7.471   4.226  1.00  0.00     0.162 A 
ATOM      9  C   UNL     1    -115.029   8.395   3.141  1.00  0.00     0.008 A 
ATOM     10  C   UNL     1    -111.598   9.799   3.678  1.00  0.00     0.132 A 
ATOM     11  C   UNL     1    -111.515  10.744   2.638  1.00  0.00     0.031 A 
ENDROOT
BRANCH  11  12
ATOM     12  C   UNL     1    -110.195  11.329   2.280  1.00  0.00     0.031 A 
ATOM     13  C   UNL     1    -109.379  10.687   1.326  1.00  0.00     0.132 A 
ATOM     14  C   UNL     1    -109.727  12.475   2.945  1.00  0.00    -0.039 A 
ATOM     15  C   UNL     1    -108.046  11.144   1.087  1.00  0.00     0.039 A 
ATOM     16  C   UNL     1    -108.453  12.967   2.653  1.00  0.00     0.013 A 
ATOM     17  C   UNL     1    -110.577  13.181   3.974  1.00  0.00     0.045 C 
ATOM     18  C   UNL     1    -107.617  12.365   1.690  1.00  0.00    -0.006 A 
ATOM     19  C   UNL     1    -107.137  10.440   0.236  1.00  0.00     0.072 A 
ATOM     20  C   UNL     1    -106.363  12.951   1.325  1.00  0.00     0.008 A 
ATOM     21  C   UNL     1    -105.882  10.996  -0.062  1.00  0.00     0.169 A 
ATOM     22  C   UNL     1    -105.505  12.235   0.466  1.00  0.00     0.162 A 
BRANCH  13  23
ATOM     23  O   UNL     1    -109.891   9.615   0.590  1.00  0.00    -0.507 OA
ATOM     24  H   UNL     1    -109.342   8.824   0.269  1.00  0.00     0.293 HD
ENDBRANCH  13  23
BRANCH  19  25
ATOM     25  C   UNL     1    -107.440   9.110  -0.337  1.00  0.00     0.264 C 
ATOM     26  O   UNL     1    -106.644   8.136  -0.192  1.00  0.00    -0.298 OA
ENDBRANCH  19  25
BRANCH  20  27
ATOM     27  C   UNL     1    -105.901  14.354   1.774  1.00  0.00     0.017 C 
ATOM     28  C   UNL     1    -105.138  14.369   3.113  1.00  0.00     0.012 C 
ATOM     29  C   UNL     1    -105.182  15.125   0.657  1.00  0.00     0.012 C 
ENDBRANCH  20  27
BRANCH  21  30
ATOM     30  O   UNL     1    -104.967  10.324  -0.876  1.00  0.00    -0.504 OA
ATOM     31  H   UNL     1    -104.639   9.381  -0.706  1.00  0.00     0.293 HD
ENDBRANCH  21  30
BRANCH  22  32
ATOM     32  O   UNL     1    -104.244  12.756   0.141  1.00  0.00    -0.504 OA
ATOM     33  H   UNL     1    -103.420  12.609   0.712  1.00  0.00     0.293 HD
ENDBRANCH  22  32
ENDBRANCH  11  12
BRANCH  10  34
ATOM     34  O   UNL     1    -110.447   9.425   4.379  1.00  0.00    -0.507 OA
ATOM     35  H   UNL     1    -110.236   9.750   5.311  1.00  0.00     0.293 HD
ENDBRANCH  10  34
BRANCH   9  36
ATOM     36  C   UNL     1    -116.053   8.311   1.981  1.00  0.00     0.017 C 
ATOM     37  C   UNL     1    -116.125   9.657   1.250  1.00  0.00     0.012 C 
ATOM     38  C   UNL     1    -115.855   7.175   0.961  1.00  0.00     0.012 C 
ENDBRANCH   9  36
BRANCH   6  39
ATOM     39  C   UNL     1    -112.078   8.521   6.307  1.00  0.00     0.264 C 
ATOM     40  O   UNL     1    -112.463   8.286   7.484  1.00  0.00    -0.298 OA
ENDBRANCH   6  39
BRANCH   8  41
ATOM     41  O   UNL     1    -116.058   6.479   4.246  1.00  0.00    -0.504 OA
ATOM     42  H   UNL     1    -115.950   5.538   3.883  1.00  0.00     0.293 HD
ENDBRANCH   8  41
BRANCH   7  43
ATOM     43  O   UNL     1    -114.265   6.792   6.445  1.00  0.00    -0.504 OA
ATOM     44  H   UNL     1    -113.517   6.327   6.938  1.00  0.00     0.293 HD
ENDBRANCH   7  43
TORSDOF 11
ENDMDL
