MODEL 1
REMARK VINA RESULT:    -3.966      0.000      0.000
REMARK INTER + INTRA:          -4.771
REMARK INTER:                  -4.661
REMARK INTRA:                  -0.110
REMARK UNBOUND:                -0.110
REMARK SMILES CCCCC(=O)[O-]
REMARK SMILES IDX 4 1 5 2 6 3 7 4 3 5 2 6 1 7
REMARK H PARENT
REMARK Flexibility Score: inf
ROOT
ATOM      1  C   UNL     1      -5.270 -30.736 -52.673  1.00  0.00     0.053 C 
ENDROOT
BRANCH   1   2
ATOM      2  C   UNL     1      -5.016 -30.858 -54.142  1.00  0.00     0.041 C 
ATOM      3  O   UNL     1      -4.531 -31.918 -54.616  1.00  0.00    -0.550 OA
ATOM      4  O   UNL     1      -5.269 -29.780 -54.983  1.00  0.00    -0.550 OA
ENDBRANCH   1   2
BRANCH   1   5
ATOM      5  C   UNL     1      -5.472 -32.122 -52.048  1.00  0.00     0.006 C 
BRANCH   5   6
ATOM      6  C   UNL     1      -4.440 -32.431 -50.953  1.00  0.00    -0.003 C 
ATOM      7  C   UNL     1      -3.213 -33.170 -51.489  1.00  0.00     0.004 C 
ENDBRANCH   5   6
ENDBRANCH   1   5
TORSDOF 3
ENDMDL
MODEL 2
REMARK VINA RESULT:    -3.834      1.183      1.723
REMARK INTER + INTRA:          -4.616
REMARK INTER:                  -4.555
REMARK INTRA:                  -0.061
REMARK UNBOUND:                -0.110
REMARK SMILES CCCCC(=O)[O-]
REMARK SMILES IDX 4 1 5 2 6 3 7 4 3 5 2 6 1 7
REMARK H PARENT
REMARK Flexibility Score: inf
ROOT
ATOM      1  C   UNL     1      -5.201 -30.072 -52.683  1.00  0.00     0.053 C 
ENDROOT
BRANCH   1   2
ATOM      2  C   UNL     1      -5.186 -30.255 -54.167  1.00  0.00     0.041 C 
ATOM      3  O   UNL     1      -4.833 -31.355 -54.667  1.00  0.00    -0.550 OA
ATOM      4  O   UNL     1      -5.515 -29.194 -55.002  1.00  0.00    -0.550 OA
ENDBRANCH   1   2
BRANCH   1   5
ATOM      5  C   UNL     1      -4.618 -31.308 -51.985  1.00  0.00     0.006 C 
BRANCH   5   6
ATOM      6  C   UNL     1      -5.677 -32.098 -51.202  1.00  0.00    -0.003 C 
ATOM      7  C   UNL     1      -6.479 -31.220 -50.240  1.00  0.00     0.004 C 
ENDBRANCH   5   6
ENDBRANCH   1   5
TORSDOF 3
ENDMDL
MODEL 3
REMARK VINA RESULT:    -3.834      8.925      9.970
REMARK INTER + INTRA:          -4.616
REMARK INTER:                  -4.504
REMARK INTRA:                  -0.112
REMARK UNBOUND:                -0.110
REMARK SMILES CCCCC(=O)[O-]
REMARK SMILES IDX 4 1 5 2 6 3 7 4 3 5 2 6 1 7
REMARK H PARENT
REMARK Flexibility Score: inf
ROOT
ATOM      1  C   UNL     1      -5.163 -41.245 -49.974  1.00  0.00     0.053 C 
ENDROOT
BRANCH   1   2
ATOM      2  C   UNL     1      -5.853 -40.105 -50.653  1.00  0.00     0.041 C 
ATOM      3  O   UNL     1      -6.060 -39.029 -50.034  1.00  0.00    -0.550 OA
ATOM      4  O   UNL     1      -6.314 -40.248 -51.957  1.00  0.00    -0.550 OA
ENDBRANCH   1   2
BRANCH   1   5
ATOM      5  C   UNL     1      -5.131 -41.022 -48.456  1.00  0.00     0.006 C 
BRANCH   5   6
ATOM      6  C   UNL     1      -6.278 -41.742 -47.730  1.00  0.00    -0.003 C 
ATOM      7  C   UNL     1      -7.342 -40.778 -47.204  1.00  0.00     0.004 C 
ENDBRANCH   5   6
ENDBRANCH   1   5
TORSDOF 3
ENDMDL
MODEL 4
REMARK VINA RESULT:    -3.826      3.085      4.327
REMARK INTER + INTRA:          -4.607
REMARK INTER:                  -4.582
REMARK INTRA:                  -0.025
REMARK UNBOUND:                -0.110
REMARK SMILES CCCCC(=O)[O-]
REMARK SMILES IDX 4 1 5 2 6 3 7 4 3 5 2 6 1 7
REMARK H PARENT
REMARK Flexibility Score: inf
ROOT
ATOM      1  C   UNL     1      -3.061 -32.959 -51.763  1.00  0.00     0.053 C 
ENDROOT
BRANCH   1   2
ATOM      2  C   UNL     1      -1.890 -32.874 -50.835  1.00  0.00     0.041 C 
ATOM      3  O   UNL     1      -1.091 -31.905 -50.910  1.00  0.00    -0.550 OA
ATOM      4  O   UNL     1      -1.653 -33.893 -49.920  1.00  0.00    -0.550 OA
ENDBRANCH   1   2
BRANCH   1   5
ATOM      5  C   UNL     1      -4.327 -32.431 -51.076  1.00  0.00     0.006 C 
BRANCH   5   6
ATOM      6  C   UNL     1      -5.510 -32.292 -52.047  1.00  0.00    -0.003 C 
ATOM      7  C   UNL     1      -5.134 -31.557 -53.334  1.00  0.00     0.004 C 
ENDBRANCH   5   6
ENDBRANCH   1   5
TORSDOF 3
ENDMDL
MODEL 5
REMARK VINA RESULT:    -3.822      4.472      5.199
REMARK INTER + INTRA:          -4.602
REMARK INTER:                  -4.557
REMARK INTRA:                  -0.046
REMARK UNBOUND:                -0.110
REMARK SMILES CCCCC(=O)[O-]
REMARK SMILES IDX 4 1 5 2 6 3 7 4 3 5 2 6 1 7
REMARK H PARENT
REMARK Flexibility Score: inf
ROOT
ATOM      1  C   UNL     1      -6.456 -28.997 -49.051  1.00  0.00     0.053 C 
ENDROOT
BRANCH   1   2
ATOM      2  C   UNL     1      -6.195 -27.833 -49.953  1.00  0.00     0.041 C 
ATOM      3  O   UNL     1      -6.727 -26.717 -49.719  1.00  0.00    -0.550 OA
ATOM      4  O   UNL     1      -5.402 -27.994 -51.083  1.00  0.00    -0.550 OA
ENDBRANCH   1   2
BRANCH   1   5
ATOM      5  C   UNL     1      -6.572 -30.291 -49.867  1.00  0.00     0.006 C 
BRANCH   5   6
ATOM      6  C   UNL     1      -7.615 -31.260 -49.290  1.00  0.00    -0.003 C 
ATOM      7  C   UNL     1      -8.625 -30.566 -48.376  1.00  0.00     0.004 C 
ENDBRANCH   5   6
ENDBRANCH   1   5
TORSDOF 3
ENDMDL
MODEL 6
REMARK VINA RESULT:    -3.766      4.235      4.656
REMARK INTER + INTRA:          -4.537
REMARK INTER:                  -4.517
REMARK INTRA:                  -0.020
REMARK UNBOUND:                -0.110
REMARK SMILES CCCCC(=O)[O-]
REMARK SMILES IDX 4 1 5 2 6 3 7 4 3 5 2 6 1 7
REMARK H PARENT
REMARK Flexibility Score: inf
ROOT
ATOM      1  C   UNL     1      -7.164 -31.278 -49.722  1.00  0.00     0.053 C 
ENDROOT
BRANCH   1   2
ATOM      2  C   UNL     1      -7.689 -30.063 -49.025  1.00  0.00     0.041 C 
ATOM      3  O   UNL     1      -8.788 -30.108 -48.413  1.00  0.00    -0.550 OA
ATOM      4  O   UNL     1      -6.988 -28.865 -49.094  1.00  0.00    -0.550 OA
ENDBRANCH   1   2
BRANCH   1   5
ATOM      5  C   UNL     1      -6.000 -30.902 -50.649  1.00  0.00     0.006 C 
BRANCH   5   6
ATOM      6  C   UNL     1      -5.582 -32.059 -51.569  1.00  0.00    -0.003 C 
ATOM      7  C   UNL     1      -4.185 -32.593 -51.252  1.00  0.00     0.004 C 
ENDBRANCH   5   6
ENDBRANCH   1   5
TORSDOF 3
ENDMDL
MODEL 7
REMARK VINA RESULT:    -3.689      3.376      4.296
REMARK INTER + INTRA:          -4.446
REMARK INTER:                  -4.431
REMARK INTRA:                  -0.016
REMARK UNBOUND:                -0.110
REMARK SMILES CCCCC(=O)[O-]
REMARK SMILES IDX 4 1 5 2 6 3 7 4 3 5 2 6 1 7
REMARK H PARENT
REMARK Flexibility Score: inf
ROOT
ATOM      1  C   UNL     1      -2.896 -32.864 -51.760  1.00  0.00     0.053 C 
ENDROOT
BRANCH   1   2
ATOM      2  C   UNL     1      -1.691 -32.892 -50.874  1.00  0.00     0.041 C 
ATOM      3  O   UNL     1      -1.500 -33.861 -50.094  1.00  0.00    -0.550 OA
ATOM      4  O   UNL     1      -0.804 -31.822 -50.872  1.00  0.00    -0.550 OA
ENDBRANCH   1   2
BRANCH   1   5
ATOM      5  C   UNL     1      -4.176 -32.751 -50.921  1.00  0.00     0.006 C 
BRANCH   5   6
ATOM      6  C   UNL     1      -5.298 -32.002 -51.655  1.00  0.00    -0.003 C 
ATOM      7  C   UNL     1      -6.017 -30.991 -50.761  1.00  0.00     0.004 C 
ENDBRANCH   5   6
ENDBRANCH   1   5
TORSDOF 3
ENDMDL
MODEL 8
REMARK VINA RESULT:    -3.672      1.832      2.540
REMARK INTER + INTRA:          -4.425
REMARK INTER:                  -4.377
REMARK INTRA:                  -0.048
REMARK UNBOUND:                -0.110
REMARK SMILES CCCCC(=O)[O-]
REMARK SMILES IDX 4 1 5 2 6 3 7 4 3 5 2 6 1 7
REMARK H PARENT
REMARK Flexibility Score: inf
ROOT
ATOM      1  C   UNL     1      -4.101 -32.295 -51.749  1.00  0.00     0.053 C 
ENDROOT
BRANCH   1   2
ATOM      2  C   UNL     1      -3.675 -32.037 -53.159  1.00  0.00     0.041 C 
ATOM      3  O   UNL     1      -2.548 -32.425 -53.562  1.00  0.00    -0.550 OA
ATOM      4  O   UNL     1      -4.503 -31.321 -54.015  1.00  0.00    -0.550 OA
ENDBRANCH   1   2
BRANCH   1   5
ATOM      5  C   UNL     1      -5.617 -32.102 -51.604  1.00  0.00     0.006 C 
BRANCH   5   6
ATOM      6  C   UNL     1      -5.976 -30.873 -50.754  1.00  0.00    -0.003 C 
ATOM      7  C   UNL     1      -7.091 -31.156 -49.747  1.00  0.00     0.004 C 
ENDBRANCH   5   6
ENDBRANCH   1   5
TORSDOF 3
ENDMDL
MODEL 9
REMARK VINA RESULT:    -3.629      1.935      3.305
REMARK INTER + INTRA:          -4.376
REMARK INTER:                  -4.275
REMARK INTRA:                  -0.101
REMARK UNBOUND:                -0.110
REMARK SMILES CCCCC(=O)[O-]
REMARK SMILES IDX 4 1 5 2 6 3 7 4 3 5 2 6 1 7
REMARK H PARENT
REMARK Flexibility Score: inf
ROOT
ATOM      1  C   UNL     1      -5.273 -30.416 -52.580  1.00  0.00     0.053 C 
ENDROOT
BRANCH   1   2
ATOM      2  C   UNL     1      -5.086 -30.684 -54.040  1.00  0.00     0.041 C 
ATOM      3  O   UNL     1      -4.616 -31.785 -54.427  1.00  0.00    -0.550 OA
ATOM      4  O   UNL     1      -5.384 -29.696 -54.971  1.00  0.00    -0.550 OA
ENDBRANCH   1   2
BRANCH   1   5
ATOM      5  C   UNL     1      -4.528 -29.139 -52.170  1.00  0.00     0.006 C 
BRANCH   5   6
ATOM      6  C   UNL     1      -5.457 -28.092 -51.537  1.00  0.00    -0.003 C 
ATOM      7  C   UNL     1      -5.883 -27.005 -52.524  1.00  0.00     0.004 C 
ENDBRANCH   5   6
ENDBRANCH   1   5
TORSDOF 3
ENDMDL
