MODEL 1
REMARK VINA RESULT:    -4.822      0.000      0.000
REMARK INTER + INTRA:          -7.776
REMARK INTER:                  -7.360
REMARK INTRA:                  -0.416
REMARK UNBOUND:                -0.416
REMARK SMILES O=C([O-])CCCCCCCCC(=O)[O-]
REMARK SMILES IDX 7 1 6 2 5 3 4 4 2 5 1 6 3 7 8 8 9 9 10 10 11 11 12 12 13 13
REMARK SMILES IDX 14 14
REMARK H PARENT
REMARK Flexibility Score: inf
ROOT
ATOM      1  C   UNL     1      80.418  59.558  10.312  1.00  0.00     0.000 C 
ENDROOT
BRANCH   1   2
ATOM      2  C   UNL     1      81.689  58.843  10.785  1.00  0.00     0.000 C 
BRANCH   2   3
ATOM      3  C   UNL     1      82.644  59.822  11.484  1.00  0.00     0.006 C 
BRANCH   3   4
ATOM      4  C   UNL     1      83.183  60.893  10.527  1.00  0.00     0.053 C 
BRANCH   4   5
ATOM      5  C   UNL     1      84.589  61.284  10.866  1.00  0.00     0.041 C 
ATOM      6  O   UNL     1      85.173  60.757  11.849  1.00  0.00    -0.550 OA
ATOM      7  O   UNL     1      85.265  62.204  10.076  1.00  0.00    -0.550 OA
ENDBRANCH   4   5
ENDBRANCH   3   4
ENDBRANCH   2   3
ENDBRANCH   1   2
BRANCH   1   8
ATOM      8  C   UNL     1      79.232  58.587  10.245  1.00  0.00     0.000 C 
BRANCH   8   9
ATOM      9  C   UNL     1      79.703  57.133  10.372  1.00  0.00     0.000 C 
BRANCH   9  10
ATOM     10  C   UNL     1      78.575  56.157  10.009  1.00  0.00     0.006 C 
BRANCH  10  11
ATOM     11  C   UNL     1      77.572  56.769   9.021  1.00  0.00     0.053 C 
BRANCH  11  12
ATOM     12  C   UNL     1      77.726  56.198   7.646  1.00  0.00     0.041 C 
ATOM     13  O   UNL     1      77.716  56.955   6.640  1.00  0.00    -0.550 OA
ATOM     14  O   UNL     1      77.917  54.832   7.476  1.00  0.00    -0.550 OA
ENDBRANCH  11  12
ENDBRANCH  10  11
ENDBRANCH   9  10
ENDBRANCH   8   9
ENDBRANCH   1   8
TORSDOF 9
ENDMDL
MODEL 2
REMARK VINA RESULT:    -4.799      0.297      7.410
REMARK INTER + INTRA:          -7.740
REMARK INTER:                  -7.359
REMARK INTRA:                  -0.381
REMARK UNBOUND:                -0.416
REMARK SMILES O=C([O-])CCCCCCCCC(=O)[O-]
REMARK SMILES IDX 7 1 6 2 5 3 4 4 2 5 1 6 3 7 8 8 9 9 10 10 11 11 12 12 13 13
REMARK SMILES IDX 14 14
REMARK H PARENT
REMARK Flexibility Score: inf
ROOT
ATOM      1  C   UNL     1      79.343  58.533   9.995  1.00  0.00     0.000 C 
ENDROOT
BRANCH   1   2
ATOM      2  C   UNL     1      79.549  57.149  10.619  1.00  0.00     0.000 C 
BRANCH   2   3
ATOM      3  C   UNL     1      78.511  56.147  10.093  1.00  0.00     0.006 C 
BRANCH   3   4
ATOM      4  C   UNL     1      77.610  56.757   9.011  1.00  0.00     0.053 C 
BRANCH   4   5
ATOM      5  C   UNL     1      77.757  56.047   7.701  1.00  0.00     0.041 C 
ATOM      6  O   UNL     1      77.892  56.704   6.636  1.00  0.00    -0.550 OA
ATOM      7  O   UNL     1      77.777  54.658   7.659  1.00  0.00    -0.550 OA
ENDBRANCH   4   5
ENDBRANCH   3   4
ENDBRANCH   2   3
ENDBRANCH   1   2
BRANCH   1   8
ATOM      8  C   UNL     1      80.307  59.561  10.603  1.00  0.00     0.000 C 
BRANCH   8   9
ATOM      9  C   UNL     1      81.718  58.977  10.743  1.00  0.00     0.000 C 
BRANCH   9  10
ATOM     10  C   UNL     1      82.659  59.975  11.434  1.00  0.00     0.006 C 
BRANCH  10  11
ATOM     11  C   UNL     1      83.222  61.014  10.456  1.00  0.00     0.053 C 
BRANCH  11  12
ATOM     12  C   UNL     1      84.695  61.211  10.641  1.00  0.00     0.041 C 
ATOM     13  O   UNL     1      85.255  62.252  10.209  1.00  0.00    -0.550 OA
ATOM     14  O   UNL     1      85.445  60.260  11.323  1.00  0.00    -0.550 OA
ENDBRANCH  11  12
ENDBRANCH  10  11
ENDBRANCH   9  10
ENDBRANCH   8   9
ENDBRANCH   1   8
TORSDOF 9
ENDMDL
MODEL 3
REMARK VINA RESULT:    -4.784      1.088      1.446
REMARK INTER + INTRA:          -7.717
REMARK INTER:                  -7.296
REMARK INTRA:                  -0.421
REMARK UNBOUND:                -0.416
REMARK SMILES O=C([O-])CCCCCCCCC(=O)[O-]
REMARK SMILES IDX 7 1 6 2 5 3 4 4 2 5 1 6 3 7 8 8 9 9 10 10 11 11 12 12 13 13
REMARK SMILES IDX 14 14
REMARK H PARENT
REMARK Flexibility Score: inf
ROOT
ATOM      1  C   UNL     1      80.973  58.602  10.697  1.00  0.00     0.000 C 
ENDROOT
BRANCH   1   2
ATOM      2  C   UNL     1      81.040  60.131  10.614  1.00  0.00     0.000 C 
BRANCH   2   3
ATOM      3  C   UNL     1      82.473  60.605  10.331  1.00  0.00     0.006 C 
BRANCH   3   4
ATOM      4  C   UNL     1      83.523  59.570  10.755  1.00  0.00     0.053 C 
BRANCH   4   5
ATOM      5  C   UNL     1      84.213  59.966  12.024  1.00  0.00     0.041 C 
ATOM      6  O   UNL     1      85.461  60.129  12.042  1.00  0.00    -0.550 OA
ATOM      7  O   UNL     1      83.473  60.186  13.179  1.00  0.00    -0.550 OA
ENDBRANCH   4   5
ENDBRANCH   3   4
ENDBRANCH   2   3
ENDBRANCH   1   2
BRANCH   1   8
ATOM      8  C   UNL     1      79.575  58.091  10.327  1.00  0.00     0.000 C 
BRANCH   8   9
ATOM      9  C   UNL     1      79.424  56.604  10.671  1.00  0.00     0.000 C 
BRANCH   9  10
ATOM     10  C   UNL     1      78.274  55.970   9.875  1.00  0.00     0.006 C 
BRANCH  10  11
ATOM     11  C   UNL     1      77.759  56.894   8.763  1.00  0.00     0.053 C 
BRANCH  11  12
ATOM     12  C   UNL     1      77.747  56.209   7.431  1.00  0.00     0.041 C 
ATOM     13  O   UNL     1      77.729  56.885   6.370  1.00  0.00    -0.550 OA
ATOM     14  O   UNL     1      77.790  54.821   7.361  1.00  0.00    -0.550 OA
ENDBRANCH  11  12
ENDBRANCH  10  11
ENDBRANCH   9  10
ENDBRANCH   8   9
ENDBRANCH   1   8
TORSDOF 9
ENDMDL
MODEL 4
REMARK VINA RESULT:    -4.744      1.626      2.654
REMARK INTER + INTRA:          -7.657
REMARK INTER:                  -7.243
REMARK INTRA:                  -0.414
REMARK UNBOUND:                -0.416
REMARK SMILES O=C([O-])CCCCCCCCC(=O)[O-]
REMARK SMILES IDX 7 1 6 2 5 3 4 4 2 5 1 6 3 7 8 8 9 9 10 10 11 11 12 12 13 13
REMARK SMILES IDX 14 14
REMARK H PARENT
REMARK Flexibility Score: inf
ROOT
ATOM      1  C   UNL     1      79.765  56.729  10.412  1.00  0.00     0.000 C 
ENDROOT
BRANCH   1   2
ATOM      2  C   UNL     1      79.727  58.261  10.400  1.00  0.00     0.000 C 
BRANCH   2   3
ATOM      3  C   UNL     1      81.106  58.849  10.733  1.00  0.00     0.006 C 
BRANCH   3   4
ATOM      4  C   UNL     1      81.220  60.327  10.335  1.00  0.00     0.053 C 
BRANCH   4   5
ATOM      5  C   UNL     1      82.605  60.855  10.550  1.00  0.00     0.041 C 
ATOM      6  O   UNL     1      83.010  61.852   9.898  1.00  0.00    -0.550 OA
ATOM      7  O   UNL     1      83.436  60.266  11.495  1.00  0.00    -0.550 OA
ENDBRANCH   4   5
ENDBRANCH   3   4
ENDBRANCH   2   3
ENDBRANCH   1   2
BRANCH   1   8
ATOM      8  C   UNL     1      78.364  56.141  10.201  1.00  0.00     0.000 C 
BRANCH   8   9
ATOM      9  C   UNL     1      77.681  56.768   8.979  1.00  0.00     0.000 C 
BRANCH   9  10
ATOM     10  C   UNL     1      78.121  56.068   7.685  1.00  0.00     0.006 C 
BRANCH  10  11
ATOM     11  C   UNL     1      77.921  54.548   7.751  1.00  0.00     0.053 C 
BRANCH  11  12
ATOM     12  C   UNL     1      79.228  53.815   7.762  1.00  0.00     0.041 C 
ATOM     13  O   UNL     1      80.291  54.410   7.446  1.00  0.00    -0.550 OA
ATOM     14  O   UNL     1      79.276  52.483   8.156  1.00  0.00    -0.550 OA
ENDBRANCH  11  12
ENDBRANCH  10  11
ENDBRANCH   9  10
ENDBRANCH   8   9
ENDBRANCH   1   8
TORSDOF 9
ENDMDL
MODEL 5
REMARK VINA RESULT:    -4.678      4.945      5.957
REMARK INTER + INTRA:          -7.556
REMARK INTER:                  -6.871
REMARK INTRA:                  -0.686
REMARK UNBOUND:                -0.416
REMARK SMILES O=C([O-])CCCCCCCCC(=O)[O-]
REMARK SMILES IDX 7 1 6 2 5 3 4 4 2 5 1 6 3 7 8 8 9 9 10 10 11 11 12 12 13 13
REMARK SMILES IDX 14 14
REMARK H PARENT
REMARK Flexibility Score: inf
ROOT
ATOM      1  C   UNL     1      78.893  57.611   9.645  1.00  0.00     0.000 C 
ENDROOT
BRANCH   1   2
ATOM      2  C   UNL     1      79.588  56.865  10.789  1.00  0.00     0.000 C 
BRANCH   2   3
ATOM      3  C   UNL     1      78.564  56.151  11.684  1.00  0.00     0.006 C 
BRANCH   3   4
ATOM      4  C   UNL     1      79.233  55.249  12.729  1.00  0.00     0.053 C 
BRANCH   4   5
ATOM      5  C   UNL     1      78.413  55.144  13.979  1.00  0.00     0.041 C 
ATOM      6  O   UNL     1      77.821  56.157  14.434  1.00  0.00    -0.550 OA
ATOM      7  O   UNL     1      78.277  53.920  14.621  1.00  0.00    -0.550 OA
ENDBRANCH   4   5
ENDBRANCH   3   4
ENDBRANCH   2   3
ENDBRANCH   1   2
BRANCH   1   8
ATOM      8  C   UNL     1      77.642  56.858   9.176  1.00  0.00     0.000 C 
BRANCH   8   9
ATOM      9  C   UNL     1      77.895  56.146   7.841  1.00  0.00     0.000 C 
BRANCH   9  10
ATOM     10  C   UNL     1      77.973  54.625   8.035  1.00  0.00     0.006 C 
BRANCH  10  11
ATOM     11  C   UNL     1      79.417  54.136   8.211  1.00  0.00     0.053 C 
BRANCH  11  12
ATOM     12  C   UNL     1      79.591  52.729   7.730  1.00  0.00     0.041 C 
ATOM     13  O   UNL     1      78.978  51.786   8.295  1.00  0.00    -0.550 OA
ATOM     14  O   UNL     1      80.403  52.462   6.634  1.00  0.00    -0.550 OA
ENDBRANCH  11  12
ENDBRANCH  10  11
ENDBRANCH   9  10
ENDBRANCH   8   9
ENDBRANCH   1   8
TORSDOF 9
ENDMDL
MODEL 6
REMARK VINA RESULT:    -4.652      1.827      6.725
REMARK INTER + INTRA:          -7.516
REMARK INTER:                  -7.008
REMARK INTRA:                  -0.508
REMARK UNBOUND:                -0.416
REMARK SMILES O=C([O-])CCCCCCCCC(=O)[O-]
REMARK SMILES IDX 7 1 6 2 5 3 4 4 2 5 1 6 3 7 8 8 9 9 10 10 11 11 12 12 13 13
REMARK SMILES IDX 14 14
REMARK H PARENT
REMARK Flexibility Score: inf
ROOT
ATOM      1  C   UNL     1      79.996  57.922  10.145  1.00  0.00     0.000 C 
ENDROOT
BRANCH   1   2
ATOM      2  C   UNL     1      78.964  57.093  10.917  1.00  0.00     0.000 C 
BRANCH   2   3
ATOM      3  C   UNL     1      78.224  56.126   9.981  1.00  0.00     0.006 C 
BRANCH   3   4
ATOM      4  C   UNL     1      77.502  56.856   8.841  1.00  0.00     0.053 C 
BRANCH   4   5
ATOM      5  C   UNL     1      77.762  56.211   7.515  1.00  0.00     0.041 C 
ATOM      6  O   UNL     1      77.803  54.957   7.419  1.00  0.00    -0.550 OA
ATOM      7  O   UNL     1      77.926  56.994   6.379  1.00  0.00    -0.550 OA
ENDBRANCH   4   5
ENDBRANCH   3   4
ENDBRANCH   2   3
ENDBRANCH   1   2
BRANCH   1   8
ATOM      8  C   UNL     1      79.831  59.419  10.439  1.00  0.00     0.000 C 
BRANCH   8   9
ATOM      9  C   UNL     1      81.163  60.162  10.278  1.00  0.00     0.000 C 
BRANCH   9  10
ATOM     10  C   UNL     1      82.293  59.432  11.018  1.00  0.00     0.006 C 
BRANCH  10  11
ATOM     11  C   UNL     1      83.590  59.389  10.200  1.00  0.00     0.053 C 
BRANCH  11  12
ATOM     12  C   UNL     1      84.116  57.994  10.064  1.00  0.00     0.041 C 
ATOM     13  O   UNL     1      83.323  57.029   9.911  1.00  0.00    -0.550 OA
ATOM     14  O   UNL     1      85.487  57.762  10.070  1.00  0.00    -0.550 OA
ENDBRANCH  11  12
ENDBRANCH  10  11
ENDBRANCH   9  10
ENDBRANCH   8   9
ENDBRANCH   1   8
TORSDOF 9
ENDMDL
MODEL 7
REMARK VINA RESULT:    -4.614      1.894      2.166
REMARK INTER + INTRA:          -7.458
REMARK INTER:                  -6.900
REMARK INTRA:                  -0.557
REMARK UNBOUND:                -0.416
REMARK SMILES O=C([O-])CCCCCCCCC(=O)[O-]
REMARK SMILES IDX 7 1 6 2 5 3 4 4 2 5 1 6 3 7 8 8 9 9 10 10 11 11 12 12 13 13
REMARK SMILES IDX 14 14
REMARK H PARENT
REMARK Flexibility Score: inf
ROOT
ATOM      1  C   UNL     1      80.385  59.811  10.023  1.00  0.00     0.000 C 
ENDROOT
BRANCH   1   2
ATOM      2  C   UNL     1      81.496  59.489  11.028  1.00  0.00     0.000 C 
BRANCH   2   3
ATOM      3  C   UNL     1      82.842  60.066  10.565  1.00  0.00     0.006 C 
BRANCH   3   4
ATOM      4  C   UNL     1      83.998  59.078  10.764  1.00  0.00     0.053 C 
BRANCH   4   5
ATOM      5  C   UNL     1      84.138  58.144   9.601  1.00  0.00     0.041 C 
ATOM      6  O   UNL     1      83.656  56.983   9.660  1.00  0.00    -0.550 OA
ATOM      7  O   UNL     1      84.771  58.568   8.439  1.00  0.00    -0.550 OA
ENDBRANCH   4   5
ENDBRANCH   3   4
ENDBRANCH   2   3
ENDBRANCH   1   2
BRANCH   1   8
ATOM      8  C   UNL     1      79.270  58.759  10.078  1.00  0.00     0.000 C 
BRANCH   8   9
ATOM      9  C   UNL     1      79.834  57.377  10.430  1.00  0.00     0.000 C 
BRANCH   9  10
ATOM     10  C   UNL     1      78.795  56.277  10.173  1.00  0.00     0.006 C 
BRANCH  10  11
ATOM     11  C   UNL     1      77.659  56.754   9.257  1.00  0.00     0.053 C 
BRANCH  11  12
ATOM     12  C   UNL     1      77.766  56.163   7.885  1.00  0.00     0.041 C 
ATOM     13  O   UNL     1      77.810  54.914   7.734  1.00  0.00    -0.550 OA
ATOM     14  O   UNL     1      77.781  56.991   6.769  1.00  0.00    -0.550 OA
ENDBRANCH  11  12
ENDBRANCH  10  11
ENDBRANCH   9  10
ENDBRANCH   8   9
ENDBRANCH   1   8
TORSDOF 9
ENDMDL
MODEL 8
REMARK VINA RESULT:    -4.606      4.977      7.178
REMARK INTER + INTRA:          -7.445
REMARK INTER:                  -6.954
REMARK INTRA:                  -0.491
REMARK UNBOUND:                -0.416
REMARK SMILES O=C([O-])CCCCCCCCC(=O)[O-]
REMARK SMILES IDX 7 1 6 2 5 3 4 4 2 5 1 6 3 7 8 8 9 9 10 10 11 11 12 12 13 13
REMARK SMILES IDX 14 14
REMARK H PARENT
REMARK Flexibility Score: inf
ROOT
ATOM      1  C   UNL     1      84.595  60.498  15.115  1.00  0.00     0.000 C 
ENDROOT
BRANCH   1   2
ATOM      2  C   UNL     1      84.865  61.490  16.251  1.00  0.00     0.000 C 
BRANCH   2   3
ATOM      3  C   UNL     1      85.379  62.829  15.702  1.00  0.00     0.006 C 
BRANCH   3   4
ATOM      4  C   UNL     1      84.855  64.027  16.505  1.00  0.00     0.053 C 
BRANCH   4   5
ATOM      5  C   UNL     1      84.509  65.183  15.617  1.00  0.00     0.041 C 
ATOM      6  O   UNL     1      85.193  65.416  14.586  1.00  0.00    -0.550 OA
ATOM      7  O   UNL     1      83.411  65.982  15.910  1.00  0.00    -0.550 OA
ENDBRANCH   4   5
ENDBRANCH   3   4
ENDBRANCH   2   3
ENDBRANCH   1   2
BRANCH   1   8
ATOM      8  C   UNL     1      85.350  60.899  13.841  1.00  0.00     0.000 C 
BRANCH   8   9
ATOM      9  C   UNL     1      85.849  59.663  13.084  1.00  0.00     0.000 C 
BRANCH   9  10
ATOM     10  C   UNL     1      85.547  59.778  11.583  1.00  0.00     0.006 C 
BRANCH  10  11
ATOM     11  C   UNL     1      84.681  61.003  11.258  1.00  0.00     0.053 C 
BRANCH  11  12
ATOM     12  C   UNL     1      83.290  60.612  10.864  1.00  0.00     0.041 C 
ATOM     13  O   UNL     1      82.822  59.496  11.212  1.00  0.00    -0.550 OA
ATOM     14  O   UNL     1      82.496  61.495  10.141  1.00  0.00    -0.550 OA
ENDBRANCH  11  12
ENDBRANCH  10  11
ENDBRANCH   9  10
ENDBRANCH   8   9
ENDBRANCH   1   8
TORSDOF 9
ENDMDL
MODEL 9
REMARK VINA RESULT:    -4.571      1.802      7.151
REMARK INTER + INTRA:          -7.392
REMARK INTER:                  -7.002
REMARK INTRA:                  -0.390
REMARK UNBOUND:                -0.416
REMARK SMILES O=C([O-])CCCCCCCCC(=O)[O-]
REMARK SMILES IDX 7 1 6 2 5 3 4 4 2 5 1 6 3 7 8 8 9 9 10 10 11 11 12 12 13 13
REMARK SMILES IDX 14 14
REMARK H PARENT
REMARK Flexibility Score: inf
ROOT
ATOM      1  C   UNL     1      78.083  56.078   9.936  1.00  0.00     0.000 C 
ENDROOT
BRANCH   1   2
ATOM      2  C   UNL     1      77.960  56.836   8.610  1.00  0.00     0.000 C 
BRANCH   2   3
ATOM      3  C   UNL     1      78.125  55.885   7.415  1.00  0.00     0.006 C 
BRANCH   3   4
ATOM      4  C   UNL     1      77.935  54.415   7.810  1.00  0.00     0.053 C 
BRANCH   4   5
ATOM      5  C   UNL     1      79.216  53.644   7.721  1.00  0.00     0.041 C 
ATOM      6  O   UNL     1      79.230  52.409   7.960  1.00  0.00    -0.550 OA
ATOM      7  O   UNL     1      80.389  54.285   7.341  1.00  0.00    -0.550 OA
ENDBRANCH   4   5
ENDBRANCH   3   4
ENDBRANCH   2   3
ENDBRANCH   1   2
BRANCH   1   8
ATOM      8  C   UNL     1      78.996  56.827  10.916  1.00  0.00     0.000 C 
BRANCH   8   9
ATOM      9  C   UNL     1      79.416  58.188  10.346  1.00  0.00     0.000 C 
BRANCH   9  10
ATOM     10  C   UNL     1      80.931  58.398  10.487  1.00  0.00     0.006 C 
BRANCH  10  11
ATOM     11  C   UNL     1      81.281  59.829  10.914  1.00  0.00     0.053 C 
BRANCH  11  12
ATOM     12  C   UNL     1      82.717  59.953  11.322  1.00  0.00     0.041 C 
ATOM     13  O   UNL     1      83.021  60.098  12.534  1.00  0.00    -0.550 OA
ATOM     14  O   UNL     1      83.722  59.873  10.365  1.00  0.00    -0.550 OA
ENDBRANCH  11  12
ENDBRANCH  10  11
ENDBRANCH   9  10
ENDBRANCH   8   9
ENDBRANCH   1   8
TORSDOF 9
ENDMDL
