MODEL 1
REMARK VINA RESULT:    -7.825      0.000      0.000
REMARK INTER + INTRA:          -9.559
REMARK INTER:                  -9.427
REMARK INTRA:                  -0.133
REMARK UNBOUND:                -0.133
REMARK SMILES O=c1c(O)c(-c2ccc(O)c(O)c2)oc2cc(O)cc(O)c12
REMARK SMILES IDX 5 1 3 2 2 3 1 4 22 5 20 6 19 7 17 8 16 9 15 10 14 11 6 12
REMARK SMILES IDX 7 13 8 14 9 15 13 16 11 17 10 18 12 20 4 22 21 24 18 26
REMARK H PARENT 10 19 12 21 4 23 21 25 18 27
REMARK Flexibility Score: inf
ROOT
ATOM      1  C   UNL     1       1.966  45.659   2.643  1.00  0.00     0.180 A 
ATOM      2  C   UNL     1       1.528  45.189   1.392  1.00  0.00     0.208 A 
ATOM      3  C   UNL     1       0.172  44.863   1.225  1.00  0.00     0.238 A 
ATOM      4  O   UNL     1      -0.225  44.494   0.090  1.00  0.00    -0.285 OA
ATOM      5  C   UNL     1      -0.724  44.995   2.313  1.00  0.00     0.111 A 
ATOM      6  C   UNL     1      -2.109  44.654   2.269  1.00  0.00     0.134 A 
ATOM      7  C   UNL     1      -2.929  44.948   3.365  1.00  0.00     0.093 A 
ATOM      8  C   UNL     1      -2.399  45.510   4.530  1.00  0.00     0.123 A 
ATOM      9  C   UNL     1      -1.038  45.791   4.605  1.00  0.00     0.094 A 
ATOM     10  C   UNL     1      -0.201  45.543   3.514  1.00  0.00     0.146 A 
ATOM     11  O   UNL     1       1.089  45.834   3.624  1.00  0.00    -0.452 OA
ENDROOT
BRANCH   1  12
ATOM     12  C   UNL     1       3.383  46.001   2.902  1.00  0.00     0.025 A 
ATOM     13  C   UNL     1       4.134  45.318   3.876  1.00  0.00     0.016 A 
ATOM     14  C   UNL     1       5.463  45.674   4.122  1.00  0.00     0.051 A 
ATOM     15  C   UNL     1       6.056  46.724   3.409  1.00  0.00     0.157 A 
ATOM     16  C   UNL     1       3.977  47.067   2.206  1.00  0.00     0.062 A 
ATOM     17  C   UNL     1       5.311  47.424   2.451  1.00  0.00     0.158 A 
BRANCH  15  18
ATOM     18  O   UNL     1       7.382  47.081   3.650  1.00  0.00    -0.504 OA
ATOM     19  H   UNL     1       7.704  47.326   4.579  1.00  0.00     0.293 HD
ENDBRANCH  15  18
BRANCH  17  20
ATOM     20  O   UNL     1       5.901  48.473   1.750  1.00  0.00    -0.504 OA
ATOM     21  H   UNL     1       6.893  48.476   1.536  1.00  0.00     0.293 HD
ENDBRANCH  17  20
ENDBRANCH   1  12
BRANCH   2  22
ATOM     22  O   UNL     1       2.424  45.087   0.326  1.00  0.00    -0.502 OA
ATOM     23  H   UNL     1       3.180  45.747   0.184  1.00  0.00     0.293 HD
ENDBRANCH   2  22
BRANCH   6  24
ATOM     24  O   UNL     1      -2.719  44.006   1.190  1.00  0.00    -0.507 OA
ATOM     25  H   UNL     1      -3.330  43.208   1.269  1.00  0.00     0.293 HD
ENDBRANCH   6  24
BRANCH   8  26
ATOM     26  O   UNL     1      -3.219  45.786   5.622  1.00  0.00    -0.508 OA
ATOM     27  H   UNL     1      -3.931  46.506   5.582  1.00  0.00     0.293 HD
ENDBRANCH   8  26
TORSDOF 6
ENDMDL
MODEL 2
REMARK VINA RESULT:    -7.370      5.473      7.218
REMARK INTER + INTRA:          -9.011
REMARK INTER:                  -9.065
REMARK INTRA:                   0.053
REMARK UNBOUND:                -0.133
REMARK SMILES O=c1c(O)c(-c2ccc(O)c(O)c2)oc2cc(O)cc(O)c12
REMARK SMILES IDX 5 1 3 2 2 3 1 4 22 5 20 6 19 7 17 8 16 9 15 10 14 11 6 12
REMARK SMILES IDX 7 13 8 14 9 15 13 16 11 17 10 18 12 20 4 22 21 24 18 26
REMARK H PARENT 10 19 12 21 4 23 21 25 18 27
REMARK Flexibility Score: inf
ROOT
ATOM      1  C   UNL     1       6.982  45.967   5.342  1.00  0.00     0.180 A 
ATOM      2  C   UNL     1       7.692  46.350   6.493  1.00  0.00     0.208 A 
ATOM      3  C   UNL     1       7.233  45.922   7.749  1.00  0.00     0.238 A 
ATOM      4  O   UNL     1       7.902  46.223   8.772  1.00  0.00    -0.285 OA
ATOM      5  C   UNL     1       6.063  45.131   7.841  1.00  0.00     0.111 A 
ATOM      6  C   UNL     1       5.485  44.676   9.064  1.00  0.00     0.134 A 
ATOM      7  C   UNL     1       4.400  43.791   9.028  1.00  0.00     0.093 A 
ATOM      8  C   UNL     1       3.831  43.397   7.814  1.00  0.00     0.123 A 
ATOM      9  C   UNL     1       4.351  43.883   6.617  1.00  0.00     0.094 A 
ATOM     10  C   UNL     1       5.456  44.738   6.618  1.00  0.00     0.146 A 
ATOM     11  O   UNL     1       5.926  45.171   5.455  1.00  0.00    -0.452 OA
ENDROOT
BRANCH   1  12
ATOM     12  C   UNL     1       7.390  46.398   3.986  1.00  0.00     0.025 A 
ATOM     13  C   UNL     1       8.725  46.298   3.556  1.00  0.00     0.016 A 
ATOM     14  C   UNL     1       9.092  46.735   2.280  1.00  0.00     0.051 A 
ATOM     15  C   UNL     1       8.134  47.289   1.421  1.00  0.00     0.157 A 
ATOM     16  C   UNL     1       6.438  46.974   3.128  1.00  0.00     0.062 A 
ATOM     17  C   UNL     1       6.805  47.412   1.846  1.00  0.00     0.158 A 
BRANCH  15  18
ATOM     18  O   UNL     1       8.495  47.724   0.147  1.00  0.00    -0.504 OA
ATOM     19  H   UNL     1       9.233  48.405   0.009  1.00  0.00     0.293 HD
ENDBRANCH  15  18
BRANCH  17  20
ATOM     20  O   UNL     1       5.856  47.971   0.993  1.00  0.00    -0.504 OA
ATOM     21  H   UNL     1       5.016  48.413   1.350  1.00  0.00     0.293 HD
ENDBRANCH  17  20
ENDBRANCH   1  12
BRANCH   2  22
ATOM     22  O   UNL     1       8.857  47.113   6.379  1.00  0.00    -0.502 OA
ATOM     23  H   UNL     1       9.227  47.412   5.485  1.00  0.00     0.293 HD
ENDBRANCH   2  22
BRANCH   6  24
ATOM     24  O   UNL     1       5.917  45.082  10.329  1.00  0.00    -0.507 OA
ATOM     25  H   UNL     1       6.248  44.461  11.051  1.00  0.00     0.293 HD
ENDBRANCH   6  24
BRANCH   8  26
ATOM     26  O   UNL     1       2.743  42.528   7.788  1.00  0.00    -0.508 OA
ATOM     27  H   UNL     1       1.793  42.865   7.894  1.00  0.00     0.293 HD
ENDBRANCH   8  26
TORSDOF 6
ENDMDL
MODEL 3
REMARK VINA RESULT:    -7.356      1.940      3.854
REMARK INTER + INTRA:          -8.993
REMARK INTER:                  -8.877
REMARK INTRA:                  -0.117
REMARK UNBOUND:                -0.133
REMARK SMILES O=c1c(O)c(-c2ccc(O)c(O)c2)oc2cc(O)cc(O)c12
REMARK SMILES IDX 5 1 3 2 2 3 1 4 22 5 20 6 19 7 17 8 16 9 15 10 14 11 6 12
REMARK SMILES IDX 7 13 8 14 9 15 13 16 11 17 10 18 12 20 4 22 21 24 18 26
REMARK H PARENT 10 19 12 21 4 23 21 25 18 27
REMARK Flexibility Score: inf
ROOT
ATOM      1  C   UNL     1       1.943  45.441   2.588  1.00  0.00     0.180 A 
ATOM      2  C   UNL     1       0.750  45.657   3.298  1.00  0.00     0.208 A 
ATOM      3  C   UNL     1      -0.468  45.650   2.599  1.00  0.00     0.238 A 
ATOM      4  O   UNL     1      -1.538  45.791   3.247  1.00  0.00    -0.285 OA
ATOM      5  C   UNL     1      -0.477  45.443   1.198  1.00  0.00     0.111 A 
ATOM      6  C   UNL     1      -1.648  45.457   0.383  1.00  0.00     0.134 A 
ATOM      7  C   UNL     1      -1.553  45.110  -0.970  1.00  0.00     0.093 A 
ATOM      8  C   UNL     1      -0.317  44.816  -1.553  1.00  0.00     0.123 A 
ATOM      9  C   UNL     1       0.840  44.859  -0.779  1.00  0.00     0.094 A 
ATOM     10  C   UNL     1       0.772  45.165   0.583  1.00  0.00     0.146 A 
ATOM     11  O   UNL     1       1.897  45.185   1.286  1.00  0.00    -0.452 OA
ENDROOT
BRANCH   1  12
ATOM     12  C   UNL     1       3.267  45.458   3.250  1.00  0.00     0.025 A 
ATOM     13  C   UNL     1       4.263  46.377   2.873  1.00  0.00     0.016 A 
ATOM     14  C   UNL     1       5.515  46.358   3.495  1.00  0.00     0.051 A 
ATOM     15  C   UNL     1       5.793  45.415   4.493  1.00  0.00     0.157 A 
ATOM     16  C   UNL     1       3.560  44.501   4.236  1.00  0.00     0.062 A 
ATOM     17  C   UNL     1       4.815  44.483   4.862  1.00  0.00     0.158 A 
BRANCH  15  18
ATOM     18  O   UNL     1       7.039  45.394   5.117  1.00  0.00    -0.504 OA
ATOM     19  H   UNL     1       7.166  44.976   6.032  1.00  0.00     0.293 HD
ENDBRANCH  15  18
BRANCH  17  20
ATOM     20  O   UNL     1       5.098  43.541   5.849  1.00  0.00    -0.504 OA
ATOM     21  H   UNL     1       5.922  42.952   5.800  1.00  0.00     0.293 HD
ENDBRANCH  17  20
ENDBRANCH   1  12
BRANCH   2  22
ATOM     22  O   UNL     1       0.778  45.838   4.683  1.00  0.00    -0.502 OA
ATOM     23  H   UNL     1       0.012  45.559   5.284  1.00  0.00     0.293 HD
ENDBRANCH   2  22
BRANCH   6  24
ATOM     24  O   UNL     1      -2.915  45.827   0.845  1.00  0.00    -0.507 OA
ATOM     25  H   UNL     1      -3.087  46.481   1.593  1.00  0.00     0.293 HD
ENDBRANCH   6  24
BRANCH   8  26
ATOM     26  O   UNL     1      -0.229  44.487  -2.903  1.00  0.00    -0.508 OA
ATOM     27  H   UNL     1       0.631  44.132  -3.307  1.00  0.00     0.293 HD
ENDBRANCH   8  26
TORSDOF 6
ENDMDL
MODEL 4
REMARK VINA RESULT:    -7.342      3.370      6.703
REMARK INTER + INTRA:          -8.977
REMARK INTER:                  -9.271
REMARK INTRA:                   0.294
REMARK UNBOUND:                -0.133
REMARK SMILES O=c1c(O)c(-c2ccc(O)c(O)c2)oc2cc(O)cc(O)c12
REMARK SMILES IDX 5 1 3 2 2 3 1 4 22 5 20 6 19 7 17 8 16 9 15 10 14 11 6 12
REMARK SMILES IDX 7 13 8 14 9 15 13 16 11 17 10 18 12 20 4 22 21 24 18 26
REMARK H PARENT 10 19 12 21 4 23 21 25 18 27
REMARK Flexibility Score: inf
ROOT
ATOM      1  C   UNL     1      -1.099  45.156   1.606  1.00  0.00     0.180 A 
ATOM      2  C   UNL     1       0.294  45.127   1.419  1.00  0.00     0.208 A 
ATOM      3  C   UNL     1       0.803  44.952   0.122  1.00  0.00     0.238 A 
ATOM      4  O   UNL     1       2.050  44.980  -0.047  1.00  0.00    -0.285 OA
ATOM      5  C   UNL     1      -0.086  44.792  -0.969  1.00  0.00     0.111 A 
ATOM      6  C   UNL     1       0.319  44.568  -2.319  1.00  0.00     0.134 A 
ATOM      7  C   UNL     1      -0.643  44.555  -3.336  1.00  0.00     0.093 A 
ATOM      8  C   UNL     1      -2.003  44.692  -3.043  1.00  0.00     0.123 A 
ATOM      9  C   UNL     1      -2.413  44.852  -1.722  1.00  0.00     0.094 A 
ATOM     10  C   UNL     1      -1.473  44.906  -0.689  1.00  0.00     0.146 A 
ATOM     11  O   UNL     1      -1.906  45.069   0.555  1.00  0.00    -0.452 OA
ENDROOT
BRANCH   1  12
ATOM     12  C   UNL     1      -1.711  45.312   2.945  1.00  0.00     0.025 A 
ATOM     13  C   UNL     1      -1.051  46.007   3.975  1.00  0.00     0.016 A 
ATOM     14  C   UNL     1      -1.636  46.121   5.239  1.00  0.00     0.051 A 
ATOM     15  C   UNL     1      -2.881  45.532   5.496  1.00  0.00     0.157 A 
ATOM     16  C   UNL     1      -2.949  44.706   3.215  1.00  0.00     0.062 A 
ATOM     17  C   UNL     1      -3.537  44.821   4.483  1.00  0.00     0.158 A 
BRANCH  15  18
ATOM     18  O   UNL     1      -3.469  45.644   6.755  1.00  0.00    -0.504 OA
ATOM     19  H   UNL     1      -3.140  46.320   7.434  1.00  0.00     0.293 HD
ENDBRANCH  15  18
BRANCH  17  20
ATOM     20  O   UNL     1      -4.772  44.230   4.744  1.00  0.00    -0.504 OA
ATOM     21  H   UNL     1      -5.183  44.249   5.671  1.00  0.00     0.293 HD
ENDBRANCH  17  20
ENDBRANCH   1  12
BRANCH   2  22
ATOM     22  O   UNL     1       1.153  45.308   2.506  1.00  0.00    -0.502 OA
ATOM     23  H   UNL     1       1.162  44.682   3.302  1.00  0.00     0.293 HD
ENDBRANCH   2  22
BRANCH   6  24
ATOM     24  O   UNL     1       1.641  44.326  -2.707  1.00  0.00    -0.507 OA
ATOM     25  H   UNL     1       2.417  44.225  -2.071  1.00  0.00     0.293 HD
ENDBRANCH   6  24
BRANCH   8  26
ATOM     26  O   UNL     1      -2.955  44.663  -4.059  1.00  0.00    -0.508 OA
ATOM     27  H   UNL     1      -3.917  44.400  -3.877  1.00  0.00     0.293 HD
ENDBRANCH   8  26
TORSDOF 6
ENDMDL
MODEL 5
REMARK VINA RESULT:    -7.289      5.658      8.077
REMARK INTER + INTRA:          -8.913
REMARK INTER:                  -8.972
REMARK INTRA:                   0.059
REMARK UNBOUND:                -0.133
REMARK SMILES O=c1c(O)c(-c2ccc(O)c(O)c2)oc2cc(O)cc(O)c12
REMARK SMILES IDX 5 1 3 2 2 3 1 4 22 5 20 6 19 7 17 8 16 9 15 10 14 11 6 12
REMARK SMILES IDX 7 13 8 14 9 15 13 16 11 17 10 18 12 20 4 22 21 24 18 26
REMARK H PARENT 10 19 12 21 4 23 21 25 18 27
REMARK Flexibility Score: inf
ROOT
ATOM      1  C   UNL     1       7.392  46.498   3.585  1.00  0.00     0.180 A 
ATOM      2  C   UNL     1       8.733  46.424   3.171  1.00  0.00     0.208 A 
ATOM      3  C   UNL     1       9.075  46.878   1.887  1.00  0.00     0.238 A 
ATOM      4  O   UNL     1      10.285  46.859   1.541  1.00  0.00    -0.285 OA
ATOM      5  C   UNL     1       8.071  47.386   1.028  1.00  0.00     0.111 A 
ATOM      6  C   UNL     1       8.297  47.836  -0.308  1.00  0.00     0.134 A 
ATOM      7  C   UNL     1       7.254  48.441  -1.020  1.00  0.00     0.093 A 
ATOM      8  C   UNL     1       5.974  48.550  -0.468  1.00  0.00     0.123 A 
ATOM      9  C   UNL     1       5.729  48.060   0.812  1.00  0.00     0.094 A 
ATOM     10  C   UNL     1       6.759  47.486   1.562  1.00  0.00     0.146 A 
ATOM     11  O   UNL     1       6.484  47.040   2.781  1.00  0.00    -0.452 OA
ENDROOT
BRANCH   1  12
ATOM     12  C   UNL     1       6.950  46.017   4.913  1.00  0.00     0.025 A 
ATOM     13  C   UNL     1       7.648  46.360   6.086  1.00  0.00     0.016 A 
ATOM     14  C   UNL     1       7.227  45.874   7.327  1.00  0.00     0.051 A 
ATOM     15  C   UNL     1       6.114  45.028   7.413  1.00  0.00     0.157 A 
ATOM     16  C   UNL     1       5.848  45.151   5.004  1.00  0.00     0.062 A 
ATOM     17  C   UNL     1       5.424  44.664   6.249  1.00  0.00     0.158 A 
BRANCH  15  18
ATOM     18  O   UNL     1       5.690  44.542   8.649  1.00  0.00    -0.504 OA
ATOM     19  H   UNL     1       4.857  43.971   8.736  1.00  0.00     0.293 HD
ENDBRANCH  15  18
BRANCH  17  20
ATOM     20  O   UNL     1       4.322  43.816   6.338  1.00  0.00    -0.504 OA
ATOM     21  H   UNL     1       3.908  43.575   7.232  1.00  0.00     0.293 HD
ENDBRANCH  17  20
ENDBRANCH   1  12
BRANCH   2  22
ATOM     22  O   UNL     1       9.712  45.939   4.042  1.00  0.00    -0.502 OA
ATOM     23  H   UNL     1      10.384  45.232   3.767  1.00  0.00     0.293 HD
ENDBRANCH   2  22
BRANCH   6  24
ATOM     24  O   UNL     1       9.512  47.689  -0.985  1.00  0.00    -0.507 OA
ATOM     25  H   UNL     1      10.063  48.451  -1.349  1.00  0.00     0.293 HD
ENDBRANCH   6  24
BRANCH   8  26
ATOM     26  O   UNL     1       4.938  49.139  -1.188  1.00  0.00    -0.508 OA
ATOM     27  H   UNL     1       4.968  50.115  -1.459  1.00  0.00     0.293 HD
ENDBRANCH   8  26
TORSDOF 6
ENDMDL
MODEL 6
REMARK VINA RESULT:    -7.257      4.291      6.909
REMARK INTER + INTRA:          -8.875
REMARK INTER:                  -9.290
REMARK INTRA:                   0.416
REMARK UNBOUND:                -0.133
REMARK SMILES O=c1c(O)c(-c2ccc(O)c(O)c2)oc2cc(O)cc(O)c12
REMARK SMILES IDX 5 1 3 2 2 3 1 4 22 5 20 6 19 7 17 8 16 9 15 10 14 11 6 12
REMARK SMILES IDX 7 13 8 14 9 15 13 16 11 17 10 18 12 20 4 22 21 24 18 26
REMARK H PARENT 10 19 12 21 4 23 21 25 18 27
REMARK Flexibility Score: inf
ROOT
ATOM      1  C   UNL     1      -2.005  45.019   0.939  1.00  0.00     0.180 A 
ATOM      2  C   UNL     1      -3.182  44.753   0.218  1.00  0.00     0.208 A 
ATOM      3  C   UNL     1      -3.098  44.539  -1.167  1.00  0.00     0.238 A 
ATOM      4  O   UNL     1      -4.147  44.248  -1.799  1.00  0.00    -0.285 OA
ATOM      5  C   UNL     1      -1.842  44.610  -1.817  1.00  0.00     0.111 A 
ATOM      6  C   UNL     1      -1.645  44.451  -3.221  1.00  0.00     0.134 A 
ATOM      7  C   UNL     1      -0.343  44.412  -3.736  1.00  0.00     0.093 A 
ATOM      8  C   UNL     1       0.766  44.592  -2.905  1.00  0.00     0.123 A 
ATOM      9  C   UNL     1       0.581  44.808  -1.542  1.00  0.00     0.094 A 
ATOM     10  C   UNL     1      -0.704  44.816  -0.993  1.00  0.00     0.146 A 
ATOM     11  O   UNL     1      -0.835  45.015   0.312  1.00  0.00    -0.452 OA
ENDROOT
BRANCH   1  12
ATOM     12  C   UNL     1      -2.017  45.279   2.396  1.00  0.00     0.025 A 
ATOM     13  C   UNL     1      -0.965  45.968   3.026  1.00  0.00     0.016 A 
ATOM     14  C   UNL     1      -0.985  46.181   4.407  1.00  0.00     0.051 A 
ATOM     15  C   UNL     1      -2.048  45.697   5.180  1.00  0.00     0.157 A 
ATOM     16  C   UNL     1      -3.070  44.778   3.180  1.00  0.00     0.062 A 
ATOM     17  C   UNL     1      -3.091  44.992   4.566  1.00  0.00     0.158 A 
BRANCH  15  18
ATOM     18  O   UNL     1      -2.073  45.907   6.558  1.00  0.00    -0.504 OA
ATOM     19  H   UNL     1      -2.629  45.324   7.173  1.00  0.00     0.293 HD
ENDBRANCH  15  18
BRANCH  17  20
ATOM     20  O   UNL     1      -4.143  44.505   5.339  1.00  0.00    -0.504 OA
ATOM     21  H   UNL     1      -5.060  44.937   5.319  1.00  0.00     0.293 HD
ENDBRANCH  17  20
ENDBRANCH   1  12
BRANCH   2  22
ATOM     22  O   UNL     1      -4.409  44.665   0.882  1.00  0.00    -0.502 OA
ATOM     23  H   UNL     1      -4.612  45.193   1.722  1.00  0.00     0.293 HD
ENDBRANCH   2  22
BRANCH   6  24
ATOM     24  O   UNL     1      -2.686  44.356  -4.149  1.00  0.00    -0.507 OA
ATOM     25  H   UNL     1      -2.971  43.505  -4.609  1.00  0.00     0.293 HD
ENDBRANCH   6  24
BRANCH   8  26
ATOM     26  O   UNL     1       2.057  44.567  -3.428  1.00  0.00    -0.508 OA
ATOM     27  H   UNL     1       2.411  45.323  -4.003  1.00  0.00     0.293 HD
ENDBRANCH   8  26
TORSDOF 6
ENDMDL
MODEL 7
REMARK VINA RESULT:    -7.090      8.668     10.503
REMARK INTER + INTRA:          -8.673
REMARK INTER:                  -8.361
REMARK INTRA:                  -0.312
REMARK UNBOUND:                -0.133
REMARK SMILES O=c1c(O)c(-c2ccc(O)c(O)c2)oc2cc(O)cc(O)c12
REMARK SMILES IDX 5 1 3 2 2 3 1 4 22 5 20 6 19 7 17 8 16 9 15 10 14 11 6 12
REMARK SMILES IDX 7 13 8 14 9 15 13 16 11 17 10 18 12 20 4 22 21 24 18 26
REMARK H PARENT 10 19 12 21 4 23 21 25 18 27
REMARK Flexibility Score: inf
ROOT
ATOM      1  C   UNL     1       5.089  41.038   9.371  1.00  0.00     0.180 A 
ATOM      2  C   UNL     1       5.492  40.615   8.093  1.00  0.00     0.208 A 
ATOM      3  C   UNL     1       5.874  39.277   7.908  1.00  0.00     0.238 A 
ATOM      4  O   UNL     1       6.183  38.890   6.751  1.00  0.00    -0.285 OA
ATOM      5  C   UNL     1       5.863  38.383   9.006  1.00  0.00     0.111 A 
ATOM      6  C   UNL     1       6.269  37.016   8.942  1.00  0.00     0.134 A 
ATOM      7  C   UNL     1       6.093  36.190  10.060  1.00  0.00     0.093 A 
ATOM      8  C   UNL     1       5.588  36.699  11.259  1.00  0.00     0.123 A 
ATOM      9  C   UNL     1       5.245  38.046  11.349  1.00  0.00     0.094 A 
ATOM     10  C   UNL     1       5.374  38.886  10.240  1.00  0.00     0.146 A 
ATOM     11  O   UNL     1       5.027  40.161  10.365  1.00  0.00    -0.452 OA
ENDROOT
BRANCH   1  12
ATOM     12  C   UNL     1       4.695  42.438   9.649  1.00  0.00     0.025 A 
ATOM     13  C   UNL     1       5.658  43.442   9.857  1.00  0.00     0.016 A 
ATOM     14  C   UNL     1       5.264  44.752  10.143  1.00  0.00     0.051 A 
ATOM     15  C   UNL     1       3.904  45.075  10.237  1.00  0.00     0.157 A 
ATOM     16  C   UNL     1       3.334  42.764   9.766  1.00  0.00     0.062 A 
ATOM     17  C   UNL     1       2.937  44.079  10.051  1.00  0.00     0.158 A 
BRANCH  15  18
ATOM     18  O   UNL     1       3.506  46.381  10.520  1.00  0.00    -0.504 OA
ATOM     19  H   UNL     1       3.096  46.627  11.414  1.00  0.00     0.293 HD
ENDBRANCH  15  18
BRANCH  17  20
ATOM     20  O   UNL     1       1.586  44.402  10.154  1.00  0.00    -0.504 OA
ATOM     21  H   UNL     1       0.970  44.370   9.348  1.00  0.00     0.293 HD
ENDBRANCH  17  20
ENDBRANCH   1  12
BRANCH   2  22
ATOM     22  O   UNL     1       5.475  41.508   7.018  1.00  0.00    -0.502 OA
ATOM     23  H   UNL     1       5.695  41.225   6.071  1.00  0.00     0.293 HD
ENDBRANCH   2  22
BRANCH   6  24
ATOM     24  O   UNL     1       6.871  36.432   7.824  1.00  0.00    -0.507 OA
ATOM     25  H   UNL     1       7.677  36.802   7.345  1.00  0.00     0.293 HD
ENDBRANCH   6  24
BRANCH   8  26
ATOM     26  O   UNL     1       5.430  35.875  12.371  1.00  0.00    -0.508 OA
ATOM     27  H   UNL     1       6.225  35.438  12.823  1.00  0.00     0.293 HD
ENDBRANCH   8  26
TORSDOF 6
ENDMDL
MODEL 8
REMARK VINA RESULT:    -7.074      8.259     10.679
REMARK INTER + INTRA:          -8.654
REMARK INTER:                  -8.342
REMARK INTRA:                  -0.312
REMARK UNBOUND:                -0.133
REMARK SMILES O=c1c(O)c(-c2ccc(O)c(O)c2)oc2cc(O)cc(O)c12
REMARK SMILES IDX 5 1 3 2 2 3 1 4 22 5 20 6 19 7 17 8 16 9 15 10 14 11 6 12
REMARK SMILES IDX 7 13 8 14 9 15 13 16 11 17 10 18 12 20 4 22 21 24 18 26
REMARK H PARENT 10 19 12 21 4 23 21 25 18 27
REMARK Flexibility Score: inf
ROOT
ATOM      1  C   UNL     1       7.330  50.560  -1.377  1.00  0.00     0.180 A 
ATOM      2  C   UNL     1       6.825  50.832  -0.094  1.00  0.00     0.208 A 
ATOM      3  C   UNL     1       6.666  52.169   0.306  1.00  0.00     0.238 A 
ATOM      4  O   UNL     1       6.163  52.407   1.435  1.00  0.00    -0.285 OA
ATOM      5  C   UNL     1       7.029  53.216  -0.575  1.00  0.00     0.111 A 
ATOM      6  C   UNL     1       6.948  54.606  -0.260  1.00  0.00     0.134 A 
ATOM      7  C   UNL     1       7.210  55.557  -1.255  1.00  0.00     0.093 A 
ATOM      8  C   UNL     1       7.614  55.167  -2.535  1.00  0.00     0.123 A 
ATOM      9  C   UNL     1       7.753  53.814  -2.834  1.00  0.00     0.094 A 
ATOM     10  C   UNL     1       7.463  52.842  -1.874  1.00  0.00     0.146 A 
ATOM     11  O   UNL     1       7.599  51.563  -2.204  1.00  0.00    -0.452 OA
ENDROOT
BRANCH   1  12
ATOM     12  C   UNL     1       7.548  49.178  -1.860  1.00  0.00     0.025 A 
ATOM     13  C   UNL     1       8.689  48.444  -1.488  1.00  0.00     0.016 A 
ATOM     14  C   UNL     1       8.886  47.149  -1.976  1.00  0.00     0.051 A 
ATOM     15  C   UNL     1       7.956  46.575  -2.852  1.00  0.00     0.157 A 
ATOM     16  C   UNL     1       6.630  48.605  -2.756  1.00  0.00     0.062 A 
ATOM     17  C   UNL     1       6.827  47.306  -3.246  1.00  0.00     0.158 A 
BRANCH  15  18
ATOM     18  O   UNL     1       8.148  45.284  -3.341  1.00  0.00    -0.504 OA
ATOM     19  H   UNL     1       9.043  44.815  -3.260  1.00  0.00     0.293 HD
ENDBRANCH  15  18
BRANCH  17  20
ATOM     20  O   UNL     1       5.908  46.735  -4.123  1.00  0.00    -0.504 OA
ATOM     21  H   UNL     1       6.205  46.147  -4.894  1.00  0.00     0.293 HD
ENDBRANCH  17  20
ENDBRANCH   1  12
BRANCH   2  22
ATOM     22  O   UNL     1       6.453  49.784   0.752  1.00  0.00    -0.502 OA
ATOM     23  H   UNL     1       6.856  49.658   1.673  1.00  0.00     0.293 HD
ENDBRANCH   2  22
BRANCH   6  24
ATOM     24  O   UNL     1       6.645  55.101   1.012  1.00  0.00    -0.507 OA
ATOM     25  H   UNL     1       6.748  54.583   1.870  1.00  0.00     0.293 HD
ENDBRANCH   6  24
BRANCH   8  26
ATOM     26  O   UNL     1       7.887  56.119  -3.514  1.00  0.00    -0.508 OA
ATOM     27  H   UNL     1       7.205  56.822  -3.774  1.00  0.00     0.293 HD
ENDBRANCH   8  26
TORSDOF 6
ENDMDL
MODEL 9
REMARK VINA RESULT:    -6.895      5.232      7.102
REMARK INTER + INTRA:          -8.439
REMARK INTER:                  -8.454
REMARK INTRA:                   0.015
REMARK UNBOUND:                -0.133
REMARK SMILES O=c1c(O)c(-c2ccc(O)c(O)c2)oc2cc(O)cc(O)c12
REMARK SMILES IDX 5 1 3 2 2 3 1 4 22 5 20 6 19 7 17 8 16 9 15 10 14 11 6 12
REMARK SMILES IDX 7 13 8 14 9 15 13 16 11 17 10 18 12 20 4 22 21 24 18 26
REMARK H PARENT 10 19 12 21 4 23 21 25 18 27
REMARK Flexibility Score: inf
ROOT
ATOM      1  C   UNL     1       6.161  45.473   5.413  1.00  0.00     0.180 A 
ATOM      2  C   UNL     1       5.132  44.516   5.417  1.00  0.00     0.208 A 
ATOM      3  C   UNL     1       4.775  43.904   6.629  1.00  0.00     0.238 A 
ATOM      4  O   UNL     1       3.818  43.088   6.636  1.00  0.00    -0.285 OA
ATOM      5  C   UNL     1       5.462  44.246   7.820  1.00  0.00     0.111 A 
ATOM      6  C   UNL     1       5.211  43.660   9.097  1.00  0.00     0.134 A 
ATOM      7  C   UNL     1       5.860  44.167  10.229  1.00  0.00     0.093 A 
ATOM      8  C   UNL     1       6.800  45.196  10.120  1.00  0.00     0.123 A 
ATOM      9  C   UNL     1       7.095  45.733   8.870  1.00  0.00     0.094 A 
ATOM     10  C   UNL     1       6.438  45.273   7.727  1.00  0.00     0.146 A 
ATOM     11  O   UNL     1       6.741  45.820   6.556  1.00  0.00    -0.452 OA
ENDROOT
BRANCH   1  12
ATOM     12  C   UNL     1       6.610  46.143   4.171  1.00  0.00     0.025 A 
ATOM     13  C   UNL     1       7.971  46.201   3.821  1.00  0.00     0.016 A 
ATOM     14  C   UNL     1       8.374  46.860   2.656  1.00  0.00     0.051 A 
ATOM     15  C   UNL     1       7.425  47.480   1.832  1.00  0.00     0.157 A 
ATOM     16  C   UNL     1       5.666  46.784   3.352  1.00  0.00     0.062 A 
ATOM     17  C   UNL     1       6.069  47.445   2.182  1.00  0.00     0.158 A 
BRANCH  15  18
ATOM     18  O   UNL     1       7.822  48.137   0.668  1.00  0.00    -0.504 OA
ATOM     19  H   UNL     1       7.196  48.238  -0.122  1.00  0.00     0.293 HD
ENDBRANCH  15  18
BRANCH  17  20
ATOM     20  O   UNL     1       5.129  48.069   1.364  1.00  0.00    -0.504 OA
ATOM     21  H   UNL     1       4.937  49.062   1.440  1.00  0.00     0.293 HD
ENDBRANCH  17  20
ENDBRANCH   1  12
BRANCH   2  22
ATOM     22  O   UNL     1       4.453  44.209   4.234  1.00  0.00    -0.502 OA
ATOM     23  H   UNL     1       3.494  43.883   4.227  1.00  0.00     0.293 HD
ENDBRANCH   2  22
BRANCH   6  24
ATOM     24  O   UNL     1       4.362  42.568   9.301  1.00  0.00    -0.507 OA
ATOM     25  H   UNL     1       4.035  41.950   8.574  1.00  0.00     0.293 HD
ENDBRANCH   6  24
BRANCH   8  26
ATOM     26  O   UNL     1       7.453  45.684  11.250  1.00  0.00    -0.508 OA
ATOM     27  H   UNL     1       6.938  46.014  12.058  1.00  0.00     0.293 HD
ENDBRANCH   8  26
TORSDOF 6
ENDMDL
