MODEL 1
REMARK VINA RESULT:    -3.968      0.000      0.000
REMARK INTER + INTRA:          -5.552
REMARK INTER:                  -5.360
REMARK INTRA:                  -0.193
REMARK UNBOUND:                -0.193
REMARK SMILES CCCCCCCC=O
REMARK SMILES IDX 5 1 4 2 3 3 2 4 1 5 6 6 7 7 8 8 9 9
REMARK H PARENT
REMARK Flexibility Score: inf
ROOT
ATOM      1  C   UNL     1     116.952 116.412 114.748  1.00  0.00     0.000 C 
ENDROOT
BRANCH   1   2
ATOM      2  C   UNL     1     116.285 116.908 116.042  1.00  0.00     0.000 C 
BRANCH   2   3
ATOM      3  C   UNL     1     116.255 115.833 117.140  1.00  0.00    -0.000 C 
BRANCH   3   4
ATOM      4  C   UNL     1     117.654 115.487 117.671  1.00  0.00    -0.003 C 
ATOM      5  C   UNL     1     117.825 113.978 117.823  1.00  0.00     0.004 C 
ENDBRANCH   3   4
ENDBRANCH   2   3
ENDBRANCH   1   2
BRANCH   1   6
ATOM      6  C   UNL     1     116.204 116.877 113.483  1.00  0.00     0.008 C 
BRANCH   6   7
ATOM      7  C   UNL     1     116.211 115.844 112.344  1.00  0.00     0.072 C 
BRANCH   7   8
ATOM      8  C   UNL     1     117.582 115.638 111.765  1.00  0.00     0.224 C 
ATOM      9  O   UNL     1     118.247 116.601 111.419  1.00  0.00    -0.303 OA
ENDBRANCH   7   8
ENDBRANCH   6   7
ENDBRANCH   1   6
TORSDOF 6
ENDMDL
MODEL 2
REMARK VINA RESULT:    -3.946      1.877      2.642
REMARK INTER + INTRA:          -5.523
REMARK INTER:                  -5.379
REMARK INTRA:                  -0.143
REMARK UNBOUND:                -0.193
REMARK SMILES CCCCCCCC=O
REMARK SMILES IDX 5 1 4 2 3 3 2 4 1 5 6 6 7 7 8 8 9 9
REMARK H PARENT
REMARK Flexibility Score: inf
ROOT
ATOM      1  C   UNL     1     116.481 116.292 114.765  1.00  0.00     0.000 C 
ENDROOT
BRANCH   1   2
ATOM      2  C   UNL     1     117.018 116.984 116.029  1.00  0.00     0.000 C 
BRANCH   2   3
ATOM      3  C   UNL     1     115.900 117.365 117.013  1.00  0.00    -0.000 C 
BRANCH   3   4
ATOM      4  C   UNL     1     116.329 118.457 118.005  1.00  0.00    -0.003 C 
ATOM      5  C   UNL     1     115.337 119.616 118.006  1.00  0.00     0.004 C 
ENDBRANCH   3   4
ENDBRANCH   2   3
ENDBRANCH   1   2
BRANCH   1   6
ATOM      6  C   UNL     1     116.903 117.017 113.471  1.00  0.00     0.008 C 
BRANCH   6   7
ATOM      7  C   UNL     1     115.861 116.930 112.343  1.00  0.00     0.072 C 
BRANCH   7   8
ATOM      8  C   UNL     1     115.684 115.528 111.833  1.00  0.00     0.224 C 
ATOM      9  O   UNL     1     116.646 114.908 111.411  1.00  0.00    -0.303 OA
ENDBRANCH   7   8
ENDBRANCH   6   7
ENDBRANCH   1   6
TORSDOF 6
ENDMDL
MODEL 3
REMARK VINA RESULT:    -3.929      1.493      1.827
REMARK INTER + INTRA:          -5.500
REMARK INTER:                  -5.314
REMARK INTRA:                  -0.185
REMARK UNBOUND:                -0.193
REMARK SMILES CCCCCCCC=O
REMARK SMILES IDX 5 1 4 2 3 3 2 4 1 5 6 6 7 7 8 8 9 9
REMARK H PARENT
REMARK Flexibility Score: inf
ROOT
ATOM      1  C   UNL     1     116.667 117.001 114.938  1.00  0.00     0.000 C 
ENDROOT
BRANCH   1   2
ATOM      2  C   UNL     1     116.286 116.209 116.202  1.00  0.00     0.000 C 
BRANCH   2   3
ATOM      3  C   UNL     1     117.387 116.244 117.273  1.00  0.00    -0.000 C 
BRANCH   3   4
ATOM      4  C   UNL     1     117.811 117.673 117.644  1.00  0.00    -0.003 C 
ATOM      5  C   UNL     1     119.328 117.780 117.767  1.00  0.00     0.004 C 
ENDBRANCH   3   4
ENDBRANCH   2   3
ENDBRANCH   1   2
BRANCH   1   6
ATOM      6  C   UNL     1     116.287 116.259 113.641  1.00  0.00     0.008 C 
BRANCH   6   7
ATOM      7  C   UNL     1     116.048 117.190 112.442  1.00  0.00     0.072 C 
BRANCH   7   8
ATOM      8  C   UNL     1     117.324 117.561 111.740  1.00  0.00     0.224 C 
ATOM      9  O   UNL     1     118.105 116.689 111.397  1.00  0.00    -0.303 OA
ENDBRANCH   7   8
ENDBRANCH   6   7
ENDBRANCH   1   6
TORSDOF 6
ENDMDL
MODEL 4
REMARK VINA RESULT:    -3.917      1.469      2.015
REMARK INTER + INTRA:          -5.483
REMARK INTER:                  -5.334
REMARK INTRA:                  -0.149
REMARK UNBOUND:                -0.193
REMARK SMILES CCCCCCCC=O
REMARK SMILES IDX 5 1 4 2 3 3 2 4 1 5 6 6 7 7 8 8 9 9
REMARK H PARENT
REMARK Flexibility Score: inf
ROOT
ATOM      1  C   UNL     1     116.907 116.433 115.006  1.00  0.00     0.000 C 
ENDROOT
BRANCH   1   2
ATOM      2  C   UNL     1     116.187 116.929 116.272  1.00  0.00     0.000 C 
BRANCH   2   3
ATOM      3  C   UNL     1     115.900 115.797 117.269  1.00  0.00    -0.000 C 
BRANCH   3   4
ATOM      4  C   UNL     1     114.593 116.009 118.049  1.00  0.00    -0.003 C 
ATOM      5  C   UNL     1     113.547 114.970 117.659  1.00  0.00     0.004 C 
ENDBRANCH   3   4
ENDBRANCH   2   3
ENDBRANCH   1   2
BRANCH   1   6
ATOM      6  C   UNL     1     116.158 116.815 113.714  1.00  0.00     0.008 C 
BRANCH   6   7
ATOM      7  C   UNL     1     116.611 116.021 112.477  1.00  0.00     0.072 C 
BRANCH   7   8
ATOM      8  C   UNL     1     116.868 116.906 111.290  1.00  0.00     0.224 C 
ATOM      9  O   UNL     1     116.738 118.114 111.393  1.00  0.00    -0.303 OA
ENDBRANCH   7   8
ENDBRANCH   6   7
ENDBRANCH   1   6
TORSDOF 6
ENDMDL
MODEL 5
REMARK VINA RESULT:    -3.916      1.877      2.319
REMARK INTER + INTRA:          -5.483
REMARK INTER:                  -5.319
REMARK INTRA:                  -0.164
REMARK UNBOUND:                -0.193
REMARK SMILES CCCCCCCC=O
REMARK SMILES IDX 5 1 4 2 3 3 2 4 1 5 6 6 7 7 8 8 9 9
REMARK H PARENT
REMARK Flexibility Score: inf
ROOT
ATOM      1  C   UNL     1     116.263 116.850 114.726  1.00  0.00     0.000 C 
ENDROOT
BRANCH   1   2
ATOM      2  C   UNL     1     116.778 116.247 116.044  1.00  0.00     0.000 C 
BRANCH   2   3
ATOM      3  C   UNL     1     115.857 116.559 117.234  1.00  0.00    -0.000 C 
BRANCH   3   4
ATOM      4  C   UNL     1     115.265 115.294 117.874  1.00  0.00    -0.003 C 
ATOM      5  C   UNL     1     113.741 115.302 117.797  1.00  0.00     0.004 C 
ENDBRANCH   3   4
ENDBRANCH   2   3
ENDBRANCH   1   2
BRANCH   1   6
ATOM      6  C   UNL     1     117.010 116.300 113.494  1.00  0.00     0.008 C 
BRANCH   6   7
ATOM      7  C   UNL     1     117.026 117.265 112.297  1.00  0.00     0.072 C 
BRANCH   7   8
ATOM      8  C   UNL     1     115.647 117.567 111.784  1.00  0.00     0.224 C 
ATOM      9  O   UNL     1     114.931 116.659 111.394  1.00  0.00    -0.303 OA
ENDBRANCH   7   8
ENDBRANCH   6   7
ENDBRANCH   1   6
TORSDOF 6
ENDMDL
MODEL 6
REMARK VINA RESULT:    -3.895      2.567      5.104
REMARK INTER + INTRA:          -5.453
REMARK INTER:                  -5.298
REMARK INTRA:                  -0.156
REMARK UNBOUND:                -0.193
REMARK SMILES CCCCCCCC=O
REMARK SMILES IDX 5 1 4 2 3 3 2 4 1 5 6 6 7 7 8 8 9 9
REMARK H PARENT
REMARK Flexibility Score: inf
ROOT
ATOM      1  C   UNL     1     116.246 116.271 115.013  1.00  0.00     0.000 C 
ENDROOT
BRANCH   1   2
ATOM      2  C   UNL     1     116.895 116.974 113.809  1.00  0.00     0.000 C 
BRANCH   2   3
ATOM      3  C   UNL     1     115.971 117.020 112.583  1.00  0.00    -0.000 C 
BRANCH   3   4
ATOM      4  C   UNL     1     116.520 116.214 111.395  1.00  0.00    -0.003 C 
ATOM      5  C   UNL     1     117.841 115.540 111.754  1.00  0.00     0.004 C 
ENDBRANCH   3   4
ENDBRANCH   2   3
ENDBRANCH   1   2
BRANCH   1   6
ATOM      6  C   UNL     1     117.007 116.528 116.328  1.00  0.00     0.008 C 
BRANCH   6   7
ATOM      7  C   UNL     1     116.683 115.517 117.441  1.00  0.00     0.072 C 
BRANCH   7   8
ATOM      8  C   UNL     1     117.799 114.536 117.668  1.00  0.00     0.224 C 
ATOM      9  O   UNL     1     117.546 113.401 118.035  1.00  0.00    -0.303 OA
ENDBRANCH   7   8
ENDBRANCH   6   7
ENDBRANCH   1   6
TORSDOF 6
ENDMDL
MODEL 7
REMARK VINA RESULT:    -3.894      2.755      5.315
REMARK INTER + INTRA:          -5.453
REMARK INTER:                  -5.266
REMARK INTRA:                  -0.187
REMARK UNBOUND:                -0.193
REMARK SMILES CCCCCCCC=O
REMARK SMILES IDX 5 1 4 2 3 3 2 4 1 5 6 6 7 7 8 8 9 9
REMARK H PARENT
REMARK Flexibility Score: inf
ROOT
ATOM      1  C   UNL     1     116.932 116.321 115.014  1.00  0.00     0.000 C 
ENDROOT
BRANCH   1   2
ATOM      2  C   UNL     1     116.215 116.847 113.759  1.00  0.00     0.000 C 
BRANCH   2   3
ATOM      3  C   UNL     1     116.434 115.947 112.533  1.00  0.00    -0.000 C 
BRANCH   3   4
ATOM      4  C   UNL     1     117.598 116.419 111.649  1.00  0.00    -0.003 C 
ATOM      5  C   UNL     1     117.724 117.940 111.674  1.00  0.00     0.004 C 
ENDBRANCH   3   4
ENDBRANCH   2   3
ENDBRANCH   1   2
BRANCH   1   6
ATOM      6  C   UNL     1     116.453 117.019 116.302  1.00  0.00     0.008 C 
BRANCH   6   7
ATOM      7  C   UNL     1     116.147 116.049 117.456  1.00  0.00     0.072 C 
BRANCH   7   8
ATOM      8  C   UNL     1     114.696 116.064 117.848  1.00  0.00     0.224 C 
ATOM      9  O   UNL     1     113.961 115.159 117.489  1.00  0.00    -0.303 OA
ENDBRANCH   7   8
ENDBRANCH   6   7
ENDBRANCH   1   6
TORSDOF 6
ENDMDL
MODEL 8
REMARK VINA RESULT:    -3.826      2.656      5.051
REMARK INTER + INTRA:          -5.361
REMARK INTER:                  -5.180
REMARK INTRA:                  -0.180
REMARK UNBOUND:                -0.193
REMARK SMILES CCCCCCCC=O
REMARK SMILES IDX 5 1 4 2 3 3 2 4 1 5 6 6 7 7 8 8 9 9
REMARK H PARENT
REMARK Flexibility Score: inf
ROOT
ATOM      1  C   UNL     1     116.586 117.006 115.079  1.00  0.00     0.000 C 
ENDROOT
BRANCH   1   2
ATOM      2  C   UNL     1     116.263 116.271 113.767  1.00  0.00     0.000 C 
BRANCH   2   3
ATOM      3  C   UNL     1     116.339 117.193 112.540  1.00  0.00    -0.000 C 
BRANCH   3   4
ATOM      4  C   UNL     1     117.627 116.995 111.727  1.00  0.00    -0.003 C 
ATOM      5  C   UNL     1     118.063 115.533 111.738  1.00  0.00     0.004 C 
ENDBRANCH   3   4
ENDBRANCH   2   3
ENDBRANCH   1   2
BRANCH   1   6
ATOM      6  C   UNL     1     116.850 116.037 116.248  1.00  0.00     0.008 C 
BRANCH   6   7
ATOM      7  C   UNL     1     117.219 116.740 117.565  1.00  0.00     0.072 C 
BRANCH   7   8
ATOM      8  C   UNL     1     118.487 117.538 117.454  1.00  0.00     0.224 C 
ATOM      9  O   UNL     1     119.387 117.363 118.259  1.00  0.00    -0.303 OA
ENDBRANCH   7   8
ENDBRANCH   6   7
ENDBRANCH   1   6
TORSDOF 6
ENDMDL
MODEL 9
REMARK VINA RESULT:    -3.824      2.794      5.266
REMARK INTER + INTRA:          -5.357
REMARK INTER:                  -5.175
REMARK INTRA:                  -0.183
REMARK UNBOUND:                -0.193
REMARK SMILES CCCCCCCC=O
REMARK SMILES IDX 5 1 4 2 3 3 2 4 1 5 6 6 7 7 8 8 9 9
REMARK H PARENT
REMARK Flexibility Score: inf
ROOT
ATOM      1  C   UNL     1     116.251 116.974 114.991  1.00  0.00     0.000 C 
ENDROOT
BRANCH   1   2
ATOM      2  C   UNL     1     116.318 116.218 113.653  1.00  0.00     0.000 C 
BRANCH   2   3
ATOM      3  C   UNL     1     116.010 117.121 112.449  1.00  0.00    -0.000 C 
BRANCH   3   4
ATOM      4  C   UNL     1     117.273 117.534 111.678  1.00  0.00    -0.003 C 
ATOM      5  C   UNL     1     118.203 116.342 111.470  1.00  0.00     0.004 C 
ENDBRANCH   3   4
ENDBRANCH   2   3
ENDBRANCH   1   2
BRANCH   1   6
ATOM      6  C   UNL     1     116.959 116.217 116.132  1.00  0.00     0.008 C 
BRANCH   6   7
ATOM      7  C   UNL     1     117.767 117.127 117.072  1.00  0.00     0.072 C 
BRANCH   7   8
ATOM      8  C   UNL     1     116.938 117.659 118.207  1.00  0.00     0.224 C 
ATOM      9  O   UNL     1     116.228 118.637 118.035  1.00  0.00    -0.303 OA
ENDBRANCH   7   8
ENDBRANCH   6   7
ENDBRANCH   1   6
TORSDOF 6
ENDMDL
