MODEL 1
REMARK VINA RESULT:    -5.222      0.000      0.000
REMARK INTER + INTRA:          -5.222
REMARK INTER:                  -5.222
REMARK INTRA:                   0.000
REMARK UNBOUND:                 0.000
REMARK SMILES O=c1ccc2ccccc2o1
REMARK SMILES IDX 7 1 8 2 9 3 10 4 5 5 6 6 4 7 3 8 2 9 1 10 11 11
REMARK H PARENT
REMARK Flexibility Score: inf
ROOT
ATOM      1  C   UNL     1     -13.666  33.165  -5.585  1.00  0.00     0.001 A 
ATOM      2  C   UNL     1     -14.427  32.800  -4.470  1.00  0.00     0.004 A 
ATOM      3  C   UNL     1     -14.241  33.450  -3.246  1.00  0.00     0.048 A 
ATOM      4  C   UNL     1     -13.290  34.470  -3.133  1.00  0.00     0.138 A 
ATOM      5  C   UNL     1     -12.521  34.841  -4.259  1.00  0.00     0.018 A 
ATOM      6  C   UNL     1     -12.712  34.184  -5.483  1.00  0.00     0.012 A 
ATOM      7  C   UNL     1     -11.578  35.863  -4.116  1.00  0.00     0.019 A 
ATOM      8  C   UNL     1     -11.426  36.484  -2.876  1.00  0.00     0.094 A 
ATOM      9  C   UNL     1     -12.222  36.065  -1.805  1.00  0.00     0.336 A 
ATOM     10  O   UNL     1     -12.099  36.613  -0.679  1.00  0.00    -0.246 OA
ATOM     11  O   UNL     1     -13.112  35.089  -1.968  1.00  0.00    -0.423 OA
ENDROOT
TORSDOF 0
ENDMDL
MODEL 2
REMARK VINA RESULT:    -5.214      1.949      3.958
REMARK INTER + INTRA:          -5.214
REMARK INTER:                  -5.214
REMARK INTRA:                   0.000
REMARK UNBOUND:                 0.000
REMARK SMILES O=c1ccc2ccccc2o1
REMARK SMILES IDX 7 1 8 2 9 3 10 4 5 5 6 6 4 7 3 8 2 9 1 10 11 11
REMARK H PARENT
REMARK Flexibility Score: inf
ROOT
ATOM      1  C   UNL     1     -14.057  33.701  -0.841  1.00  0.00     0.001 A 
ATOM      2  C   UNL     1     -13.192  34.799  -0.891  1.00  0.00     0.004 A 
ATOM      3  C   UNL     1     -12.689  35.244  -2.118  1.00  0.00     0.048 A 
ATOM      4  C   UNL     1     -13.051  34.592  -3.301  1.00  0.00     0.138 A 
ATOM      5  C   UNL     1     -13.926  33.484  -3.252  1.00  0.00     0.018 A 
ATOM      6  C   UNL     1     -14.426  33.042  -2.019  1.00  0.00     0.012 A 
ATOM      7  C   UNL     1     -14.270  32.852  -4.451  1.00  0.00     0.019 A 
ATOM      8  C   UNL     1     -13.745  33.330  -5.651  1.00  0.00     0.094 A 
ATOM      9  C   UNL     1     -12.884  34.433  -5.624  1.00  0.00     0.336 A 
ATOM     10  O   UNL     1     -12.400  34.878  -6.697  1.00  0.00    -0.246 OA
ATOM     11  O   UNL     1     -12.573  35.016  -4.469  1.00  0.00    -0.423 OA
ENDROOT
TORSDOF 0
ENDMDL
MODEL 3
REMARK VINA RESULT:    -5.213      2.347      3.099
REMARK INTER + INTRA:          -5.213
REMARK INTER:                  -5.213
REMARK INTRA:                   0.000
REMARK UNBOUND:                 0.000
REMARK SMILES O=c1ccc2ccccc2o1
REMARK SMILES IDX 7 1 8 2 9 3 10 4 5 5 6 6 4 7 3 8 2 9 1 10 11 11
REMARK H PARENT
REMARK Flexibility Score: inf
ROOT
ATOM      1  C   UNL     1     -13.959  32.985  -3.522  1.00  0.00     0.001 A 
ATOM      2  C   UNL     1     -14.301  32.857  -4.871  1.00  0.00     0.004 A 
ATOM      3  C   UNL     1     -13.738  33.711  -5.825  1.00  0.00     0.048 A 
ATOM      4  C   UNL     1     -12.829  34.699  -5.430  1.00  0.00     0.138 A 
ATOM      5  C   UNL     1     -12.482  34.829  -4.067  1.00  0.00     0.018 A 
ATOM      6  C   UNL     1     -13.051  33.969  -3.116  1.00  0.00     0.012 A 
ATOM      7  C   UNL     1     -11.572  35.825  -3.702  1.00  0.00     0.019 A 
ATOM      8  C   UNL     1     -11.035  36.655  -4.686  1.00  0.00     0.094 A 
ATOM      9  C   UNL     1     -11.424  36.468  -6.017  1.00  0.00     0.336 A 
ATOM     10  O   UNL     1     -10.951  37.207  -6.919  1.00  0.00    -0.246 OA
ATOM     11  O   UNL     1     -12.293  35.512  -6.338  1.00  0.00    -0.423 OA
ENDROOT
TORSDOF 0
ENDMDL
MODEL 4
REMARK VINA RESULT:    -5.165      2.955      3.630
REMARK INTER + INTRA:          -5.165
REMARK INTER:                  -5.165
REMARK INTRA:                   0.000
REMARK UNBOUND:                 0.000
REMARK SMILES O=c1ccc2ccccc2o1
REMARK SMILES IDX 7 1 8 2 9 3 10 4 5 5 6 6 4 7 3 8 2 9 1 10 11 11
REMARK H PARENT
REMARK Flexibility Score: inf
ROOT
ATOM      1  C   UNL     1     -13.843  32.988  -3.156  1.00  0.00     0.001 A 
ATOM      2  C   UNL     1     -13.422  32.637  -1.870  1.00  0.00     0.004 A 
ATOM      3  C   UNL     1     -13.869  33.363  -0.760  1.00  0.00     0.048 A 
ATOM      4  C   UNL     1     -14.741  34.443  -0.935  1.00  0.00     0.138 A 
ATOM      5  C   UNL     1     -15.168  34.797  -2.235  1.00  0.00     0.018 A 
ATOM      6  C   UNL     1     -14.715  34.066  -3.343  1.00  0.00     0.012 A 
ATOM      7  C   UNL     1     -16.038  35.881  -2.379  1.00  0.00     0.019 A 
ATOM      8  C   UNL     1     -16.458  36.576  -1.245  1.00  0.00     0.094 A 
ATOM      9  C   UNL     1     -15.995  36.169   0.011  1.00  0.00     0.336 A 
ATOM     10  O   UNL     1     -16.363  36.784   1.046  1.00  0.00    -0.246 OA
ATOM     11  O   UNL     1     -15.167  35.134   0.120  1.00  0.00    -0.423 OA
ENDROOT
TORSDOF 0
ENDMDL
MODEL 5
REMARK VINA RESULT:    -5.123      1.289      2.164
REMARK INTER + INTRA:          -5.123
REMARK INTER:                  -5.123
REMARK INTRA:                   0.000
REMARK UNBOUND:                 0.000
REMARK SMILES O=c1ccc2ccccc2o1
REMARK SMILES IDX 7 1 8 2 9 3 10 4 5 5 6 6 4 7 3 8 2 9 1 10 11 11
REMARK H PARENT
REMARK Flexibility Score: inf
ROOT
ATOM      1  C   UNL     1     -14.529  32.820  -4.435  1.00  0.00     0.001 A 
ATOM      2  C   UNL     1     -13.687  33.060  -5.525  1.00  0.00     0.004 A 
ATOM      3  C   UNL     1     -12.679  34.026  -5.438  1.00  0.00     0.048 A 
ATOM      4  C   UNL     1     -12.511  34.757  -4.256  1.00  0.00     0.138 A 
ATOM      5  C   UNL     1     -13.361  34.515  -3.154  1.00  0.00     0.018 A 
ATOM      6  C   UNL     1     -14.369  33.545  -3.249  1.00  0.00     0.012 A 
ATOM      7  C   UNL     1     -13.169  35.260  -1.987  1.00  0.00     0.019 A 
ATOM      8  C   UNL     1     -12.152  36.213  -1.944  1.00  0.00     0.094 A 
ATOM      9  C   UNL     1     -11.348  36.400  -3.074  1.00  0.00     0.336 A 
ATOM     10  O   UNL     1     -10.426  37.255  -3.055  1.00  0.00    -0.246 OA
ATOM     11  O   UNL     1     -11.552  35.677  -4.173  1.00  0.00    -0.423 OA
ENDROOT
TORSDOF 0
ENDMDL
MODEL 6
REMARK VINA RESULT:    -5.104      2.281      2.937
REMARK INTER + INTRA:          -5.104
REMARK INTER:                  -5.104
REMARK INTRA:                   0.000
REMARK UNBOUND:                 0.000
REMARK SMILES O=c1ccc2ccccc2o1
REMARK SMILES IDX 7 1 8 2 9 3 10 4 5 5 6 6 4 7 3 8 2 9 1 10 11 11
REMARK H PARENT
REMARK Flexibility Score: inf
ROOT
ATOM      1  C   UNL     1     -14.001  34.275  -5.525  1.00  0.00     0.001 A 
ATOM      2  C   UNL     1     -14.715  35.420  -5.159  1.00  0.00     0.004 A 
ATOM      3  C   UNL     1     -15.050  35.644  -3.820  1.00  0.00     0.048 A 
ATOM      4  C   UNL     1     -14.672  34.720  -2.840  1.00  0.00     0.138 A 
ATOM      5  C   UNL     1     -13.950  33.563  -3.208  1.00  0.00     0.018 A 
ATOM      6  C   UNL     1     -13.617  33.345  -4.553  1.00  0.00     0.012 A 
ATOM      7  C   UNL     1     -13.585  32.657  -2.207  1.00  0.00     0.019 A 
ATOM      8  C   UNL     1     -13.941  32.920  -0.885  1.00  0.00     0.094 A 
ATOM      9  C   UNL     1     -14.656  34.087  -0.593  1.00  0.00     0.336 A 
ATOM     10  O   UNL     1     -14.986  34.341   0.594  1.00  0.00    -0.246 OA
ATOM     11  O   UNL     1     -14.991  34.932  -1.565  1.00  0.00    -0.423 OA
ENDROOT
TORSDOF 0
ENDMDL
MODEL 7
REMARK VINA RESULT:    -5.098      1.005      2.247
REMARK INTER + INTRA:          -5.098
REMARK INTER:                  -5.098
REMARK INTRA:                   0.000
REMARK UNBOUND:                 0.000
REMARK SMILES O=c1ccc2ccccc2o1
REMARK SMILES IDX 7 1 8 2 9 3 10 4 5 5 6 6 4 7 3 8 2 9 1 10 11 11
REMARK H PARENT
REMARK Flexibility Score: inf
ROOT
ATOM      1  C   UNL     1     -13.987  32.975  -5.307  1.00  0.00     0.001 A 
ATOM      2  C   UNL     1     -12.963  33.847  -5.687  1.00  0.00     0.004 A 
ATOM      3  C   UNL     1     -12.401  34.724  -4.753  1.00  0.00     0.048 A 
ATOM      4  C   UNL     1     -12.865  34.731  -3.433  1.00  0.00     0.138 A 
ATOM      5  C   UNL     1     -13.899  33.849  -3.048  1.00  0.00     0.018 A 
ATOM      6  C   UNL     1     -14.457  32.973  -3.989  1.00  0.00     0.012 A 
ATOM      7  C   UNL     1     -14.341  33.878  -1.722  1.00  0.00     0.019 A 
ATOM      8  C   UNL     1     -13.753  34.769  -0.825  1.00  0.00     0.094 A 
ATOM      9  C   UNL     1     -12.733  35.614  -1.277  1.00  0.00     0.336 A 
ATOM     10  O   UNL     1     -12.190  36.424  -0.481  1.00  0.00    -0.246 OA
ATOM     11  O   UNL     1     -12.331  35.566  -2.544  1.00  0.00    -0.423 OA
ENDROOT
TORSDOF 0
ENDMDL
MODEL 8
REMARK VINA RESULT:    -5.004      3.074      4.116
REMARK INTER + INTRA:          -5.004
REMARK INTER:                  -5.004
REMARK INTRA:                   0.000
REMARK UNBOUND:                 0.000
REMARK SMILES O=c1ccc2ccccc2o1
REMARK SMILES IDX 7 1 8 2 9 3 10 4 5 5 6 6 4 7 3 8 2 9 1 10 11 11
REMARK H PARENT
REMARK Flexibility Score: inf
ROOT
ATOM      1  C   UNL     1     -13.246  32.792  -1.503  1.00  0.00     0.001 A 
ATOM      2  C   UNL     1     -13.661  32.847  -2.837  1.00  0.00     0.004 A 
ATOM      3  C   UNL     1     -14.615  33.788  -3.240  1.00  0.00     0.048 A 
ATOM      4  C   UNL     1     -15.159  34.677  -2.307  1.00  0.00     0.138 A 
ATOM      5  C   UNL     1     -14.740  34.622  -0.959  1.00  0.00     0.018 A 
ATOM      6  C   UNL     1     -13.783  33.677  -0.561  1.00  0.00     0.012 A 
ATOM      7  C   UNL     1     -15.301  35.523  -0.049  1.00  0.00     0.019 A 
ATOM      8  C   UNL     1     -16.249  36.443  -0.494  1.00  0.00     0.094 A 
ATOM      9  C   UNL     1     -16.616  36.440  -1.844  1.00  0.00     0.336 A 
ATOM     10  O   UNL     1     -17.470  37.263  -2.265  1.00  0.00    -0.246 OA
ATOM     11  O   UNL     1     -16.067  35.572  -2.690  1.00  0.00    -0.423 OA
ENDROOT
TORSDOF 0
ENDMDL
MODEL 9
REMARK VINA RESULT:    -4.986      2.795      4.002
REMARK INTER + INTRA:          -4.986
REMARK INTER:                  -4.986
REMARK INTRA:                   0.000
REMARK UNBOUND:                 0.000
REMARK SMILES O=c1ccc2ccccc2o1
REMARK SMILES IDX 7 1 8 2 9 3 10 4 5 5 6 6 4 7 3 8 2 9 1 10 11 11
REMARK H PARENT
REMARK Flexibility Score: inf
ROOT
ATOM      1  C   UNL     1     -13.879  33.071  -0.769  1.00  0.00     0.001 A 
ATOM      2  C   UNL     1     -13.305  32.632  -1.966  1.00  0.00     0.004 A 
ATOM      3  C   UNL     1     -13.577  33.301  -3.164  1.00  0.00     0.048 A 
ATOM      4  C   UNL     1     -14.426  34.413  -3.168  1.00  0.00     0.138 A 
ATOM      5  C   UNL     1     -15.006  34.858  -1.959  1.00  0.00     0.018 A 
ATOM      6  C   UNL     1     -14.729  34.182  -0.761  1.00  0.00     0.012 A 
ATOM      7  C   UNL     1     -15.850  35.971  -1.993  1.00  0.00     0.019 A 
ATOM      8  C   UNL     1     -16.093  36.607  -3.211  1.00  0.00     0.094 A 
ATOM      9  C   UNL     1     -15.485  36.111  -4.369  1.00  0.00     0.336 A 
ATOM     10  O   UNL     1     -15.693  36.672  -5.476  1.00  0.00    -0.246 OA
ATOM     11  O   UNL     1     -14.685  35.050  -4.308  1.00  0.00    -0.423 OA
ENDROOT
TORSDOF 0
ENDMDL
