MODEL 1
REMARK VINA RESULT:    -6.263      0.000      0.000
REMARK INTER + INTRA:          -6.447
REMARK INTER:                  -6.447
REMARK INTRA:                   0.000
REMARK UNBOUND:                 0.000
REMARK SMILES C=C1CCC[C@@]2(C)C[C@]3(O)OC(=O)C(C)=C3C[C@@H]12
REMARK SMILES IDX 15 1 14 2 16 3 17 4 18 5 2 6 1 7 3 8 4 9 5 10 6 11 8 12 9 13
REMARK SMILES IDX 11 14 12 15 13 16 7 17 10 18
REMARK H PARENT 10 19
REMARK Flexibility Score: inf
ROOT
ATOM      1  C   UNL     1     -19.813 -44.508 100.996  1.00  0.00     0.052 C 
ATOM      2  C   UNL     1     -20.854 -45.393 101.609  1.00  0.00     0.040 C 
ATOM      3  C   UNL     1     -21.221 -45.411 102.894  1.00  0.00     0.012 C 
ATOM      4  C   UNL     1     -20.532 -44.697 104.010  1.00  0.00     0.047 C 
ATOM      5  C   UNL     1     -19.497 -45.637 104.703  1.00  0.00     0.025 C 
ATOM      6  C   UNL     1     -19.067 -45.096 106.084  1.00  0.00    -0.073 C 
ATOM      7  C   UNL     1     -19.055 -43.776 106.360  1.00  0.00     0.008 C 
ATOM      8  C   UNL     1     -18.463 -46.003 107.134  1.00  0.00     0.031 C 
ATOM      9  C   UNL     1     -18.309 -47.437 106.654  1.00  0.00     0.005 C 
ATOM     10  C   UNL     1     -19.616 -47.910 106.032  1.00  0.00     0.008 C 
ATOM     11  C   UNL     1     -19.935 -47.181 104.690  1.00  0.00    -0.019 C 
ATOM     12  C   UNL     1     -21.474 -47.362 104.440  1.00  0.00     0.092 C 
ATOM     13  C   UNL     1     -22.040 -46.626 103.202  1.00  0.00     0.235 C 
ATOM     14  O   UNL     1     -21.956 -47.397 102.004  1.00  0.00    -0.426 OA
ATOM     15  C   UNL     1     -21.325 -46.639 101.037  1.00  0.00     0.336 C 
ATOM     16  O   UNL     1     -21.128 -47.027  99.857  1.00  0.00    -0.246 OA
ATOM     17  C   UNL     1     -19.161 -47.924 103.566  1.00  0.00     0.012 C 
ENDROOT
BRANCH  13  18
ATOM     18  O   UNL     1     -23.373 -46.240 103.420  1.00  0.00    -0.353 OA
ATOM     19  H   UNL     1     -23.920 -46.702 102.732  1.00  0.00     0.215 HD
ENDBRANCH  13  18
TORSDOF 1
ENDMDL
MODEL 2
REMARK VINA RESULT:    -6.193     12.277     14.224
REMARK INTER + INTRA:          -6.374
REMARK INTER:                  -6.374
REMARK INTRA:                   0.000
REMARK UNBOUND:                 0.000
REMARK SMILES C=C1CCC[C@@]2(C)C[C@]3(O)OC(=O)C(C)=C3C[C@@H]12
REMARK SMILES IDX 15 1 14 2 16 3 17 4 18 5 2 6 1 7 3 8 4 9 5 10 6 11 8 12 9 13
REMARK SMILES IDX 11 14 12 15 13 16 7 17 10 18
REMARK H PARENT 10 19
REMARK Flexibility Score: inf
ROOT
ATOM      1  C   UNL     1     -19.223 -62.121  98.778  1.00  0.00     0.052 C 
ATOM      2  C   UNL     1     -18.431 -60.855  98.657  1.00  0.00     0.040 C 
ATOM      3  C   UNL     1     -18.642 -59.722  99.335  1.00  0.00     0.012 C 
ATOM      4  C   UNL     1     -19.826 -59.427 100.197  1.00  0.00     0.047 C 
ATOM      5  C   UNL     1     -20.924 -58.677  99.380  1.00  0.00     0.025 C 
ATOM      6  C   UNL     1     -21.963 -58.003 100.301  1.00  0.00    -0.073 C 
ATOM      7  C   UNL     1     -22.263 -58.498 101.519  1.00  0.00     0.008 C 
ATOM      8  C   UNL     1     -22.829 -56.862  99.813  1.00  0.00     0.031 C 
ATOM      9  C   UNL     1     -22.577 -56.515  98.355  1.00  0.00     0.005 C 
ATOM     10  C   UNL     1     -21.080 -56.368  98.117  1.00  0.00     0.008 C 
ATOM     11  C   UNL     1     -20.323 -57.727  98.233  1.00  0.00    -0.019 C 
ATOM     12  C   UNL     1     -18.813 -57.376  98.481  1.00  0.00     0.092 C 
ATOM     13  C   UNL     1     -17.879 -58.584  98.731  1.00  0.00     0.235 C 
ATOM     14  O   UNL     1     -17.347 -59.140  97.529  1.00  0.00    -0.426 OA
ATOM     15  C   UNL     1     -17.604 -60.497  97.522  1.00  0.00     0.336 C 
ATOM     16  O   UNL     1     -17.232 -61.279  96.609  1.00  0.00    -0.246 OA
ATOM     17  C   UNL     1     -20.444 -58.443  96.860  1.00  0.00     0.012 C 
ENDROOT
BRANCH  13  18
ATOM     18  O   UNL     1     -16.826 -58.228  99.590  1.00  0.00    -0.353 OA
ATOM     19  H   UNL     1     -17.219 -57.653 100.298  1.00  0.00     0.215 HD
ENDBRANCH  13  18
TORSDOF 1
ENDMDL
MODEL 3
REMARK VINA RESULT:    -6.141     11.839     13.734
REMARK INTER + INTRA:          -6.320
REMARK INTER:                  -6.320
REMARK INTRA:                   0.000
REMARK UNBOUND:                 0.000
REMARK SMILES C=C1CCC[C@@]2(C)C[C@]3(O)OC(=O)C(C)=C3C[C@@H]12
REMARK SMILES IDX 15 1 14 2 16 3 17 4 18 5 2 6 1 7 3 8 4 9 5 10 6 11 8 12 9 13
REMARK SMILES IDX 11 14 12 15 13 16 7 17 10 18
REMARK H PARENT 10 19
REMARK Flexibility Score: inf
ROOT
ATOM      1  C   UNL     1     -23.552 -57.357  97.366  1.00  0.00     0.052 C 
ATOM      2  C   UNL     1     -22.416 -56.834  98.190  1.00  0.00     0.040 C 
ATOM      3  C   UNL     1     -21.145 -57.244  98.134  1.00  0.00     0.012 C 
ATOM      4  C   UNL     1     -20.642 -58.435  97.388  1.00  0.00     0.047 C 
ATOM      5  C   UNL     1     -20.588 -59.683  98.322  1.00  0.00     0.025 C 
ATOM      6  C   UNL     1     -19.711 -60.807  97.728  1.00  0.00    -0.073 C 
ATOM      7  C   UNL     1     -19.564 -60.967  96.398  1.00  0.00     0.008 C 
ATOM      8  C   UNL     1     -19.124 -61.895  98.600  1.00  0.00     0.031 C 
ATOM      9  C   UNL     1     -19.527 -61.761 100.060  1.00  0.00     0.005 C 
ATOM     10  C   UNL     1     -19.290 -60.330 100.524  1.00  0.00     0.008 C 
ATOM     11  C   UNL     1     -20.268 -59.317  99.853  1.00  0.00    -0.019 C 
ATOM     12  C   UNL     1     -19.611 -57.899 100.000  1.00  0.00     0.092 C 
ATOM     13  C   UNL     1     -20.366 -56.738  99.309  1.00  0.00     0.235 C 
ATOM     14  O   UNL     1     -21.362 -56.144 100.140  1.00  0.00    -0.426 OA
ATOM     15  C   UNL     1     -22.558 -56.129  99.448  1.00  0.00     0.336 C 
ATOM     16  O   UNL     1     -23.625 -55.637  99.899  1.00  0.00    -0.246 OA
ATOM     17  C   UNL     1     -21.589 -59.336 100.671  1.00  0.00     0.012 C 
ENDROOT
BRANCH  13  18
ATOM     18  O   UNL     1     -19.466 -55.750  98.875  1.00  0.00    -0.353 OA
ATOM     19  H   UNL     1     -19.334 -55.894  97.901  1.00  0.00     0.215 HD
ENDBRANCH  13  18
TORSDOF 1
ENDMDL
MODEL 4
REMARK VINA RESULT:    -6.047     12.491     14.534
REMARK INTER + INTRA:          -6.223
REMARK INTER:                  -6.223
REMARK INTRA:                   0.000
REMARK UNBOUND:                 0.000
REMARK SMILES C=C1CCC[C@@]2(C)C[C@]3(O)OC(=O)C(C)=C3C[C@@H]12
REMARK SMILES IDX 15 1 14 2 16 3 17 4 18 5 2 6 1 7 3 8 4 9 5 10 6 11 8 12 9 13
REMARK SMILES IDX 11 14 12 15 13 16 7 17 10 18
REMARK H PARENT 10 19
REMARK Flexibility Score: inf
ROOT
ATOM      1  C   UNL     1     -19.257 -59.066 100.351  1.00  0.00     0.052 C 
ATOM      2  C   UNL     1     -20.225 -58.027  99.874  1.00  0.00     0.040 C 
ATOM      3  C   UNL     1     -21.544 -58.183  99.726  1.00  0.00     0.012 C 
ATOM      4  C   UNL     1     -22.287 -59.475  99.813  1.00  0.00     0.047 C 
ATOM      5  C   UNL     1     -22.453 -60.108  98.397  1.00  0.00     0.025 C 
ATOM      6  C   UNL     1     -23.539 -61.204  98.382  1.00  0.00    -0.073 C 
ATOM      7  C   UNL     1     -23.823 -61.940  99.475  1.00  0.00     0.008 C 
ATOM      8  C   UNL     1     -24.211 -61.634  97.096  1.00  0.00     0.031 C 
ATOM      9  C   UNL     1     -23.668 -60.904  95.877  1.00  0.00     0.005 C 
ATOM     10  C   UNL     1     -23.641 -59.406  96.151  1.00  0.00     0.008 C 
ATOM     11  C   UNL     1     -22.580 -59.017  97.226  1.00  0.00    -0.019 C 
ATOM     12  C   UNL     1     -22.996 -57.605  97.770  1.00  0.00     0.092 C 
ATOM     13  C   UNL     1     -22.132 -57.057  98.932  1.00  0.00     0.235 C 
ATOM     14  O   UNL     1     -20.989 -56.329  98.487  1.00  0.00    -0.426 OA
ATOM     15  C   UNL     1     -19.868 -56.851  99.105  1.00  0.00     0.336 C 
ATOM     16  O   UNL     1     -18.704 -56.403  98.945  1.00  0.00    -0.246 OA
ATOM     17  C   UNL     1     -21.213 -58.883  96.499  1.00  0.00     0.012 C 
ENDROOT
BRANCH  13  18
ATOM     18  O   UNL     1     -22.902 -56.247  99.784  1.00  0.00    -0.353 OA
ATOM     19  H   UNL     1     -23.418 -55.630  99.201  1.00  0.00     0.215 HD
ENDBRANCH  13  18
TORSDOF 1
ENDMDL
MODEL 5
REMARK VINA RESULT:    -6.024     11.923     13.926
REMARK INTER + INTRA:          -6.200
REMARK INTER:                  -6.200
REMARK INTRA:                   0.000
REMARK UNBOUND:                 0.000
REMARK SMILES C=C1CCC[C@@]2(C)C[C@]3(O)OC(=O)C(C)=C3C[C@@H]12
REMARK SMILES IDX 15 1 14 2 16 3 17 4 18 5 2 6 1 7 3 8 4 9 5 10 6 11 8 12 9 13
REMARK SMILES IDX 11 14 12 15 13 16 7 17 10 18
REMARK H PARENT 10 19
REMARK Flexibility Score: inf
ROOT
ATOM      1  C   UNL     1     -22.581 -58.686 101.473  1.00  0.00     0.052 C 
ATOM      2  C   UNL     1     -22.691 -58.046 100.123  1.00  0.00     0.040 C 
ATOM      3  C   UNL     1     -22.312 -58.584  98.959  1.00  0.00     0.012 C 
ATOM      4  C   UNL     1     -21.522 -59.840  98.793  1.00  0.00     0.047 C 
ATOM      5  C   UNL     1     -19.998 -59.519  98.688  1.00  0.00     0.025 C 
ATOM      6  C   UNL     1     -19.199 -60.710  98.117  1.00  0.00    -0.073 C 
ATOM      7  C   UNL     1     -19.598 -61.986  98.295  1.00  0.00     0.008 C 
ATOM      8  C   UNL     1     -17.835 -60.518  97.491  1.00  0.00     0.031 C 
ATOM      9  C   UNL     1     -17.366 -59.073  97.534  1.00  0.00     0.005 C 
ATOM     10  C   UNL     1     -18.473 -58.162  97.019  1.00  0.00     0.008 C 
ATOM     11  C   UNL     1     -19.695 -58.106  97.987  1.00  0.00    -0.019 C 
ATOM     12  C   UNL     1     -20.911 -57.589  97.139  1.00  0.00     0.092 C 
ATOM     13  C   UNL     1     -22.271 -57.549  97.878  1.00  0.00     0.235 C 
ATOM     14  O   UNL     1     -22.493 -56.325  98.578  1.00  0.00    -0.426 OA
ATOM     15  C   UNL     1     -22.819 -56.622  99.887  1.00  0.00     0.336 C 
ATOM     16  O   UNL     1     -23.106 -55.757 100.754  1.00  0.00    -0.246 OA
ATOM     17  C   UNL     1     -19.371 -57.051  99.081  1.00  0.00     0.012 C 
ENDROOT
BRANCH  13  18
ATOM     18  O   UNL     1     -23.328 -57.777  96.982  1.00  0.00    -0.353 OA
ATOM     19  H   UNL     1     -23.564 -58.738  97.059  1.00  0.00     0.215 HD
ENDBRANCH  13  18
TORSDOF 1
ENDMDL
MODEL 6
REMARK VINA RESULT:    -6.011     13.409     14.964
REMARK INTER + INTRA:          -6.187
REMARK INTER:                  -6.187
REMARK INTRA:                   0.000
REMARK UNBOUND:                 0.000
REMARK SMILES C=C1CCC[C@@]2(C)C[C@]3(O)OC(=O)C(C)=C3C[C@@H]12
REMARK SMILES IDX 15 1 14 2 16 3 17 4 18 5 2 6 1 7 3 8 4 9 5 10 6 11 8 12 9 13
REMARK SMILES IDX 11 14 12 15 13 16 7 17 10 18
REMARK H PARENT 10 19
REMARK Flexibility Score: inf
ROOT
ATOM      1  C   UNL     1     -17.662 -60.779 100.167  1.00  0.00     0.052 C 
ATOM      2  C   UNL     1     -17.621 -59.630  99.206  1.00  0.00     0.040 C 
ATOM      3  C   UNL     1     -18.609 -58.762  98.969  1.00  0.00     0.012 C 
ATOM      4  C   UNL     1     -20.014 -58.879  99.462  1.00  0.00     0.047 C 
ATOM      5  C   UNL     1     -20.911 -59.582  98.397  1.00  0.00     0.025 C 
ATOM      6  C   UNL     1     -22.413 -59.364  98.678  1.00  0.00    -0.073 C 
ATOM      7  C   UNL     1     -22.884 -59.183  99.929  1.00  0.00     0.008 C 
ATOM      8  C   UNL     1     -23.452 -59.526  97.590  1.00  0.00     0.031 C 
ATOM      9  C   UNL     1     -22.850 -59.951  96.260  1.00  0.00     0.005 C 
ATOM     10  C   UNL     1     -21.665 -59.053  95.928  1.00  0.00     0.008 C 
ATOM     11  C   UNL     1     -20.457 -59.281  96.887  1.00  0.00    -0.019 C 
ATOM     12  C   UNL     1     -19.555 -58.001  96.780  1.00  0.00     0.092 C 
ATOM     13  C   UNL     1     -18.335 -57.962  97.732  1.00  0.00     0.235 C 
ATOM     14  O   UNL     1     -17.174 -58.583  97.183  1.00  0.00    -0.426 OA
ATOM     15  C   UNL     1     -16.705 -59.515  98.089  1.00  0.00     0.336 C 
ATOM     16  O   UNL     1     -15.671 -60.209  97.911  1.00  0.00    -0.246 OA
ATOM     17  C   UNL     1     -19.656 -60.496  96.341  1.00  0.00     0.012 C 
ENDROOT
BRANCH  13  18
ATOM     18  O   UNL     1     -18.033 -56.640  98.097  1.00  0.00    -0.353 OA
ATOM     19  H   UNL     1     -18.748 -56.067  97.713  1.00  0.00     0.215 HD
ENDBRANCH  13  18
TORSDOF 1
ENDMDL
MODEL 7
REMARK VINA RESULT:    -6.011      2.152      3.194
REMARK INTER + INTRA:          -6.187
REMARK INTER:                  -6.187
REMARK INTRA:                   0.000
REMARK UNBOUND:                 0.000
REMARK SMILES C=C1CCC[C@@]2(C)C[C@]3(O)OC(=O)C(C)=C3C[C@@H]12
REMARK SMILES IDX 15 1 14 2 16 3 17 4 18 5 2 6 1 7 3 8 4 9 5 10 6 11 8 12 9 13
REMARK SMILES IDX 11 14 12 15 13 16 7 17 10 18
REMARK H PARENT 10 19
REMARK Flexibility Score: inf
ROOT
ATOM      1  C   UNL     1     -19.435 -46.781  99.043  1.00  0.00     0.052 C 
ATOM      2  C   UNL     1     -19.801 -45.626  99.923  1.00  0.00     0.040 C 
ATOM      3  C   UNL     1     -19.343 -45.394 101.157  1.00  0.00     0.012 C 
ATOM      4  C   UNL     1     -18.532 -46.341 101.980  1.00  0.00     0.047 C 
ATOM      5  C   UNL     1     -19.457 -47.187 102.910  1.00  0.00     0.025 C 
ATOM      6  C   UNL     1     -18.661 -47.867 104.044  1.00  0.00    -0.073 C 
ATOM      7  C   UNL     1     -17.368 -48.220 103.894  1.00  0.00     0.008 C 
ATOM      8  C   UNL     1     -19.339 -48.340 105.311  1.00  0.00     0.031 C 
ATOM      9  C   UNL     1     -20.841 -48.102 105.299  1.00  0.00     0.005 C 
ATOM     10  C   UNL     1     -21.125 -46.665 104.883  1.00  0.00     0.008 C 
ATOM     11  C   UNL     1     -20.770 -46.396 103.388  1.00  0.00    -0.019 C 
ATOM     12  C   UNL     1     -20.616 -44.841 103.239  1.00  0.00     0.092 C 
ATOM     13  C   UNL     1     -20.161 -44.346 101.845  1.00  0.00     0.235 C 
ATOM     14  O   UNL     1     -21.246 -44.125 100.946  1.00  0.00    -0.426 OA
ATOM     15  C   UNL     1     -20.996 -44.819  99.778  1.00  0.00     0.336 C 
ATOM     16  O   UNL     1     -21.753 -44.800  98.773  1.00  0.00    -0.246 OA
ATOM     17  C   UNL     1     -21.984 -46.856 102.535  1.00  0.00     0.012 C 
ENDROOT
BRANCH  13  18
ATOM     18  O   UNL     1     -19.399 -43.171 101.961  1.00  0.00    -0.353 OA
ATOM     19  H   UNL     1     -19.607 -42.617 101.163  1.00  0.00     0.215 HD
ENDBRANCH  13  18
TORSDOF 1
ENDMDL
MODEL 8
REMARK VINA RESULT:    -5.928      2.055      3.318
REMARK INTER + INTRA:          -6.101
REMARK INTER:                  -6.101
REMARK INTRA:                   0.000
REMARK UNBOUND:                 0.000
REMARK SMILES C=C1CCC[C@@]2(C)C[C@]3(O)OC(=O)C(C)=C3C[C@@H]12
REMARK SMILES IDX 15 1 14 2 16 3 17 4 18 5 2 6 1 7 3 8 4 9 5 10 6 11 8 12 9 13
REMARK SMILES IDX 11 14 12 15 13 16 7 17 10 18
REMARK H PARENT 10 19
REMARK Flexibility Score: inf
ROOT
ATOM      1  C   UNL     1     -17.200 -46.245 103.461  1.00  0.00     0.052 C 
ATOM      2  C   UNL     1     -18.549 -45.606 103.589  1.00  0.00     0.040 C 
ATOM      3  C   UNL     1     -19.386 -45.727 104.624  1.00  0.00     0.012 C 
ATOM      4  C   UNL     1     -19.233 -46.677 105.766  1.00  0.00     0.047 C 
ATOM      5  C   UNL     1     -20.017 -47.997 105.487  1.00  0.00     0.025 C 
ATOM      6  C   UNL     1     -20.226 -48.823 106.775  1.00  0.00    -0.073 C 
ATOM      7  C   UNL     1     -19.354 -48.772 107.803  1.00  0.00     0.008 C 
ATOM      8  C   UNL     1     -21.316 -49.867 106.876  1.00  0.00     0.031 C 
ATOM      9  C   UNL     1     -22.111 -50.014 105.589  1.00  0.00     0.005 C 
ATOM     10  C   UNL     1     -22.544 -48.638 105.098  1.00  0.00     0.008 C 
ATOM     11  C   UNL     1     -21.341 -47.775 104.607  1.00  0.00    -0.019 C 
ATOM     12  C   UNL     1     -21.826 -46.283 104.628  1.00  0.00     0.092 C 
ATOM     13  C   UNL     1     -20.753 -45.227 104.270  1.00  0.00     0.235 C 
ATOM     14  O   UNL     1     -20.662 -44.971 102.869  1.00  0.00    -0.426 OA
ATOM     15  C   UNL     1     -19.344 -45.118 102.481  1.00  0.00     0.336 C 
ATOM     16  O   UNL     1     -18.932 -44.926 101.307  1.00  0.00    -0.246 OA
ATOM     17  C   UNL     1     -21.052 -48.181 103.135  1.00  0.00     0.012 C 
ENDROOT
BRANCH  13  18
ATOM     18  O   UNL     1     -20.993 -44.023 104.953  1.00  0.00    -0.353 OA
ATOM     19  H   UNL     1     -20.814 -43.289 104.309  1.00  0.00     0.215 HD
ENDBRANCH  13  18
TORSDOF 1
ENDMDL
MODEL 9
REMARK VINA RESULT:    -5.897      2.463      4.138
REMARK INTER + INTRA:          -6.069
REMARK INTER:                  -6.069
REMARK INTRA:                   0.000
REMARK UNBOUND:                 0.000
REMARK SMILES C=C1CCC[C@@]2(C)C[C@]3(O)OC(=O)C(C)=C3C[C@@H]12
REMARK SMILES IDX 15 1 14 2 16 3 17 4 18 5 2 6 1 7 3 8 4 9 5 10 6 11 8 12 9 13
REMARK SMILES IDX 11 14 12 15 13 16 7 17 10 18
REMARK H PARENT 10 19
REMARK Flexibility Score: inf
ROOT
ATOM      1  C   UNL     1     -21.746 -44.616 100.374  1.00  0.00     0.052 C 
ATOM      2  C   UNL     1     -20.498 -45.168 100.993  1.00  0.00     0.040 C 
ATOM      3  C   UNL     1     -20.297 -46.432 101.377  1.00  0.00     0.012 C 
ATOM      4  C   UNL     1     -21.340 -47.499 101.451  1.00  0.00     0.047 C 
ATOM      5  C   UNL     1     -21.942 -47.576 102.889  1.00  0.00     0.025 C 
ATOM      6  C   UNL     1     -22.705 -48.897 103.121  1.00  0.00    -0.073 C 
ATOM      7  C   UNL     1     -23.308 -49.558 102.112  1.00  0.00     0.008 C 
ATOM      8  C   UNL     1     -22.972 -49.421 104.515  1.00  0.00     0.031 C 
ATOM      9  C   UNL     1     -22.449 -48.495 105.601  1.00  0.00     0.005 C 
ATOM     10  C   UNL     1     -21.006 -48.113 105.294  1.00  0.00     0.008 C 
ATOM     11  C   UNL     1     -20.888 -47.195 104.039  1.00  0.00    -0.019 C 
ATOM     12  C   UNL     1     -19.402 -47.304 103.545  1.00  0.00     0.092 C 
ATOM     13  C   UNL     1     -19.076 -46.545 102.236  1.00  0.00     0.235 C 
ATOM     14  O   UNL     1     -18.695 -45.188 102.455  1.00  0.00    -0.426 OA
ATOM     15  C   UNL     1     -19.483 -44.377 101.660  1.00  0.00     0.336 C 
ATOM     16  O   UNL     1     -19.369 -43.126 101.600  1.00  0.00    -0.246 OA
ATOM     17  C   UNL     1     -21.147 -45.736 104.508  1.00  0.00     0.012 C 
ENDROOT
BRANCH  13  18
ATOM     18  O   UNL     1     -18.067 -47.207 101.518  1.00  0.00    -0.353 OA
ATOM     19  H   UNL     1     -17.256 -47.198 102.091  1.00  0.00     0.215 HD
ENDBRANCH  13  18
TORSDOF 1
ENDMDL
