MODEL 1
REMARK VINA RESULT:    -4.789      0.000      0.000
REMARK INTER + INTRA:          -7.824
REMARK INTER:                  -7.308
REMARK INTRA:                  -0.516
REMARK UNBOUND:                -0.516
REMARK SMILES CCCCCCCCCCC(=O)[O-]
REMARK SMILES IDX 7 1 8 2 9 3 10 4 11 5 12 6 13 7 6 8 5 9 4 10 3 11 2 12 1 13
REMARK H PARENT
REMARK Flexibility Score: inf
ROOT
ATOM      1  C   UNL     1      -1.878  11.045  -7.473  1.00  0.00     0.000 C 
ENDROOT
BRANCH   1   2
ATOM      2  C   UNL     1      -3.237  10.959  -8.183  1.00  0.00     0.000 C 
BRANCH   2   3
ATOM      3  C   UNL     1      -3.064  11.006  -9.706  1.00  0.00     0.006 C 
BRANCH   3   4
ATOM      4  C   UNL     1      -4.385  10.698 -10.419  1.00  0.00     0.053 C 
BRANCH   4   5
ATOM      5  C   UNL     1      -4.686   9.234 -10.354  1.00  0.00     0.041 C 
ATOM      6  O   UNL     1      -3.749   8.393 -10.367  1.00  0.00    -0.550 OA
ATOM      7  O   UNL     1      -6.004   8.796 -10.330  1.00  0.00    -0.550 OA
ENDBRANCH   4   5
ENDBRANCH   3   4
ENDBRANCH   2   3
ENDBRANCH   1   2
BRANCH   1   8
ATOM      8  C   UNL     1      -1.036  12.240  -7.949  1.00  0.00     0.000 C 
BRANCH   8   9
ATOM      9  C   UNL     1       0.474  11.991  -7.814  1.00  0.00    -0.000 C 
BRANCH   9  10
ATOM     10  C   UNL     1       0.751  10.601  -7.226  1.00  0.00    -0.000 C 
BRANCH  10  11
ATOM     11  C   UNL     1       1.502   9.718  -8.230  1.00  0.00    -0.000 C 
BRANCH  11  12
ATOM     12  C   UNL     1       2.962  10.166  -8.369  1.00  0.00    -0.003 C 
ATOM     13  C   UNL     1       3.582   9.627  -9.655  1.00  0.00     0.004 C 
ENDBRANCH  11  12
ENDBRANCH  10  11
ENDBRANCH   9  10
ENDBRANCH   8   9
ENDBRANCH   1   8
TORSDOF 9
ENDMDL
MODEL 2
REMARK VINA RESULT:    -4.737      3.208      6.371
REMARK INTER + INTRA:          -7.744
REMARK INTER:                  -7.180
REMARK INTRA:                  -0.565
REMARK UNBOUND:                -0.516
REMARK SMILES CCCCCCCCCCC(=O)[O-]
REMARK SMILES IDX 7 1 8 2 9 3 10 4 11 5 12 6 13 7 6 8 5 9 4 10 3 11 2 12 1 13
REMARK H PARENT
REMARK Flexibility Score: inf
ROOT
ATOM      1  C   UNL     1      -1.559  10.987  -8.539  1.00  0.00     0.000 C 
ENDROOT
BRANCH   1   2
ATOM      2  C   UNL     1      -0.888  12.165  -7.818  1.00  0.00     0.000 C 
BRANCH   2   3
ATOM      3  C   UNL     1       0.570  11.838  -7.474  1.00  0.00     0.006 C 
BRANCH   3   4
ATOM      4  C   UNL     1       0.893  10.373  -7.782  1.00  0.00     0.053 C 
BRANCH   4   5
ATOM      5  C   UNL     1       2.349  10.209  -8.084  1.00  0.00     0.041 C 
ATOM      6  O   UNL     1       2.715   9.641  -9.147  1.00  0.00    -0.550 OA
ATOM      7  O   UNL     1       3.302  10.639  -7.170  1.00  0.00    -0.550 OA
ENDBRANCH   4   5
ENDBRANCH   3   4
ENDBRANCH   2   3
ENDBRANCH   1   2
BRANCH   1   8
ATOM      8  C   UNL     1      -2.756  11.423  -9.398  1.00  0.00     0.000 C 
BRANCH   8   9
ATOM      9  C   UNL     1      -3.970  11.842  -8.554  1.00  0.00    -0.000 C 
BRANCH   9  10
ATOM     10  C   UNL     1      -5.273  11.675  -9.346  1.00  0.00    -0.000 C 
BRANCH  10  11
ATOM     11  C   UNL     1      -5.070  10.748 -10.550  1.00  0.00    -0.000 C 
BRANCH  11  12
ATOM     12  C   UNL     1      -5.640   9.353 -10.271  1.00  0.00    -0.003 C 
ATOM     13  C   UNL     1      -4.585   8.273 -10.489  1.00  0.00     0.004 C 
ENDBRANCH  11  12
ENDBRANCH  10  11
ENDBRANCH   9  10
ENDBRANCH   8   9
ENDBRANCH   1   8
TORSDOF 9
ENDMDL
MODEL 3
REMARK VINA RESULT:    -4.728      3.473      6.372
REMARK INTER + INTRA:          -7.732
REMARK INTER:                  -7.129
REMARK INTRA:                  -0.603
REMARK UNBOUND:                -0.516
REMARK SMILES CCCCCCCCCCC(=O)[O-]
REMARK SMILES IDX 7 1 8 2 9 3 10 4 11 5 12 6 13 7 6 8 5 9 4 10 3 11 2 12 1 13
REMARK H PARENT
REMARK Flexibility Score: inf
ROOT
ATOM      1  C   UNL     1      -0.970  12.951  -7.193  1.00  0.00     0.000 C 
ENDROOT
BRANCH   1   2
ATOM      2  C   UNL     1       0.225  12.273  -7.880  1.00  0.00     0.000 C 
BRANCH   2   3
ATOM      3  C   UNL     1       0.586  10.958  -7.179  1.00  0.00     0.006 C 
BRANCH   3   4
ATOM      4  C   UNL     1       1.234   9.974  -8.158  1.00  0.00     0.053 C 
BRANCH   4   5
ATOM      5  C   UNL     1       2.721  10.145  -8.166  1.00  0.00     0.041 C 
ATOM      6  O   UNL     1       3.301  10.689  -7.191  1.00  0.00    -0.550 OA
ATOM      7  O   UNL     1       3.460   9.748  -9.274  1.00  0.00    -0.550 OA
ENDBRANCH   4   5
ENDBRANCH   3   4
ENDBRANCH   2   3
ENDBRANCH   1   2
BRANCH   1   8
ATOM      8  C   UNL     1      -2.272  12.149  -7.344  1.00  0.00     0.000 C 
BRANCH   8   9
ATOM      9  C   UNL     1      -2.670  11.937  -8.813  1.00  0.00    -0.000 C 
BRANCH   9  10
ATOM     10  C   UNL     1      -3.049  10.472  -9.072  1.00  0.00    -0.000 C 
BRANCH  10  11
ATOM     11  C   UNL     1      -3.882  10.338 -10.353  1.00  0.00    -0.000 C 
BRANCH  11  12
ATOM     12  C   UNL     1      -5.174  11.157 -10.255  1.00  0.00    -0.003 C 
ATOM     13  C   UNL     1      -6.392  10.248 -10.116  1.00  0.00     0.004 C 
ENDBRANCH  11  12
ENDBRANCH  10  11
ENDBRANCH   9  10
ENDBRANCH   8   9
ENDBRANCH   1   8
TORSDOF 9
ENDMDL
MODEL 4
REMARK VINA RESULT:    -4.715      1.059      1.598
REMARK INTER + INTRA:          -7.711
REMARK INTER:                  -7.251
REMARK INTRA:                  -0.460
REMARK UNBOUND:                -0.516
REMARK SMILES CCCCCCCCCCC(=O)[O-]
REMARK SMILES IDX 7 1 8 2 9 3 10 4 11 5 12 6 13 7 6 8 5 9 4 10 3 11 2 12 1 13
REMARK H PARENT
REMARK Flexibility Score: inf
ROOT
ATOM      1  C   UNL     1      -3.230  10.634  -8.555  1.00  0.00     0.000 C 
ENDROOT
BRANCH   1   2
ATOM      2  C   UNL     1      -4.387  11.178  -9.406  1.00  0.00     0.000 C 
BRANCH   2   3
ATOM      3  C   UNL     1      -4.521  10.393 -10.716  1.00  0.00     0.006 C 
BRANCH   3   4
ATOM      4  C   UNL     1      -4.053   8.945 -10.539  1.00  0.00     0.053 C 
BRANCH   4   5
ATOM      5  C   UNL     1      -5.211   8.003 -10.648  1.00  0.00     0.041 C 
ATOM      6  O   UNL     1      -5.133   6.985 -11.383  1.00  0.00    -0.550 OA
ATOM      7  O   UNL     1      -6.396   8.278  -9.975  1.00  0.00    -0.550 OA
ENDBRANCH   4   5
ENDBRANCH   3   4
ENDBRANCH   2   3
ENDBRANCH   1   2
BRANCH   1   8
ATOM      8  C   UNL     1      -2.026  11.588  -8.515  1.00  0.00     0.000 C 
BRANCH   8   9
ATOM      9  C   UNL     1      -0.729  10.885  -8.085  1.00  0.00    -0.000 C 
BRANCH   9  10
ATOM     10  C   UNL     1       0.397  11.903  -7.858  1.00  0.00    -0.000 C 
BRANCH  10  11
ATOM     11  C   UNL     1       1.607  11.244  -7.184  1.00  0.00    -0.000 C 
BRANCH  11  12
ATOM     12  C   UNL     1       1.839   9.832  -7.734  1.00  0.00    -0.003 C 
ATOM     13  C   UNL     1       2.881   9.840  -8.849  1.00  0.00     0.004 C 
ENDBRANCH  11  12
ENDBRANCH  10  11
ENDBRANCH   9  10
ENDBRANCH   8   9
ENDBRANCH   1   8
TORSDOF 9
ENDMDL
MODEL 5
REMARK VINA RESULT:    -4.709      3.285      6.283
REMARK INTER + INTRA:          -7.703
REMARK INTER:                  -7.094
REMARK INTRA:                  -0.608
REMARK UNBOUND:                -0.516
REMARK SMILES CCCCCCCCCCC(=O)[O-]
REMARK SMILES IDX 7 1 8 2 9 3 10 4 11 5 12 6 13 7 6 8 5 9 4 10 3 11 2 12 1 13
REMARK H PARENT
REMARK Flexibility Score: inf
ROOT
ATOM      1  C   UNL     1      -1.717  10.960  -7.405  1.00  0.00     0.000 C 
ENDROOT
BRANCH   1   2
ATOM      2  C   UNL     1      -0.802  12.024  -8.030  1.00  0.00     0.000 C 
BRANCH   2   3
ATOM      3  C   UNL     1       0.669  11.742  -7.702  1.00  0.00     0.006 C 
BRANCH   3   4
ATOM      4  C   UNL     1       1.053  10.308  -8.081  1.00  0.00     0.053 C 
BRANCH   4   5
ATOM      5  C   UNL     1       2.538  10.180  -8.212  1.00  0.00     0.041 C 
ATOM      6  O   UNL     1       3.296  10.655  -7.326  1.00  0.00    -0.550 OA
ATOM      7  O   UNL     1       3.087   9.580  -9.338  1.00  0.00    -0.550 OA
ENDBRANCH   4   5
ENDBRANCH   3   4
ENDBRANCH   2   3
ENDBRANCH   1   2
BRANCH   1   8
ATOM      8  C   UNL     1      -3.055  10.820  -8.148  1.00  0.00     0.000 C 
BRANCH   8   9
ATOM      9  C   UNL     1      -2.932  11.119  -9.651  1.00  0.00    -0.000 C 
BRANCH   9  10
ATOM     10  C   UNL     1      -4.162  10.609 -10.414  1.00  0.00    -0.000 C 
BRANCH  10  11
ATOM     11  C   UNL     1      -5.104   9.835  -9.484  1.00  0.00    -0.000 C 
BRANCH  11  12
ATOM     12  C   UNL     1      -5.523   8.502 -10.115  1.00  0.00    -0.003 C 
ATOM     13  C   UNL     1      -4.333   7.555 -10.241  1.00  0.00     0.004 C 
ENDBRANCH  11  12
ENDBRANCH  10  11
ENDBRANCH   9  10
ENDBRANCH   8   9
ENDBRANCH   1   8
TORSDOF 9
ENDMDL
MODEL 6
REMARK VINA RESULT:    -4.472      3.164      6.469
REMARK INTER + INTRA:          -7.340
REMARK INTER:                  -6.742
REMARK INTRA:                  -0.598
REMARK UNBOUND:                -0.516
REMARK SMILES CCCCCCCCCCC(=O)[O-]
REMARK SMILES IDX 7 1 8 2 9 3 10 4 11 5 12 6 13 7 6 8 5 9 4 10 3 11 2 12 1 13
REMARK H PARENT
REMARK Flexibility Score: inf
ROOT
ATOM      1  C   UNL     1      -3.017  10.723  -9.226  1.00  0.00     0.000 C 
ENDROOT
BRANCH   1   2
ATOM      2  C   UNL     1      -2.615  12.152  -8.833  1.00  0.00     0.000 C 
BRANCH   2   3
ATOM      3  C   UNL     1      -1.255  12.164  -8.125  1.00  0.00     0.006 C 
BRANCH   3   4
ATOM      4  C   UNL     1      -0.679  10.750  -8.016  1.00  0.00     0.053 C 
BRANCH   4   5
ATOM      5  C   UNL     1       0.790  10.802  -7.736  1.00  0.00     0.041 C 
ATOM      6  O   UNL     1       1.394  11.906  -7.723  1.00  0.00    -0.550 OA
ATOM      7  O   UNL     1       1.502   9.626  -7.538  1.00  0.00    -0.550 OA
ENDBRANCH   4   5
ENDBRANCH   3   4
ENDBRANCH   2   3
ENDBRANCH   1   2
BRANCH   1   8
ATOM      8  C   UNL     1      -4.041  10.689 -10.371  1.00  0.00     0.000 C 
BRANCH   8   9
ATOM      9  C   UNL     1      -5.447  11.115  -9.921  1.00  0.00    -0.000 C 
BRANCH   9  10
ATOM     10  C   UNL     1      -6.469  10.002 -10.188  1.00  0.00    -0.000 C 
BRANCH  10  11
ATOM     11  C   UNL     1      -6.220   8.796  -9.273  1.00  0.00    -0.000 C 
BRANCH  11  12
ATOM     12  C   UNL     1      -6.374   7.481 -10.045  1.00  0.00    -0.003 C 
ATOM     13  C   UNL     1      -5.120   7.168 -10.856  1.00  0.00     0.004 C 
ENDBRANCH  11  12
ENDBRANCH  10  11
ENDBRANCH   9  10
ENDBRANCH   8   9
ENDBRANCH   1   8
TORSDOF 9
ENDMDL
MODEL 7
REMARK VINA RESULT:    -4.462     14.500     16.802
REMARK INTER + INTRA:          -7.325
REMARK INTER:                  -6.493
REMARK INTRA:                  -0.833
REMARK UNBOUND:                -0.516
REMARK SMILES CCCCCCCCCCC(=O)[O-]
REMARK SMILES IDX 7 1 8 2 9 3 10 4 11 5 12 6 13 7 6 8 5 9 4 10 3 11 2 12 1 13
REMARK H PARENT
REMARK Flexibility Score: inf
ROOT
ATOM      1  C   UNL     1      10.143  10.553 -19.064  1.00  0.00     0.000 C 
ENDROOT
BRANCH   1   2
ATOM      2  C   UNL     1      10.295  11.867 -18.283  1.00  0.00     0.000 C 
BRANCH   2   3
ATOM      3  C   UNL     1      11.662  11.939 -17.592  1.00  0.00     0.006 C 
BRANCH   3   4
ATOM      4  C   UNL     1      12.797  11.977 -18.620  1.00  0.00     0.053 C 
BRANCH   4   5
ATOM      5  C   UNL     1      12.781  13.270 -19.372  1.00  0.00     0.041 C 
ATOM      6  O   UNL     1      13.096  14.343 -18.794  1.00  0.00    -0.550 OA
ATOM      7  O   UNL     1      12.370  13.298 -20.699  1.00  0.00    -0.550 OA
ENDBRANCH   4   5
ENDBRANCH   3   4
ENDBRANCH   2   3
ENDBRANCH   1   2
BRANCH   1   8
ATOM      8  C   UNL     1      10.071  10.772 -20.583  1.00  0.00     0.000 C 
BRANCH   8   9
ATOM      9  C   UNL     1       9.114  11.908 -20.973  1.00  0.00    -0.000 C 
BRANCH   9  10
ATOM     10  C   UNL     1       7.659  11.420 -20.981  1.00  0.00    -0.000 C 
BRANCH  10  11
ATOM     11  C   UNL     1       6.694  12.563 -20.641  1.00  0.00    -0.000 C 
BRANCH  11  12
ATOM     12  C   UNL     1       6.475  12.664 -19.127  1.00  0.00    -0.003 C 
ATOM     13  C   UNL     1       6.158  14.097 -18.711  1.00  0.00     0.004 C 
ENDBRANCH  11  12
ENDBRANCH  10  11
ENDBRANCH   9  10
ENDBRANCH   8   9
ENDBRANCH   1   8
TORSDOF 9
ENDMDL
MODEL 8
REMARK VINA RESULT:    -4.462      1.305      1.794
REMARK INTER + INTRA:          -7.325
REMARK INTER:                  -6.465
REMARK INTRA:                  -0.860
REMARK UNBOUND:                -0.516
REMARK SMILES CCCCCCCCCCC(=O)[O-]
REMARK SMILES IDX 7 1 8 2 9 3 10 4 11 5 12 6 13 7 6 8 5 9 4 10 3 11 2 12 1 13
REMARK H PARENT
REMARK Flexibility Score: inf
ROOT
ATOM      1  C   UNL     1      -2.196  12.358  -6.656  1.00  0.00     0.000 C 
ENDROOT
BRANCH   1   2
ATOM      2  C   UNL     1      -2.377  10.882  -7.040  1.00  0.00     0.000 C 
BRANCH   2   3
ATOM      3  C   UNL     1      -2.046  10.656  -8.520  1.00  0.00     0.006 C 
BRANCH   3   4
ATOM      4  C   UNL     1      -2.995  11.450  -9.423  1.00  0.00     0.053 C 
BRANCH   4   5
ATOM      5  C   UNL     1      -3.918  10.527 -10.154  1.00  0.00     0.041 C 
ATOM      6  O   UNL     1      -4.950  10.978 -10.717  1.00  0.00    -0.550 OA
ATOM      7  O   UNL     1      -3.665   9.161 -10.172  1.00  0.00    -0.550 OA
ENDBRANCH   4   5
ENDBRANCH   3   4
ENDBRANCH   2   3
ENDBRANCH   1   2
BRANCH   1   8
ATOM      8  C   UNL     1      -0.729  12.811  -6.724  1.00  0.00     0.000 C 
BRANCH   8   9
ATOM      9  C   UNL     1       0.164  12.082  -5.709  1.00  0.00    -0.000 C 
BRANCH   9  10
ATOM     10  C   UNL     1       1.513  11.706  -6.336  1.00  0.00    -0.000 C 
BRANCH  10  11
ATOM     11  C   UNL     1       1.365  11.432  -7.838  1.00  0.00    -0.000 C 
BRANCH  11  12
ATOM     12  C   UNL     1       1.623   9.954  -8.154  1.00  0.00    -0.003 C 
ATOM     13  C   UNL     1       2.957   9.771  -8.873  1.00  0.00     0.004 C 
ENDBRANCH  11  12
ENDBRANCH  10  11
ENDBRANCH   9  10
ENDBRANCH   8   9
ENDBRANCH   1   8
TORSDOF 9
ENDMDL
MODEL 9
REMARK VINA RESULT:    -4.413      3.539      6.210
REMARK INTER + INTRA:          -7.250
REMARK INTER:                  -6.300
REMARK INTRA:                  -0.950
REMARK UNBOUND:                -0.516
REMARK SMILES CCCCCCCCCCC(=O)[O-]
REMARK SMILES IDX 7 1 8 2 9 3 10 4 11 5 12 6 13 7 6 8 5 9 4 10 3 11 2 12 1 13
REMARK H PARENT
REMARK Flexibility Score: inf
ROOT
ATOM      1  C   UNL     1      -4.870  13.023  -7.603  1.00  0.00     0.000 C 
ENDROOT
BRANCH   1   2
ATOM      2  C   UNL     1      -3.758  11.964  -7.586  1.00  0.00     0.000 C 
BRANCH   2   3
ATOM      3  C   UNL     1      -2.657  12.308  -8.595  1.00  0.00     0.006 C 
BRANCH   3   4
ATOM      4  C   UNL     1      -1.424  11.423  -8.387  1.00  0.00     0.053 C 
BRANCH   4   5
ATOM      5  C   UNL     1      -0.315  12.207  -7.759  1.00  0.00     0.041 C 
ATOM      6  O   UNL     1       0.884  11.878  -7.955  1.00  0.00    -0.550 OA
ATOM      7  O   UNL     1      -0.608  13.273  -6.917  1.00  0.00    -0.550 OA
ENDBRANCH   4   5
ENDBRANCH   3   4
ENDBRANCH   2   3
ENDBRANCH   1   2
BRANCH   1   8
ATOM      8  C   UNL     1      -5.819  12.867  -8.802  1.00  0.00     0.000 C 
BRANCH   8   9
ATOM      9  C   UNL     1      -6.633  11.565  -8.747  1.00  0.00    -0.000 C 
BRANCH   9  10
ATOM     10  C   UNL     1      -6.634  10.861 -10.110  1.00  0.00    -0.000 C 
BRANCH  10  11
ATOM     11  C   UNL     1      -5.236  10.876 -10.739  1.00  0.00    -0.000 C 
BRANCH  11  12
ATOM     12  C   UNL     1      -4.489   9.569 -10.449  1.00  0.00    -0.003 C 
ATOM     13  C   UNL     1      -5.450   8.384 -10.408  1.00  0.00     0.004 C 
ENDBRANCH  11  12
ENDBRANCH  10  11
ENDBRANCH   9  10
ENDBRANCH   8   9
ENDBRANCH   1   8
TORSDOF 9
ENDMDL
