MODEL 1
REMARK VINA RESULT:    -6.504      0.000      0.000
REMARK INTER + INTRA:          -9.105
REMARK INTER:                  -8.976
REMARK INTRA:                  -0.129
REMARK UNBOUND:                -0.129
REMARK SMILES O=C([O-])[C@H]1O[C@H](Oc2cc3oc(-c4ccccc4)cc(=O)c3c(O)c2O)[C@H](O)[C@@H](O)[C@H]1O
REMARK SMILES IDX 7 1 6 2 4 3 31 4 5 5 29 6 27 7 2 8 1 9 3 10 32 11 30 13
REMARK SMILES IDX 28 15 8 17 25 18 9 19 23 20 10 21 22 22 11 23 20 24 12 25
REMARK SMILES IDX 19 26 21 27 26 28 24 30 13 32 14 33 18 34 15 35 17 36 16 37
REMARK H PARENT 32 12 30 14 28 16 26 29 24 31
REMARK Flexibility Score: inf
ROOT
ATOM      1  O   UNL     1     -11.613  -7.151  -5.874  1.00  0.00    -0.458 OA
ENDROOT
BRANCH   1   2
ATOM      2  C   UNL     1     -10.488  -6.480  -6.460  1.00  0.00     0.339 C 
ATOM      3  C   UNL     1      -9.867  -4.649  -7.859  1.00  0.00     0.199 C 
ATOM      4  C   UNL     1      -8.680  -4.287  -6.926  1.00  0.00     0.180 C 
ATOM      5  O   UNL     1     -10.919  -5.361  -7.217  1.00  0.00    -0.328 OA
ATOM      6  C   UNL     1      -8.199  -5.500  -6.107  1.00  0.00     0.181 C 
ATOM      7  C   UNL     1      -9.409  -6.144  -5.406  1.00  0.00     0.214 C 
BRANCH   3   8
ATOM      8  C   UNL     1      -9.448  -5.279  -9.166  1.00  0.00     0.073 C 
ATOM      9  O   UNL     1      -8.459  -6.054  -9.239  1.00  0.00    -0.547 OA
ATOM     10  O   UNL     1     -10.140  -4.960 -10.327  1.00  0.00    -0.547 OA
ENDBRANCH   3   8
BRANCH   4  11
ATOM     11  O   UNL     1      -7.624  -3.732  -7.670  1.00  0.00    -0.387 OA
ATOM     12  H   UNL     1      -7.644  -2.750  -7.520  1.00  0.00     0.211 HD
ENDBRANCH   4  11
BRANCH   6  13
ATOM     13  O   UNL     1      -7.545  -6.415  -6.951  1.00  0.00    -0.387 OA
ATOM     14  H   UNL     1      -7.378  -5.953  -7.821  1.00  0.00     0.211 HD
ENDBRANCH   6  13
BRANCH   7  15
ATOM     15  O   UNL     1      -9.909  -5.249  -4.444  1.00  0.00    -0.384 OA
ATOM     16  H   UNL     1     -10.857  -5.489  -4.275  1.00  0.00     0.211 HD
ENDBRANCH   7  15
ENDBRANCH   1   2
BRANCH   1  17
ATOM     17  C   UNL     1     -12.881  -6.635  -5.530  1.00  0.00     0.172 A 
ATOM     18  C   UNL     1     -13.839  -7.321  -4.742  1.00  0.00     0.201 A 
ATOM     19  C   UNL     1     -13.161  -5.344  -5.976  1.00  0.00     0.098 A 
ATOM     20  C   UNL     1     -15.097  -6.713  -4.470  1.00  0.00     0.176 A 
ATOM     21  C   UNL     1     -14.378  -4.728  -5.695  1.00  0.00     0.146 A 
ATOM     22  C   UNL     1     -15.366  -5.410  -4.957  1.00  0.00     0.111 A 
ATOM     23  O   UNL     1     -14.589  -3.490  -6.129  1.00  0.00    -0.456 OA
ATOM     24  C   UNL     1     -16.590  -4.739  -4.733  1.00  0.00     0.197 A 
ATOM     25  C   UNL     1     -15.711  -2.815  -5.900  1.00  0.00     0.138 A 
ATOM     26  C   UNL     1     -16.759  -3.438  -5.208  1.00  0.00     0.100 A 
ATOM     27  O   UNL     1     -17.543  -5.290  -4.118  1.00  0.00    -0.289 OA
BRANCH  18  28
ATOM     28  O   UNL     1     -13.512  -8.572  -4.221  1.00  0.00    -0.502 OA
ATOM     29  H   UNL     1     -14.061  -9.085  -3.549  1.00  0.00     0.293 HD
ENDBRANCH  18  28
BRANCH  20  30
ATOM     30  O   UNL     1     -16.077  -7.367  -3.713  1.00  0.00    -0.504 OA
ATOM     31  H   UNL     1     -16.798  -7.965  -4.093  1.00  0.00     0.293 HD
ENDBRANCH  20  30
BRANCH  25  32
ATOM     32  C   UNL     1     -15.813  -1.418  -6.375  1.00  0.00     0.017 A 
ATOM     33  C   UNL     1     -16.170  -1.160  -7.712  1.00  0.00     0.012 A 
ATOM     34  C   UNL     1     -15.492  -0.336  -5.532  1.00  0.00     0.012 A 
ATOM     35  C   UNL     1     -16.217   0.151  -8.188  1.00  0.00     0.001 A 
ATOM     36  C   UNL     1     -15.541   0.973  -6.017  1.00  0.00     0.001 A 
ATOM     37  C   UNL     1     -15.902   1.218  -7.345  1.00  0.00     0.000 A 
ENDBRANCH  25  32
ENDBRANCH   1  17
TORSDOF 9
ENDMDL
MODEL 2
REMARK VINA RESULT:    -5.487      2.372      5.060
REMARK INTER + INTRA:          -7.701
REMARK INTER:                  -7.330
REMARK INTRA:                  -0.371
REMARK UNBOUND:                -0.129
REMARK SMILES O=C([O-])[C@H]1O[C@H](Oc2cc3oc(-c4ccccc4)cc(=O)c3c(O)c2O)[C@H](O)[C@@H](O)[C@H]1O
REMARK SMILES IDX 7 1 6 2 4 3 31 4 5 5 29 6 27 7 2 8 1 9 3 10 32 11 30 13
REMARK SMILES IDX 28 15 8 17 25 18 9 19 23 20 10 21 22 22 11 23 20 24 12 25
REMARK SMILES IDX 19 26 21 27 26 28 24 30 13 32 14 33 18 34 15 35 17 36 16 37
REMARK H PARENT 32 12 30 14 28 16 26 29 24 31
REMARK Flexibility Score: inf
ROOT
ATOM      1  O   UNL     1     -11.673  -6.776  -6.599  1.00  0.00    -0.458 OA
ENDROOT
BRANCH   1   2
ATOM      2  C   UNL     1     -10.303  -6.404  -6.805  1.00  0.00     0.339 C 
ATOM      3  C   UNL     1      -8.879  -4.967  -8.071  1.00  0.00     0.199 C 
ATOM      4  C   UNL     1      -8.026  -4.641  -6.816  1.00  0.00     0.180 C 
ATOM      5  O   UNL     1     -10.210  -5.380  -7.783  1.00  0.00    -0.328 OA
ATOM      6  C   UNL     1      -8.112  -5.753  -5.754  1.00  0.00     0.181 C 
ATOM      7  C   UNL     1      -9.595  -6.065  -5.475  1.00  0.00     0.214 C 
BRANCH   3   8
ATOM      8  C   UNL     1      -8.188  -5.874  -9.062  1.00  0.00     0.073 C 
ATOM      9  O   UNL     1      -8.723  -6.185 -10.158  1.00  0.00    -0.547 OA
ATOM     10  O   UNL     1      -6.951  -6.417  -8.739  1.00  0.00    -0.547 OA
ENDBRANCH   3   8
BRANCH   4  11
ATOM     11  O   UNL     1      -6.690  -4.399  -7.182  1.00  0.00    -0.387 OA
ATOM     12  H   UNL     1      -6.198  -5.255  -7.080  1.00  0.00     0.211 HD
ENDBRANCH   4  11
BRANCH   6  13
ATOM     13  O   UNL     1      -7.421  -6.894  -6.200  1.00  0.00    -0.387 OA
ATOM     14  H   UNL     1      -7.941  -7.279  -6.962  1.00  0.00     0.211 HD
ENDBRANCH   6  13
BRANCH   7  15
ATOM     15  O   UNL     1     -10.189  -4.949  -4.861  1.00  0.00    -0.384 OA
ATOM     16  H   UNL     1     -10.255  -4.231  -5.542  1.00  0.00     0.211 HD
ENDBRANCH   7  15
ENDBRANCH   1   2
BRANCH   1  17
ATOM     17  C   UNL     1     -12.699  -6.071  -5.934  1.00  0.00     0.172 A 
ATOM     18  C   UNL     1     -13.011  -4.708  -6.160  1.00  0.00     0.201 A 
ATOM     19  C   UNL     1     -13.467  -6.807  -5.031  1.00  0.00     0.098 A 
ATOM     20  C   UNL     1     -14.058  -4.089  -5.419  1.00  0.00     0.176 A 
ATOM     21  C   UNL     1     -14.510  -6.220  -4.319  1.00  0.00     0.146 A 
ATOM     22  C   UNL     1     -14.805  -4.853  -4.489  1.00  0.00     0.111 A 
ATOM     23  O   UNL     1     -15.221  -6.969  -3.483  1.00  0.00    -0.456 OA
ATOM     24  C   UNL     1     -15.857  -4.313  -3.714  1.00  0.00     0.197 A 
ATOM     25  C   UNL     1     -16.242  -6.504  -2.771  1.00  0.00     0.138 A 
ATOM     26  C   UNL     1     -16.574  -5.144  -2.852  1.00  0.00     0.100 A 
ATOM     27  O   UNL     1     -16.162  -3.091  -3.773  1.00  0.00    -0.289 OA
BRANCH  18  28
ATOM     28  O   UNL     1     -12.301  -4.006  -7.134  1.00  0.00    -0.502 OA
ATOM     29  H   UNL     1     -11.590  -4.397  -7.731  1.00  0.00     0.293 HD
ENDBRANCH  18  28
BRANCH  20  30
ATOM     30  O   UNL     1     -14.382  -2.738  -5.599  1.00  0.00    -0.504 OA
ATOM     31  H   UNL     1     -13.710  -1.987  -5.673  1.00  0.00     0.293 HD
ENDBRANCH  20  30
BRANCH  25  32
ATOM     32  C   UNL     1     -17.006  -7.442  -1.920  1.00  0.00     0.017 A 
ATOM     33  C   UNL     1     -18.380  -7.635  -2.154  1.00  0.00     0.012 A 
ATOM     34  C   UNL     1     -16.398  -8.098  -0.831  1.00  0.00     0.012 A 
ATOM     35  C   UNL     1     -19.125  -8.475  -1.325  1.00  0.00     0.001 A 
ATOM     36  C   UNL     1     -17.152  -8.937  -0.006  1.00  0.00     0.001 A 
ATOM     37  C   UNL     1     -18.515  -9.125  -0.251  1.00  0.00     0.000 A 
ENDBRANCH  25  32
ENDBRANCH   1  17
TORSDOF 9
ENDMDL
