MODEL 1
REMARK VINA RESULT:    -7.139      0.000      0.000
REMARK INTER + INTRA:         -11.528
REMARK INTER:                 -10.896
REMARK INTRA:                  -0.632
REMARK UNBOUND:                -0.632
REMARK SMILES COc1cc(C=CC(=O)CC(=O)C=Cc2ccc(O)c(OC)c2)ccc1O
REMARK SMILES IDX 10 1 8 2 9 3 7 4 6 5 5 6 3 7 26 8 4 9 25 10 24 11 2 12 1 13
REMARK SMILES IDX 27 14 11 16 12 17 13 18 14 19 15 20 23 21 16 22 20 23 17 24
REMARK SMILES IDX 18 25 21 26 22 27 19 28
REMARK H PARENT 27 15 19 29
REMARK Flexibility Score: inf
ROOT
ATOM      1  C   UNL     1      -6.091  24.810  49.268  1.00  0.00     0.160 C 
ENDROOT
BRANCH   1   2
ATOM      2  C   UNL     1      -5.505  25.974  48.520  1.00  0.00     0.163 C 
ATOM      3  O   UNL     1      -4.268  26.222  48.628  1.00  0.00    -0.294 OA
BRANCH   2   4
ATOM      4  C   UNL     1      -6.378  26.844  47.707  1.00  0.00     0.048 C 
ATOM      5  C   UNL     1      -7.466  27.440  48.215  1.00  0.00     0.012 C 
BRANCH   5   6
ATOM      6  C   UNL     1      -8.387  28.295  47.424  1.00  0.00    -0.022 A 
ATOM      7  C   UNL     1      -8.872  30.221  45.985  1.00  0.00     0.161 A 
ATOM      8  C   UNL     1     -10.218  29.833  45.927  1.00  0.00     0.157 A 
ATOM      9  C   UNL     1      -7.962  29.458  46.746  1.00  0.00     0.058 A 
ATOM     10  C   UNL     1     -10.648  28.695  46.623  1.00  0.00     0.051 A 
ATOM     11  C   UNL     1      -9.741  27.935  47.367  1.00  0.00     0.012 A 
BRANCH   7  12
ATOM     12  O   UNL     1      -8.478  31.366  45.275  1.00  0.00    -0.493 OA
ATOM     13  C   UNL     1      -7.126  31.692  44.958  1.00  0.00     0.278 C 
ENDBRANCH   7  12
BRANCH   8  14
ATOM     14  O   UNL     1     -11.125  30.589  45.178  1.00  0.00    -0.504 OA
ATOM     15  H   UNL     1     -11.837  30.149  44.607  1.00  0.00     0.293 HD
ENDBRANCH   8  14
ENDBRANCH   5   6
ENDBRANCH   2   4
ENDBRANCH   1   2
BRANCH   1  16
ATOM     16  C   UNL     1      -5.016  23.978  49.913  1.00  0.00     0.163 C 
ATOM     17  O   UNL     1      -4.629  24.289  51.068  1.00  0.00    -0.294 OA
BRANCH  16  18
ATOM     18  C   UNL     1      -4.378  22.823  49.248  1.00  0.00     0.048 C 
ATOM     19  C   UNL     1      -4.879  22.223  48.159  1.00  0.00     0.012 C 
BRANCH  19  20
ATOM     20  C   UNL     1      -4.227  21.078  47.475  1.00  0.00    -0.022 A 
ATOM     21  C   UNL     1      -4.255  19.768  47.999  1.00  0.00     0.058 A 
ATOM     22  C   UNL     1      -3.520  21.320  46.286  1.00  0.00     0.012 A 
ATOM     23  C   UNL     1      -3.610  18.707  47.325  1.00  0.00     0.161 A 
ATOM     24  C   UNL     1      -2.882  20.275  45.615  1.00  0.00     0.051 A 
ATOM     25  C   UNL     1      -2.925  18.972  46.123  1.00  0.00     0.157 A 
BRANCH  23  26
ATOM     26  O   UNL     1      -3.625  17.390  47.818  1.00  0.00    -0.493 OA
ATOM     27  C   UNL     1      -2.700  16.876  48.777  1.00  0.00     0.278 C 
ENDBRANCH  23  26
BRANCH  25  28
ATOM     28  O   UNL     1      -2.271  17.954  45.423  1.00  0.00    -0.504 OA
ATOM     29  H   UNL     1      -1.490  17.437  45.816  1.00  0.00     0.293 HD
ENDBRANCH  25  28
ENDBRANCH  19  20
ENDBRANCH  16  18
ENDBRANCH   1  16
TORSDOF 10
ENDMDL
MODEL 2
REMARK VINA RESULT:    -7.087      4.028      7.678
REMARK INTER + INTRA:         -11.447
REMARK INTER:                  -9.736
REMARK INTRA:                  -1.711
REMARK UNBOUND:                -0.632
REMARK SMILES COc1cc(C=CC(=O)CC(=O)C=Cc2ccc(O)c(OC)c2)ccc1O
REMARK SMILES IDX 10 1 8 2 9 3 7 4 6 5 5 6 3 7 26 8 4 9 25 10 24 11 2 12 1 13
REMARK SMILES IDX 27 14 11 16 12 17 13 18 14 19 15 20 23 21 16 22 20 23 17 24
REMARK SMILES IDX 18 25 21 26 22 27 19 28
REMARK H PARENT 27 15 19 29
REMARK Flexibility Score: inf
ROOT
ATOM      1  C   UNL     1      -2.455  19.098  47.339  1.00  0.00     0.160 C 
ENDROOT
BRANCH   1   2
ATOM      2  C   UNL     1      -2.829  19.419  45.919  1.00  0.00     0.163 C 
ATOM      3  O   UNL     1      -3.070  18.474  45.111  1.00  0.00    -0.294 OA
BRANCH   2   4
ATOM      4  C   UNL     1      -2.866  20.823  45.465  1.00  0.00     0.048 C 
ATOM      5  C   UNL     1      -1.979  21.735  45.889  1.00  0.00     0.012 C 
BRANCH   5   6
ATOM      6  C   UNL     1      -2.001  23.163  45.483  1.00  0.00    -0.022 A 
ATOM      7  C   UNL     1      -1.482  24.993  43.935  1.00  0.00     0.161 A 
ATOM      8  C   UNL     1      -2.125  25.896  44.793  1.00  0.00     0.157 A 
ATOM      9  C   UNL     1      -1.410  23.630  44.289  1.00  0.00     0.058 A 
ATOM     10  C   UNL     1      -2.688  25.439  45.993  1.00  0.00     0.051 A 
ATOM     11  C   UNL     1      -2.624  24.086  46.336  1.00  0.00     0.012 A 
BRANCH   7  12
ATOM     12  O   UNL     1      -0.931  25.487  42.742  1.00  0.00    -0.493 OA
ATOM     13  C   UNL     1      -0.991  24.812  41.486  1.00  0.00     0.278 C 
ENDBRANCH   7  12
BRANCH   8  14
ATOM     14  O   UNL     1      -2.195  27.249  44.449  1.00  0.00    -0.504 OA
ATOM     15  H   UNL     1      -3.084  27.712  44.297  1.00  0.00     0.293 HD
ENDBRANCH   8  14
ENDBRANCH   5   6
ENDBRANCH   2   4
ENDBRANCH   1   2
BRANCH   1  16
ATOM     16  C   UNL     1      -3.591  19.388  48.281  1.00  0.00     0.163 C 
ATOM     17  O   UNL     1      -4.413  18.469  48.530  1.00  0.00    -0.294 OA
BRANCH  16  18
ATOM     18  C   UNL     1      -3.802  20.706  48.915  1.00  0.00     0.048 C 
ATOM     19  C   UNL     1      -4.588  21.661  48.398  1.00  0.00     0.012 C 
BRANCH  19  20
ATOM     20  C   UNL     1      -4.819  22.977  49.045  1.00  0.00    -0.022 A 
ATOM     21  C   UNL     1      -4.199  23.344  50.258  1.00  0.00     0.058 A 
ATOM     22  C   UNL     1      -5.724  23.870  48.447  1.00  0.00     0.012 A 
ATOM     23  C   UNL     1      -4.457  24.600  50.850  1.00  0.00     0.161 A 
ATOM     24  C   UNL     1      -5.982  25.114  49.027  1.00  0.00     0.051 A 
ATOM     25  C   UNL     1      -5.353  25.486  50.219  1.00  0.00     0.157 A 
BRANCH  23  26
ATOM     26  O   UNL     1      -3.849  24.996  52.055  1.00  0.00    -0.493 OA
ATOM     27  C   UNL     1      -2.444  24.940  52.308  1.00  0.00     0.278 C 
ENDBRANCH  23  26
BRANCH  25  28
ATOM     28  O   UNL     1      -5.638  26.739  50.770  1.00  0.00    -0.504 OA
ATOM     29  H   UNL     1      -5.198  27.073  51.622  1.00  0.00     0.293 HD
ENDBRANCH  25  28
ENDBRANCH  19  20
ENDBRANCH  16  18
ENDBRANCH   1  16
TORSDOF 10
ENDMDL
MODEL 3
REMARK VINA RESULT:    -7.028      3.017      7.886
REMARK INTER + INTRA:         -11.358
REMARK INTER:                  -9.578
REMARK INTRA:                  -1.781
REMARK UNBOUND:                -0.632
REMARK SMILES COc1cc(C=CC(=O)CC(=O)C=Cc2ccc(O)c(OC)c2)ccc1O
REMARK SMILES IDX 10 1 8 2 9 3 7 4 6 5 5 6 3 7 26 8 4 9 25 10 24 11 2 12 1 13
REMARK SMILES IDX 27 14 11 16 12 17 13 18 14 19 15 20 23 21 16 22 20 23 17 24
REMARK SMILES IDX 18 25 21 26 22 27 19 28
REMARK H PARENT 27 15 19 29
REMARK Flexibility Score: inf
ROOT
ATOM      1  C   UNL     1      -2.630  19.036  47.407  1.00  0.00     0.160 C 
ENDROOT
BRANCH   1   2
ATOM      2  C   UNL     1      -2.802  19.338  45.945  1.00  0.00     0.163 C 
ATOM      3  O   UNL     1      -2.886  18.383  45.119  1.00  0.00    -0.294 OA
BRANCH   2   4
ATOM      4  C   UNL     1      -2.826  20.739  45.478  1.00  0.00     0.048 C 
ATOM      5  C   UNL     1      -1.925  21.643  45.888  1.00  0.00     0.012 C 
BRANCH   5   6
ATOM      6  C   UNL     1      -1.932  23.068  45.469  1.00  0.00    -0.022 A 
ATOM      7  C   UNL     1      -1.383  24.881  43.910  1.00  0.00     0.161 A 
ATOM      8  C   UNL     1      -2.029  25.796  44.754  1.00  0.00     0.157 A 
ATOM      9  C   UNL     1      -1.324  23.520  44.277  1.00  0.00     0.058 A 
ATOM     10  C   UNL     1      -2.608  25.354  45.951  1.00  0.00     0.051 A 
ATOM     11  C   UNL     1      -2.558  24.003  46.307  1.00  0.00     0.012 A 
BRANCH   7  12
ATOM     12  O   UNL     1      -0.816  25.360  42.719  1.00  0.00    -0.493 OA
ATOM     13  C   UNL     1      -1.302  25.052  41.414  1.00  0.00     0.278 C 
ENDBRANCH   7  12
BRANCH   8  14
ATOM     14  O   UNL     1      -2.086  27.146  44.396  1.00  0.00    -0.504 OA
ATOM     15  H   UNL     1      -1.666  27.866  44.973  1.00  0.00     0.293 HD
ENDBRANCH   8  14
ENDBRANCH   5   6
ENDBRANCH   2   4
ENDBRANCH   1   2
BRANCH   1  16
ATOM     16  C   UNL     1      -3.852  19.428  48.193  1.00  0.00     0.163 C 
ATOM     17  O   UNL     1      -4.807  18.613  48.261  1.00  0.00    -0.294 OA
BRANCH  16  18
ATOM     18  C   UNL     1      -3.993  20.731  48.874  1.00  0.00     0.048 C 
ATOM     19  C   UNL     1      -4.670  21.768  48.360  1.00  0.00     0.012 C 
BRANCH  19  20
ATOM     20  C   UNL     1      -4.834  23.071  49.053  1.00  0.00    -0.022 A 
ATOM     21  C   UNL     1      -5.612  24.120  48.520  1.00  0.00     0.058 A 
ATOM     22  C   UNL     1      -4.152  23.278  50.263  1.00  0.00     0.012 A 
ATOM     23  C   UNL     1      -5.731  25.350  49.203  1.00  0.00     0.161 A 
ATOM     24  C   UNL     1      -4.267  24.492  50.944  1.00  0.00     0.051 A 
ATOM     25  C   UNL     1      -5.054  25.526  50.426  1.00  0.00     0.157 A 
BRANCH  23  26
ATOM     26  O   UNL     1      -6.504  26.412  48.700  1.00  0.00    -0.493 OA
ATOM     27  C   UNL     1      -6.339  26.987  47.403  1.00  0.00     0.278 C 
ENDBRANCH  23  26
BRANCH  25  28
ATOM     28  O   UNL     1      -5.142  26.726  51.135  1.00  0.00    -0.504 OA
ATOM     29  H   UNL     1      -6.023  27.216  51.272  1.00  0.00     0.293 HD
ENDBRANCH  25  28
ENDBRANCH  19  20
ENDBRANCH  16  18
ENDBRANCH   1  16
TORSDOF 10
ENDMDL
MODEL 4
REMARK VINA RESULT:    -6.910      3.014      7.135
REMARK INTER + INTRA:         -11.178
REMARK INTER:                  -9.461
REMARK INTRA:                  -1.717
REMARK UNBOUND:                -0.632
REMARK SMILES COc1cc(C=CC(=O)CC(=O)C=Cc2ccc(O)c(OC)c2)ccc1O
REMARK SMILES IDX 10 1 8 2 9 3 7 4 6 5 5 6 3 7 26 8 4 9 25 10 24 11 2 12 1 13
REMARK SMILES IDX 27 14 11 16 12 17 13 18 14 19 15 20 23 21 16 22 20 23 17 24
REMARK SMILES IDX 18 25 21 26 22 27 19 28
REMARK H PARENT 27 15 19 29
REMARK Flexibility Score: inf
ROOT
ATOM      1  C   UNL     1      -2.567  19.092  47.398  1.00  0.00     0.160 C 
ENDROOT
BRANCH   1   2
ATOM      2  C   UNL     1      -3.798  19.364  48.216  1.00  0.00     0.163 C 
ATOM      3  O   UNL     1      -4.716  18.493  48.266  1.00  0.00    -0.294 OA
BRANCH   2   4
ATOM      4  C   UNL     1      -3.949  20.656  48.914  1.00  0.00     0.048 C 
ATOM      5  C   UNL     1      -4.656  21.670  48.394  1.00  0.00     0.012 C 
BRANCH   5   6
ATOM      6  C   UNL     1      -4.807  22.995  49.048  1.00  0.00    -0.022 A 
ATOM      7  C   UNL     1      -5.837  25.210  49.264  1.00  0.00     0.161 A 
ATOM      8  C   UNL     1      -5.031  25.471  50.381  1.00  0.00     0.157 A 
ATOM      9  C   UNL     1      -5.712  23.977  48.591  1.00  0.00     0.058 A 
ATOM     10  C   UNL     1      -4.110  24.508  50.819  1.00  0.00     0.051 A 
ATOM     11  C   UNL     1      -3.998  23.283  50.156  1.00  0.00     0.012 A 
BRANCH   7  12
ATOM     12  O   UNL     1      -6.747  26.198  48.856  1.00  0.00    -0.493 OA
ATOM     13  C   UNL     1      -6.523  27.103  47.776  1.00  0.00     0.278 C 
ENDBRANCH   7  12
BRANCH   8  14
ATOM     14  O   UNL     1      -5.147  26.694  51.049  1.00  0.00    -0.504 OA
ATOM     15  H   UNL     1      -5.833  27.386  50.772  1.00  0.00     0.293 HD
ENDBRANCH   8  14
ENDBRANCH   5   6
ENDBRANCH   2   4
ENDBRANCH   1   2
BRANCH   1  16
ATOM     16  C   UNL     1      -2.762  19.505  45.965  1.00  0.00     0.163 C 
ATOM     17  O   UNL     1      -2.884  18.607  45.093  1.00  0.00    -0.294 OA
BRANCH  16  18
ATOM     18  C   UNL     1      -2.800  20.915  45.526  1.00  0.00     0.048 C 
ATOM     19  C   UNL     1      -2.028  21.878  46.052  1.00  0.00     0.012 C 
BRANCH  19  20
ATOM     20  C   UNL     1      -2.047  23.290  45.597  1.00  0.00    -0.022 A 
ATOM     21  C   UNL     1      -1.520  23.691  44.351  1.00  0.00     0.058 A 
ATOM     22  C   UNL     1      -2.569  24.267  46.461  1.00  0.00     0.012 A 
ATOM     23  C   UNL     1      -1.544  25.049  43.961  1.00  0.00     0.161 A 
ATOM     24  C   UNL     1      -2.596  25.610  46.079  1.00  0.00     0.051 A 
ATOM     25  C   UNL     1      -2.092  26.006  44.836  1.00  0.00     0.157 A 
BRANCH  23  26
ATOM     26  O   UNL     1      -1.032  25.478  42.723  1.00  0.00    -0.493 OA
ATOM     27  C   UNL     1      -0.376  24.628  41.781  1.00  0.00     0.278 C 
ENDBRANCH  23  26
BRANCH  25  28
ATOM     28  O   UNL     1      -2.135  27.360  44.492  1.00  0.00    -0.504 OA
ATOM     29  H   UNL     1      -1.521  27.764  43.790  1.00  0.00     0.293 HD
ENDBRANCH  25  28
ENDBRANCH  19  20
ENDBRANCH  16  18
ENDBRANCH   1  16
TORSDOF 10
ENDMDL
MODEL 5
REMARK VINA RESULT:    -6.903      4.278     10.930
REMARK INTER + INTRA:         -11.167
REMARK INTER:                 -10.301
REMARK INTRA:                  -0.866
REMARK UNBOUND:                -0.632
REMARK SMILES COc1cc(C=CC(=O)CC(=O)C=Cc2ccc(O)c(OC)c2)ccc1O
REMARK SMILES IDX 10 1 8 2 9 3 7 4 6 5 5 6 3 7 26 8 4 9 25 10 24 11 2 12 1 13
REMARK SMILES IDX 27 14 11 16 12 17 13 18 14 19 15 20 23 21 16 22 20 23 17 24
REMARK SMILES IDX 18 25 21 26 22 27 19 28
REMARK H PARENT 27 15 19 29
REMARK Flexibility Score: inf
ROOT
ATOM      1  C   UNL     1      -3.098  19.068  46.607  1.00  0.00     0.160 C 
ENDROOT
BRANCH   1   2
ATOM      2  C   UNL     1      -1.981  18.065  46.685  1.00  0.00     0.163 C 
ATOM      3  O   UNL     1      -2.228  16.842  46.472  1.00  0.00    -0.294 OA
BRANCH   2   4
ATOM      4  C   UNL     1      -0.620  18.503  47.053  1.00  0.00     0.048 C 
ATOM      5  C   UNL     1      -0.265  19.796  47.065  1.00  0.00     0.012 C 
BRANCH   5   6
ATOM      6  C   UNL     1       1.101  20.276  47.398  1.00  0.00    -0.022 A 
ATOM      7  C   UNL     1       3.517  19.952  47.661  1.00  0.00     0.161 A 
ATOM      8  C   UNL     1       3.654  21.300  48.023  1.00  0.00     0.157 A 
ATOM      9  C   UNL     1       2.238  19.440  47.363  1.00  0.00     0.058 A 
ATOM     10  C   UNL     1       2.523  22.125  48.086  1.00  0.00     0.051 A 
ATOM     11  C   UNL     1       1.257  21.617  47.779  1.00  0.00     0.012 A 
BRANCH   7  12
ATOM     12  O   UNL     1       4.673  19.157  47.608  1.00  0.00    -0.493 OA
ATOM     13  C   UNL     1       4.827  18.014  46.767  1.00  0.00     0.278 C 
ENDBRANCH   7  12
BRANCH   8  14
ATOM     14  O   UNL     1       4.920  21.811  48.324  1.00  0.00    -0.504 OA
ATOM     15  H   UNL     1       5.679  21.209  48.621  1.00  0.00     0.293 HD
ENDBRANCH   8  14
ENDBRANCH   5   6
ENDBRANCH   2   4
ENDBRANCH   1   2
BRANCH   1  16
ATOM     16  C   UNL     1      -3.840  19.160  47.913  1.00  0.00     0.163 C 
ATOM     17  O   UNL     1      -4.375  18.120  48.373  1.00  0.00    -0.294 OA
BRANCH  16  18
ATOM     18  C   UNL     1      -3.987  20.418  48.673  1.00  0.00     0.048 C 
ATOM     19  C   UNL     1      -4.496  21.545  48.154  1.00  0.00     0.012 C 
BRANCH  19  20
ATOM     20  C   UNL     1      -4.667  22.803  48.923  1.00  0.00    -0.022 A 
ATOM     21  C   UNL     1      -3.895  23.102  50.067  1.00  0.00     0.058 A 
ATOM     22  C   UNL     1      -5.664  23.706  48.521  1.00  0.00     0.012 A 
ATOM     23  C   UNL     1      -4.099  24.304  50.780  1.00  0.00     0.161 A 
ATOM     24  C   UNL     1      -5.868  24.897  49.221  1.00  0.00     0.051 A 
ATOM     25  C   UNL     1      -5.091  25.203  50.343  1.00  0.00     0.157 A 
BRANCH  23  26
ATOM     26  O   UNL     1      -3.342  24.633  51.919  1.00  0.00    -0.493 OA
ATOM     27  C   UNL     1      -2.016  24.164  52.172  1.00  0.00     0.278 C 
ENDBRANCH  23  26
BRANCH  25  28
ATOM     28  O   UNL     1      -5.327  26.404  51.019  1.00  0.00    -0.504 OA
ATOM     29  H   UNL     1      -4.798  26.680  51.842  1.00  0.00     0.293 HD
ENDBRANCH  25  28
ENDBRANCH  19  20
ENDBRANCH  16  18
ENDBRANCH   1  16
TORSDOF 10
ENDMDL
MODEL 6
REMARK VINA RESULT:    -6.865      4.649      8.026
REMARK INTER + INTRA:         -11.109
REMARK INTER:                  -9.928
REMARK INTRA:                  -1.181
REMARK UNBOUND:                -0.632
REMARK SMILES COc1cc(C=CC(=O)CC(=O)C=Cc2ccc(O)c(OC)c2)ccc1O
REMARK SMILES IDX 10 1 8 2 9 3 7 4 6 5 5 6 3 7 26 8 4 9 25 10 24 11 2 12 1 13
REMARK SMILES IDX 27 14 11 16 12 17 13 18 14 19 15 20 23 21 16 22 20 23 17 24
REMARK SMILES IDX 18 25 21 26 22 27 19 28
REMARK H PARENT 27 15 19 29
REMARK Flexibility Score: inf
ROOT
ATOM      1  C   UNL     1      -2.440  16.799  47.806  1.00  0.00     0.160 C 
ENDROOT
BRANCH   1   2
ATOM      2  C   UNL     1      -2.681  17.661  49.013  1.00  0.00     0.163 C 
ATOM      3  O   UNL     1      -2.184  17.323  50.127  1.00  0.00    -0.294 OA
BRANCH   2   4
ATOM      4  C   UNL     1      -3.530  18.865  48.903  1.00  0.00     0.048 C 
ATOM      5  C   UNL     1      -3.016  20.103  48.902  1.00  0.00     0.012 C 
BRANCH   5   6
ATOM      6  C   UNL     1      -3.836  21.339  48.827  1.00  0.00    -0.022 A 
ATOM      7  C   UNL     1      -4.446  23.595  49.572  1.00  0.00     0.161 A 
ATOM      8  C   UNL     1      -5.432  23.652  48.577  1.00  0.00     0.157 A 
ATOM      9  C   UNL     1      -3.659  22.432  49.703  1.00  0.00     0.058 A 
ATOM     10  C   UNL     1      -5.628  22.557  47.723  1.00  0.00     0.051 A 
ATOM     11  C   UNL     1      -4.839  21.411  47.849  1.00  0.00     0.012 A 
BRANCH   7  12
ATOM     12  O   UNL     1      -4.278  24.710  50.407  1.00  0.00    -0.493 OA
ATOM     13  C   UNL     1      -3.246  25.684  50.253  1.00  0.00     0.278 C 
ENDBRANCH   7  12
BRANCH   8  14
ATOM     14  O   UNL     1      -6.217  24.801  48.445  1.00  0.00    -0.504 OA
ATOM     15  H   UNL     1      -7.130  24.873  48.881  1.00  0.00     0.293 HD
ENDBRANCH   8  14
ENDBRANCH   5   6
ENDBRANCH   2   4
ENDBRANCH   1   2
BRANCH   1  16
ATOM     16  C   UNL     1      -1.647  17.534  46.760  1.00  0.00     0.163 C 
ATOM     17  O   UNL     1      -2.120  17.619  45.598  1.00  0.00    -0.294 OA
BRANCH  16  18
ATOM     18  C   UNL     1      -0.328  18.146  47.025  1.00  0.00     0.048 C 
ATOM     19  C   UNL     1      -0.108  19.469  47.018  1.00  0.00     0.012 C 
BRANCH  19  20
ATOM     20  C   UNL     1       1.210  20.087  47.308  1.00  0.00    -0.022 A 
ATOM     21  C   UNL     1       2.400  19.333  47.377  1.00  0.00     0.058 A 
ATOM     22  C   UNL     1       1.263  21.467  47.565  1.00  0.00     0.012 A 
ATOM     23  C   UNL     1       3.633  19.957  47.670  1.00  0.00     0.161 A 
ATOM     24  C   UNL     1       2.479  22.089  47.853  1.00  0.00     0.051 A 
ATOM     25  C   UNL     1       3.663  21.346  47.903  1.00  0.00     0.157 A 
BRANCH  23  26
ATOM     26  O   UNL     1       4.838  19.233  47.740  1.00  0.00    -0.493 OA
ATOM     27  C   UNL     1       5.655  18.913  46.613  1.00  0.00     0.278 C 
ENDBRANCH  23  26
BRANCH  25  28
ATOM     28  O   UNL     1       4.860  22.004  48.198  1.00  0.00    -0.504 OA
ATOM     29  H   UNL     1       5.288  22.669  47.559  1.00  0.00     0.293 HD
ENDBRANCH  25  28
ENDBRANCH  19  20
ENDBRANCH  16  18
ENDBRANCH   1  16
TORSDOF 10
ENDMDL
MODEL 7
REMARK VINA RESULT:    -6.848      2.816      4.953
REMARK INTER + INTRA:         -11.084
REMARK INTER:                  -9.583
REMARK INTRA:                  -1.501
REMARK UNBOUND:                -0.632
REMARK SMILES COc1cc(C=CC(=O)CC(=O)C=Cc2ccc(O)c(OC)c2)ccc1O
REMARK SMILES IDX 10 1 8 2 9 3 7 4 6 5 5 6 3 7 26 8 4 9 25 10 24 11 2 12 1 13
REMARK SMILES IDX 27 14 11 16 12 17 13 18 14 19 15 20 23 21 16 22 20 23 17 24
REMARK SMILES IDX 18 25 21 26 22 27 19 28
REMARK H PARENT 27 15 19 29
REMARK Flexibility Score: inf
ROOT
ATOM      1  C   UNL     1      -1.401  24.131  43.825  1.00  0.00     0.160 C 
ENDROOT
BRANCH   1   2
ATOM      2  C   UNL     1      -1.788  25.517  44.259  1.00  0.00     0.163 C 
ATOM      3  O   UNL     1      -1.389  26.513  43.586  1.00  0.00    -0.294 OA
BRANCH   2   4
ATOM      4  C   UNL     1      -2.585  25.710  45.486  1.00  0.00     0.048 C 
ATOM      5  C   UNL     1      -3.822  25.211  45.620  1.00  0.00     0.012 C 
BRANCH   5   6
ATOM      6  C   UNL     1      -4.670  25.410  46.823  1.00  0.00    -0.022 A 
ATOM      7  C   UNL     1      -6.367  26.622  48.113  1.00  0.00     0.161 A 
ATOM      8  C   UNL     1      -6.253  25.678  49.143  1.00  0.00     0.157 A 
ATOM      9  C   UNL     1      -5.564  26.494  46.961  1.00  0.00     0.058 A 
ATOM     10  C   UNL     1      -5.345  24.616  49.020  1.00  0.00     0.051 A 
ATOM     11  C   UNL     1      -4.559  24.486  47.872  1.00  0.00     0.012 A 
BRANCH   7  12
ATOM     12  O   UNL     1      -7.287  27.671  48.271  1.00  0.00    -0.493 OA
ATOM     13  C   UNL     1      -8.190  28.110  47.257  1.00  0.00     0.278 C 
ENDBRANCH   7  12
BRANCH   8  14
ATOM     14  O   UNL     1      -7.044  25.803  50.289  1.00  0.00    -0.504 OA
ATOM     15  H   UNL     1      -7.643  26.608  50.435  1.00  0.00     0.293 HD
ENDBRANCH   8  14
ENDBRANCH   5   6
ENDBRANCH   2   4
ENDBRANCH   1   2
BRANCH   1  16
ATOM     16  C   UNL     1      -0.581  23.438  44.879  1.00  0.00     0.163 C 
ATOM     17  O   UNL     1       0.638  23.729  44.978  1.00  0.00    -0.294 OA
BRANCH  16  18
ATOM     18  C   UNL     1      -1.134  22.417  45.792  1.00  0.00     0.048 C 
ATOM     19  C   UNL     1      -2.246  21.714  45.535  1.00  0.00     0.012 C 
BRANCH  19  20
ATOM     20  C   UNL     1      -2.790  20.671  46.440  1.00  0.00    -0.022 A 
ATOM     21  C   UNL     1      -2.563  19.294  46.231  1.00  0.00     0.058 A 
ATOM     22  C   UNL     1      -3.596  21.070  47.519  1.00  0.00     0.012 A 
ATOM     23  C   UNL     1      -3.111  18.331  47.108  1.00  0.00     0.161 A 
ATOM     24  C   UNL     1      -4.139  20.123  48.389  1.00  0.00     0.051 A 
ATOM     25  C   UNL     1      -3.898  18.759  48.194  1.00  0.00     0.157 A 
BRANCH  23  26
ATOM     26  O   UNL     1      -2.897  16.952  46.929  1.00  0.00    -0.493 OA
ATOM     27  C   UNL     1      -1.751  16.243  47.405  1.00  0.00     0.278 C 
ENDBRANCH  23  26
BRANCH  25  28
ATOM     28  O   UNL     1      -4.461  17.841  49.086  1.00  0.00    -0.504 OA
ATOM     29  H   UNL     1      -4.518  16.847  48.881  1.00  0.00     0.293 HD
ENDBRANCH  25  28
ENDBRANCH  19  20
ENDBRANCH  16  18
ENDBRANCH   1  16
TORSDOF 10
ENDMDL
MODEL 8
REMARK VINA RESULT:    -6.779      3.363      9.234
REMARK INTER + INTRA:         -10.978
REMARK INTER:                  -9.394
REMARK INTRA:                  -1.584
REMARK UNBOUND:                -0.632
REMARK SMILES COc1cc(C=CC(=O)CC(=O)C=Cc2ccc(O)c(OC)c2)ccc1O
REMARK SMILES IDX 10 1 8 2 9 3 7 4 6 5 5 6 3 7 26 8 4 9 25 10 24 11 2 12 1 13
REMARK SMILES IDX 27 14 11 16 12 17 13 18 14 19 15 20 23 21 16 22 20 23 17 24
REMARK SMILES IDX 18 25 21 26 22 27 19 28
REMARK H PARENT 27 15 19 29
REMARK Flexibility Score: inf
ROOT
ATOM      1  C   UNL     1      -1.288  24.350  43.855  1.00  0.00     0.160 C 
ENDROOT
BRANCH   1   2
ATOM      2  C   UNL     1      -0.389  23.660  44.842  1.00  0.00     0.163 C 
ATOM      3  O   UNL     1       0.832  23.989  44.906  1.00  0.00    -0.294 OA
BRANCH   2   4
ATOM      4  C   UNL     1      -0.920  22.576  45.692  1.00  0.00     0.048 C 
ATOM      5  C   UNL     1      -2.145  22.062  45.512  1.00  0.00     0.012 C 
BRANCH   5   6
ATOM      6  C   UNL     1      -2.730  20.995  46.364  1.00  0.00    -0.022 A 
ATOM      7  C   UNL     1      -3.409  18.678  46.790  1.00  0.00     0.161 A 
ATOM      8  C   UNL     1      -3.829  19.042  48.077  1.00  0.00     0.157 A 
ATOM      9  C   UNL     1      -2.873  19.660  45.931  1.00  0.00     0.058 A 
ATOM     10  C   UNL     1      -3.713  20.373  48.499  1.00  0.00     0.051 A 
ATOM     11  C   UNL     1      -3.171  21.342  47.650  1.00  0.00     0.012 A 
BRANCH   7  12
ATOM     12  O   UNL     1      -3.539  17.335  46.402  1.00  0.00    -0.493 OA
ATOM     13  C   UNL     1      -3.206  16.834  45.108  1.00  0.00     0.278 C 
ENDBRANCH   7  12
BRANCH   8  14
ATOM     14  O   UNL     1      -4.365  18.073  48.930  1.00  0.00    -0.504 OA
ATOM     15  H   UNL     1      -4.968  18.323  49.705  1.00  0.00     0.293 HD
ENDBRANCH   8  14
ENDBRANCH   5   6
ENDBRANCH   2   4
ENDBRANCH   1   2
BRANCH   1  16
ATOM     16  C   UNL     1      -1.757  25.679  44.382  1.00  0.00     0.163 C 
ATOM     17  O   UNL     1      -1.437  26.720  43.753  1.00  0.00    -0.294 OA
BRANCH  16  18
ATOM     18  C   UNL     1      -2.561  25.825  45.613  1.00  0.00     0.048 C 
ATOM     19  C   UNL     1      -3.828  25.401  45.728  1.00  0.00     0.012 C 
BRANCH  19  20
ATOM     20  C   UNL     1      -4.629  25.524  46.971  1.00  0.00    -0.022 A 
ATOM     21  C   UNL     1      -4.462  24.653  48.069  1.00  0.00     0.058 A 
ATOM     22  C   UNL     1      -5.619  26.518  47.036  1.00  0.00     0.012 A 
ATOM     23  C   UNL     1      -5.255  24.795  49.229  1.00  0.00     0.161 A 
ATOM     24  C   UNL     1      -6.405  26.663  48.182  1.00  0.00     0.051 A 
ATOM     25  C   UNL     1      -6.227  25.813  49.278  1.00  0.00     0.157 A 
BRANCH  23  26
ATOM     26  O   UNL     1      -5.107  23.946  50.341  1.00  0.00    -0.493 OA
ATOM     27  C   UNL     1      -4.027  24.016  51.273  1.00  0.00     0.278 C 
ENDBRANCH  23  26
BRANCH  25  28
ATOM     28  O   UNL     1      -7.034  25.988  50.405  1.00  0.00    -0.504 OA
ATOM     29  H   UNL     1      -6.715  26.485  51.233  1.00  0.00     0.293 HD
ENDBRANCH  25  28
ENDBRANCH  19  20
ENDBRANCH  16  18
ENDBRANCH   1  16
TORSDOF 10
ENDMDL
MODEL 9
REMARK VINA RESULT:    -6.730      4.172      7.316
REMARK INTER + INTRA:         -10.904
REMARK INTER:                 -10.089
REMARK INTRA:                  -0.815
REMARK UNBOUND:                -0.632
REMARK SMILES COc1cc(C=CC(=O)CC(=O)C=Cc2ccc(O)c(OC)c2)ccc1O
REMARK SMILES IDX 10 1 8 2 9 3 7 4 6 5 5 6 3 7 26 8 4 9 25 10 24 11 2 12 1 13
REMARK SMILES IDX 27 14 11 16 12 17 13 18 14 19 15 20 23 21 16 22 20 23 17 24
REMARK SMILES IDX 18 25 21 26 22 27 19 28
REMARK H PARENT 27 15 19 29
REMARK Flexibility Score: inf
ROOT
ATOM      1  C   UNL     1      -3.032  19.216  46.642  1.00  0.00     0.160 C 
ENDROOT
BRANCH   1   2
ATOM      2  C   UNL     1      -3.844  19.222  47.907  1.00  0.00     0.163 C 
ATOM      3  O   UNL     1      -4.421  18.158  48.280  1.00  0.00    -0.294 OA
BRANCH   2   4
ATOM      4  C   UNL     1      -4.001  20.471  48.678  1.00  0.00     0.048 C 
ATOM      5  C   UNL     1      -4.599  21.556  48.165  1.00  0.00     0.012 C 
BRANCH   5   6
ATOM      6  C   UNL     1      -4.748  22.842  48.894  1.00  0.00    -0.022 A 
ATOM      7  C   UNL     1      -5.814  25.017  49.273  1.00  0.00     0.161 A 
ATOM      8  C   UNL     1      -4.966  25.238  50.367  1.00  0.00     0.157 A 
ATOM      9  C   UNL     1      -5.694  23.825  48.530  1.00  0.00     0.058 A 
ATOM     10  C   UNL     1      -4.007  24.276  50.713  1.00  0.00     0.051 A 
ATOM     11  C   UNL     1      -3.898  23.090  49.982  1.00  0.00     0.012 A 
BRANCH   7  12
ATOM     12  O   UNL     1      -6.762  26.003  48.957  1.00  0.00    -0.493 OA
ATOM     13  C   UNL     1      -6.573  27.016  47.970  1.00  0.00     0.278 C 
ENDBRANCH   7  12
BRANCH   8  14
ATOM     14  O   UNL     1      -5.079  26.421  51.103  1.00  0.00    -0.504 OA
ATOM     15  H   UNL     1      -4.483  27.220  50.919  1.00  0.00     0.293 HD
ENDBRANCH   8  14
ENDBRANCH   5   6
ENDBRANCH   2   4
ENDBRANCH   1   2
BRANCH   1  16
ATOM     16  C   UNL     1      -1.849  18.295  46.758  1.00  0.00     0.163 C 
ATOM     17  O   UNL     1      -2.028  17.063  46.581  1.00  0.00    -0.294 OA
BRANCH  16  18
ATOM     18  C   UNL     1      -0.487  18.763  47.086  1.00  0.00     0.048 C 
ATOM     19  C   UNL     1      -0.118  20.052  47.060  1.00  0.00     0.012 C 
BRANCH  19  20
ATOM     20  C   UNL     1       1.243  20.528  47.413  1.00  0.00    -0.022 A 
ATOM     21  C   UNL     1       2.365  19.672  47.424  1.00  0.00     0.058 A 
ATOM     22  C   UNL     1       1.409  21.870  47.792  1.00  0.00     0.012 A 
ATOM     23  C   UNL     1       3.642  20.160  47.780  1.00  0.00     0.161 A 
ATOM     24  C   UNL     1       2.669  22.359  48.143  1.00  0.00     0.051 A 
ATOM     25  C   UNL     1       3.785  21.515  48.136  1.00  0.00     0.157 A 
BRANCH  23  26
ATOM     26  O   UNL     1       4.779  19.333  47.794  1.00  0.00    -0.493 OA
ATOM     27  C   UNL     1       5.640  19.123  46.673  1.00  0.00     0.278 C 
ENDBRANCH  23  26
BRANCH  25  28
ATOM     28  O   UNL     1       5.029  22.041  48.496  1.00  0.00    -0.504 OA
ATOM     29  H   UNL     1       5.226  22.384  49.432  1.00  0.00     0.293 HD
ENDBRANCH  25  28
ENDBRANCH  19  20
ENDBRANCH  16  18
ENDBRANCH   1  16
TORSDOF 10
ENDMDL
