MODEL 1
REMARK VINA RESULT:    -4.145      0.000      0.000
REMARK INTER + INTRA:          -7.707
REMARK INTER:                  -6.326
REMARK INTRA:                  -1.381
REMARK UNBOUND:                -1.381
REMARK SMILES OC[C@@H]1O[C@@](CO)(O[C@H]2O[C@H](CO)[C@@H](O)[C@@H](O)[C@@H]2O)[C@@H](O)[C@@H]1O
REMARK SMILES IDX 8 1 9 2 11 3 14 4 10 5 16 6 18 7 12 8 13 9 15 11 17 13 19 15
REMARK SMILES IDX 5 17 20 18 4 19 22 20 3 21 6 22 7 23 21 25 23 27 2 29 1 30
REMARK H PARENT 13 10 15 12 17 14 19 16 7 24 21 26 23 28 1 31
REMARK Flexibility Score: inf
ROOT
ATOM      1  O   UNL     1       7.815   4.935   2.892  1.00  0.00    -0.313 OA
ENDROOT
BRANCH   1   2
ATOM      2  C   UNL     1       7.980   6.188   2.251  1.00  0.00     0.285 C 
ATOM      3  C   UNL     1       7.520   8.495   2.516  1.00  0.00     0.178 C 
ATOM      4  C   UNL     1       8.990   8.898   2.250  1.00  0.00     0.177 C 
ATOM      5  O   UNL     1       7.414   7.193   3.078  1.00  0.00    -0.341 OA
ATOM      6  C   UNL     1       9.722   7.821   1.433  1.00  0.00     0.179 C 
ATOM      7  C   UNL     1       9.488   6.435   2.064  1.00  0.00     0.202 C 
BRANCH   3   8
ATOM      8  C   UNL     1       6.590   8.689   1.299  1.00  0.00     0.191 C 
BRANCH   8   9
ATOM      9  O   UNL     1       6.917   9.880   0.635  1.00  0.00    -0.394 OA
ATOM     10  H   UNL     1       7.679  10.274   1.135  1.00  0.00     0.210 HD
ENDBRANCH   8   9
ENDBRANCH   3   8
BRANCH   4  11
ATOM     11  O   UNL     1       9.632   9.084   3.487  1.00  0.00    -0.387 OA
ATOM     12  H   UNL     1      10.486   9.557   3.304  1.00  0.00     0.211 HD
ENDBRANCH   4  11
BRANCH   6  13
ATOM     13  O   UNL     1      11.096   8.111   1.396  1.00  0.00    -0.387 OA
ATOM     14  H   UNL     1      11.493   7.740   2.227  1.00  0.00     0.211 HD
ENDBRANCH   6  13
BRANCH   7  15
ATOM     15  O   UNL     1      10.068   5.423   1.276  1.00  0.00    -0.385 OA
ATOM     16  H   UNL     1       9.771   4.550   1.645  1.00  0.00     0.211 HD
ENDBRANCH   7  15
ENDBRANCH   1   2
BRANCH   1  17
ATOM     17  C   UNL     1       7.028   3.993   2.157  1.00  0.00     0.224 C 
ATOM     18  C   UNL     1       7.701   2.618   2.252  1.00  0.00     0.208 C 
ATOM     19  O   UNL     1       5.717   3.848   2.686  1.00  0.00    -0.337 OA
ATOM     20  C   UNL     1       7.082   2.047   3.496  1.00  0.00     0.180 C 
ATOM     21  C   UNL     1       5.695   2.701   3.513  1.00  0.00     0.179 C 
BRANCH  17  22
ATOM     22  C   UNL     1       6.946   4.431   0.683  1.00  0.00     0.225 C 
BRANCH  22  23
ATOM     23  O   UNL     1       7.895   3.748  -0.089  1.00  0.00    -0.391 OA
ATOM     24  H   UNL     1       8.703   4.322  -0.104  1.00  0.00     0.210 HD
ENDBRANCH  22  23
ENDBRANCH  17  22
BRANCH  18  25
ATOM     25  O   UNL     1       9.096   2.711   2.391  1.00  0.00    -0.385 OA
ATOM     26  H   UNL     1       9.372   1.957   2.976  1.00  0.00     0.211 HD
ENDBRANCH  18  25
BRANCH  20  27
ATOM     27  O   UNL     1       7.026   0.644   3.447  1.00  0.00    -0.387 OA
ATOM     28  H   UNL     1       6.063   0.400   3.459  1.00  0.00     0.211 HD
ENDBRANCH  20  27
BRANCH  21  29
ATOM     29  C   UNL     1       4.549   1.781   3.059  1.00  0.00     0.191 C 
BRANCH  29  30
ATOM     30  O   UNL     1       3.989   2.247   1.862  1.00  0.00    -0.394 OA
ATOM     31  H   UNL     1       4.748   2.553   1.303  1.00  0.00     0.210 HD
ENDBRANCH  29  30
ENDBRANCH  21  29
ENDBRANCH   1  17
TORSDOF 13
ENDMDL
MODEL 2
REMARK VINA RESULT:    -3.417      2.684      4.772
REMARK INTER + INTRA:          -6.596
REMARK INTER:                  -5.318
REMARK INTRA:                  -1.278
REMARK UNBOUND:                -1.381
REMARK SMILES OC[C@@H]1O[C@@](CO)(O[C@H]2O[C@H](CO)[C@@H](O)[C@@H](O)[C@@H]2O)[C@@H](O)[C@@H]1O
REMARK SMILES IDX 8 1 9 2 11 3 14 4 10 5 16 6 18 7 12 8 13 9 15 11 17 13 19 15
REMARK SMILES IDX 5 17 20 18 4 19 22 20 3 21 6 22 7 23 21 25 23 27 2 29 1 30
REMARK H PARENT 13 10 15 12 17 14 19 16 7 24 21 26 23 28 1 31
REMARK Flexibility Score: inf
ROOT
ATOM      1  O   UNL     1      10.179   5.824   1.893  1.00  0.00    -0.313 OA
ENDROOT
BRANCH   1   2
ATOM      2  C   UNL     1      11.396   6.122   2.556  1.00  0.00     0.285 C 
ATOM      3  C   UNL     1      13.676   5.490   2.646  1.00  0.00     0.178 C 
ATOM      4  C   UNL     1      14.166   6.948   2.475  1.00  0.00     0.177 C 
ATOM      5  O   UNL     1      12.409   5.275   2.036  1.00  0.00    -0.341 OA
ATOM      6  C   UNL     1      13.094   7.952   2.928  1.00  0.00     0.179 C 
ATOM      7  C   UNL     1      11.739   7.598   2.285  1.00  0.00     0.202 C 
BRANCH   3   8
ATOM      8  C   UNL     1      13.721   4.984   4.104  1.00  0.00     0.191 C 
BRANCH   8   9
ATOM      9  O   UNL     1      13.662   3.584   4.124  1.00  0.00    -0.394 OA
ATOM     10  H   UNL     1      13.437   3.330   5.057  1.00  0.00     0.210 HD
ENDBRANCH   8   9
ENDBRANCH   3   8
BRANCH   4  11
ATOM     11  O   UNL     1      14.481   7.157   1.120  1.00  0.00    -0.387 OA
ATOM     12  H   UNL     1      15.085   7.944   1.079  1.00  0.00     0.211 HD
ENDBRANCH   4  11
BRANCH   6  13
ATOM     13  O   UNL     1      13.481   9.252   2.561  1.00  0.00    -0.387 OA
ATOM     14  H   UNL     1      14.471   9.288   2.627  1.00  0.00     0.211 HD
ENDBRANCH   6  13
BRANCH   7  15
ATOM     15  O   UNL     1      10.722   8.445   2.763  1.00  0.00    -0.385 OA
ATOM     16  H   UNL     1      10.396   8.984   1.996  1.00  0.00     0.211 HD
ENDBRANCH   7  15
ENDBRANCH   1   2
BRANCH   1  17
ATOM     17  C   UNL     1       9.204   5.172   2.711  1.00  0.00     0.224 C 
ATOM     18  C   UNL     1       7.823   5.375   2.076  1.00  0.00     0.208 C 
ATOM     19  O   UNL     1       9.416   3.770   2.799  1.00  0.00    -0.337 OA
ATOM     20  C   UNL     1       7.723   4.194   1.152  1.00  0.00     0.180 C 
ATOM     21  C   UNL     1       8.562   3.131   1.871  1.00  0.00     0.179 C 
BRANCH  17  22
ATOM     22  C   UNL     1       9.221   5.788   4.122  1.00  0.00     0.225 C 
BRANCH  22  23
ATOM     23  O   UNL     1       8.586   7.036   4.125  1.00  0.00    -0.391 OA
ATOM     24  H   UNL     1       7.614   6.851   4.179  1.00  0.00     0.210 HD
ENDBRANCH  22  23
ENDBRANCH  17  22
BRANCH  18  25
ATOM     25  O   UNL     1       7.734   6.577   1.355  1.00  0.00    -0.385 OA
ATOM     26  H   UNL     1       8.048   7.296   1.965  1.00  0.00     0.211 HD
ENDBRANCH  18  25
BRANCH  20  27
ATOM     27  O   UNL     1       6.387   3.801   0.959  1.00  0.00    -0.387 OA
ATOM     28  H   UNL     1       6.181   3.146   1.678  1.00  0.00     0.211 HD
ENDBRANCH  20  27
BRANCH  21  29
ATOM     29  C   UNL     1       7.741   2.058   2.605  1.00  0.00     0.191 C 
BRANCH  29  30
ATOM     30  O   UNL     1       6.991   2.634   3.640  1.00  0.00    -0.394 OA
ATOM     31  H   UNL     1       6.569   3.444   3.256  1.00  0.00     0.210 HD
ENDBRANCH  29  30
ENDBRANCH  21  29
ENDBRANCH   1  17
TORSDOF 13
ENDMDL
MODEL 3
REMARK VINA RESULT:    -3.411      4.041      8.061
REMARK INTER + INTRA:          -6.586
REMARK INTER:                  -5.227
REMARK INTRA:                  -1.360
REMARK UNBOUND:                -1.381
REMARK SMILES OC[C@@H]1O[C@@](CO)(O[C@H]2O[C@H](CO)[C@@H](O)[C@@H](O)[C@@H]2O)[C@@H](O)[C@@H]1O
REMARK SMILES IDX 8 1 9 2 11 3 14 4 10 5 16 6 18 7 12 8 13 9 15 11 17 13 19 15
REMARK SMILES IDX 5 17 20 18 4 19 22 20 3 21 6 22 7 23 21 25 23 27 2 29 1 30
REMARK H PARENT 13 10 15 12 17 14 19 16 7 24 21 26 23 28 1 31
REMARK Flexibility Score: inf
ROOT
ATOM      1  O   UNL     1      13.270   6.953   1.982  1.00  0.00    -0.313 OA
ENDROOT
BRANCH   1   2
ATOM      2  C   UNL     1      11.924   6.771   2.386  1.00  0.00     0.285 C 
ATOM      3  C   UNL     1       9.696   7.144   1.676  1.00  0.00     0.178 C 
ATOM      4  C   UNL     1       9.288   5.673   1.926  1.00  0.00     0.177 C 
ATOM      5  O   UNL     1      11.078   7.272   1.362  1.00  0.00    -0.341 OA
ATOM      6  C   UNL     1      10.211   5.009   2.960  1.00  0.00     0.179 C 
ATOM      7  C   UNL     1      11.684   5.264   2.589  1.00  0.00     0.202 C 
BRANCH   3   8
ATOM      8  C   UNL     1       9.254   8.113   2.793  1.00  0.00     0.191 C 
BRANCH   8   9
ATOM      9  O   UNL     1       9.462   9.438   2.385  1.00  0.00    -0.394 OA
ATOM     10  H   UNL     1      10.177   9.799   2.972  1.00  0.00     0.210 HD
ENDBRANCH   8   9
ENDBRANCH   3   8
BRANCH   4  11
ATOM     11  O   UNL     1       9.353   4.978   0.705  1.00  0.00    -0.387 OA
ATOM     12  H   UNL     1       9.864   4.143   0.871  1.00  0.00     0.211 HD
ENDBRANCH   4  11
BRANCH   6  13
ATOM     13  O   UNL     1       9.953   3.628   3.003  1.00  0.00    -0.387 OA
ATOM     14  H   UNL     1       9.060   3.514   3.421  1.00  0.00     0.211 HD
ENDBRANCH   6  13
BRANCH   7  15
ATOM     15  O   UNL     1      12.545   4.748   3.576  1.00  0.00    -0.385 OA
ATOM     16  H   UNL     1      12.320   3.788   3.697  1.00  0.00     0.211 HD
ENDBRANCH   7  15
ENDBRANCH   1   2
BRANCH   1  17
ATOM     17  C   UNL     1      13.901   8.113   2.531  1.00  0.00     0.224 C 
ATOM     18  C   UNL     1      15.072   7.659   3.411  1.00  0.00     0.208 C 
ATOM     19  O   UNL     1      14.441   8.964   1.530  1.00  0.00    -0.337 OA
ATOM     20  C   UNL     1      16.205   7.605   2.425  1.00  0.00     0.180 C 
ATOM     21  C   UNL     1      15.823   8.691   1.412  1.00  0.00     0.179 C 
BRANCH  17  22
ATOM     22  C   UNL     1      12.885   8.896   3.383  1.00  0.00     0.225 C 
BRANCH  22  23
ATOM     23  O   UNL     1      12.338   9.958   2.651  1.00  0.00    -0.391 OA
ATOM     24  H   UNL     1      12.359  10.747   3.250  1.00  0.00     0.210 HD
ENDBRANCH  22  23
ENDBRANCH  17  22
BRANCH  18  25
ATOM     25  O   UNL     1      14.855   6.396   3.986  1.00  0.00    -0.385 OA
ATOM     26  H   UNL     1      14.155   6.519   4.680  1.00  0.00     0.211 HD
ENDBRANCH  18  25
BRANCH  20  27
ATOM     27  O   UNL     1      17.443   7.846   3.048  1.00  0.00    -0.387 OA
ATOM     28  H   UNL     1      17.289   7.746   4.025  1.00  0.00     0.211 HD
ENDBRANCH  20  27
BRANCH  21  29
ATOM     29  C   UNL     1      16.606  10.006   1.560  1.00  0.00     0.191 C 
BRANCH  29  30
ATOM     30  O   UNL     1      17.878   9.890   0.982  1.00  0.00    -0.394 OA
ATOM     31  H   UNL     1      18.035  10.736   0.491  1.00  0.00     0.210 HD
ENDBRANCH  29  30
ENDBRANCH  21  29
ENDBRANCH   1  17
TORSDOF 13
ENDMDL
MODEL 4
REMARK VINA RESULT:    -3.385      1.731      5.857
REMARK INTER + INTRA:          -6.547
REMARK INTER:                  -5.331
REMARK INTRA:                  -1.216
REMARK UNBOUND:                -1.381
REMARK SMILES OC[C@@H]1O[C@@](CO)(O[C@H]2O[C@H](CO)[C@@H](O)[C@@H](O)[C@@H]2O)[C@@H](O)[C@@H]1O
REMARK SMILES IDX 8 1 9 2 11 3 14 4 10 5 16 6 18 7 12 8 13 9 15 11 17 13 19 15
REMARK SMILES IDX 5 17 20 18 4 19 22 20 3 21 6 22 7 23 21 25 23 27 2 29 1 30
REMARK H PARENT 13 10 15 12 17 14 19 16 7 24 21 26 23 28 1 31
REMARK Flexibility Score: inf
ROOT
ATOM      1  O   UNL     1       9.264   4.876   1.868  1.00  0.00    -0.313 OA
ENDROOT
BRANCH   1   2
ATOM      2  C   UNL     1       8.105   4.516   2.600  1.00  0.00     0.285 C 
ATOM      3  C   UNL     1       5.774   4.912   2.717  1.00  0.00     0.178 C 
ATOM      4  C   UNL     1       5.437   3.402   2.696  1.00  0.00     0.177 C 
ATOM      5  O   UNL     1       6.993   5.200   2.044  1.00  0.00    -0.341 OA
ATOM      6  C   UNL     1       6.623   2.562   3.197  1.00  0.00     0.179 C 
ATOM      7  C   UNL     1       7.914   2.993   2.475  1.00  0.00     0.202 C 
BRANCH   3   8
ATOM      8  C   UNL     1       5.714   5.545   4.125  1.00  0.00     0.191 C 
BRANCH   8   9
ATOM      9  O   UNL     1       5.749   6.942   4.021  1.00  0.00    -0.394 OA
ATOM     10  H   UNL     1       6.450   7.249   4.654  1.00  0.00     0.210 HD
ENDBRANCH   8   9
ENDBRANCH   3   8
BRANCH   4  11
ATOM     11  O   UNL     1       5.110   3.037   1.378  1.00  0.00    -0.387 OA
ATOM     12  H   UNL     1       4.816   2.089   1.402  1.00  0.00     0.211 HD
ENDBRANCH   4  11
BRANCH   6  13
ATOM     13  O   UNL     1       6.368   1.200   2.962  1.00  0.00    -0.387 OA
ATOM     14  H   UNL     1       6.497   0.729   3.827  1.00  0.00     0.211 HD
ENDBRANCH   6  13
BRANCH   7  15
ATOM     15  O   UNL     1       9.028   2.305   2.990  1.00  0.00    -0.385 OA
ATOM     16  H   UNL     1       9.311   2.770   3.821  1.00  0.00     0.211 HD
ENDBRANCH   7  15
ENDBRANCH   1   2
BRANCH   1  17
ATOM     17  C   UNL     1      10.178   5.713   2.583  1.00  0.00     0.224 C 
ATOM     18  C   UNL     1      10.760   6.742   1.605  1.00  0.00     0.208 C 
ATOM     19  O   UNL     1       9.547   6.444   3.625  1.00  0.00    -0.337 OA
ATOM     20  C   UNL     1       9.771   7.869   1.707  1.00  0.00     0.180 C 
ATOM     21  C   UNL     1       9.264   7.745   3.149  1.00  0.00     0.179 C 
BRANCH  17  22
ATOM     22  C   UNL     1      11.314   4.853   3.167  1.00  0.00     0.225 C 
BRANCH  22  23
ATOM     23  O   UNL     1      12.445   4.900   2.342  1.00  0.00    -0.391 OA
ATOM     24  H   UNL     1      12.116   5.133   1.436  1.00  0.00     0.210 HD
ENDBRANCH  22  23
ENDBRANCH  17  22
BRANCH  18  25
ATOM     25  O   UNL     1      10.825   6.257   0.289  1.00  0.00    -0.385 OA
ATOM     26  H   UNL     1      10.620   5.286   0.336  1.00  0.00     0.211 HD
ENDBRANCH  18  25
BRANCH  20  27
ATOM     27  O   UNL     1      10.374   9.111   1.442  1.00  0.00    -0.387 OA
ATOM     28  H   UNL     1       9.995   9.429   0.580  1.00  0.00     0.211 HD
ENDBRANCH  20  27
BRANCH  21  29
ATOM     29  C   UNL     1       9.858   8.773   4.125  1.00  0.00     0.191 C 
BRANCH  29  30
ATOM     30  O   UNL     1       9.278  10.034   3.925  1.00  0.00    -0.394 OA
ATOM     31  H   UNL     1       9.949  10.570   3.432  1.00  0.00     0.210 HD
ENDBRANCH  29  30
ENDBRANCH  21  29
ENDBRANCH   1  17
TORSDOF 13
ENDMDL
MODEL 5
REMARK VINA RESULT:    -3.196      2.266      3.462
REMARK INTER + INTRA:          -6.258
REMARK INTER:                  -5.018
REMARK INTRA:                  -1.239
REMARK UNBOUND:                -1.381
REMARK SMILES OC[C@@H]1O[C@@](CO)(O[C@H]2O[C@H](CO)[C@@H](O)[C@@H](O)[C@@H]2O)[C@@H](O)[C@@H]1O
REMARK SMILES IDX 8 1 9 2 11 3 14 4 10 5 16 6 18 7 12 8 13 9 15 11 17 13 19 15
REMARK SMILES IDX 5 17 20 18 4 19 22 20 3 21 6 22 7 23 21 25 23 27 2 29 1 30
REMARK H PARENT 13 10 15 12 17 14 19 16 7 24 21 26 23 28 1 31
REMARK Flexibility Score: inf
ROOT
ATOM      1  O   UNL     1      10.012   5.596   2.718  1.00  0.00    -0.313 OA
ENDROOT
BRANCH   1   2
ATOM      2  C   UNL     1      10.821   6.756   2.618  1.00  0.00     0.285 C 
ATOM      3  C   UNL     1      11.849   8.434   3.935  1.00  0.00     0.178 C 
ATOM      4  C   UNL     1      13.234   8.203   3.286  1.00  0.00     0.177 C 
ATOM      5  O   UNL     1      11.050   7.257   3.926  1.00  0.00    -0.341 OA
ATOM      6  C   UNL     1      13.096   7.571   1.891  1.00  0.00     0.179 C 
ATOM      7  C   UNL     1      12.153   6.356   1.957  1.00  0.00     0.202 C 
BRANCH   3   8
ATOM      8  C   UNL     1      11.096   9.661   3.379  1.00  0.00     0.191 C 
BRANCH   8   9
ATOM      9  O   UNL     1       9.881   9.823   4.059  1.00  0.00    -0.394 OA
ATOM     10  H   UNL     1       9.416   8.947   4.007  1.00  0.00     0.210 HD
ENDBRANCH   8   9
ENDBRANCH   3   8
BRANCH   4  11
ATOM     11  O   UNL     1      13.985   7.361   4.125  1.00  0.00    -0.387 OA
ATOM     12  H   UNL     1      13.370   6.656   4.458  1.00  0.00     0.211 HD
ENDBRANCH   4  11
BRANCH   6  13
ATOM     13  O   UNL     1      14.362   7.179   1.425  1.00  0.00    -0.387 OA
ATOM     14  H   UNL     1      14.834   6.758   2.190  1.00  0.00     0.211 HD
ENDBRANCH   6  13
BRANCH   7  15
ATOM     15  O   UNL     1      11.935   5.822   0.674  1.00  0.00    -0.385 OA
ATOM     16  H   UNL     1      11.027   5.419   0.667  1.00  0.00     0.211 HD
ENDBRANCH   7  15
ENDBRANCH   1   2
BRANCH   1  17
ATOM     17  C   UNL     1       8.610   5.839   2.575  1.00  0.00     0.224 C 
ATOM     18  C   UNL     1       8.033   4.799   1.606  1.00  0.00     0.208 C 
ATOM     19  O   UNL     1       7.905   5.698   3.800  1.00  0.00    -0.337 OA
ATOM     20  C   UNL     1       7.665   3.674   2.532  1.00  0.00     0.180 C 
ATOM     21  C   UNL     1       7.329   4.407   3.836  1.00  0.00     0.179 C 
BRANCH  17  22
ATOM     22  C   UNL     1       8.388   7.254   2.010  1.00  0.00     0.225 C 
BRANCH  22  23
ATOM     23  O   UNL     1       7.051   7.645   2.166  1.00  0.00    -0.391 OA
ATOM     24  H   UNL     1       6.580   7.350   1.345  1.00  0.00     0.210 HD
ENDBRANCH  22  23
ENDBRANCH  17  22
BRANCH  18  25
ATOM     25  O   UNL     1       8.974   4.370   0.655  1.00  0.00    -0.385 OA
ATOM     26  H   UNL     1       8.682   3.468   0.356  1.00  0.00     0.211 HD
ENDBRANCH  18  25
BRANCH  20  27
ATOM     27  O   UNL     1       6.587   2.924   2.030  1.00  0.00    -0.387 OA
ATOM     28  H   UNL     1       6.031   3.554   1.499  1.00  0.00     0.211 HD
ENDBRANCH  20  27
BRANCH  21  29
ATOM     29  C   UNL     1       5.824   4.540   4.124  1.00  0.00     0.191 C 
BRANCH  29  30
ATOM     30  O   UNL     1       5.358   5.802   3.731  1.00  0.00    -0.394 OA
ATOM     31  H   UNL     1       4.850   6.160   4.503  1.00  0.00     0.210 HD
ENDBRANCH  29  30
ENDBRANCH  21  29
ENDBRANCH   1  17
TORSDOF 13
ENDMDL
MODEL 6
REMARK VINA RESULT:    -3.176      1.927      2.962
REMARK INTER + INTRA:          -6.228
REMARK INTER:                  -4.973
REMARK INTRA:                  -1.255
REMARK UNBOUND:                -1.381
REMARK SMILES OC[C@@H]1O[C@@](CO)(O[C@H]2O[C@H](CO)[C@@H](O)[C@@H](O)[C@@H]2O)[C@@H](O)[C@@H]1O
REMARK SMILES IDX 8 1 9 2 11 3 14 4 10 5 16 6 18 7 12 8 13 9 15 11 17 13 19 15
REMARK SMILES IDX 5 17 20 18 4 19 22 20 3 21 6 22 7 23 21 25 23 27 2 29 1 30
REMARK H PARENT 13 10 15 12 17 14 19 16 7 24 21 26 23 28 1 31
REMARK Flexibility Score: inf
ROOT
ATOM      1  O   UNL     1       8.121   4.805   2.997  1.00  0.00    -0.313 OA
ENDROOT
BRANCH   1   2
ATOM      2  C   UNL     1       9.047   5.867   2.844  1.00  0.00     0.285 C 
ATOM      3  C   UNL     1      10.510   7.259   4.080  1.00  0.00     0.178 C 
ATOM      4  C   UNL     1      11.713   6.943   3.160  1.00  0.00     0.177 C 
ATOM      5  O   UNL     1       9.572   6.191   4.123  1.00  0.00    -0.341 OA
ATOM      6  C   UNL     1      11.244   6.489   1.768  1.00  0.00     0.179 C 
ATOM      7  C   UNL     1      10.173   5.391   1.909  1.00  0.00     0.202 C 
BRANCH   3   8
ATOM      8  C   UNL     1       9.842   8.620   3.787  1.00  0.00     0.191 C 
BRANCH   8   9
ATOM      9  O   UNL     1      10.817   9.624   3.714  1.00  0.00    -0.394 OA
ATOM     10  H   UNL     1      10.335  10.461   3.484  1.00  0.00     0.210 HD
ENDBRANCH   8   9
ENDBRANCH   3   8
BRANCH   4  11
ATOM     11  O   UNL     1      12.483   5.932   3.763  1.00  0.00    -0.387 OA
ATOM     12  H   UNL     1      11.920   5.519   4.469  1.00  0.00     0.211 HD
ENDBRANCH   4  11
BRANCH   6  13
ATOM     13  O   UNL     1      12.341   6.006   1.036  1.00  0.00    -0.387 OA
ATOM     14  H   UNL     1      13.119   6.577   1.270  1.00  0.00     0.211 HD
ENDBRANCH   6  13
BRANCH   7  15
ATOM     15  O   UNL     1       9.658   5.030   0.649  1.00  0.00    -0.385 OA
ATOM     16  H   UNL     1       9.512   5.867   0.135  1.00  0.00     0.211 HD
ENDBRANCH   7  15
ENDBRANCH   1   2
BRANCH   1  17
ATOM     17  C   UNL     1       6.752   5.187   2.838  1.00  0.00     0.224 C 
ATOM     18  C   UNL     1       6.145   4.354   1.701  1.00  0.00     0.208 C 
ATOM     19  O   UNL     1       5.976   4.928   3.999  1.00  0.00    -0.337 OA
ATOM     20  C   UNL     1       5.641   3.142   2.432  1.00  0.00     0.180 C 
ATOM     21  C   UNL     1       5.297   3.701   3.818  1.00  0.00     0.179 C 
BRANCH  17  22
ATOM     22  C   UNL     1       6.673   6.683   2.484  1.00  0.00     0.225 C 
BRANCH  22  23
ATOM     23  O   UNL     1       5.894   7.373   3.423  1.00  0.00    -0.391 OA
ATOM     24  H   UNL     1       5.317   7.988   2.904  1.00  0.00     0.210 HD
ENDBRANCH  22  23
ENDBRANCH  17  22
BRANCH  18  25
ATOM     25  O   UNL     1       7.096   3.990   0.734  1.00  0.00    -0.385 OA
ATOM     26  H   UNL     1       6.859   4.485  -0.095  1.00  0.00     0.211 HD
ENDBRANCH  18  25
BRANCH  20  27
ATOM     27  O   UNL     1       4.534   2.570   1.780  1.00  0.00    -0.387 OA
ATOM     28  H   UNL     1       3.971   3.327   1.467  1.00  0.00     0.211 HD
ENDBRANCH  20  27
BRANCH  21  29
ATOM     29  C   UNL     1       3.796   3.920   4.063  1.00  0.00     0.191 C 
BRANCH  29  30
ATOM     30  O   UNL     1       3.501   5.289   4.125  1.00  0.00    -0.394 OA
ATOM     31  H   UNL     1       2.667   5.367   4.653  1.00  0.00     0.210 HD
ENDBRANCH  29  30
ENDBRANCH  21  29
ENDBRANCH   1  17
TORSDOF 13
ENDMDL
MODEL 7
REMARK VINA RESULT:    -3.138      2.476      6.485
REMARK INTER + INTRA:          -6.169
REMARK INTER:                  -4.830
REMARK INTRA:                  -1.339
REMARK UNBOUND:                -1.381
REMARK SMILES OC[C@@H]1O[C@@](CO)(O[C@H]2O[C@H](CO)[C@@H](O)[C@@H](O)[C@@H]2O)[C@@H](O)[C@@H]1O
REMARK SMILES IDX 8 1 9 2 11 3 14 4 10 5 16 6 18 7 12 8 13 9 15 11 17 13 19 15
REMARK SMILES IDX 5 17 20 18 4 19 22 20 3 21 6 22 7 23 21 25 23 27 2 29 1 30
REMARK H PARENT 13 10 15 12 17 14 19 16 7 24 21 26 23 28 1 31
REMARK Flexibility Score: inf
ROOT
ATOM      1  O   UNL     1      10.635   5.966   2.107  1.00  0.00    -0.313 OA
ENDROOT
BRANCH   1   2
ATOM      2  C   UNL     1       9.351   5.580   2.565  1.00  0.00     0.285 C 
ATOM      3  C   UNL     1       7.043   5.914   2.153  1.00  0.00     0.178 C 
ATOM      4  C   UNL     1       6.758   4.396   2.076  1.00  0.00     0.177 C 
ATOM      5  O   UNL     1       8.375   6.230   1.765  1.00  0.00    -0.341 OA
ATOM      6  C   UNL     1       7.821   3.591   2.841  1.00  0.00     0.179 C 
ATOM      7  C   UNL     1       9.230   4.052   2.421  1.00  0.00     0.202 C 
BRANCH   3   8
ATOM      8  C   UNL     1       6.655   6.555   3.502  1.00  0.00     0.191 C 
BRANCH   8   9
ATOM      9  O   UNL     1       6.742   7.951   3.410  1.00  0.00    -0.394 OA
ATOM     10  H   UNL     1       7.329   8.241   4.157  1.00  0.00     0.210 HD
ENDBRANCH   8   9
ENDBRANCH   3   8
BRANCH   4  11
ATOM     11  O   UNL     1       6.743   4.012   0.723  1.00  0.00    -0.387 OA
ATOM     12  H   UNL     1       7.686   3.855   0.454  1.00  0.00     0.211 HD
ENDBRANCH   4  11
BRANCH   6  13
ATOM     13  O   UNL     1       7.658   2.221   2.573  1.00  0.00    -0.387 OA
ATOM     14  H   UNL     1       6.952   1.889   3.186  1.00  0.00     0.211 HD
ENDBRANCH   6  13
BRANCH   7  15
ATOM     15  O   UNL     1      10.217   3.397   3.180  1.00  0.00    -0.385 OA
ATOM     16  H   UNL     1      10.780   4.096   3.606  1.00  0.00     0.211 HD
ENDBRANCH   7  15
ENDBRANCH   1   2
BRANCH   1  17
ATOM     17  C   UNL     1      11.292   6.930   2.933  1.00  0.00     0.224 C 
ATOM     18  C   UNL     1      12.581   6.303   3.481  1.00  0.00     0.208 C 
ATOM     19  O   UNL     1      11.673   8.095   2.214  1.00  0.00    -0.337 OA
ATOM     20  C   UNL     1      13.580   6.651   2.413  1.00  0.00     0.180 C 
ATOM     21  C   UNL     1      13.037   7.975   1.861  1.00  0.00     0.179 C 
BRANCH  17  22
ATOM     22  C   UNL     1      10.369   7.322   4.101  1.00  0.00     0.225 C 
BRANCH  22  23
ATOM     23  O   UNL     1       9.657   8.490   3.799  1.00  0.00    -0.391 OA
ATOM     24  H   UNL     1       9.051   8.258   3.050  1.00  0.00     0.210 HD
ENDBRANCH  22  23
ENDBRANCH  17  22
BRANCH  18  25
ATOM     25  O   UNL     1      12.480   4.910   3.630  1.00  0.00    -0.385 OA
ATOM     26  H   UNL     1      11.879   4.752   4.405  1.00  0.00     0.211 HD
ENDBRANCH  18  25
BRANCH  20  27
ATOM     27  O   UNL     1      14.878   6.767   2.940  1.00  0.00    -0.387 OA
ATOM     28  H   UNL     1      14.782   6.750   3.930  1.00  0.00     0.211 HD
ENDBRANCH  20  27
BRANCH  21  29
ATOM     29  C   UNL     1      13.790   9.225   2.345  1.00  0.00     0.191 C 
BRANCH  29  30
ATOM     30  O   UNL     1      14.948   9.428   1.582  1.00  0.00    -0.394 OA
ATOM     31  H   UNL     1      15.425   8.560   1.570  1.00  0.00     0.210 HD
ENDBRANCH  29  30
ENDBRANCH  21  29
ENDBRANCH   1  17
TORSDOF 13
ENDMDL
MODEL 8
REMARK VINA RESULT:    -3.041      2.820      6.815
REMARK INTER + INTRA:          -6.021
REMARK INTER:                  -4.662
REMARK INTRA:                  -1.360
REMARK UNBOUND:                -1.381
REMARK SMILES OC[C@@H]1O[C@@](CO)(O[C@H]2O[C@H](CO)[C@@H](O)[C@@H](O)[C@@H]2O)[C@@H](O)[C@@H]1O
REMARK SMILES IDX 8 1 9 2 11 3 14 4 10 5 16 6 18 7 12 8 13 9 15 11 17 13 19 15
REMARK SMILES IDX 5 17 20 18 4 19 22 20 3 21 6 22 7 23 21 25 23 27 2 29 1 30
REMARK H PARENT 13 10 15 12 17 14 19 16 7 24 21 26 23 28 1 31
REMARK Flexibility Score: inf
ROOT
ATOM      1  O   UNL     1      10.766   7.656   3.212  1.00  0.00    -0.313 OA
ENDROOT
BRANCH   1   2
ATOM      2  C   UNL     1       9.620   7.113   2.580  1.00  0.00     0.285 C 
ATOM      3  C   UNL     1       8.003   5.398   2.803  1.00  0.00     0.178 C 
ATOM      4  C   UNL     1       6.822   6.385   2.646  1.00  0.00     0.177 C 
ATOM      5  O   UNL     1       9.153   6.023   3.360  1.00  0.00    -0.341 OA
ATOM      6  C   UNL     1       7.253   7.652   1.890  1.00  0.00     0.179 C 
ATOM      7  C   UNL     1       8.547   8.215   2.505  1.00  0.00     0.202 C 
BRANCH   3   8
ATOM      8  C   UNL     1       8.327   4.603   1.519  1.00  0.00     0.191 C 
BRANCH   8   9
ATOM      9  O   UNL     1       8.909   3.374   1.855  1.00  0.00    -0.394 OA
ATOM     10  H   UNL     1       9.031   2.883   1.000  1.00  0.00     0.210 HD
ENDBRANCH   8   9
ENDBRANCH   3   8
BRANCH   4  11
ATOM     11  O   UNL     1       6.351   6.725   3.927  1.00  0.00    -0.387 OA
ATOM     12  H   UNL     1       5.729   7.491   3.815  1.00  0.00     0.211 HD
ENDBRANCH   4  11
BRANCH   6  13
ATOM     13  O   UNL     1       6.227   8.610   1.954  1.00  0.00    -0.387 OA
ATOM     14  H   UNL     1       6.096   8.830   2.913  1.00  0.00     0.211 HD
ENDBRANCH   6  13
BRANCH   7  15
ATOM     15  O   UNL     1       9.013   9.319   1.767  1.00  0.00    -0.385 OA
ATOM     16  H   UNL     1      10.004   9.330   1.839  1.00  0.00     0.211 HD
ENDBRANCH   7  15
ENDBRANCH   1   2
BRANCH   1  17
ATOM     17  C   UNL     1      11.996   7.397   2.529  1.00  0.00     0.224 C 
ATOM     18  C   UNL     1      12.654   8.740   2.186  1.00  0.00     0.208 C 
ATOM     19  O   UNL     1      12.922   6.676   3.329  1.00  0.00    -0.337 OA
ATOM     20  C   UNL     1      13.481   9.009   3.412  1.00  0.00     0.180 C 
ATOM     21  C   UNL     1      13.831   7.597   3.898  1.00  0.00     0.179 C 
BRANCH  17  22
ATOM     22  C   UNL     1      11.710   6.614   1.234  1.00  0.00     0.225 C 
BRANCH  22  23
ATOM     23  O   UNL     1      12.698   5.645   1.014  1.00  0.00    -0.391 OA
ATOM     24  H   UNL     1      12.472   4.882   1.605  1.00  0.00     0.210 HD
ENDBRANCH  22  23
ENDBRANCH  17  22
BRANCH  18  25
ATOM     25  O   UNL     1      11.713   9.765   1.989  1.00  0.00    -0.385 OA
ATOM     26  H   UNL     1      11.679   9.932   1.010  1.00  0.00     0.211 HD
ENDBRANCH  18  25
BRANCH  20  27
ATOM     27  O   UNL     1      14.615   9.782   3.109  1.00  0.00    -0.387 OA
ATOM     28  H   UNL     1      15.335   9.476   3.722  1.00  0.00     0.211 HD
ENDBRANCH  20  27
BRANCH  21  29
ATOM     29  C   UNL     1      15.266   7.148   3.576  1.00  0.00     0.191 C 
BRANCH  29  30
ATOM     30  O   UNL     1      15.392   6.846   2.213  1.00  0.00    -0.394 OA
ATOM     31  H   UNL     1      15.511   5.865   2.158  1.00  0.00     0.210 HD
ENDBRANCH  29  30
ENDBRANCH  21  29
ENDBRANCH   1  17
TORSDOF 13
ENDMDL
