MODEL 1
REMARK VINA RESULT:    -3.221      0.000      0.000
REMARK INTER + INTRA:         -10.742
REMARK INTER:                  -7.364
REMARK INTRA:                  -3.378
REMARK UNBOUND:                -3.378
REMARK SMILES CCCCCCCCCCCCCCCCCCCCCCCC(=O)[O-]
REMARK SMILES IDX 13 1 14 2 15 3 16 4 17 5 18 6 19 7 20 8 21 9 22 10 23 11
REMARK SMILES IDX 24 12 25 13 26 14 12 15 11 16 10 17 9 18 8 19 7 20 6 21 5 22
REMARK SMILES IDX 4 23 3 24 2 25 1 26
REMARK H PARENT
REMARK Flexibility Score: inf
ROOT
ATOM      1  C   UNL     1       8.678  -3.120  -4.894  1.00  0.00     0.000 C 
ENDROOT
BRANCH   1   2
ATOM      2  C   UNL     1       9.976  -2.310  -4.717  1.00  0.00     0.000 C 
BRANCH   2   3
ATOM      3  C   UNL     1       9.782  -0.838  -4.305  1.00  0.00     0.000 C 
BRANCH   3   4
ATOM      4  C   UNL     1      10.452   0.152  -5.273  1.00  0.00     0.000 C 
BRANCH   4   5
ATOM      5  C   UNL     1       9.437   1.056  -5.995  1.00  0.00     0.000 C 
BRANCH   5   6
ATOM      6  C   UNL     1       8.448   0.319  -6.921  1.00  0.00     0.000 C 
BRANCH   6   7
ATOM      7  C   UNL     1       6.974   0.348  -6.468  1.00  0.00     0.000 C 
BRANCH   7   8
ATOM      8  C   UNL     1       6.029  -0.584  -7.249  1.00  0.00     0.000 C 
BRANCH   8   9
ATOM      9  C   UNL     1       4.543  -0.311  -6.958  1.00  0.00     0.000 C 
BRANCH   9  10
ATOM     10  C   UNL     1       4.330   0.536  -5.689  1.00  0.00     0.006 C 
BRANCH  10  11
ATOM     11  C   UNL     1       3.828   1.964  -5.955  1.00  0.00     0.053 C 
BRANCH  11  12
ATOM     12  C   UNL     1       2.979   2.481  -4.836  1.00  0.00     0.041 C 
ATOM     13  O   UNL     1       2.286   3.521  -4.994  1.00  0.00    -0.550 OA
ATOM     14  O   UNL     1       2.922   1.792  -3.630  1.00  0.00    -0.550 OA
ENDBRANCH  11  12
ENDBRANCH  10  11
ENDBRANCH   9  10
ENDBRANCH   8   9
ENDBRANCH   7   8
ENDBRANCH   6   7
ENDBRANCH   5   6
ENDBRANCH   4   5
ENDBRANCH   3   4
ENDBRANCH   2   3
ENDBRANCH   1   2
BRANCH   1  15
ATOM     15  C   UNL     1       7.484  -2.520  -4.136  1.00  0.00     0.000 C 
BRANCH  15  16
ATOM     16  C   UNL     1       6.175  -3.213  -4.542  1.00  0.00     0.000 C 
BRANCH  16  17
ATOM     17  C   UNL     1       6.263  -3.886  -5.921  1.00  0.00     0.000 C 
BRANCH  17  18
ATOM     18  C   UNL     1       4.926  -4.496  -6.369  1.00  0.00    -0.000 C 
BRANCH  18  19
ATOM     19  C   UNL     1       3.745  -3.632  -5.913  1.00  0.00    -0.000 C 
BRANCH  19  20
ATOM     20  C   UNL     1       2.468  -3.994  -6.686  1.00  0.00    -0.000 C 
BRANCH  20  21
ATOM     21  C   UNL     1       1.342  -4.518  -5.776  1.00  0.00    -0.000 C 
BRANCH  21  22
ATOM     22  C   UNL     1       1.811  -5.086  -4.425  1.00  0.00    -0.000 C 
BRANCH  22  23
ATOM     23  C   UNL     1       2.153  -6.585  -4.492  1.00  0.00    -0.000 C 
BRANCH  23  24
ATOM     24  C   UNL     1       3.558  -6.897  -3.952  1.00  0.00    -0.000 C 
BRANCH  24  25
ATOM     25  C   UNL     1       3.986  -5.939  -2.832  1.00  0.00    -0.003 C 
ATOM     26  C   UNL     1       3.829  -6.591  -1.461  1.00  0.00     0.004 C 
ENDBRANCH  24  25
ENDBRANCH  23  24
ENDBRANCH  22  23
ENDBRANCH  21  22
ENDBRANCH  20  21
ENDBRANCH  19  20
ENDBRANCH  18  19
ENDBRANCH  17  18
ENDBRANCH  16  17
ENDBRANCH  15  16
ENDBRANCH   1  15
TORSDOF 22
ENDMDL
MODEL 2
REMARK VINA RESULT:    -3.170      1.477      2.869
REMARK INTER + INTRA:         -10.624
REMARK INTER:                  -6.396
REMARK INTRA:                  -4.228
REMARK UNBOUND:                -3.378
REMARK SMILES CCCCCCCCCCCCCCCCCCCCCCCC(=O)[O-]
REMARK SMILES IDX 13 1 14 2 15 3 16 4 17 5 18 6 19 7 20 8 21 9 22 10 23 11
REMARK SMILES IDX 24 12 25 13 26 14 12 15 11 16 10 17 9 18 8 19 7 20 6 21 5 22
REMARK SMILES IDX 4 23 3 24 2 25 1 26
REMARK H PARENT
REMARK Flexibility Score: inf
ROOT
ATOM      1  C   UNL     1       5.061  -3.016  -5.323  1.00  0.00     0.000 C 
ENDROOT
BRANCH   1   2
ATOM      2  C   UNL     1       6.217  -2.643  -4.376  1.00  0.00     0.000 C 
BRANCH   2   3
ATOM      3  C   UNL     1       7.516  -3.447  -4.573  1.00  0.00     0.000 C 
BRANCH   3   4
ATOM      4  C   UNL     1       8.752  -2.554  -4.769  1.00  0.00     0.000 C 
BRANCH   4   5
ATOM      5  C   UNL     1       9.189  -2.458  -6.243  1.00  0.00     0.000 C 
BRANCH   5   6
ATOM      6  C   UNL     1       8.613  -1.255  -7.017  1.00  0.00     0.000 C 
BRANCH   6   7
ATOM      7  C   UNL     1       8.272  -0.020  -6.158  1.00  0.00     0.000 C 
BRANCH   7   8
ATOM      8  C   UNL     1       7.168   0.891  -6.728  1.00  0.00     0.000 C 
BRANCH   8   9
ATOM      9  C   UNL     1       5.930   0.110  -7.198  1.00  0.00     0.000 C 
BRANCH   9  10
ATOM     10  C   UNL     1       4.609   0.815  -6.838  1.00  0.00     0.006 C 
BRANCH  10  11
ATOM     11  C   UNL     1       4.134   0.579  -5.396  1.00  0.00     0.053 C 
BRANCH  11  12
ATOM     12  C   UNL     1       3.117   1.589  -4.965  1.00  0.00     0.041 C 
ATOM     13  O   UNL     1       2.389   2.160  -5.819  1.00  0.00    -0.550 OA
ATOM     14  O   UNL     1       2.946   1.873  -3.615  1.00  0.00    -0.550 OA
ENDBRANCH  11  12
ENDBRANCH  10  11
ENDBRANCH   9  10
ENDBRANCH   8   9
ENDBRANCH   7   8
ENDBRANCH   6   7
ENDBRANCH   5   6
ENDBRANCH   4   5
ENDBRANCH   3   4
ENDBRANCH   2   3
ENDBRANCH   1   2
BRANCH   1  15
ATOM     15  C   UNL     1       5.542  -3.599  -6.661  1.00  0.00     0.000 C 
BRANCH  15  16
ATOM     16  C   UNL     1       4.351  -4.001  -7.542  1.00  0.00     0.000 C 
BRANCH  16  17
ATOM     17  C   UNL     1       3.610  -5.239  -7.010  1.00  0.00     0.000 C 
BRANCH  17  18
ATOM     18  C   UNL     1       2.088  -5.039  -6.952  1.00  0.00    -0.000 C 
BRANCH  18  19
ATOM     19  C   UNL     1       1.639  -4.617  -5.548  1.00  0.00    -0.000 C 
BRANCH  19  20
ATOM     20  C   UNL     1       2.084  -5.645  -4.497  1.00  0.00    -0.000 C 
BRANCH  20  21
ATOM     21  C   UNL     1       2.885  -5.016  -3.342  1.00  0.00    -0.000 C 
BRANCH  21  22
ATOM     22  C   UNL     1       4.004  -5.904  -2.771  1.00  0.00    -0.000 C 
BRANCH  22  23
ATOM     23  C   UNL     1       4.887  -6.533  -3.862  1.00  0.00    -0.000 C 
BRANCH  23  24
ATOM     24  C   UNL     1       6.359  -6.654  -3.438  1.00  0.00    -0.000 C 
BRANCH  24  25
ATOM     25  C   UNL     1       7.205  -7.430  -4.458  1.00  0.00    -0.003 C 
ATOM     26  C   UNL     1       7.032  -6.858  -5.863  1.00  0.00     0.004 C 
ENDBRANCH  24  25
ENDBRANCH  23  24
ENDBRANCH  22  23
ENDBRANCH  21  22
ENDBRANCH  20  21
ENDBRANCH  19  20
ENDBRANCH  18  19
ENDBRANCH  17  18
ENDBRANCH  16  17
ENDBRANCH  15  16
ENDBRANCH   1  15
TORSDOF 22
ENDMDL
MODEL 3
REMARK VINA RESULT:    -3.170      1.442      3.139
REMARK INTER + INTRA:         -10.624
REMARK INTER:                  -6.531
REMARK INTRA:                  -4.092
REMARK UNBOUND:                -3.378
REMARK SMILES CCCCCCCCCCCCCCCCCCCCCCCC(=O)[O-]
REMARK SMILES IDX 13 1 14 2 15 3 16 4 17 5 18 6 19 7 20 8 21 9 22 10 23 11
REMARK SMILES IDX 24 12 25 13 26 14 12 15 11 16 10 17 9 18 8 19 7 20 6 21 5 22
REMARK SMILES IDX 4 23 3 24 2 25 1 26
REMARK H PARENT
REMARK Flexibility Score: inf
ROOT
ATOM      1  C   UNL     1       4.416  -3.230  -5.577  1.00  0.00     0.000 C 
ENDROOT
BRANCH   1   2
ATOM      2  C   UNL     1       5.372  -2.321  -4.783  1.00  0.00     0.000 C 
BRANCH   2   3
ATOM      3  C   UNL     1       6.745  -2.936  -4.455  1.00  0.00     0.000 C 
BRANCH   3   4
ATOM      4  C   UNL     1       7.923  -2.073  -4.938  1.00  0.00     0.000 C 
BRANCH   4   5
ATOM      5  C   UNL     1       8.212  -2.249  -6.440  1.00  0.00     0.000 C 
BRANCH   5   6
ATOM      6  C   UNL     1       7.712  -1.100  -7.339  1.00  0.00     0.000 C 
BRANCH   6   7
ATOM      7  C   UNL     1       7.794   0.309  -6.718  1.00  0.00     0.000 C 
BRANCH   7   8
ATOM      8  C   UNL     1       6.444   1.028  -6.538  1.00  0.00     0.000 C 
BRANCH   8   9
ATOM      9  C   UNL     1       5.377   0.558  -7.542  1.00  0.00     0.000 C 
BRANCH   9  10
ATOM     10  C   UNL     1       3.992   0.372  -6.895  1.00  0.00     0.006 C 
BRANCH  10  11
ATOM     11  C   UNL     1       3.916   0.801  -5.421  1.00  0.00     0.053 C 
BRANCH  11  12
ATOM     12  C   UNL     1       2.840   1.815  -5.184  1.00  0.00     0.041 C 
ATOM     13  O   UNL     1       2.326   2.432  -6.153  1.00  0.00    -0.550 OA
ATOM     14  O   UNL     1       2.379   2.051  -3.894  1.00  0.00    -0.550 OA
ENDBRANCH  11  12
ENDBRANCH  10  11
ENDBRANCH   9  10
ENDBRANCH   8   9
ENDBRANCH   7   8
ENDBRANCH   6   7
ENDBRANCH   5   6
ENDBRANCH   4   5
ENDBRANCH   3   4
ENDBRANCH   2   3
ENDBRANCH   1   2
BRANCH   1  15
ATOM     15  C   UNL     1       5.045  -3.791  -6.862  1.00  0.00     0.000 C 
BRANCH  15  16
ATOM     16  C   UNL     1       5.128  -5.322  -6.807  1.00  0.00     0.000 C 
BRANCH  16  17
ATOM     17  C   UNL     1       6.574  -5.835  -6.706  1.00  0.00     0.000 C 
BRANCH  17  18
ATOM     18  C   UNL     1       6.731  -6.968  -5.681  1.00  0.00    -0.000 C 
BRANCH  18  19
ATOM     19  C   UNL     1       7.162  -6.422  -4.315  1.00  0.00    -0.000 C 
BRANCH  19  20
ATOM     20  C   UNL     1       6.163  -6.827  -3.221  1.00  0.00    -0.000 C 
BRANCH  20  21
ATOM     21  C   UNL     1       4.927  -5.912  -3.165  1.00  0.00    -0.000 C 
BRANCH  21  22
ATOM     22  C   UNL     1       3.801  -6.399  -2.237  1.00  0.00    -0.000 C 
BRANCH  22  23
ATOM     23  C   UNL     1       2.736  -7.232  -2.972  1.00  0.00    -0.000 C 
BRANCH  23  24
ATOM     24  C   UNL     1       2.805  -7.069  -4.498  1.00  0.00    -0.000 C 
BRANCH  24  25
ATOM     25  C   UNL     1       1.498  -6.525  -5.093  1.00  0.00    -0.003 C 
ATOM     26  C   UNL     1       1.346  -5.033  -4.813  1.00  0.00     0.004 C 
ENDBRANCH  24  25
ENDBRANCH  23  24
ENDBRANCH  22  23
ENDBRANCH  21  22
ENDBRANCH  20  21
ENDBRANCH  19  20
ENDBRANCH  18  19
ENDBRANCH  17  18
ENDBRANCH  16  17
ENDBRANCH  15  16
ENDBRANCH   1  15
TORSDOF 22
ENDMDL
MODEL 4
REMARK VINA RESULT:    -3.051      9.387     13.257
REMARK INTER + INTRA:         -10.352
REMARK INTER:                  -8.186
REMARK INTRA:                  -2.166
REMARK UNBOUND:                -3.378
REMARK SMILES CCCCCCCCCCCCCCCCCCCCCCCC(=O)[O-]
REMARK SMILES IDX 13 1 14 2 15 3 16 4 17 5 18 6 19 7 20 8 21 9 22 10 23 11
REMARK SMILES IDX 24 12 25 13 26 14 12 15 11 16 10 17 9 18 8 19 7 20 6 21 5 22
REMARK SMILES IDX 4 23 3 24 2 25 1 26
REMARK H PARENT
REMARK Flexibility Score: inf
ROOT
ATOM      1  C   UNL     1       3.446   4.293   5.131  1.00  0.00     0.000 C 
ENDROOT
BRANCH   1   2
ATOM      2  C   UNL     1       3.998   3.456   6.300  1.00  0.00     0.000 C 
BRANCH   2   3
ATOM      3  C   UNL     1       4.290   1.980   5.973  1.00  0.00     0.000 C 
BRANCH   3   4
ATOM      4  C   UNL     1       3.978   1.030   7.141  1.00  0.00     0.000 C 
BRANCH   4   5
ATOM      5  C   UNL     1       2.772   0.116   6.858  1.00  0.00     0.000 C 
BRANCH   5   6
ATOM      6  C   UNL     1       1.598   0.793   6.121  1.00  0.00     0.000 C 
BRANCH   6   7
ATOM      7  C   UNL     1       0.637  -0.167   5.390  1.00  0.00     0.000 C 
BRANCH   7   8
ATOM      8  C   UNL     1       0.597  -1.604   5.944  1.00  0.00     0.000 C 
BRANCH   8   9
ATOM      9  C   UNL     1       0.251  -2.650   4.871  1.00  0.00     0.000 C 
BRANCH   9  10
ATOM     10  C   UNL     1      -1.242  -3.031   4.870  1.00  0.00     0.006 C 
BRANCH  10  11
ATOM     11  C   UNL     1      -1.905  -3.001   3.484  1.00  0.00     0.053 C 
BRANCH  11  12
ATOM     12  C   UNL     1      -3.027  -3.986   3.375  1.00  0.00     0.041 C 
ATOM     13  O   UNL     1      -4.219  -3.586   3.322  1.00  0.00    -0.550 OA
ATOM     14  O   UNL     1      -2.754  -5.347   3.294  1.00  0.00    -0.550 OA
ENDBRANCH  11  12
ENDBRANCH  10  11
ENDBRANCH   9  10
ENDBRANCH   8   9
ENDBRANCH   7   8
ENDBRANCH   6   7
ENDBRANCH   5   6
ENDBRANCH   4   5
ENDBRANCH   3   4
ENDBRANCH   2   3
ENDBRANCH   1   2
BRANCH   1  15
ATOM     15  C   UNL     1       3.383   3.514   3.808  1.00  0.00     0.000 C 
BRANCH  15  16
ATOM     16  C   UNL     1       3.995   4.333   2.662  1.00  0.00     0.000 C 
BRANCH  16  17
ATOM     17  C   UNL     1       4.643   5.640   3.146  1.00  0.00     0.000 C 
BRANCH  17  18
ATOM     18  C   UNL     1       5.890   6.020   2.334  1.00  0.00    -0.000 C 
BRANCH  18  19
ATOM     19  C   UNL     1       5.503   6.606   0.971  1.00  0.00    -0.000 C 
BRANCH  19  20
ATOM     20  C   UNL     1       6.455   6.112  -0.129  1.00  0.00    -0.000 C 
BRANCH  20  21
ATOM     21  C   UNL     1       7.271   4.876   0.291  1.00  0.00    -0.000 C 
BRANCH  21  22
ATOM     22  C   UNL     1       8.654   4.756  -0.373  1.00  0.00    -0.000 C 
BRANCH  22  23
ATOM     23  C   UNL     1       9.786   5.340   0.489  1.00  0.00    -0.000 C 
BRANCH  23  24
ATOM     24  C   UNL     1       9.494   5.243   1.995  1.00  0.00    -0.000 C 
BRANCH  24  25
ATOM     25  C   UNL     1       9.759   6.564   2.733  1.00  0.00    -0.003 C 
ATOM     26  C   UNL     1       9.109   7.738   2.006  1.00  0.00     0.004 C 
ENDBRANCH  24  25
ENDBRANCH  23  24
ENDBRANCH  22  23
ENDBRANCH  21  22
ENDBRANCH  20  21
ENDBRANCH  19  20
ENDBRANCH  18  19
ENDBRANCH  17  18
ENDBRANCH  16  17
ENDBRANCH  15  16
ENDBRANCH   1  15
TORSDOF 22
ENDMDL
MODEL 5
REMARK VINA RESULT:    -3.043      9.382     11.484
REMARK INTER + INTRA:         -10.333
REMARK INTER:                  -8.079
REMARK INTRA:                  -2.255
REMARK UNBOUND:                -3.378
REMARK SMILES CCCCCCCCCCCCCCCCCCCCCCCC(=O)[O-]
REMARK SMILES IDX 13 1 14 2 15 3 16 4 17 5 18 6 19 7 20 8 21 9 22 10 23 11
REMARK SMILES IDX 24 12 25 13 26 14 12 15 11 16 10 17 9 18 8 19 7 20 6 21 5 22
REMARK SMILES IDX 4 23 3 24 2 25 1 26
REMARK H PARENT
REMARK Flexibility Score: inf
ROOT
ATOM      1  C   UNL     1       4.715   2.672   7.131  1.00  0.00     0.000 C 
ENDROOT
BRANCH   1   2
ATOM      2  C   UNL     1       3.653   3.765   6.918  1.00  0.00     0.000 C 
BRANCH   2   3
ATOM      3  C   UNL     1       2.311   3.276   6.340  1.00  0.00     0.000 C 
BRANCH   3   4
ATOM      4  C   UNL     1       1.977   3.905   4.977  1.00  0.00     0.000 C 
BRANCH   4   5
ATOM      5  C   UNL     1       2.447   3.041   3.793  1.00  0.00     0.000 C 
BRANCH   5   6
ATOM      6  C   UNL     1       3.640   3.614   3.000  1.00  0.00     0.000 C 
BRANCH   6   7
ATOM      7  C   UNL     1       4.229   4.928   3.552  1.00  0.00     0.000 C 
BRANCH   7   8
ATOM      8  C   UNL     1       4.387   6.061   2.521  1.00  0.00     0.000 C 
BRANCH   8   9
ATOM      9  C   UNL     1       4.922   5.568   1.166  1.00  0.00     0.000 C 
BRANCH   9  10
ATOM     10  C   UNL     1       6.290   6.178   0.808  1.00  0.00     0.006 C 
BRANCH  10  11
ATOM     11  C   UNL     1       7.449   5.711   1.702  1.00  0.00     0.053 C 
BRANCH  11  12
ATOM     12  C   UNL     1       8.433   4.867   0.954  1.00  0.00     0.041 C 
ATOM     13  O   UNL     1       8.136   4.396  -0.175  1.00  0.00    -0.550 OA
ATOM     14  O   UNL     1       9.695   4.630   1.488  1.00  0.00    -0.550 OA
ENDBRANCH  11  12
ENDBRANCH  10  11
ENDBRANCH   9  10
ENDBRANCH   8   9
ENDBRANCH   7   8
ENDBRANCH   6   7
ENDBRANCH   5   6
ENDBRANCH   4   5
ENDBRANCH   3   4
ENDBRANCH   2   3
ENDBRANCH   1   2
BRANCH   1  15
ATOM     15  C   UNL     1       4.434   1.392   6.329  1.00  0.00     0.000 C 
BRANCH  15  16
ATOM     16  C   UNL     1       4.387   0.167   7.252  1.00  0.00     0.000 C 
BRANCH  16  17
ATOM     17  C   UNL     1       2.983  -0.092   7.824  1.00  0.00     0.000 C 
BRANCH  17  18
ATOM     18  C   UNL     1       2.124  -0.977   6.908  1.00  0.00    -0.000 C 
BRANCH  18  19
ATOM     19  C   UNL     1       1.054  -0.149   6.186  1.00  0.00    -0.000 C 
BRANCH  19  20
ATOM     20  C   UNL     1       0.294  -1.006   5.163  1.00  0.00    -0.000 C 
BRANCH  20  21
ATOM     21  C   UNL     1       0.361  -2.513   5.471  1.00  0.00    -0.000 C 
BRANCH  21  22
ATOM     22  C   UNL     1       0.393  -3.428   4.234  1.00  0.00    -0.000 C 
BRANCH  22  23
ATOM     23  C   UNL     1      -0.922  -4.199   4.026  1.00  0.00    -0.000 C 
BRANCH  23  24
ATOM     24  C   UNL     1      -2.020  -3.337   3.383  1.00  0.00    -0.000 C 
BRANCH  24  25
ATOM     25  C   UNL     1      -3.314  -3.319   4.209  1.00  0.00    -0.003 C 
ATOM     26  C   UNL     1      -4.278  -4.407   3.745  1.00  0.00     0.004 C 
ENDBRANCH  24  25
ENDBRANCH  23  24
ENDBRANCH  22  23
ENDBRANCH  21  22
ENDBRANCH  20  21
ENDBRANCH  19  20
ENDBRANCH  18  19
ENDBRANCH  17  18
ENDBRANCH  16  17
ENDBRANCH  15  16
ENDBRANCH   1  15
TORSDOF 22
ENDMDL
MODEL 6
REMARK VINA RESULT:    -3.037     11.032     13.663
REMARK INTER + INTRA:         -10.320
REMARK INTER:                  -7.140
REMARK INTRA:                  -3.179
REMARK UNBOUND:                -3.378
REMARK SMILES CCCCCCCCCCCCCCCCCCCCCCCC(=O)[O-]
REMARK SMILES IDX 13 1 14 2 15 3 16 4 17 5 18 6 19 7 20 8 21 9 22 10 23 11
REMARK SMILES IDX 24 12 25 13 26 14 12 15 11 16 10 17 9 18 8 19 7 20 6 21 5 22
REMARK SMILES IDX 4 23 3 24 2 25 1 26
REMARK H PARENT
REMARK Flexibility Score: inf
ROOT
ATOM      1  C   UNL     1       4.399   5.793   3.554  1.00  0.00     0.000 C 
ENDROOT
BRANCH   1   2
ATOM      2  C   UNL     1       3.942   4.690   2.582  1.00  0.00     0.000 C 
BRANCH   2   3
ATOM      3  C   UNL     1       3.659   3.319   3.226  1.00  0.00     0.000 C 
BRANCH   3   4
ATOM      4  C   UNL     1       2.224   3.190   3.763  1.00  0.00     0.000 C 
BRANCH   4   5
ATOM      5  C   UNL     1       2.144   2.353   5.052  1.00  0.00     0.000 C 
BRANCH   5   6
ATOM      6  C   UNL     1       1.837   3.154   6.333  1.00  0.00     0.000 C 
BRANCH   6   7
ATOM      7  C   UNL     1       2.773   4.349   6.605  1.00  0.00     0.000 C 
BRANCH   7   8
ATOM      8  C   UNL     1       4.204   3.977   7.038  1.00  0.00     0.000 C 
BRANCH   8   9
ATOM      9  C   UNL     1       4.247   2.767   7.988  1.00  0.00     0.000 C 
BRANCH   9  10
ATOM     10  C   UNL     1       5.359   1.765   7.624  1.00  0.00     0.006 C 
BRANCH  10  11
ATOM     11  C   UNL     1       4.883   0.560   6.797  1.00  0.00     0.053 C 
BRANCH  11  12
ATOM     12  C   UNL     1       3.868  -0.262   7.530  1.00  0.00     0.041 C 
ATOM     13  O   UNL     1       2.763  -0.533   6.990  1.00  0.00    -0.550 OA
ATOM     14  O   UNL     1       4.157  -0.759   8.794  1.00  0.00    -0.550 OA
ENDBRANCH  11  12
ENDBRANCH  10  11
ENDBRANCH   9  10
ENDBRANCH   8   9
ENDBRANCH   7   8
ENDBRANCH   6   7
ENDBRANCH   5   6
ENDBRANCH   4   5
ENDBRANCH   3   4
ENDBRANCH   2   3
ENDBRANCH   1   2
BRANCH   1  15
ATOM     15  C   UNL     1       3.284   6.792   3.900  1.00  0.00     0.000 C 
BRANCH  15  16
ATOM     16  C   UNL     1       2.345   7.000   2.704  1.00  0.00     0.000 C 
BRANCH  16  17
ATOM     17  C   UNL     1       0.866   7.077   3.116  1.00  0.00     0.000 C 
BRANCH  17  18
ATOM     18  C   UNL     1       0.561   6.266   4.384  1.00  0.00    -0.000 C 
BRANCH  18  19
ATOM     19  C   UNL     1      -0.759   5.499   4.246  1.00  0.00    -0.000 C 
BRANCH  19  20
ATOM     20  C   UNL     1      -1.865   6.406   3.686  1.00  0.00    -0.000 C 
BRANCH  20  21
ATOM     21  C   UNL     1      -2.800   5.678   2.703  1.00  0.00    -0.000 C 
BRANCH  21  22
ATOM     22  C   UNL     1      -2.489   5.914   1.215  1.00  0.00    -0.000 C 
BRANCH  22  23
ATOM     23  C   UNL     1      -2.541   4.624   0.379  1.00  0.00    -0.000 C 
BRANCH  23  24
ATOM     24  C   UNL     1      -2.378   4.885  -1.126  1.00  0.00    -0.000 C 
BRANCH  24  25
ATOM     25  C   UNL     1      -3.515   5.742  -1.702  1.00  0.00    -0.003 C 
ATOM     26  C   UNL     1      -4.360   4.942  -2.689  1.00  0.00     0.004 C 
ENDBRANCH  24  25
ENDBRANCH  23  24
ENDBRANCH  22  23
ENDBRANCH  21  22
ENDBRANCH  20  21
ENDBRANCH  19  20
ENDBRANCH  18  19
ENDBRANCH  17  18
ENDBRANCH  16  17
ENDBRANCH  15  16
ENDBRANCH   1  15
TORSDOF 22
ENDMDL
MODEL 7
REMARK VINA RESULT:    -3.035     10.536     14.015
REMARK INTER + INTRA:         -10.316
REMARK INTER:                  -6.872
REMARK INTRA:                  -3.444
REMARK UNBOUND:                -3.378
REMARK SMILES CCCCCCCCCCCCCCCCCCCCCCCC(=O)[O-]
REMARK SMILES IDX 13 1 14 2 15 3 16 4 17 5 18 6 19 7 20 8 21 9 22 10 23 11
REMARK SMILES IDX 24 12 25 13 26 14 12 15 11 16 10 17 9 18 8 19 7 20 6 21 5 22
REMARK SMILES IDX 4 23 3 24 2 25 1 26
REMARK H PARENT
REMARK Flexibility Score: inf
ROOT
ATOM      1  C   UNL     1       2.520  -0.275   9.388  1.00  0.00     0.000 C 
ENDROOT
BRANCH   1   2
ATOM      2  C   UNL     1       0.981  -0.228   9.385  1.00  0.00     0.000 C 
BRANCH   2   3
ATOM      3  C   UNL     1       0.363   1.111   8.941  1.00  0.00     0.000 C 
BRANCH   3   4
ATOM      4  C   UNL     1       1.228   1.863   7.916  1.00  0.00     0.000 C 
BRANCH   4   5
ATOM      5  C   UNL     1       0.676   1.762   6.483  1.00  0.00     0.000 C 
BRANCH   5   6
ATOM      6  C   UNL     1       1.068   0.481   5.720  1.00  0.00     0.000 C 
BRANCH   6   7
ATOM      7  C   UNL     1       0.058  -0.681   5.817  1.00  0.00     0.000 C 
BRANCH   7   8
ATOM      8  C   UNL     1       0.679  -2.090   5.843  1.00  0.00     0.000 C 
BRANCH   8   9
ATOM      9  C   UNL     1       0.249  -2.956   4.645  1.00  0.00     0.000 C 
BRANCH   9  10
ATOM     10  C   UNL     1      -1.277  -3.148   4.567  1.00  0.00     0.006 C 
BRANCH  10  11
ATOM     11  C   UNL     1      -1.722  -4.394   3.785  1.00  0.00     0.053 C 
BRANCH  11  12
ATOM     12  C   UNL     1      -3.100  -4.242   3.219  1.00  0.00     0.041 C 
ATOM     13  O   UNL     1      -3.595  -5.152   2.503  1.00  0.00    -0.550 OA
ATOM     14  O   UNL     1      -3.852  -3.111   3.513  1.00  0.00    -0.550 OA
ENDBRANCH  11  12
ENDBRANCH  10  11
ENDBRANCH   9  10
ENDBRANCH   8   9
ENDBRANCH   7   8
ENDBRANCH   6   7
ENDBRANCH   5   6
ENDBRANCH   4   5
ENDBRANCH   3   4
ENDBRANCH   2   3
ENDBRANCH   1   2
BRANCH   1  15
ATOM     15  C   UNL     1       3.091  -1.419   8.537  1.00  0.00     0.000 C 
BRANCH  15  16
ATOM     16  C   UNL     1       4.012  -0.875   7.437  1.00  0.00     0.000 C 
BRANCH  16  17
ATOM     17  C   UNL     1       4.636   0.483   7.801  1.00  0.00     0.000 C 
BRANCH  17  18
ATOM     18  C   UNL     1       4.705   1.443   6.605  1.00  0.00    -0.000 C 
BRANCH  18  19
ATOM     19  C   UNL     1       4.607   2.903   7.063  1.00  0.00    -0.000 C 
BRANCH  19  20
ATOM     20  C   UNL     1       3.960   3.778   5.979  1.00  0.00    -0.000 C 
BRANCH  20  21
ATOM     21  C   UNL     1       3.685   3.012   4.673  1.00  0.00    -0.000 C 
BRANCH  21  22
ATOM     22  C   UNL     1       3.035   3.846   3.555  1.00  0.00    -0.000 C 
BRANCH  22  23
ATOM     23  C   UNL     1       4.054   4.371   2.529  1.00  0.00    -0.000 C 
BRANCH  23  24
ATOM     24  C   UNL     1       4.300   5.882   2.656  1.00  0.00    -0.000 C 
BRANCH  24  25
ATOM     25  C   UNL     1       5.725   6.211   3.123  1.00  0.00    -0.003 C 
ATOM     26  C   UNL     1       5.727   6.719   4.562  1.00  0.00     0.004 C 
ENDBRANCH  24  25
ENDBRANCH  23  24
ENDBRANCH  22  23
ENDBRANCH  21  22
ENDBRANCH  20  21
ENDBRANCH  19  20
ENDBRANCH  18  19
ENDBRANCH  17  18
ENDBRANCH  16  17
ENDBRANCH  15  16
ENDBRANCH   1  15
TORSDOF 22
ENDMDL
MODEL 8
REMARK VINA RESULT:    -3.020      3.042      6.910
REMARK INTER + INTRA:         -10.283
REMARK INTER:                  -6.432
REMARK INTRA:                  -3.850
REMARK UNBOUND:                -3.378
REMARK SMILES CCCCCCCCCCCCCCCCCCCCCCCC(=O)[O-]
REMARK SMILES IDX 13 1 14 2 15 3 16 4 17 5 18 6 19 7 20 8 21 9 22 10 23 11
REMARK SMILES IDX 24 12 25 13 26 14 12 15 11 16 10 17 9 18 8 19 7 20 6 21 5 22
REMARK SMILES IDX 4 23 3 24 2 25 1 26
REMARK H PARENT
REMARK Flexibility Score: inf
ROOT
ATOM      1  C   UNL     1       7.311  -4.254  -4.933  1.00  0.00     0.000 C 
ENDROOT
BRANCH   1   2
ATOM      2  C   UNL     1       6.303  -3.402  -4.140  1.00  0.00     0.000 C 
BRANCH   2   3
ATOM      3  C   UNL     1       5.778  -2.152  -4.872  1.00  0.00     0.000 C 
BRANCH   3   4
ATOM      4  C   UNL     1       4.459  -2.403  -5.621  1.00  0.00     0.000 C 
BRANCH   4   5
ATOM      5  C   UNL     1       4.677  -2.790  -7.095  1.00  0.00     0.000 C 
BRANCH   5   6
ATOM      6  C   UNL     1       4.212  -4.212  -7.472  1.00  0.00     0.000 C 
BRANCH   6   7
ATOM      7  C   UNL     1       3.933  -5.152  -6.281  1.00  0.00     0.000 C 
BRANCH   7   8
ATOM      8  C   UNL     1       2.448  -5.477  -6.035  1.00  0.00     0.000 C 
BRANCH   8   9
ATOM      9  C   UNL     1       1.954  -5.016  -4.653  1.00  0.00     0.000 C 
BRANCH   9  10
ATOM     10  C   UNL     1       3.038  -5.130  -3.565  1.00  0.00     0.006 C 
BRANCH  10  11
ATOM     11  C   UNL     1       2.944  -6.399  -2.704  1.00  0.00     0.053 C 
BRANCH  11  12
ATOM     12  C   UNL     1       4.151  -6.585  -1.839  1.00  0.00     0.041 C 
ATOM     13  O   UNL     1       5.299  -6.637  -2.355  1.00  0.00    -0.550 OA
ATOM     14  O   UNL     1       4.013  -6.664  -0.459  1.00  0.00    -0.550 OA
ENDBRANCH  11  12
ENDBRANCH  10  11
ENDBRANCH   9  10
ENDBRANCH   8   9
ENDBRANCH   7   8
ENDBRANCH   6   7
ENDBRANCH   5   6
ENDBRANCH   4   5
ENDBRANCH   3   4
ENDBRANCH   2   3
ENDBRANCH   1   2
BRANCH   1  15
ATOM     15  C   UNL     1       8.510  -3.445  -5.451  1.00  0.00     0.000 C 
BRANCH  15  16
ATOM     16  C   UNL     1       8.453  -3.302  -6.979  1.00  0.00     0.000 C 
BRANCH  16  17
ATOM     17  C   UNL     1       8.447  -1.835  -7.439  1.00  0.00     0.000 C 
BRANCH  17  18
ATOM     18  C   UNL     1       8.981  -0.875  -6.365  1.00  0.00    -0.000 C 
BRANCH  18  19
ATOM     19  C   UNL     1       8.237   0.465  -6.403  1.00  0.00    -0.000 C 
BRANCH  19  20
ATOM     20  C   UNL     1       6.833   0.298  -7.003  1.00  0.00    -0.000 C 
BRANCH  20  21
ATOM     21  C   UNL     1       5.861   1.413  -6.579  1.00  0.00    -0.000 C 
BRANCH  21  22
ATOM     22  C   UNL     1       4.551   1.472  -7.384  1.00  0.00    -0.000 C 
BRANCH  22  23
ATOM     23  C   UNL     1       3.302   1.237  -6.516  1.00  0.00    -0.000 C 
BRANCH  23  24
ATOM     24  C   UNL     1       3.636   1.102  -5.022  1.00  0.00    -0.000 C 
BRANCH  24  25
ATOM     25  C   UNL     1       2.879   2.117  -4.154  1.00  0.00    -0.003 C 
ATOM     26  C   UNL     1       2.848   3.491  -4.817  1.00  0.00     0.004 C 
ENDBRANCH  24  25
ENDBRANCH  23  24
ENDBRANCH  22  23
ENDBRANCH  21  22
ENDBRANCH  20  21
ENDBRANCH  19  20
ENDBRANCH  18  19
ENDBRANCH  17  18
ENDBRANCH  16  17
ENDBRANCH  15  16
ENDBRANCH   1  15
TORSDOF 22
ENDMDL
MODEL 9
REMARK VINA RESULT:    -2.986     11.635     14.240
REMARK INTER + INTRA:         -10.203
REMARK INTER:                  -6.167
REMARK INTRA:                  -4.037
REMARK UNBOUND:                -3.378
REMARK SMILES CCCCCCCCCCCCCCCCCCCCCCCC(=O)[O-]
REMARK SMILES IDX 13 1 14 2 15 3 16 4 17 5 18 6 19 7 20 8 21 9 22 10 23 11
REMARK SMILES IDX 24 12 25 13 26 14 12 15 11 16 10 17 9 18 8 19 7 20 6 21 5 22
REMARK SMILES IDX 4 23 3 24 2 25 1 26
REMARK H PARENT
REMARK Flexibility Score: inf
ROOT
ATOM      1  C   UNL     1       0.190  -4.557   5.177  1.00  0.00     0.000 C 
ENDROOT
BRANCH   1   2
ATOM      2  C   UNL     1       0.152  -6.097   5.187  1.00  0.00     0.000 C 
BRANCH   2   3
ATOM      3  C   UNL     1      -0.734  -6.741   4.104  1.00  0.00     0.000 C 
BRANCH   3   4
ATOM      4  C   UNL     1      -2.125  -7.142   4.622  1.00  0.00     0.000 C 
BRANCH   4   5
ATOM      5  C   UNL     1      -3.183  -7.196   3.506  1.00  0.00     0.000 C 
BRANCH   5   6
ATOM      6  C   UNL     1      -2.650  -6.915   2.086  1.00  0.00     0.000 C 
BRANCH   6   7
ATOM      7  C   UNL     1      -3.640  -6.210   1.137  1.00  0.00     0.000 C 
BRANCH   7   8
ATOM      8  C   UNL     1      -4.940  -6.985   0.851  1.00  0.00     0.000 C 
BRANCH   8   9
ATOM      9  C   UNL     1      -6.186  -6.307   1.447  1.00  0.00     0.000 C 
BRANCH   9  10
ATOM     10  C   UNL     1      -5.859  -4.981   2.158  1.00  0.00     0.006 C 
BRANCH  10  11
ATOM     11  C   UNL     1      -7.089  -4.206   2.656  1.00  0.00     0.053 C 
BRANCH  11  12
ATOM     12  C   UNL     1      -7.183  -4.196   4.150  1.00  0.00     0.041 C 
ATOM     13  O   UNL     1      -7.217  -5.280   4.791  1.00  0.00    -0.550 OA
ATOM     14  O   UNL     1      -7.195  -2.989   4.839  1.00  0.00    -0.550 OA
ENDBRANCH  11  12
ENDBRANCH  10  11
ENDBRANCH   9  10
ENDBRANCH   8   9
ENDBRANCH   7   8
ENDBRANCH   6   7
ENDBRANCH   5   6
ENDBRANCH   4   5
ENDBRANCH   3   4
ENDBRANCH   2   3
ENDBRANCH   1   2
BRANCH   1  15
ATOM     15  C   UNL     1      -0.057  -3.957   3.784  1.00  0.00     0.000 C 
BRANCH  15  16
ATOM     16  C   UNL     1      -1.191  -2.923   3.828  1.00  0.00     0.000 C 
BRANCH  16  17
ATOM     17  C   UNL     1      -2.539  -3.499   3.362  1.00  0.00     0.000 C 
BRANCH  17  18
ATOM     18  C   UNL     1      -3.693  -3.150   4.313  1.00  0.00    -0.000 C 
BRANCH  18  19
ATOM     19  C   UNL     1      -3.572  -3.919   5.634  1.00  0.00    -0.000 C 
BRANCH  19  20
ATOM     20  C   UNL     1      -3.448  -2.954   6.823  1.00  0.00    -0.000 C 
BRANCH  20  21
ATOM     21  C   UNL     1      -4.179  -1.619   6.592  1.00  0.00    -0.000 C 
BRANCH  21  22
ATOM     22  C   UNL     1      -3.526  -0.398   7.263  1.00  0.00    -0.000 C 
BRANCH  22  23
ATOM     23  C   UNL     1      -2.130  -0.702   7.834  1.00  0.00    -0.000 C 
BRANCH  23  24
ATOM     24  C   UNL     1      -1.019   0.107   7.146  1.00  0.00    -0.000 C 
BRANCH  24  25
ATOM     25  C   UNL     1       0.106  -0.783   6.599  1.00  0.00    -0.003 C 
ATOM     26  C   UNL     1       0.676  -0.213   5.303  1.00  0.00     0.004 C 
ENDBRANCH  24  25
ENDBRANCH  23  24
ENDBRANCH  22  23
ENDBRANCH  21  22
ENDBRANCH  20  21
ENDBRANCH  19  20
ENDBRANCH  18  19
ENDBRANCH  17  18
ENDBRANCH  16  17
ENDBRANCH  15  16
ENDBRANCH   1  15
TORSDOF 22
ENDMDL
