MODEL 1
REMARK VINA RESULT:    -5.593      0.000      0.000
REMARK INTER + INTRA:          -7.262
REMARK INTER:                  -7.881
REMARK INTRA:                   0.620
REMARK UNBOUND:                 0.620
REMARK SMILES CC1=CCC(=C(C)C)C(=O)CC(C)=CCC1
REMARK SMILES IDX 12 1 14 2 13 3 15 4 16 5 2 6 1 7 3 8 11 10 9 11 10 12 5 13
REMARK SMILES IDX 6 14 7 15 8 16 4 17
REMARK H PARENT
REMARK Flexibility Score: 60.00
ROOT
ATOM      1  C   UNL     1     102.871 132.151  51.212  1.00  0.00    -0.070 C 
ATOM      2  C   UNL     1     101.829 131.382  51.596  1.00  0.00    -0.027 C 
ATOM      3  C   UNL     1     103.235 132.166  49.748  1.00  0.00     0.039 C 
ENDROOT
BRANCH   2   4
ATOM      4  C   UNL     1     101.253 131.310  52.994  1.00  0.00     0.032 C 
BRANCH   4   5
ATOM      5  C   UNL     1      99.772 131.726  53.106  1.00  0.00     0.034 C 
BRANCH   5   6
ATOM      6  C   UNL     1      99.583 133.107  53.708  1.00  0.00    -0.077 C 
ATOM      7  C   UNL     1      99.083 133.191  55.128  1.00  0.00     0.039 C 
ATOM      8  C   UNL     1      99.900 134.265  53.078  1.00  0.00    -0.023 CG0
ATOM      9  G   UNL     1     100.397 134.426  51.655  1.00  0.00     0.000 G0
ENDBRANCH   5   6
ENDBRANCH   4   5
ENDBRANCH   2   4
BRANCH   1  10
ATOM     10  C   UNL     1     103.624 133.064  52.158  1.00  0.00     0.111 C 
BRANCH  10  11
ATOM     11  C   UNL     1     102.806 134.271  52.534  1.00  0.00     0.163 C 
ATOM     12  O   UNL     1     102.997 134.789  53.667  1.00  0.00    -0.294 OA
BRANCH  11  13
ATOM     13  C   UNL     1     101.832 134.904  51.594  1.00  0.00    -0.002 C 
ATOM     14  C   UNL     1     102.250 135.813  50.663  1.00  0.00    -0.069 C 
ATOM     15  C   UNL     1     101.321 136.351  49.597  1.00  0.00     0.039 C 
ATOM     16  C   UNL     1     103.674 136.327  50.650  1.00  0.00     0.039 C 
BRANCH  13  17
ATOM     17  C   UNL     1     100.392 134.425  51.660  1.00  0.00     0.066 CG0
ATOM     18  G   UNL     1      99.902 134.265  53.086  1.00  0.00     0.000 G0
ENDBRANCH  13  17
ENDBRANCH  11  13
ENDBRANCH  10  11
ENDBRANCH   1  10
TORSDOF 0
ENDMDL
MODEL 2
REMARK VINA RESULT:    -5.003      1.601      3.944
REMARK INTER + INTRA:          -6.431
REMARK INTER:                  -6.575
REMARK INTRA:                   0.145
REMARK UNBOUND:                 0.620
REMARK SMILES CC1=CCC(=C(C)C)C(=O)CC(C)=CCC1
REMARK SMILES IDX 12 1 14 2 13 3 15 4 16 5 2 6 1 7 3 8 11 10 9 11 10 12 5 13
REMARK SMILES IDX 6 14 7 15 8 16 4 17
REMARK H PARENT
REMARK Flexibility Score: 60.00
ROOT
ATOM      1  C   UNL     1     102.243 131.490  52.152  1.00  0.00    -0.070 C 
ATOM      2  C   UNL     1     102.887 131.989  51.074  1.00  0.00    -0.027 C 
ATOM      3  C   UNL     1     102.835 130.279  52.829  1.00  0.00     0.039 C 
ENDROOT
BRANCH   2   4
ATOM      4  C   UNL     1     102.508 133.246  50.323  1.00  0.00     0.032 C 
BRANCH   4   5
ATOM      5  C   UNL     1     103.011 134.557  50.959  1.00  0.00     0.034 C 
BRANCH   5   6
ATOM      6  C   UNL     1     101.934 135.622  51.068  1.00  0.00    -0.077 C 
ATOM      7  C   UNL     1     101.426 136.239  49.788  1.00  0.00     0.039 C 
ATOM      8  C   UNL     1     101.351 136.003  52.231  1.00  0.00    -0.023 CG0
ATOM      9  G   UNL     1     101.708 135.538  53.628  1.00  0.00     0.000 G0
ENDBRANCH   5   6
ENDBRANCH   4   5
ENDBRANCH   2   4
BRANCH   1  10
ATOM     10  C   UNL     1     101.019 132.139  52.763  1.00  0.00     0.111 C 
BRANCH  10  11
ATOM     11  C   UNL     1     101.380 133.013  53.936  1.00  0.00     0.163 C 
ATOM     12  O   UNL     1     102.214 132.571  54.771  1.00  0.00    -0.294 OA
BRANCH  11  13
ATOM     13  C   UNL     1     100.835 134.394  54.104  1.00  0.00    -0.002 C 
ATOM     14  C   UNL     1      99.642 134.601  54.738  1.00  0.00    -0.069 C 
ATOM     15  C   UNL     1      99.140 135.990  55.065  1.00  0.00     0.039 C 
ATOM     16  C   UNL     1      98.759 133.442  55.150  1.00  0.00     0.039 C 
BRANCH  13  17
ATOM     17  C   UNL     1     101.704 135.547  53.629  1.00  0.00     0.066 CG0
ATOM     18  G   UNL     1     101.340 136.004  52.231  1.00  0.00     0.000 G0
ENDBRANCH  13  17
ENDBRANCH  11  13
ENDBRANCH  10  11
ENDBRANCH   1  10
TORSDOF 0
ENDMDL
MODEL 3
REMARK VINA RESULT:    -4.882      1.699      2.836
REMARK INTER + INTRA:          -6.260
REMARK INTER:                  -6.730
REMARK INTRA:                   0.470
REMARK UNBOUND:                 0.620
REMARK SMILES CC1=CCC(=C(C)C)C(=O)CC(C)=CCC1
REMARK SMILES IDX 12 1 14 2 13 3 15 4 16 5 2 6 1 7 3 8 11 10 9 11 10 12 5 13
REMARK SMILES IDX 6 14 7 15 8 16 4 17
REMARK H PARENT
REMARK Flexibility Score: 60.00
ROOT
ATOM      1  C   UNL     1     102.007 132.837  50.903  1.00  0.00    -0.070 C 
ATOM      2  C   UNL     1     100.993 131.993  51.193  1.00  0.00    -0.027 C 
ATOM      3  C   UNL     1     103.173 132.294  50.115  1.00  0.00     0.039 C 
ENDROOT
BRANCH   2   4
ATOM      4  C   UNL     1      99.700 132.370  51.884  1.00  0.00     0.032 C 
BRANCH   4   5
ATOM      5  C   UNL     1      99.578 131.881  53.341  1.00  0.00     0.034 C 
BRANCH   5   6
ATOM      6  C   UNL     1      99.949 132.943  54.361  1.00  0.00    -0.077 C 
ATOM      7  C   UNL     1      98.827 133.706  55.019  1.00  0.00     0.039 C 
ATOM      8  C   UNL     1     101.216 133.202  54.768  1.00  0.00    -0.023 CG0
ATOM      9  G   UNL     1     102.493 132.579  54.239  1.00  0.00     0.000 G0
ENDBRANCH   5   6
ENDBRANCH   4   5
ENDBRANCH   2   4
BRANCH   1  10
ATOM     10  C   UNL     1     101.985 134.312  51.246  1.00  0.00     0.111 C 
BRANCH  10  11
ATOM     11  C   UNL     1     102.557 134.573  52.614  1.00  0.00     0.163 C 
ATOM     12  O   UNL     1     102.343 135.697  53.143  1.00  0.00    -0.294 OA
BRANCH  11  13
ATOM     13  C   UNL     1     103.308 133.534  53.381  1.00  0.00    -0.002 C 
ATOM     14  C   UNL     1     104.675 133.510  53.371  1.00  0.00    -0.069 C 
ATOM     15  C   UNL     1     105.465 132.575  54.259  1.00  0.00     0.039 C 
ATOM     16  C   UNL     1     105.470 134.429  52.468  1.00  0.00     0.039 C 
BRANCH  13  17
ATOM     17  C   UNL     1     102.494 132.577  54.235  1.00  0.00     0.066 CG0
ATOM     18  G   UNL     1     101.230 133.217  54.774  1.00  0.00     0.000 G0
ENDBRANCH  13  17
ENDBRANCH  11  13
ENDBRANCH  10  11
ENDBRANCH   1  10
TORSDOF 0
ENDMDL
MODEL 4
REMARK VINA RESULT:    -4.852      2.358      4.951
REMARK INTER + INTRA:          -6.218
REMARK INTER:                  -6.605
REMARK INTRA:                   0.386
REMARK UNBOUND:                 0.620
REMARK SMILES CC1=CCC(=C(C)C)C(=O)CC(C)=CCC1
REMARK SMILES IDX 12 1 14 2 13 3 15 4 16 5 2 6 1 7 3 8 11 10 9 11 10 12 5 13
REMARK SMILES IDX 6 14 7 15 8 16 4 17
REMARK H PARENT
REMARK Flexibility Score: 60.00
ROOT
ATOM      1  C   UNL     1     101.671 134.909  50.317  1.00  0.00    -0.070 C 
ATOM      2  C   UNL     1     102.387 136.046  50.460  1.00  0.00    -0.027 C 
ATOM      3  C   UNL     1     100.277 135.020  49.750  1.00  0.00     0.039 C 
ENDROOT
BRANCH   2   4
ATOM      4  C   UNL     1     103.828 136.130  50.916  1.00  0.00     0.032 C 
BRANCH   4   5
ATOM      5  C   UNL     1     104.016 136.367  52.428  1.00  0.00     0.034 C 
BRANCH   5   6
ATOM      6  C   UNL     1     104.879 135.311  53.095  1.00  0.00    -0.077 C 
ATOM      7  C   UNL     1     106.375 135.499  53.054  1.00  0.00     0.039 C 
ATOM      8  C   UNL     1     104.392 134.250  53.784  1.00  0.00    -0.023 CG0
ATOM      9  G   UNL     1     102.939 133.852  53.944  1.00  0.00     0.000 G0
ENDBRANCH   5   6
ENDBRANCH   4   5
ENDBRANCH   2   4
BRANCH   1  10
ATOM     10  C   UNL     1     102.230 133.532  50.608  1.00  0.00     0.111 C 
BRANCH  10  11
ATOM     11  C   UNL     1     101.681 132.969  51.893  1.00  0.00     0.163 C 
ATOM     12  O   UNL     1     100.452 132.693  51.943  1.00  0.00    -0.294 OA
BRANCH  11  13
ATOM     13  C   UNL     1     102.547 132.673  53.073  1.00  0.00    -0.002 C 
ATOM     14  C   UNL     1     103.030 131.412  53.287  1.00  0.00    -0.069 C 
ATOM     15  C   UNL     1     104.034 131.115  54.379  1.00  0.00     0.039 C 
ATOM     16  C   UNL     1     102.583 130.245  52.434  1.00  0.00     0.039 C 
BRANCH  13  17
ATOM     17  C   UNL     1     102.938 133.845  53.959  1.00  0.00     0.066 CG0
ATOM     18  G   UNL     1     104.392 134.239  53.786  1.00  0.00     0.000 G0
ENDBRANCH  13  17
ENDBRANCH  11  13
ENDBRANCH  10  11
ENDBRANCH   1  10
TORSDOF 0
ENDMDL
MODEL 5
REMARK VINA RESULT:    -4.833      1.695      2.164
REMARK INTER + INTRA:          -6.191
REMARK INTER:                  -6.338
REMARK INTRA:                   0.147
REMARK UNBOUND:                 0.620
REMARK SMILES CC1=CCC(=C(C)C)C(=O)CC(C)=CCC1
REMARK SMILES IDX 12 1 14 2 13 3 15 4 16 5 2 6 1 7 3 8 11 10 9 11 10 12 5 13
REMARK SMILES IDX 6 14 7 15 8 16 4 17
REMARK H PARENT
REMARK Flexibility Score: 60.00
ROOT
ATOM      1  C   UNL     1     102.259 131.737  51.390  1.00  0.00    -0.070 C 
ATOM      2  C   UNL     1     100.964 131.393  51.568  1.00  0.00    -0.027 C 
ATOM      3  C   UNL     1     102.915 131.361  50.085  1.00  0.00     0.039 C 
ENDROOT
BRANCH   2   4
ATOM      4  C   UNL     1     100.108 131.764  52.759  1.00  0.00     0.032 C 
BRANCH   4   5
ATOM      5  C   UNL     1      99.458 133.161  52.680  1.00  0.00     0.034 C 
BRANCH   5   6
ATOM      6  C   UNL     1      99.672 133.991  53.934  1.00  0.00    -0.077 C 
ATOM      7  C   UNL     1      98.926 133.584  55.180  1.00  0.00     0.039 C 
ATOM      8  C   UNL     1     100.540 135.028  54.024  1.00  0.00    -0.023 CG0
ATOM      9  G   UNL     1     101.376 135.622  52.908  1.00  0.00     0.000 G0
ENDBRANCH   5   6
ENDBRANCH   4   5
ENDBRANCH   2   4
BRANCH   1  10
ATOM     10  C   UNL     1     103.047 132.556  52.391  1.00  0.00     0.111 C 
BRANCH  10  11
ATOM     11  C   UNL     1     103.144 134.000  51.974  1.00  0.00     0.163 C 
ATOM     12  O   UNL     1     103.470 134.253  50.783  1.00  0.00    -0.294 OA
BRANCH  11  13
ATOM     13  C   UNL     1     102.811 135.125  52.898  1.00  0.00    -0.002 C 
ATOM     14  C   UNL     1     103.786 135.732  53.640  1.00  0.00    -0.069 C 
ATOM     15  C   UNL     1     103.511 136.972  54.461  1.00  0.00     0.039 C 
ATOM     16  C   UNL     1     105.199 135.190  53.673  1.00  0.00     0.039 C 
BRANCH  13  17
ATOM     17  C   UNL     1     101.374 135.619  52.902  1.00  0.00     0.066 CG0
ATOM     18  G   UNL     1     100.556 135.004  54.020  1.00  0.00     0.000 G0
ENDBRANCH  13  17
ENDBRANCH  11  13
ENDBRANCH  10  11
ENDBRANCH   1  10
TORSDOF 0
ENDMDL
MODEL 6
REMARK VINA RESULT:    -4.829      2.024      4.491
REMARK INTER + INTRA:          -6.185
REMARK INTER:                  -6.586
REMARK INTRA:                   0.401
REMARK UNBOUND:                 0.620
REMARK SMILES CC1=CCC(=C(C)C)C(=O)CC(C)=CCC1
REMARK SMILES IDX 12 1 14 2 13 3 15 4 16 5 2 6 1 7 3 8 11 10 9 11 10 12 5 13
REMARK SMILES IDX 6 14 7 15 8 16 4 17
REMARK H PARENT
REMARK Flexibility Score: 60.00
ROOT
ATOM      1  C   UNL     1     100.735 133.049  51.255  1.00  0.00    -0.070 C 
ATOM      2  C   UNL     1     101.829 133.575  50.662  1.00  0.00    -0.027 C 
ATOM      3  C   UNL     1      99.446 133.828  51.173  1.00  0.00     0.039 C 
ENDROOT
BRANCH   2   4
ATOM      4  C   UNL     1     103.181 132.904  50.551  1.00  0.00     0.032 C 
BRANCH   4   5
ATOM      5  C   UNL     1     104.291 133.537  51.415  1.00  0.00     0.034 C 
BRANCH   5   6
ATOM      6  C   UNL     1     103.808 134.718  52.238  1.00  0.00    -0.077 C 
ATOM      7  C   UNL     1     103.872 136.086  51.606  1.00  0.00     0.039 C 
ATOM      8  C   UNL     1     103.259 134.615  53.473  1.00  0.00    -0.023 CG0
ATOM      9  G   UNL     1     103.109 133.358  54.306  1.00  0.00     0.000 G0
ENDBRANCH   5   6
ENDBRANCH   4   5
ENDBRANCH   2   4
BRANCH   1  10
ATOM     10  C   UNL     1     100.720 131.683  51.911  1.00  0.00     0.111 C 
BRANCH  10  11
ATOM     11  C   UNL     1     101.660 131.620  53.085  1.00  0.00     0.163 C 
ATOM     12  O   UNL     1     102.440 130.634  53.169  1.00  0.00    -0.294 OA
BRANCH  11  13
ATOM     13  C   UNL     1     101.739 132.706  54.108  1.00  0.00    -0.002 C 
ATOM     14  C   UNL     1     100.654 133.020  54.880  1.00  0.00    -0.069 C 
ATOM     15  C   UNL     1     100.746 134.000  56.028  1.00  0.00     0.039 C 
ATOM     16  C   UNL     1      99.301 132.393  54.623  1.00  0.00     0.039 C 
BRANCH  13  17
ATOM     17  C   UNL     1     103.089 133.372  54.313  1.00  0.00     0.066 CG0
ATOM     18  G   UNL     1     103.248 134.625  53.474  1.00  0.00     0.000 G0
ENDBRANCH  13  17
ENDBRANCH  11  13
ENDBRANCH  10  11
ENDBRANCH   1  10
TORSDOF 0
ENDMDL
MODEL 7
REMARK VINA RESULT:    -4.743      2.078      3.200
REMARK INTER + INTRA:          -6.064
REMARK INTER:                  -6.529
REMARK INTRA:                   0.464
REMARK UNBOUND:                 0.620
REMARK SMILES CC1=CCC(=C(C)C)C(=O)CC(C)=CCC1
REMARK SMILES IDX 12 1 14 2 13 3 15 4 16 5 2 6 1 7 3 8 11 10 9 11 10 12 5 13
REMARK SMILES IDX 6 14 7 15 8 16 4 17
REMARK H PARENT
REMARK Flexibility Score: 60.00
ROOT
ATOM      1  C   UNL     1     102.171 131.128  51.344  1.00  0.00    -0.070 C 
ATOM      2  C   UNL     1     103.152 130.650  52.142  1.00  0.00    -0.027 C 
ATOM      3  C   UNL     1     102.504 131.392  49.897  1.00  0.00     0.039 C 
ENDROOT
BRANCH   2   4
ATOM      4  C   UNL     1     102.990 130.234  53.587  1.00  0.00     0.032 C 
BRANCH   4   5
ATOM      5  C   UNL     1     103.239 131.355  54.616  1.00  0.00     0.034 C 
BRANCH   5   6
ATOM      6  C   UNL     1     103.961 132.555  54.030  1.00  0.00    -0.077 C 
ATOM      7  C   UNL     1     105.467 132.505  53.965  1.00  0.00     0.039 C 
ATOM      8  C   UNL     1     103.339 133.635  53.498  1.00  0.00    -0.023 CG0
ATOM      9  G   UNL     1     101.849 133.910  53.467  1.00  0.00     0.000 G0
ENDBRANCH   5   6
ENDBRANCH   4   5
ENDBRANCH   2   4
BRANCH   1  10
ATOM     10  C   UNL     1     100.742 131.320  51.808  1.00  0.00     0.111 C 
BRANCH  10  11
ATOM     11  C   UNL     1     100.327 132.767  51.747  1.00  0.00     0.163 C 
ATOM     12  O   UNL     1      99.129 133.029  51.457  1.00  0.00    -0.294 OA
BRANCH  11  13
ATOM     13  C   UNL     1     101.263 133.884  52.073  1.00  0.00    -0.002 C 
ATOM     14  C   UNL     1     101.519 134.871  51.162  1.00  0.00    -0.069 C 
ATOM     15  C   UNL     1     102.334 136.095  51.516  1.00  0.00     0.039 C 
ATOM     16  C   UNL     1     100.992 134.787  49.746  1.00  0.00     0.039 C 
BRANCH  13  17
ATOM     17  C   UNL     1     101.837 133.921  53.480  1.00  0.00     0.066 CG0
ATOM     18  G   UNL     1     103.327 133.648  53.503  1.00  0.00     0.000 G0
ENDBRANCH  13  17
ENDBRANCH  11  13
ENDBRANCH  10  11
ENDBRANCH   1  10
TORSDOF 0
ENDMDL
MODEL 8
REMARK VINA RESULT:    -4.727      2.119      4.347
REMARK INTER + INTRA:          -6.042
REMARK INTER:                  -6.355
REMARK INTRA:                   0.313
REMARK UNBOUND:                 0.620
REMARK SMILES CC1=CCC(=C(C)C)C(=O)CC(C)=CCC1
REMARK SMILES IDX 12 1 14 2 13 3 15 4 16 5 2 6 1 7 3 8 11 10 9 11 10 12 5 13
REMARK SMILES IDX 6 14 7 15 8 16 4 17
REMARK H PARENT
REMARK Flexibility Score: 60.00
ROOT
ATOM      1  C   UNL     1     102.368 134.850  50.493  1.00  0.00    -0.070 C 
ATOM      2  C   UNL     1     102.910 136.002  50.947  1.00  0.00    -0.027 C 
ATOM      3  C   UNL     1     101.027 134.924  49.806  1.00  0.00     0.039 C 
ENDROOT
BRANCH   2   4
ATOM      4  C   UNL     1     104.280 136.147  51.572  1.00  0.00     0.032 C 
BRANCH   4   5
ATOM      5  C   UNL     1     104.603 135.116  52.672  1.00  0.00     0.034 C 
BRANCH   5   6
ATOM      6  C   UNL     1     103.674 135.210  53.870  1.00  0.00    -0.077 C 
ATOM      7  C   UNL     1     103.591 136.532  54.591  1.00  0.00     0.039 C 
ATOM      8  C   UNL     1     102.865 134.207  54.290  1.00  0.00    -0.023 CG0
ATOM      9  G   UNL     1     102.791 132.798  53.736  1.00  0.00     0.000 G0
ENDBRANCH   5   6
ENDBRANCH   4   5
ENDBRANCH   2   4
BRANCH   1  10
ATOM     10  C   UNL     1     103.080 133.515  50.556  1.00  0.00     0.111 C 
BRANCH  10  11
ATOM     11  C   UNL     1     102.244 132.472  51.251  1.00  0.00     0.163 C 
ATOM     12  O   UNL     1     102.006 131.397  50.638  1.00  0.00    -0.294 OA
BRANCH  11  13
ATOM     13  C   UNL     1     101.747 132.644  52.649  1.00  0.00    -0.002 C 
ATOM     14  C   UNL     1     100.409 132.591  52.927  1.00  0.00    -0.069 C 
ATOM     15  C   UNL     1      99.885 132.603  54.345  1.00  0.00     0.039 C 
ATOM     16  C   UNL     1      99.380 132.514  51.819  1.00  0.00     0.039 C 
BRANCH  13  17
ATOM     17  C   UNL     1     102.790 132.784  53.746  1.00  0.00     0.066 CG0
ATOM     18  G   UNL     1     102.868 134.197  54.290  1.00  0.00     0.000 G0
ENDBRANCH  13  17
ENDBRANCH  11  13
ENDBRANCH  10  11
ENDBRANCH   1  10
TORSDOF 0
ENDMDL
MODEL 9
REMARK VINA RESULT:    -4.667      2.190      3.935
REMARK INTER + INTRA:          -5.957
REMARK INTER:                  -6.460
REMARK INTRA:                   0.503
REMARK UNBOUND:                 0.620
REMARK SMILES CC1=CCC(=C(C)C)C(=O)CC(C)=CCC1
REMARK SMILES IDX 12 1 14 2 13 3 15 4 16 5 2 6 1 7 3 8 11 10 9 11 10 12 5 13
REMARK SMILES IDX 6 14 7 15 8 16 4 17
REMARK H PARENT
REMARK Flexibility Score: 60.00
ROOT
ATOM      1  C   UNL     1     103.457 134.767  51.290  1.00  0.00    -0.070 C 
ATOM      2  C   UNL     1     104.407 134.861  52.247  1.00  0.00    -0.027 C 
ATOM      3  C   UNL     1     102.839 136.046  50.783  1.00  0.00     0.039 C 
ENDROOT
BRANCH   2   4
ATOM      4  C   UNL     1     105.209 133.708  52.810  1.00  0.00     0.032 C 
BRANCH   4   5
ATOM      5  C   UNL     1     104.868 133.332  54.266  1.00  0.00     0.034 C 
BRANCH   5   6
ATOM      6  C   UNL     1     103.961 132.119  54.373  1.00  0.00    -0.077 C 
ATOM      7  C   UNL     1     104.601 130.789  54.683  1.00  0.00     0.039 C 
ATOM      8  C   UNL     1     102.609 132.165  54.277  1.00  0.00    -0.023 CG0
ATOM      9  G   UNL     1     101.755 133.375  53.955  1.00  0.00     0.000 G0
ENDBRANCH   5   6
ENDBRANCH   4   5
ENDBRANCH   2   4
BRANCH   1  10
ATOM     10  C   UNL     1     103.056 133.458  50.643  1.00  0.00     0.111 C 
BRANCH  10  11
ATOM     11  C   UNL     1     102.066 132.700  51.488  1.00  0.00     0.163 C 
ATOM     12  O   UNL     1     101.992 131.451  51.340  1.00  0.00    -0.294 OA
BRANCH  11  13
ATOM     13  C   UNL     1     101.223 133.366  52.526  1.00  0.00    -0.002 C 
ATOM     14  C   UNL     1      99.991 133.868  52.210  1.00  0.00    -0.069 C 
ATOM     15  C   UNL     1      99.051 134.403  53.267  1.00  0.00     0.039 C 
ATOM     16  C   UNL     1      99.504 133.908  50.778  1.00  0.00     0.039 C 
BRANCH  13  17
ATOM     17  C   UNL     1     101.753 133.375  53.951  1.00  0.00     0.066 CG0
ATOM     18  G   UNL     1     102.611 132.163  54.254  1.00  0.00     0.000 G0
ENDBRANCH  13  17
ENDBRANCH  11  13
ENDBRANCH  10  11
ENDBRANCH   1  10
TORSDOF 0
ENDMDL
