MODEL 1
REMARK VINA RESULT:    -3.669      0.000      0.000
REMARK INTER + INTRA:          -5.936
REMARK INTER:                  -5.385
REMARK INTRA:                  -0.551
REMARK UNBOUND:                -0.551
REMARK SMILES O=C([O-])CCCCCCCC(=O)[O-]
REMARK SMILES IDX 7 1 6 2 5 3 4 4 2 5 1 6 3 7 8 8 9 9 10 10 11 11 12 12 13 13
REMARK H PARENT
REMARK Flexibility Score: inf
ROOT
ATOM      1  C   UNL     1      12.172  32.157 -10.958  1.00  0.00     0.000 C 
ENDROOT
BRANCH   1   2
ATOM      2  C   UNL     1      11.261  31.647  -9.827  1.00  0.00     0.000 C 
BRANCH   2   3
ATOM      3  C   UNL     1      10.603  30.280 -10.089  1.00  0.00     0.006 C 
BRANCH   3   4
ATOM      4  C   UNL     1      11.535  29.099  -9.791  1.00  0.00     0.053 C 
BRANCH   4   5
ATOM      5  C   UNL     1      11.504  28.763  -8.334  1.00  0.00     0.041 C 
ATOM      6  O   UNL     1      12.483  29.052  -7.596  1.00  0.00    -0.550 OA
ATOM      7  O   UNL     1      10.416  28.087  -7.798  1.00  0.00    -0.550 OA
ENDBRANCH   4   5
ENDBRANCH   3   4
ENDBRANCH   2   3
ENDBRANCH   1   2
BRANCH   1   8
ATOM      8  C   UNL     1      13.561  32.585 -10.464  1.00  0.00     0.000 C 
BRANCH   8   9
ATOM      9  C   UNL     1      13.975  31.782  -9.225  1.00  0.00     0.006 C 
BRANCH   9  10
ATOM     10  C   UNL     1      15.084  32.499  -8.450  1.00  0.00     0.053 C 
BRANCH  10  11
ATOM     11  C   UNL     1      16.255  32.768  -9.341  1.00  0.00     0.041 C 
ATOM     12  O   UNL     1      16.887  31.812  -9.864  1.00  0.00    -0.550 OA
ATOM     13  O   UNL     1      16.681  34.073  -9.557  1.00  0.00    -0.550 OA
ENDBRANCH  10  11
ENDBRANCH   9  10
ENDBRANCH   8   9
ENDBRANCH   1   8
TORSDOF 8
ENDMDL
MODEL 2
REMARK VINA RESULT:    -3.664      0.153      5.444
REMARK INTER + INTRA:          -5.928
REMARK INTER:                  -5.394
REMARK INTRA:                  -0.534
REMARK UNBOUND:                -0.551
REMARK SMILES O=C([O-])CCCCCCCC(=O)[O-]
REMARK SMILES IDX 7 1 6 2 5 3 4 4 2 5 1 6 3 7 8 8 9 9 10 10 11 11 12 12 13 13
REMARK H PARENT
REMARK Flexibility Score: inf
ROOT
ATOM      1  C   UNL     1      12.142  32.007 -10.928  1.00  0.00     0.000 C 
ENDROOT
BRANCH   1   2
ATOM      2  C   UNL     1      13.505  32.492 -10.401  1.00  0.00     0.000 C 
BRANCH   2   3
ATOM      3  C   UNL     1      14.016  31.759  -9.148  1.00  0.00     0.006 C 
BRANCH   3   4
ATOM      4  C   UNL     1      15.122  32.528  -8.414  1.00  0.00     0.053 C 
BRANCH   4   5
ATOM      5  C   UNL     1      16.263  32.811  -9.338  1.00  0.00     0.041 C 
ATOM      6  O   UNL     1      16.637  33.998  -9.539  1.00  0.00    -0.550 OA
ATOM      7  O   UNL     1      16.885  31.771 -10.017  1.00  0.00    -0.550 OA
ENDBRANCH   4   5
ENDBRANCH   3   4
ENDBRANCH   2   3
ENDBRANCH   1   2
BRANCH   1   8
ATOM      8  C   UNL     1      11.119  31.764  -9.809  1.00  0.00     0.000 C 
BRANCH   8   9
ATOM      9  C   UNL     1      10.426  30.407  -9.983  1.00  0.00     0.006 C 
BRANCH   9  10
ATOM     10  C   UNL     1      11.429  29.257  -9.853  1.00  0.00     0.053 C 
BRANCH  10  11
ATOM     11  C   UNL     1      11.462  28.747  -8.448  1.00  0.00     0.041 C 
ATOM     12  O   UNL     1      10.529  28.020  -8.015  1.00  0.00    -0.550 OA
ATOM     13  O   UNL     1      12.498  29.113  -7.598  1.00  0.00    -0.550 OA
ENDBRANCH  10  11
ENDBRANCH   9  10
ENDBRANCH   8   9
ENDBRANCH   1   8
TORSDOF 8
ENDMDL
MODEL 3
REMARK VINA RESULT:    -3.097      1.455      2.005
REMARK INTER + INTRA:          -5.097
REMARK INTER:                  -4.656
REMARK INTRA:                  -0.440
REMARK UNBOUND:                -0.551
REMARK SMILES O=C([O-])CCCCCCCC(=O)[O-]
REMARK SMILES IDX 7 1 6 2 5 3 4 4 2 5 1 6 3 7 8 8 9 9 10 10 11 11 12 12 13 13
REMARK H PARENT
REMARK Flexibility Score: inf
ROOT
ATOM      1  C   UNL     1      12.854  31.378  -9.641  1.00  0.00     0.000 C 
ENDROOT
BRANCH   1   2
ATOM      2  C   UNL     1      12.502  30.022  -9.003  1.00  0.00     0.000 C 
BRANCH   2   3
ATOM      3  C   UNL     1      11.824  29.015  -9.949  1.00  0.00     0.006 C 
BRANCH   3   4
ATOM      4  C   UNL     1      10.294  29.125  -9.944  1.00  0.00     0.053 C 
BRANCH   4   5
ATOM      5  C   UNL     1       9.777  29.161  -8.542  1.00  0.00     0.041 C 
ATOM      6  O   UNL     1       9.922  28.163  -7.787  1.00  0.00    -0.550 OA
ATOM      7  O   UNL     1       9.090  30.277  -8.081  1.00  0.00    -0.550 OA
ENDBRANCH   4   5
ENDBRANCH   3   4
ENDBRANCH   2   3
ENDBRANCH   1   2
BRANCH   1   8
ATOM      8  C   UNL     1      13.474  31.240 -11.039  1.00  0.00     0.000 C 
BRANCH   8   9
ATOM      9  C   UNL     1      14.871  31.870 -11.086  1.00  0.00     0.006 C 
BRANCH   9  10
ATOM     10  C   UNL     1      14.851  33.294 -10.523  1.00  0.00     0.053 C 
BRANCH  10  11
ATOM     11  C   UNL     1      15.993  33.500  -9.579  1.00  0.00     0.041 C 
ATOM     12  O   UNL     1      16.757  34.492  -9.714  1.00  0.00    -0.550 OA
ATOM     13  O   UNL     1      16.244  32.570  -8.578  1.00  0.00    -0.550 OA
ENDBRANCH  10  11
ENDBRANCH   9  10
ENDBRANCH   8   9
ENDBRANCH   1   8
TORSDOF 8
ENDMDL
MODEL 4
REMARK VINA RESULT:    -3.056     17.926     19.148
REMARK INTER + INTRA:          -5.036
REMARK INTER:                  -4.577
REMARK INTRA:                  -0.459
REMARK UNBOUND:                -0.551
REMARK SMILES O=C([O-])CCCCCCCC(=O)[O-]
REMARK SMILES IDX 7 1 6 2 5 3 4 4 2 5 1 6 3 7 8 8 9 9 10 10 11 11 12 12 13 13
REMARK H PARENT
REMARK Flexibility Score: inf
ROOT
ATOM      1  C   UNL     1      26.939  23.062  -2.345  1.00  0.00     0.000 C 
ENDROOT
BRANCH   1   2
ATOM      2  C   UNL     1      28.110  22.885  -3.328  1.00  0.00     0.000 C 
BRANCH   2   3
ATOM      3  C   UNL     1      28.730  21.476  -3.354  1.00  0.00     0.006 C 
BRANCH   3   4
ATOM      4  C   UNL     1      27.962  20.468  -2.488  1.00  0.00     0.053 C 
BRANCH   4   5
ATOM      5  C   UNL     1      28.366  19.070  -2.833  1.00  0.00     0.041 C 
ATOM      6  O   UNL     1      28.596  18.754  -4.030  1.00  0.00    -0.550 OA
ATOM      7  O   UNL     1      28.440  18.102  -1.840  1.00  0.00    -0.550 OA
ENDBRANCH   4   5
ENDBRANCH   3   4
ENDBRANCH   2   3
ENDBRANCH   1   2
BRANCH   1   8
ATOM      8  C   UNL     1      27.021  24.368  -1.542  1.00  0.00     0.000 C 
BRANCH   8   9
ATOM      9  C   UNL     1      28.449  24.927  -1.546  1.00  0.00     0.006 C 
BRANCH   9  10
ATOM     10  C   UNL     1      29.125  24.718  -0.188  1.00  0.00     0.053 C 
BRANCH  10  11
ATOM     11  C   UNL     1      28.775  25.831   0.748  1.00  0.00     0.041 C 
ATOM     12  O   UNL     1      28.843  27.028   0.363  1.00  0.00    -0.550 OA
ATOM     13  O   UNL     1      28.421  25.550   2.062  1.00  0.00    -0.550 OA
ENDBRANCH  10  11
ENDBRANCH   9  10
ENDBRANCH   8   9
ENDBRANCH   1   8
TORSDOF 8
ENDMDL
MODEL 5
REMARK VINA RESULT:    -3.009     18.320     19.679
REMARK INTER + INTRA:          -4.967
REMARK INTER:                  -4.700
REMARK INTRA:                  -0.268
REMARK UNBOUND:                -0.551
REMARK SMILES O=C([O-])CCCCCCCC(=O)[O-]
REMARK SMILES IDX 7 1 6 2 5 3 4 4 2 5 1 6 3 7 8 8 9 9 10 10 11 11 12 12 13 13
REMARK H PARENT
REMARK Flexibility Score: inf
ROOT
ATOM      1  C   UNL     1      27.723  21.596  -2.479  1.00  0.00     0.000 C 
ENDROOT
BRANCH   1   2
ATOM      2  C   UNL     1      28.319  20.568  -3.458  1.00  0.00     0.000 C 
BRANCH   2   3
ATOM      3  C   UNL     1      28.433  19.136  -2.906  1.00  0.00     0.006 C 
BRANCH   3   4
ATOM      4  C   UNL     1      28.128  19.046  -1.405  1.00  0.00     0.053 C 
BRANCH   4   5
ATOM      5  C   UNL     1      28.130  17.620  -0.956  1.00  0.00     0.041 C 
ATOM      6  O   UNL     1      29.125  16.883  -1.189  1.00  0.00    -0.550 OA
ATOM      7  O   UNL     1      27.014  17.088  -0.322  1.00  0.00    -0.550 OA
ENDBRANCH   4   5
ENDBRANCH   3   4
ENDBRANCH   2   3
ENDBRANCH   1   2
BRANCH   1   8
ATOM      8  C   UNL     1      27.994  23.049  -2.898  1.00  0.00     0.000 C 
BRANCH   8   9
ATOM      9  C   UNL     1      29.122  23.662  -2.059  1.00  0.00     0.006 C 
BRANCH   9  10
ATOM     10  C   UNL     1      28.759  25.078  -1.602  1.00  0.00     0.053 C 
BRANCH  10  11
ATOM     11  C   UNL     1      28.024  25.036  -0.300  1.00  0.00     0.041 C 
ATOM     12  O   UNL     1      26.802  24.733  -0.272  1.00  0.00    -0.550 OA
ATOM     13  O   UNL     1      28.675  25.379   0.878  1.00  0.00    -0.550 OA
ENDBRANCH  10  11
ENDBRANCH   9  10
ENDBRANCH   8   9
ENDBRANCH   1   8
TORSDOF 8
ENDMDL
MODEL 6
REMARK VINA RESULT:    -2.875     18.254     19.709
REMARK INTER + INTRA:          -4.770
REMARK INTER:                  -4.527
REMARK INTRA:                  -0.243
REMARK UNBOUND:                -0.551
REMARK SMILES O=C([O-])CCCCCCCC(=O)[O-]
REMARK SMILES IDX 7 1 6 2 5 3 4 4 2 5 1 6 3 7 8 8 9 9 10 10 11 11 12 12 13 13
REMARK H PARENT
REMARK Flexibility Score: inf
ROOT
ATOM      1  C   UNL     1      26.906  24.015  -1.516  1.00  0.00     0.000 C 
ENDROOT
BRANCH   1   2
ATOM      2  C   UNL     1      28.149  24.605  -0.826  1.00  0.00     0.000 C 
BRANCH   2   3
ATOM      3  C   UNL     1      27.864  25.383   0.472  1.00  0.00     0.006 C 
BRANCH   3   4
ATOM      4  C   UNL     1      29.120  26.027   1.072  1.00  0.00     0.053 C 
BRANCH   4   5
ATOM      5  C   UNL     1      29.065  25.987   2.566  1.00  0.00     0.041 C 
ATOM      6  O   UNL     1      29.009  27.058   3.227  1.00  0.00    -0.550 OA
ATOM      7  O   UNL     1      29.125  24.770   3.233  1.00  0.00    -0.550 OA
ENDBRANCH   4   5
ENDBRANCH   3   4
ENDBRANCH   2   3
ENDBRANCH   1   2
BRANCH   1   8
ATOM      8  C   UNL     1      27.246  23.208  -2.777  1.00  0.00     0.000 C 
BRANCH   8   9
ATOM      9  C   UNL     1      28.339  22.172  -2.489  1.00  0.00     0.006 C 
BRANCH   9  10
ATOM     10  C   UNL     1      28.511  21.212  -3.669  1.00  0.00     0.053 C 
BRANCH  10  11
ATOM     11  C   UNL     1      28.132  19.820  -3.272  1.00  0.00     0.041 C 
ATOM     12  O   UNL     1      27.668  19.593  -2.123  1.00  0.00    -0.550 OA
ATOM     13  O   UNL     1      28.335  18.765  -4.152  1.00  0.00    -0.550 OA
ENDBRANCH  10  11
ENDBRANCH   9  10
ENDBRANCH   8   9
ENDBRANCH   1   8
TORSDOF 8
ENDMDL
