MODEL 1
REMARK VINA RESULT:    -3.261      0.000      0.000
REMARK INTER + INTRA:          -3.471
REMARK INTER:                  -3.452
REMARK INTRA:                  -0.019
REMARK UNBOUND:                -0.019
REMARK SMILES O=C([O-])c1cccnc1
REMARK SMILES IDX 4 1 5 2 9 3 6 4 8 5 7 6 2 7 1 8 3 9
REMARK H PARENT
REMARK Flexibility Score: inf
ROOT
ATOM      1  C   UNL     1       4.256 -36.150  19.039  1.00  0.00     0.016 A 
ATOM      2  C   UNL     1       4.834 -34.908  18.729  1.00  0.00     0.013 A 
ATOM      3  C   UNL     1       4.646 -36.789  20.229  1.00  0.00     0.120 A 
ATOM      4  C   UNL     1       5.770 -34.335  19.591  1.00  0.00     0.021 A 
ATOM      5  N   UNL     1       5.561 -36.210  21.052  1.00  0.00    -0.264 NA
ATOM      6  C   UNL     1       6.125 -35.008  20.761  1.00  0.00     0.111 A 
ENDROOT
BRANCH   1   7
ATOM      7  C   UNL     1       3.262 -36.767  18.134  1.00  0.00     0.073 C 
ATOM      8  O   UNL     1       3.495 -36.867  16.900  1.00  0.00    -0.545 OA
ATOM      9  O   UNL     1       2.056 -37.244  18.635  1.00  0.00    -0.545 OA
ENDBRANCH   1   7
TORSDOF 1
ENDMDL
MODEL 2
REMARK VINA RESULT:    -3.242      0.924      1.601
REMARK INTER + INTRA:          -3.451
REMARK INTER:                  -3.431
REMARK INTRA:                  -0.020
REMARK UNBOUND:                -0.019
REMARK SMILES O=C([O-])c1cccnc1
REMARK SMILES IDX 4 1 5 2 9 3 6 4 8 5 7 6 2 7 1 8 3 9
REMARK H PARENT
REMARK Flexibility Score: inf
ROOT
ATOM      1  C   UNL     1       4.247 -36.103  19.028  1.00  0.00     0.016 A 
ATOM      2  C   UNL     1       4.596 -36.705  20.248  1.00  0.00     0.013 A 
ATOM      3  C   UNL     1       4.868 -34.890  18.680  1.00  0.00     0.120 A 
ATOM      4  C   UNL     1       5.536 -36.101  21.084  1.00  0.00     0.021 A 
ATOM      5  N   UNL     1       5.781 -34.322  19.513  1.00  0.00    -0.264 NA
ATOM      6  C   UNL     1       6.125 -34.897  20.695  1.00  0.00     0.111 A 
ENDROOT
BRANCH   1   7
ATOM      7  C   UNL     1       3.252 -36.733  18.133  1.00  0.00     0.073 C 
ATOM      8  O   UNL     1       3.460 -36.803  16.893  1.00  0.00    -0.545 OA
ATOM      9  O   UNL     1       2.072 -37.256  18.650  1.00  0.00    -0.545 OA
ENDBRANCH   1   7
TORSDOF 1
ENDMDL
MODEL 3
REMARK VINA RESULT:    -3.110      3.515      4.705
REMARK INTER + INTRA:          -3.311
REMARK INTER:                  -3.292
REMARK INTRA:                  -0.019
REMARK UNBOUND:                -0.019
REMARK SMILES O=C([O-])c1cccnc1
REMARK SMILES IDX 4 1 5 2 9 3 6 4 8 5 7 6 2 7 1 8 3 9
REMARK H PARENT
REMARK Flexibility Score: inf
ROOT
ATOM      1  C   UNL     1       2.948 -36.482  16.629  1.00  0.00     0.016 A 
ATOM      2  C   UNL     1       3.894 -37.014  15.738  1.00  0.00     0.013 A 
ATOM      3  C   UNL     1       1.954 -35.630  16.117  1.00  0.00     0.120 A 
ATOM      4  C   UNL     1       3.836 -36.695  14.381  1.00  0.00     0.021 A 
ATOM      5  N   UNL     1       1.919 -35.334  14.790  1.00  0.00    -0.264 NA
ATOM      6  C   UNL     1       2.830 -35.845  13.920  1.00  0.00     0.111 A 
ENDROOT
BRANCH   1   7
ATOM      7  C   UNL     1       2.999 -36.812  18.070  1.00  0.00     0.073 C 
ATOM      8  O   UNL     1       4.074 -36.698  18.716  1.00  0.00    -0.545 OA
ATOM      9  O   UNL     1       1.858 -37.256  18.731  1.00  0.00    -0.545 OA
ENDBRANCH   1   7
TORSDOF 1
ENDMDL
MODEL 4
REMARK VINA RESULT:    -3.081      3.990      4.774
REMARK INTER + INTRA:          -3.280
REMARK INTER:                  -3.256
REMARK INTRA:                  -0.024
REMARK UNBOUND:                -0.019
REMARK SMILES O=C([O-])c1cccnc1
REMARK SMILES IDX 4 1 5 2 9 3 6 4 8 5 7 6 2 7 1 8 3 9
REMARK H PARENT
REMARK Flexibility Score: inf
ROOT
ATOM      1  C   UNL     1       5.752 -35.735  22.644  1.00  0.00     0.016 A 
ATOM      2  C   UNL     1       5.759 -34.664  21.736  1.00  0.00     0.013 A 
ATOM      3  C   UNL     1       5.612 -37.039  22.137  1.00  0.00     0.120 A 
ATOM      4  C   UNL     1       5.628 -34.904  20.368  1.00  0.00     0.021 A 
ATOM      5  N   UNL     1       5.486 -37.246  20.799  1.00  0.00    -0.264 NA
ATOM      6  C   UNL     1       5.492 -36.216  19.912  1.00  0.00     0.111 A 
ENDROOT
BRANCH   1   7
ATOM      7  C   UNL     1       5.890 -35.494  24.097  1.00  0.00     0.073 C 
ATOM      8  O   UNL     1       6.125 -34.337  24.534  1.00  0.00    -0.545 OA
ATOM      9  O   UNL     1       5.764 -36.544  24.999  1.00  0.00    -0.545 OA
ENDBRANCH   1   7
TORSDOF 1
ENDMDL
MODEL 5
REMARK VINA RESULT:    -2.963      2.761      3.774
REMARK INTER + INTRA:          -3.156
REMARK INTER:                  -3.137
REMARK INTRA:                  -0.018
REMARK UNBOUND:                -0.019
REMARK SMILES O=C([O-])c1cccnc1
REMARK SMILES IDX 4 1 5 2 9 3 6 4 8 5 7 6 2 7 1 8 3 9
REMARK H PARENT
REMARK Flexibility Score: inf
ROOT
ATOM      1  C   UNL     1       3.946 -36.555  18.998  1.00  0.00     0.016 A 
ATOM      2  C   UNL     1       3.939 -36.190  17.642  1.00  0.00     0.013 A 
ATOM      3  C   UNL     1       2.764 -37.070  19.557  1.00  0.00     0.120 A 
ATOM      4  C   UNL     1       2.779 -36.340  16.881  1.00  0.00     0.021 A 
ATOM      5  N   UNL     1       1.646 -37.206  18.794  1.00  0.00    -0.264 NA
ATOM      6  C   UNL     1       1.630 -36.856  17.481  1.00  0.00     0.111 A 
ENDROOT
BRANCH   1   7
ATOM      7  C   UNL     1       5.170 -36.401  19.815  1.00  0.00     0.073 C 
ATOM      8  O   UNL     1       5.636 -37.376  20.461  1.00  0.00    -0.545 OA
ATOM      9  O   UNL     1       5.822 -35.174  19.881  1.00  0.00    -0.545 OA
ENDBRANCH   1   7
TORSDOF 1
ENDMDL
MODEL 6
REMARK VINA RESULT:    -2.961      2.432      3.055
REMARK INTER + INTRA:          -3.154
REMARK INTER:                  -3.137
REMARK INTRA:                  -0.017
REMARK UNBOUND:                -0.019
REMARK SMILES O=C([O-])c1cccnc1
REMARK SMILES IDX 4 1 5 2 9 3 6 4 8 5 7 6 2 7 1 8 3 9
REMARK H PARENT
REMARK Flexibility Score: inf
ROOT
ATOM      1  C   UNL     1       3.090 -36.537  17.266  1.00  0.00     0.016 A 
ATOM      2  C   UNL     1       4.223 -36.181  18.015  1.00  0.00     0.013 A 
ATOM      3  C   UNL     1       1.970 -37.042  17.949  1.00  0.00     0.120 A 
ATOM      4  C   UNL     1       4.222 -36.331  19.402  1.00  0.00     0.021 A 
ATOM      5  N   UNL     1       1.994 -37.179  19.302  1.00  0.00    -0.264 NA
ATOM      6  C   UNL     1       3.086 -36.836  20.036  1.00  0.00     0.111 A 
ENDROOT
BRANCH   1   7
ATOM      7  C   UNL     1       3.078 -36.383  15.795  1.00  0.00     0.073 C 
ATOM      8  O   UNL     1       2.315 -35.545  15.245  1.00  0.00    -0.545 OA
ATOM      9  O   UNL     1       3.911 -37.162  14.999  1.00  0.00    -0.545 OA
ENDBRANCH   1   7
TORSDOF 1
ENDMDL
MODEL 7
REMARK VINA RESULT:    -2.863      3.132      3.831
REMARK INTER + INTRA:          -3.050
REMARK INTER:                  -3.028
REMARK INTRA:                  -0.022
REMARK UNBOUND:                -0.019
REMARK SMILES O=C([O-])c1cccnc1
REMARK SMILES IDX 4 1 5 2 9 3 6 4 8 5 7 6 2 7 1 8 3 9
REMARK H PARENT
REMARK Flexibility Score: inf
ROOT
ATOM      1  C   UNL     1       5.616 -37.421  21.481  1.00  0.00     0.016 A 
ATOM      2  C   UNL     1       5.757 -36.245  22.237  1.00  0.00     0.013 A 
ATOM      3  C   UNL     1       5.376 -37.303  20.101  1.00  0.00     0.120 A 
ATOM      4  C   UNL     1       5.656 -34.998  21.618  1.00  0.00     0.021 A 
ATOM      5  N   UNL     1       5.281 -36.076  19.523  1.00  0.00    -0.264 NA
ATOM      6  C   UNL     1       5.416 -34.933  20.245  1.00  0.00     0.111 A 
ENDROOT
BRANCH   1   7
ATOM      7  C   UNL     1       5.722 -38.748  22.125  1.00  0.00     0.073 C 
ATOM      8  O   UNL     1       6.124 -39.747  21.472  1.00  0.00    -0.545 OA
ATOM      9  O   UNL     1       5.376 -38.911  23.462  1.00  0.00    -0.545 OA
ENDBRANCH   1   7
TORSDOF 1
ENDMDL
MODEL 8
REMARK VINA RESULT:    -2.761      2.389      3.057
REMARK INTER + INTRA:          -2.941
REMARK INTER:                  -2.917
REMARK INTRA:                  -0.024
REMARK UNBOUND:                -0.019
REMARK SMILES O=C([O-])c1cccnc1
REMARK SMILES IDX 4 1 5 2 9 3 6 4 8 5 7 6 2 7 1 8 3 9
REMARK H PARENT
REMARK Flexibility Score: inf
ROOT
ATOM      1  C   UNL     1       5.152 -35.787  21.130  1.00  0.00     0.016 A 
ATOM      2  C   UNL     1       6.069 -36.081  22.153  1.00  0.00     0.013 A 
ATOM      3  C   UNL     1       4.306 -34.676  21.290  1.00  0.00     0.120 A 
ATOM      4  C   UNL     1       6.125 -35.280  23.295  1.00  0.00     0.021 A 
ATOM      5  N   UNL     1       4.381 -33.912  22.413  1.00  0.00    -0.264 NA
ATOM      6  C   UNL     1       5.264 -34.188  23.408  1.00  0.00     0.111 A 
ENDROOT
BRANCH   1   7
ATOM      7  C   UNL     1       5.083 -36.627  19.915  1.00  0.00     0.073 C 
ATOM      8  O   UNL     1       5.763 -37.684  19.828  1.00  0.00    -0.545 OA
ATOM      9  O   UNL     1       4.267 -36.261  18.851  1.00  0.00    -0.545 OA
ENDBRANCH   1   7
TORSDOF 1
ENDMDL
MODEL 9
REMARK VINA RESULT:    -2.663      3.271      3.980
REMARK INTER + INTRA:          -2.838
REMARK INTER:                  -2.815
REMARK INTRA:                  -0.023
REMARK UNBOUND:                -0.019
REMARK SMILES O=C([O-])c1cccnc1
REMARK SMILES IDX 4 1 5 2 9 3 6 4 8 5 7 6 2 7 1 8 3 9
REMARK H PARENT
REMARK Flexibility Score: inf
ROOT
ATOM      1  C   UNL     1       5.698 -35.718  22.297  1.00  0.00     0.016 A 
ATOM      2  C   UNL     1       5.744 -34.494  22.986  1.00  0.00     0.013 A 
ATOM      3  C   UNL     1       5.702 -36.906  23.047  1.00  0.00     0.120 A 
ATOM      4  C   UNL     1       5.793 -34.476  24.380  1.00  0.00     0.021 A 
ATOM      5  N   UNL     1       5.752 -36.862  24.406  1.00  0.00    -0.264 NA
ATOM      6  C   UNL     1       5.796 -35.683  25.081  1.00  0.00     0.111 A 
ENDROOT
BRANCH   1   7
ATOM      7  C   UNL     1       5.644 -35.750  20.820  1.00  0.00     0.073 C 
ATOM      8  O   UNL     1       5.978 -34.740  20.144  1.00  0.00    -0.545 OA
ATOM      9  O   UNL     1       5.223 -36.897  20.156  1.00  0.00    -0.545 OA
ENDBRANCH   1   7
TORSDOF 1
ENDMDL
