MODEL 1
REMARK VINA RESULT:    -4.599      0.000      0.000
REMARK INTER + INTRA:         -11.281
REMARK INTER:                  -8.632
REMARK INTRA:                  -2.649
REMARK UNBOUND:                -2.649
REMARK SMILES CCCCCCCCC=CCCCCCCCC(=O)[O-]
REMARK SMILES IDX 10 1 9 2 11 3 12 4 13 5 14 6 15 7 16 8 17 9 18 10 19 11
REMARK SMILES IDX 20 12 8 13 7 14 6 15 5 16 4 17 3 18 2 19 1 20
REMARK H PARENT
REMARK Flexibility Score: inf
ROOT
ATOM      1  C   UNL     1     113.943 120.916 131.324  1.00  0.00    -0.031 C 
ATOM      2  C   UNL     1     114.266 120.205 132.413  1.00  0.00    -0.031 C 
ENDROOT
BRANCH   1   3
ATOM      3  C   UNL     1     114.137 120.340 129.946  1.00  0.00     0.027 C 
BRANCH   3   4
ATOM      4  C   UNL     1     114.136 121.422 128.856  1.00  0.00     0.004 C 
BRANCH   4   5
ATOM      5  C   UNL     1     113.694 122.791 129.404  1.00  0.00     0.000 C 
BRANCH   5   6
ATOM      6  C   UNL     1     114.699 123.910 129.084  1.00  0.00     0.000 C 
BRANCH   6   7
ATOM      7  C   UNL     1     115.883 123.483 128.195  1.00  0.00     0.000 C 
BRANCH   7   8
ATOM      8  C   UNL     1     116.997 124.548 128.090  1.00  0.00     0.006 C 
BRANCH   8   9
ATOM      9  C   UNL     1     116.526 125.930 128.561  1.00  0.00     0.053 C 
BRANCH   9  10
ATOM     10  C   UNL     1     117.700 126.821 128.822  1.00  0.00     0.041 C 
ATOM     11  O   UNL     1     118.620 126.922 127.970  1.00  0.00    -0.550 OA
ATOM     12  O   UNL     1     117.753 127.577 129.987  1.00  0.00    -0.550 OA
ENDBRANCH   9  10
ENDBRANCH   8   9
ENDBRANCH   7   8
ENDBRANCH   6   7
ENDBRANCH   5   6
ENDBRANCH   4   5
ENDBRANCH   3   4
ENDBRANCH   1   3
BRANCH   2  13
ATOM     13  C   UNL     1     114.078 120.756 133.801  1.00  0.00     0.027 C 
BRANCH  13  14
ATOM     14  C   UNL     1     115.412 121.000 134.528  1.00  0.00     0.004 C 
BRANCH  14  15
ATOM     15  C   UNL     1     116.241 119.725 134.787  1.00  0.00     0.000 C 
BRANCH  15  16
ATOM     16  C   UNL     1     117.728 119.819 134.394  1.00  0.00     0.000 C 
BRANCH  16  17
ATOM     17  C   UNL     1     118.012 120.958 133.400  1.00  0.00    -0.000 C 
BRANCH  17  18
ATOM     18  C   UNL     1     118.061 120.468 131.944  1.00  0.00    -0.000 C 
BRANCH  18  19
ATOM     19  C   UNL     1     117.513 121.504 130.952  1.00  0.00    -0.003 C 
ATOM     20  C   UNL     1     117.152 122.806 131.662  1.00  0.00     0.004 C 
ENDBRANCH  18  19
ENDBRANCH  17  18
ENDBRANCH  16  17
ENDBRANCH  15  16
ENDBRANCH  14  15
ENDBRANCH  13  14
ENDBRANCH   2  13
TORSDOF 15
ENDMDL
MODEL 2
REMARK VINA RESULT:    -4.589      1.706      3.631
REMARK INTER + INTRA:         -11.263
REMARK INTER:                  -8.624
REMARK INTRA:                  -2.639
REMARK UNBOUND:                -2.649
REMARK SMILES CCCCCCCCC=CCCCCCCCC(=O)[O-]
REMARK SMILES IDX 10 1 9 2 11 3 12 4 13 5 14 6 15 7 16 8 17 9 18 10 19 11
REMARK SMILES IDX 20 12 8 13 7 14 6 15 5 16 4 17 3 18 2 19 1 20
REMARK H PARENT
REMARK Flexibility Score: inf
ROOT
ATOM      1  C   UNL     1     114.094 120.664 129.320  1.00  0.00    -0.031 C 
ATOM      2  C   UNL     1     114.003 121.895 128.795  1.00  0.00    -0.031 C 
ENDROOT
BRANCH   1   3
ATOM      3  C   UNL     1     114.857 119.580 128.605  1.00  0.00     0.027 C 
BRANCH   3   4
ATOM      4  C   UNL     1     116.283 119.415 129.150  1.00  0.00     0.004 C 
BRANCH   4   5
ATOM      5  C   UNL     1     117.344 119.585 128.049  1.00  0.00     0.000 C 
BRANCH   5   6
ATOM      6  C   UNL     1     118.299 120.759 128.320  1.00  0.00     0.000 C 
BRANCH   6   7
ATOM      7  C   UNL     1     117.617 122.045 128.827  1.00  0.00     0.000 C 
BRANCH   7   8
ATOM      8  C   UNL     1     117.801 123.257 127.887  1.00  0.00     0.006 C 
BRANCH   8   9
ATOM      9  C   UNL     1     116.735 124.337 128.116  1.00  0.00     0.053 C 
BRANCH   9  10
ATOM     10  C   UNL     1     117.324 125.700 127.926  1.00  0.00     0.041 C 
ATOM     11  O   UNL     1     116.662 126.724 128.234  1.00  0.00    -0.550 OA
ATOM     12  O   UNL     1     118.624 125.835 127.454  1.00  0.00    -0.550 OA
ENDBRANCH   9  10
ENDBRANCH   8   9
ENDBRANCH   7   8
ENDBRANCH   6   7
ENDBRANCH   5   6
ENDBRANCH   4   5
ENDBRANCH   3   4
ENDBRANCH   1   3
BRANCH   2  13
ATOM     13  C   UNL     1     113.249 122.997 129.491  1.00  0.00     0.027 C 
BRANCH  13  14
ATOM     14  C   UNL     1     113.608 123.109 130.983  1.00  0.00     0.004 C 
BRANCH  14  15
ATOM     15  C   UNL     1     114.867 123.953 131.275  1.00  0.00     0.000 C 
BRANCH  15  16
ATOM     16  C   UNL     1     116.033 123.186 131.925  1.00  0.00     0.000 C 
BRANCH  16  17
ATOM     17  C   UNL     1     115.700 121.709 132.194  1.00  0.00    -0.000 C 
BRANCH  17  18
ATOM     18  C   UNL     1     115.651 121.382 133.695  1.00  0.00    -0.000 C 
BRANCH  18  19
ATOM     19  C   UNL     1     114.334 120.713 134.113  1.00  0.00    -0.003 C 
ATOM     20  C   UNL     1     113.635 120.080 132.912  1.00  0.00     0.004 C 
ENDBRANCH  18  19
ENDBRANCH  17  18
ENDBRANCH  16  17
ENDBRANCH  15  16
ENDBRANCH  14  15
ENDBRANCH  13  14
ENDBRANCH   2  13
TORSDOF 15
ENDMDL
MODEL 3
REMARK VINA RESULT:    -4.531      1.427      3.481
REMARK INTER + INTRA:         -11.154
REMARK INTER:                  -8.754
REMARK INTRA:                  -2.400
REMARK UNBOUND:                -2.649
REMARK SMILES CCCCCCCCC=CCCCCCCCC(=O)[O-]
REMARK SMILES IDX 10 1 9 2 11 3 12 4 13 5 14 6 15 7 16 8 17 9 18 10 19 11
REMARK SMILES IDX 20 12 8 13 7 14 6 15 5 16 4 17 3 18 2 19 1 20
REMARK H PARENT
REMARK Flexibility Score: inf
ROOT
ATOM      1  C   UNL     1     117.067 122.702 131.632  1.00  0.00    -0.031 C 
ATOM      2  C   UNL     1     117.568 121.472 131.451  1.00  0.00    -0.031 C 
ENDROOT
BRANCH   1   3
ATOM      3  C   UNL     1     117.101 123.716 130.519  1.00  0.00     0.027 C 
BRANCH   3   4
ATOM      4  C   UNL     1     117.381 123.073 129.153  1.00  0.00     0.004 C 
BRANCH   4   5
ATOM      5  C   UNL     1     117.002 124.005 127.989  1.00  0.00     0.000 C 
BRANCH   5   6
ATOM      6  C   UNL     1     118.230 124.538 127.231  1.00  0.00     0.000 C 
BRANCH   6   7
ATOM      7  C   UNL     1     118.693 125.945 127.657  1.00  0.00     0.000 C 
BRANCH   7   8
ATOM      8  C   UNL     1     117.608 126.759 128.395  1.00  0.00     0.006 C 
BRANCH   8   9
ATOM      9  C   UNL     1     118.137 127.399 129.685  1.00  0.00     0.053 C 
BRANCH   9  10
ATOM     10  C   UNL     1     117.094 127.353 130.757  1.00  0.00     0.041 C 
ATOM     11  O   UNL     1     115.873 127.409 130.456  1.00  0.00    -0.550 OA
ATOM     12  O   UNL     1     117.470 127.198 132.086  1.00  0.00    -0.550 OA
ENDBRANCH   9  10
ENDBRANCH   8   9
ENDBRANCH   7   8
ENDBRANCH   6   7
ENDBRANCH   5   6
ENDBRANCH   4   5
ENDBRANCH   3   4
ENDBRANCH   1   3
BRANCH   2  13
ATOM     13  C   UNL     1     117.543 120.439 132.546  1.00  0.00     0.027 C 
BRANCH  13  14
ATOM     14  C   UNL     1     116.815 120.932 133.808  1.00  0.00     0.004 C 
BRANCH  14  15
ATOM     15  C   UNL     1     115.639 120.039 134.257  1.00  0.00     0.000 C 
BRANCH  15  16
ATOM     16  C   UNL     1     114.238 120.617 133.986  1.00  0.00     0.000 C 
BRANCH  16  17
ATOM     17  C   UNL     1     113.729 120.311 132.567  1.00  0.00    -0.000 C 
BRANCH  17  18
ATOM     18  C   UNL     1     113.601 121.575 131.703  1.00  0.00    -0.000 C 
BRANCH  18  19
ATOM     19  C   UNL     1     113.877 121.307 130.217  1.00  0.00    -0.003 C 
ATOM     20  C   UNL     1     114.465 119.914 130.010  1.00  0.00     0.004 C 
ENDBRANCH  18  19
ENDBRANCH  17  18
ENDBRANCH  16  17
ENDBRANCH  15  16
ENDBRANCH  14  15
ENDBRANCH  13  14
ENDBRANCH   2  13
TORSDOF 15
ENDMDL
MODEL 4
REMARK VINA RESULT:    -4.531      2.657      6.276
REMARK INTER + INTRA:         -11.153
REMARK INTER:                  -8.846
REMARK INTRA:                  -2.306
REMARK UNBOUND:                -2.649
REMARK SMILES CCCCCCCCC=CCCCCCCCC(=O)[O-]
REMARK SMILES IDX 10 1 9 2 11 3 12 4 13 5 14 6 15 7 16 8 17 9 18 10 19 11
REMARK SMILES IDX 20 12 8 13 7 14 6 15 5 16 4 17 3 18 2 19 1 20
REMARK H PARENT
REMARK Flexibility Score: inf
ROOT
ATOM      1  C   UNL     1     117.641 121.266 131.947  1.00  0.00    -0.031 C 
ATOM      2  C   UNL     1     116.977 122.428 132.018  1.00  0.00    -0.031 C 
ENDROOT
BRANCH   1   3
ATOM      3  C   UNL     1     117.650 120.315 133.115  1.00  0.00     0.027 C 
BRANCH   3   4
ATOM      4  C   UNL     1     116.874 120.866 134.320  1.00  0.00     0.004 C 
BRANCH   4   5
ATOM      5  C   UNL     1     115.596 120.054 134.602  1.00  0.00     0.000 C 
BRANCH   5   6
ATOM      6  C   UNL     1     114.326 120.746 134.080  1.00  0.00     0.000 C 
BRANCH   6   7
ATOM      7  C   UNL     1     113.695 120.089 132.837  1.00  0.00     0.000 C 
BRANCH   7   8
ATOM      8  C   UNL     1     113.836 120.932 131.551  1.00  0.00     0.006 C 
BRANCH   8   9
ATOM      9  C   UNL     1     114.399 120.116 130.379  1.00  0.00     0.053 C 
BRANCH   9  10
ATOM     10  C   UNL     1     114.004 120.733 129.075  1.00  0.00     0.041 C 
ATOM     11  O   UNL     1     113.748 121.963 129.008  1.00  0.00    -0.550 OA
ATOM     12  O   UNL     1     113.966 119.957 127.922  1.00  0.00    -0.550 OA
ENDBRANCH   9  10
ENDBRANCH   8   9
ENDBRANCH   7   8
ENDBRANCH   6   7
ENDBRANCH   5   6
ENDBRANCH   4   5
ENDBRANCH   3   4
ENDBRANCH   1   3
BRANCH   2  13
ATOM     13  C   UNL     1     116.949 123.394 130.863  1.00  0.00     0.027 C 
BRANCH  13  14
ATOM     14  C   UNL     1     117.217 122.709 129.512  1.00  0.00     0.004 C 
BRANCH  14  15
ATOM     15  C   UNL     1     116.878 123.574 128.279  1.00  0.00     0.000 C 
BRANCH  15  16
ATOM     16  C   UNL     1     118.093 124.180 127.551  1.00  0.00     0.000 C 
BRANCH  16  17
ATOM     17  C   UNL     1     118.073 125.718 127.535  1.00  0.00    -0.000 C 
BRANCH  17  18
ATOM     18  C   UNL     1     116.920 126.300 128.368  1.00  0.00    -0.000 C 
BRANCH  18  19
ATOM     19  C   UNL     1     117.395 126.900 129.699  1.00  0.00    -0.003 C 
ATOM     20  C   UNL     1     116.212 127.259 130.593  1.00  0.00     0.004 C 
ENDBRANCH  18  19
ENDBRANCH  17  18
ENDBRANCH  16  17
ENDBRANCH  15  16
ENDBRANCH  14  15
ENDBRANCH  13  14
ENDBRANCH   2  13
TORSDOF 15
ENDMDL
MODEL 5
REMARK VINA RESULT:    -4.530      1.186      1.882
REMARK INTER + INTRA:         -11.151
REMARK INTER:                  -8.523
REMARK INTRA:                  -2.628
REMARK UNBOUND:                -2.649
REMARK SMILES CCCCCCCCC=CCCCCCCCC(=O)[O-]
REMARK SMILES IDX 10 1 9 2 11 3 12 4 13 5 14 6 15 7 16 8 17 9 18 10 19 11
REMARK SMILES IDX 20 12 8 13 7 14 6 15 5 16 4 17 3 18 2 19 1 20
REMARK H PARENT
REMARK Flexibility Score: inf
ROOT
ATOM      1  C   UNL     1     113.448 122.174 131.642  1.00  0.00    -0.031 C 
ATOM      2  C   UNL     1     113.698 120.857 131.600  1.00  0.00    -0.031 C 
ENDROOT
BRANCH   1   3
ATOM      3  C   UNL     1     113.387 122.984 130.375  1.00  0.00     0.027 C 
BRANCH   3   4
ATOM      4  C   UNL     1     113.993 122.238 129.177  1.00  0.00     0.004 C 
BRANCH   4   5
ATOM      5  C   UNL     1     114.682 123.198 128.189  1.00  0.00     0.000 C 
BRANCH   5   6
ATOM      6  C   UNL     1     116.205 123.265 128.390  1.00  0.00     0.000 C 
BRANCH   6   7
ATOM      7  C   UNL     1     116.715 124.562 129.047  1.00  0.00     0.000 C 
BRANCH   7   8
ATOM      8  C   UNL     1     115.621 125.636 129.232  1.00  0.00     0.006 C 
BRANCH   8   9
ATOM      9  C   UNL     1     116.182 127.061 129.134  1.00  0.00     0.053 C 
BRANCH   9  10
ATOM     10  C   UNL     1     116.806 127.467 130.432  1.00  0.00     0.041 C 
ATOM     11  O   UNL     1     116.180 127.311 131.512  1.00  0.00    -0.550 OA
ATOM     12  O   UNL     1     118.100 127.974 130.453  1.00  0.00    -0.550 OA
ENDBRANCH   9  10
ENDBRANCH   8   9
ENDBRANCH   7   8
ENDBRANCH   6   7
ENDBRANCH   5   6
ENDBRANCH   4   5
ENDBRANCH   3   4
ENDBRANCH   1   3
BRANCH   2  13
ATOM     13  C   UNL     1     113.761 120.024 132.852  1.00  0.00     0.027 C 
BRANCH  13  14
ATOM     14  C   UNL     1     114.456 120.753 134.015  1.00  0.00     0.004 C 
BRANCH  14  15
ATOM     15  C   UNL     1     115.722 120.048 134.546  1.00  0.00     0.000 C 
BRANCH  15  16
ATOM     16  C   UNL     1     116.965 120.169 133.646  1.00  0.00     0.000 C 
BRANCH  16  17
ATOM     17  C   UNL     1     117.171 121.592 133.098  1.00  0.00    -0.000 C 
BRANCH  17  18
ATOM     18  C   UNL     1     117.163 121.637 131.562  1.00  0.00    -0.000 C 
BRANCH  18  19
ATOM     19  C   UNL     1     117.665 120.333 130.928  1.00  0.00    -0.003 C 
ATOM     20  C   UNL     1     116.771 119.906 129.767  1.00  0.00     0.004 C 
ENDBRANCH  18  19
ENDBRANCH  17  18
ENDBRANCH  16  17
ENDBRANCH  15  16
ENDBRANCH  14  15
ENDBRANCH  13  14
ENDBRANCH   2  13
TORSDOF 15
ENDMDL
MODEL 6
REMARK VINA RESULT:    -4.528      2.019      4.314
REMARK INTER + INTRA:         -11.148
REMARK INTER:                  -8.324
REMARK INTRA:                  -2.824
REMARK UNBOUND:                -2.649
REMARK SMILES CCCCCCCCC=CCCCCCCCC(=O)[O-]
REMARK SMILES IDX 10 1 9 2 11 3 12 4 13 5 14 6 15 7 16 8 17 9 18 10 19 11
REMARK SMILES IDX 20 12 8 13 7 14 6 15 5 16 4 17 3 18 2 19 1 20
REMARK H PARENT
REMARK Flexibility Score: inf
ROOT
ATOM      1  C   UNL     1     113.789 121.723 128.472  1.00  0.00    -0.031 C 
ATOM      2  C   UNL     1     114.787 122.618 128.467  1.00  0.00    -0.031 C 
ENDROOT
BRANCH   1   3
ATOM      3  C   UNL     1     114.002 120.334 127.930  1.00  0.00     0.027 C 
BRANCH   3   4
ATOM      4  C   UNL     1     114.500 119.358 129.006  1.00  0.00     0.004 C 
BRANCH   4   5
ATOM      5  C   UNL     1     115.706 118.534 128.522  1.00  0.00     0.000 C 
BRANCH   5   6
ATOM      6  C   UNL     1     117.049 119.107 129.002  1.00  0.00     0.000 C 
BRANCH   6   7
ATOM      7  C   UNL     1     116.943 120.130 130.151  1.00  0.00     0.000 C 
BRANCH   7   8
ATOM      8  C   UNL     1     117.945 121.299 130.036  1.00  0.00     0.006 C 
BRANCH   8   9
ATOM      9  C   UNL     1     118.202 121.704 128.579  1.00  0.00     0.053 C 
BRANCH   9  10
ATOM     10  C   UNL     1     118.473 123.172 128.485  1.00  0.00     0.041 C 
ATOM     11  O   UNL     1     118.128 123.816 127.460  1.00  0.00    -0.550 OA
ATOM     12  O   UNL     1     119.065 123.840 129.551  1.00  0.00    -0.550 OA
ENDBRANCH   9  10
ENDBRANCH   8   9
ENDBRANCH   7   8
ENDBRANCH   6   7
ENDBRANCH   5   6
ENDBRANCH   4   5
ENDBRANCH   3   4
ENDBRANCH   1   3
BRANCH   2  13
ATOM     13  C   UNL     1     114.602 124.011 129.006  1.00  0.00     0.027 C 
BRANCH  13  14
ATOM     14  C   UNL     1     115.446 124.276 130.265  1.00  0.00     0.004 C 
BRANCH  14  15
ATOM     15  C   UNL     1     114.748 123.908 131.591  1.00  0.00     0.000 C 
BRANCH  15  16
ATOM     16  C   UNL     1     115.046 122.492 132.117  1.00  0.00     0.000 C 
BRANCH  16  17
ATOM     17  C   UNL     1     113.844 121.542 131.990  1.00  0.00    -0.000 C 
BRANCH  17  18
ATOM     18  C   UNL     1     113.983 120.295 132.878  1.00  0.00    -0.000 C 
BRANCH  18  19
ATOM     19  C   UNL     1     114.508 120.623 134.282  1.00  0.00    -0.003 C 
ATOM     20  C   UNL     1     115.789 119.850 134.584  1.00  0.00     0.004 C 
ENDBRANCH  18  19
ENDBRANCH  17  18
ENDBRANCH  16  17
ENDBRANCH  15  16
ENDBRANCH  14  15
ENDBRANCH  13  14
ENDBRANCH   2  13
TORSDOF 15
ENDMDL
MODEL 7
REMARK VINA RESULT:    -4.510      3.099      5.852
REMARK INTER + INTRA:         -11.113
REMARK INTER:                  -8.246
REMARK INTRA:                  -2.867
REMARK UNBOUND:                -2.649
REMARK SMILES CCCCCCCCC=CCCCCCCCC(=O)[O-]
REMARK SMILES IDX 10 1 9 2 11 3 12 4 13 5 14 6 15 7 16 8 17 9 18 10 19 11
REMARK SMILES IDX 20 12 8 13 7 14 6 15 5 16 4 17 3 18 2 19 1 20
REMARK H PARENT
REMARK Flexibility Score: inf
ROOT
ATOM      1  C   UNL     1     117.411 120.912 132.948  1.00  0.00    -0.031 C 
ATOM      2  C   UNL     1     117.305 121.945 132.101  1.00  0.00    -0.031 C 
ENDROOT
BRANCH   1   3
ATOM      3  C   UNL     1     116.779 120.971 134.314  1.00  0.00     0.027 C 
BRANCH   3   4
ATOM      4  C   UNL     1     115.603 119.995 134.454  1.00  0.00     0.004 C 
BRANCH   4   5
ATOM      5  C   UNL     1     114.253 120.672 134.156  1.00  0.00     0.000 C 
BRANCH   5   6
ATOM      6  C   UNL     1     113.725 120.350 132.749  1.00  0.00     0.000 C 
BRANCH   6   7
ATOM      7  C   UNL     1     113.609 121.564 131.806  1.00  0.00     0.000 C 
BRANCH   7   8
ATOM      8  C   UNL     1     114.007 121.257 130.346  1.00  0.00     0.006 C 
BRANCH   8   9
ATOM      9  C   UNL     1     114.786 119.941 130.220  1.00  0.00     0.053 C 
BRANCH   9  10
ATOM     10  C   UNL     1     114.676 119.400 128.829  1.00  0.00     0.041 C 
ATOM     11  O   UNL     1     115.360 118.402 128.482  1.00  0.00    -0.550 OA
ATOM     12  O   UNL     1     113.781 119.969 127.931  1.00  0.00    -0.550 OA
ENDBRANCH   9  10
ENDBRANCH   8   9
ENDBRANCH   7   8
ENDBRANCH   6   7
ENDBRANCH   5   6
ENDBRANCH   4   5
ENDBRANCH   3   4
ENDBRANCH   1   3
BRANCH   2  13
ATOM     13  C   UNL     1     117.924 121.909 130.729  1.00  0.00     0.027 C 
BRANCH  13  14
ATOM     14  C   UNL     1     118.823 123.127 130.453  1.00  0.00     0.004 C 
BRANCH  14  15
ATOM     15  C   UNL     1     118.652 124.288 131.455  1.00  0.00     0.000 C 
BRANCH  15  16
ATOM     16  C   UNL     1     117.768 125.451 130.965  1.00  0.00     0.000 C 
BRANCH  16  17
ATOM     17  C   UNL     1     116.318 125.351 131.466  1.00  0.00    -0.000 C 
BRANCH  17  18
ATOM     18  C   UNL     1     115.353 124.850 130.380  1.00  0.00    -0.000 C 
BRANCH  18  19
ATOM     19  C   UNL     1     115.926 125.001 128.964  1.00  0.00    -0.003 C 
ATOM     20  C   UNL     1     115.878 123.676 128.208  1.00  0.00     0.004 C 
ENDBRANCH  18  19
ENDBRANCH  17  18
ENDBRANCH  16  17
ENDBRANCH  15  16
ENDBRANCH  14  15
ENDBRANCH  13  14
ENDBRANCH   2  13
TORSDOF 15
ENDMDL
MODEL 8
REMARK VINA RESULT:    -4.503      3.382      6.366
REMARK INTER + INTRA:         -11.101
REMARK INTER:                  -8.791
REMARK INTRA:                  -2.310
REMARK UNBOUND:                -2.649
REMARK SMILES CCCCCCCCC=CCCCCCCCC(=O)[O-]
REMARK SMILES IDX 10 1 9 2 11 3 12 4 13 5 14 6 15 7 16 8 17 9 18 10 19 11
REMARK SMILES IDX 20 12 8 13 7 14 6 15 5 16 4 17 3 18 2 19 1 20
REMARK H PARENT
REMARK Flexibility Score: inf
ROOT
ATOM      1  C   UNL     1     114.847 123.325 128.398  1.00  0.00    -0.031 C 
ATOM      2  C   UNL     1     114.899 124.105 129.487  1.00  0.00    -0.031 C 
ENDROOT
BRANCH   1   3
ATOM      3  C   UNL     1     113.616 122.512 128.096  1.00  0.00     0.027 C 
BRANCH   3   4
ATOM      4  C   UNL     1     113.933 121.021 127.909  1.00  0.00     0.004 C 
BRANCH   4   5
ATOM      5  C   UNL     1     114.128 120.300 129.255  1.00  0.00     0.000 C 
BRANCH   5   6
ATOM      6  C   UNL     1     115.561 119.776 129.446  1.00  0.00     0.000 C 
BRANCH   6   7
ATOM      7  C   UNL     1     116.337 120.420 130.612  1.00  0.00     0.000 C 
BRANCH   7   8
ATOM      8  C   UNL     1     115.462 121.310 131.523  1.00  0.00     0.006 C 
BRANCH   8   9
ATOM      9  C   UNL     1     115.635 120.968 133.009  1.00  0.00     0.053 C 
BRANCH   9  10
ATOM     10  C   UNL     1     114.310 120.656 133.630  1.00  0.00     0.041 C 
ATOM     11  O   UNL     1     113.405 120.107 132.950  1.00  0.00    -0.550 OA
ATOM     12  O   UNL     1     114.092 120.927 134.976  1.00  0.00    -0.550 OA
ENDBRANCH   9  10
ENDBRANCH   8   9
ENDBRANCH   7   8
ENDBRANCH   6   7
ENDBRANCH   5   6
ENDBRANCH   4   5
ENDBRANCH   3   4
ENDBRANCH   1   3
BRANCH   2  13
ATOM     13  C   UNL     1     116.116 124.931 129.809  1.00  0.00     0.027 C 
BRANCH  13  14
ATOM     14  C   UNL     1     116.027 126.361 129.250  1.00  0.00     0.004 C 
BRANCH  14  15
ATOM     15  C   UNL     1     117.067 126.686 128.157  1.00  0.00     0.000 C 
BRANCH  15  16
ATOM     16  C   UNL     1     118.530 126.724 128.637  1.00  0.00     0.000 C 
BRANCH  16  17
ATOM     17  C   UNL     1     119.377 125.576 128.063  1.00  0.00    -0.000 C 
BRANCH  17  18
ATOM     18  C   UNL     1     118.624 124.766 126.995  1.00  0.00    -0.000 C 
BRANCH  18  19
ATOM     19  C   UNL     1     119.005 123.279 127.001  1.00  0.00    -0.003 C 
ATOM     20  C   UNL     1     118.464 122.579 128.244  1.00  0.00     0.004 C 
ENDBRANCH  18  19
ENDBRANCH  17  18
ENDBRANCH  16  17
ENDBRANCH  15  16
ENDBRANCH  14  15
ENDBRANCH  13  14
ENDBRANCH   2  13
TORSDOF 15
ENDMDL
MODEL 9
REMARK VINA RESULT:    -4.446      1.608      3.249
REMARK INTER + INTRA:         -10.994
REMARK INTER:                  -8.244
REMARK INTRA:                  -2.750
REMARK UNBOUND:                -2.649
REMARK SMILES CCCCCCCCC=CCCCCCCCC(=O)[O-]
REMARK SMILES IDX 10 1 9 2 11 3 12 4 13 5 14 6 15 7 16 8 17 9 18 10 19 11
REMARK SMILES IDX 20 12 8 13 7 14 6 15 5 16 4 17 3 18 2 19 1 20
REMARK H PARENT
REMARK Flexibility Score: inf
ROOT
ATOM      1  C   UNL     1     114.126 120.595 130.998  1.00  0.00    -0.031 C 
ATOM      2  C   UNL     1     114.125 120.546 129.658  1.00  0.00    -0.031 C 
ENDROOT
BRANCH   1   3
ATOM      3  C   UNL     1     113.372 121.677 131.725  1.00  0.00     0.027 C 
BRANCH   3   4
ATOM      4  C   UNL     1     113.550 123.053 131.070  1.00  0.00     0.004 C 
BRANCH   4   5
ATOM      5  C   UNL     1     114.830 123.760 131.552  1.00  0.00     0.000 C 
BRANCH   5   6
ATOM      6  C   UNL     1     115.560 124.503 130.421  1.00  0.00     0.000 C 
BRANCH   6   7
ATOM      7  C   UNL     1     115.393 123.878 129.022  1.00  0.00     0.000 C 
BRANCH   7   8
ATOM      8  C   UNL     1     116.726 123.680 128.267  1.00  0.00     0.006 C 
BRANCH   8   9
ATOM      9  C   UNL     1     117.184 124.957 127.550  1.00  0.00     0.053 C 
BRANCH   9  10
ATOM     10  C   UNL     1     118.654 124.903 127.277  1.00  0.00     0.041 C 
ATOM     11  O   UNL     1     119.386 125.889 127.554  1.00  0.00    -0.550 OA
ATOM     12  O   UNL     1     119.224 123.745 126.761  1.00  0.00    -0.550 OA
ENDBRANCH   9  10
ENDBRANCH   8   9
ENDBRANCH   7   8
ENDBRANCH   6   7
ENDBRANCH   5   6
ENDBRANCH   4   5
ENDBRANCH   3   4
ENDBRANCH   1   3
BRANCH   2  13
ATOM     13  C   UNL     1     114.868 119.473 128.906  1.00  0.00     0.027 C 
BRANCH  13  14
ATOM     14  C   UNL     1     116.326 119.860 128.608  1.00  0.00     0.004 C 
BRANCH  14  15
ATOM     15  C   UNL     1     117.306 119.608 129.773  1.00  0.00     0.000 C 
BRANCH  15  16
ATOM     16  C   UNL     1     118.116 120.837 130.225  1.00  0.00     0.000 C 
BRANCH  16  17
ATOM     17  C   UNL     1     117.534 121.508 131.480  1.00  0.00    -0.000 C 
BRANCH  17  18
ATOM     18  C   UNL     1     117.505 120.563 132.692  1.00  0.00    -0.000 C 
BRANCH  18  19
ATOM     19  C   UNL     1     116.595 121.073 133.819  1.00  0.00    -0.003 C 
ATOM     20  C   UNL     1     115.590 120.005 134.239  1.00  0.00     0.004 C 
ENDBRANCH  18  19
ENDBRANCH  17  18
ENDBRANCH  16  17
ENDBRANCH  15  16
ENDBRANCH  14  15
ENDBRANCH  13  14
ENDBRANCH   2  13
TORSDOF 15
ENDMDL
