MODEL 1
REMARK VINA RESULT:    -5.958      0.000      0.000
REMARK INTER + INTRA:          -8.833
REMARK INTER:                  -8.048
REMARK INTRA:                  -0.785
REMARK UNBOUND:                -0.785
REMARK SMILES O=c1c(-c2ccc(O)cc2)coc2c([C@@H]3O[C@H](CO)[C@@H](O)[C@H](O)[C@H]3O)c(O)ccc12
REMARK SMILES IDX 3 1 11 2 12 3 13 4 30 5 2 6 1 7 29 8 28 9 26 10 14 11 4 12
REMARK SMILES IDX 5 13 6 14 7 15 10 16 9 17 8 18 15 20 24 21 16 22 22 23 17 24
REMARK SMILES IDX 20 25 25 26 23 28 18 30 19 31 21 33 27 35
REMARK H PARENT 8 19 25 27 23 29 19 32 21 34 27 36
REMARK Flexibility Score: inf
ROOT
ATOM      1  C   UNL     1      72.380  55.018  17.649  1.00  0.00     0.065 A 
ATOM      2  C   UNL     1      71.302  54.797  18.516  1.00  0.00     0.208 A 
ATOM      3  O   UNL     1      71.501  54.343  19.748  1.00  0.00    -0.463 OA
ATOM      4  C   UNL     1      72.708  54.071  20.239  1.00  0.00     0.147 A 
ATOM      5  C   UNL     1      73.853  54.268  19.431  1.00  0.00     0.066 A 
ATOM      6  C   UNL     1      73.678  54.754  18.123  1.00  0.00     0.200 A 
ATOM      7  O   UNL     1      74.680  54.971  17.385  1.00  0.00    -0.288 OA
ATOM      8  C   UNL     1      75.124  53.974  19.948  1.00  0.00     0.020 A 
ATOM      9  C   UNL     1      75.258  53.476  21.241  1.00  0.00     0.047 A 
ATOM     10  C   UNL     1      74.131  53.271  22.047  1.00  0.00     0.125 A 
ATOM     11  C   UNL     1      72.842  53.588  21.562  1.00  0.00     0.069 A 
ENDROOT
BRANCH   1  12
ATOM     12  C   UNL     1      72.133  55.518  16.273  1.00  0.00    -0.011 A 
ATOM     13  C   UNL     1      71.642  54.657  15.275  1.00  0.00     0.013 A 
ATOM     14  C   UNL     1      71.401  55.137  13.984  1.00  0.00     0.047 A 
ATOM     15  C   UNL     1      71.643  56.478  13.674  1.00  0.00     0.115 A 
ATOM     16  C   UNL     1      72.367  56.868  15.957  1.00  0.00     0.013 A 
ATOM     17  C   UNL     1      72.126  57.343  14.664  1.00  0.00     0.047 A 
BRANCH  15  18
ATOM     18  O   UNL     1      71.399  56.941  12.383  1.00  0.00    -0.508 OA
ATOM     19  H   UNL     1      72.139  56.996  11.692  1.00  0.00     0.293 HD
ENDBRANCH  15  18
ENDBRANCH   1  12
BRANCH  11  20
ATOM     20  C   UNL     1      71.614  53.347  22.426  1.00  0.00     0.188 C 
ATOM     21  C   UNL     1      70.664  54.579  22.375  1.00  0.00     0.179 C 
ATOM     22  O   UNL     1      70.944  52.178  21.984  1.00  0.00    -0.362 OA
ATOM     23  C   UNL     1      69.184  54.147  22.434  1.00  0.00     0.177 C 
ATOM     24  C   UNL     1      69.975  51.764  22.937  1.00  0.00     0.176 C 
ATOM     25  C   UNL     1      69.000  52.915  23.348  1.00  0.00     0.177 C 
BRANCH  21  26
ATOM     26  O   UNL     1      70.941  55.437  23.453  1.00  0.00    -0.387 OA
ATOM     27  H   UNL     1      71.546  54.943  24.066  1.00  0.00     0.211 HD
ENDBRANCH  21  26
BRANCH  23  28
ATOM     28  O   UNL     1      68.737  53.849  21.135  1.00  0.00    -0.387 OA
ATOM     29  H   UNL     1      69.347  54.316  20.505  1.00  0.00     0.211 HD
ENDBRANCH  23  28
BRANCH  24  30
ATOM     30  C   UNL     1      69.222  50.552  22.369  1.00  0.00     0.191 C 
BRANCH  30  31
ATOM     31  O   UNL     1      68.724  50.826  21.086  1.00  0.00    -0.394 OA
ATOM     32  H   UNL     1      69.205  51.628  20.753  1.00  0.00     0.210 HD
ENDBRANCH  30  31
ENDBRANCH  24  30
BRANCH  25  33
ATOM     33  O   UNL     1      69.254  53.277  24.682  1.00  0.00    -0.388 OA
ATOM     34  H   UNL     1      70.023  53.907  24.672  1.00  0.00     0.211 HD
ENDBRANCH  25  33
ENDBRANCH  11  20
BRANCH  10  35
ATOM     35  O   UNL     1      74.292  52.744  23.330  1.00  0.00    -0.507 OA
ATOM     36  H   UNL     1      73.785  53.113  24.125  1.00  0.00     0.293 HD
ENDBRANCH  10  35
TORSDOF 9
ENDMDL
MODEL 2
REMARK VINA RESULT:    -5.933      1.173      2.169
REMARK INTER + INTRA:          -8.799
REMARK INTER:                  -7.781
REMARK INTRA:                  -1.018
REMARK UNBOUND:                -0.785
REMARK SMILES O=c1c(-c2ccc(O)cc2)coc2c([C@@H]3O[C@H](CO)[C@@H](O)[C@H](O)[C@H]3O)c(O)ccc12
REMARK SMILES IDX 3 1 11 2 12 3 13 4 30 5 2 6 1 7 29 8 28 9 26 10 14 11 4 12
REMARK SMILES IDX 5 13 6 14 7 15 10 16 9 17 8 18 15 20 24 21 16 22 22 23 17 24
REMARK SMILES IDX 20 25 25 26 23 28 18 30 19 31 21 33 27 35
REMARK H PARENT 8 19 25 27 23 29 19 32 21 34 27 36
REMARK Flexibility Score: inf
ROOT
ATOM      1  C   UNL     1      72.265  55.371  17.091  1.00  0.00     0.065 A 
ATOM      2  C   UNL     1      71.176  55.171  17.950  1.00  0.00     0.208 A 
ATOM      3  O   UNL     1      71.359  54.739  19.192  1.00  0.00    -0.463 OA
ATOM      4  C   UNL     1      72.559  54.470  19.702  1.00  0.00     0.147 A 
ATOM      5  C   UNL     1      73.713  54.644  18.903  1.00  0.00     0.066 A 
ATOM      6  C   UNL     1      73.556  55.107  17.584  1.00  0.00     0.200 A 
ATOM      7  O   UNL     1      74.567  55.305  16.853  1.00  0.00    -0.288 OA
ATOM      8  C   UNL     1      74.977  54.352  19.438  1.00  0.00     0.020 A 
ATOM      9  C   UNL     1      75.094  53.878  20.742  1.00  0.00     0.047 A 
ATOM     10  C   UNL     1      73.958  53.694  21.540  1.00  0.00     0.125 A 
ATOM     11  C   UNL     1      72.676  54.010  21.034  1.00  0.00     0.069 A 
ENDROOT
BRANCH   1  12
ATOM     12  C   UNL     1      72.035  55.846  15.703  1.00  0.00    -0.011 A 
ATOM     13  C   UNL     1      71.613  54.955  14.701  1.00  0.00     0.013 A 
ATOM     14  C   UNL     1      71.389  55.412  13.398  1.00  0.00     0.047 A 
ATOM     15  C   UNL     1      71.578  56.760  13.082  1.00  0.00     0.115 A 
ATOM     16  C   UNL     1      72.217  57.203  15.380  1.00  0.00     0.013 A 
ATOM     17  C   UNL     1      71.993  57.655  14.076  1.00  0.00     0.047 A 
BRANCH  15  18
ATOM     18  O   UNL     1      71.352  57.200  11.779  1.00  0.00    -0.508 OA
ATOM     19  H   UNL     1      72.107  57.550  11.200  1.00  0.00     0.293 HD
ENDBRANCH  15  18
ENDBRANCH   1  12
BRANCH  11  20
ATOM     20  C   UNL     1      71.437  53.793  21.889  1.00  0.00     0.188 C 
ATOM     21  C   UNL     1      70.871  52.359  21.671  1.00  0.00     0.179 C 
ATOM     22  O   UNL     1      71.758  54.004  23.254  1.00  0.00    -0.362 OA
ATOM     23  C   UNL     1      70.279  51.787  22.977  1.00  0.00     0.177 C 
ATOM     24  C   UNL     1      70.578  54.098  24.039  1.00  0.00     0.176 C 
ATOM     25  C   UNL     1      69.603  52.896  23.813  1.00  0.00     0.177 C 
BRANCH  21  26
ATOM     26  O   UNL     1      69.874  52.387  20.682  1.00  0.00    -0.387 OA
ATOM     27  H   UNL     1      69.261  51.630  20.870  1.00  0.00     0.211 HD
ENDBRANCH  21  26
BRANCH  23  28
ATOM     28  O   UNL     1      71.306  51.183  23.724  1.00  0.00    -0.387 OA
ATOM     29  H   UNL     1      71.478  51.771  24.506  1.00  0.00     0.211 HD
ENDBRANCH  23  28
BRANCH  24  30
ATOM     30  C   UNL     1      70.985  54.237  25.513  1.00  0.00     0.191 C 
BRANCH  30  31
ATOM     31  O   UNL     1      69.950  53.815  26.362  1.00  0.00    -0.394 OA
ATOM     32  H   UNL     1      70.368  53.277  27.084  1.00  0.00     0.210 HD
ENDBRANCH  30  31
ENDBRANCH  24  30
BRANCH  25  33
ATOM     33  O   UNL     1      68.455  53.355  23.146  1.00  0.00    -0.388 OA
ATOM     34  H   UNL     1      67.707  52.755  23.408  1.00  0.00     0.211 HD
ENDBRANCH  25  33
ENDBRANCH  11  20
BRANCH  10  35
ATOM     35  O   UNL     1      74.102  53.190  22.833  1.00  0.00    -0.507 OA
ATOM     36  H   UNL     1      74.932  52.686  23.119  1.00  0.00     0.293 HD
ENDBRANCH  10  35
TORSDOF 9
ENDMDL
MODEL 3
REMARK VINA RESULT:    -5.847      2.639      3.802
REMARK INTER + INTRA:          -8.683
REMARK INTER:                  -7.991
REMARK INTRA:                  -0.692
REMARK UNBOUND:                -0.785
REMARK SMILES O=c1c(-c2ccc(O)cc2)coc2c([C@@H]3O[C@H](CO)[C@@H](O)[C@H](O)[C@H]3O)c(O)ccc12
REMARK SMILES IDX 3 1 11 2 12 3 13 4 30 5 2 6 1 7 29 8 28 9 26 10 14 11 4 12
REMARK SMILES IDX 5 13 6 14 7 15 10 16 9 17 8 18 15 20 24 21 16 22 22 23 17 24
REMARK SMILES IDX 20 25 25 26 23 28 18 30 19 31 21 33 27 35
REMARK H PARENT 8 19 25 27 23 29 19 32 21 34 27 36
REMARK Flexibility Score: inf
ROOT
ATOM      1  C   UNL     1      70.542  54.913  18.174  1.00  0.00     0.065 A 
ATOM      2  C   UNL     1      70.504  55.830  19.234  1.00  0.00     0.208 A 
ATOM      3  O   UNL     1      70.212  55.434  20.467  1.00  0.00    -0.463 OA
ATOM      4  C   UNL     1      69.940  54.169  20.782  1.00  0.00     0.147 A 
ATOM      5  C   UNL     1      69.958  53.178  19.773  1.00  0.00     0.066 A 
ATOM      6  C   UNL     1      70.271  53.562  18.456  1.00  0.00     0.200 A 
ATOM      7  O   UNL     1      70.327  52.698  17.537  1.00  0.00    -0.288 OA
ATOM      8  C   UNL     1      69.664  51.846  20.104  1.00  0.00     0.020 A 
ATOM      9  C   UNL     1      69.341  51.505  21.415  1.00  0.00     0.047 A 
ATOM     10  C   UNL     1      69.313  52.479  22.420  1.00  0.00     0.125 A 
ATOM     11  C   UNL     1      69.635  53.821  22.118  1.00  0.00     0.069 A 
ENDROOT
BRANCH   1  12
ATOM     12  C   UNL     1      70.863  55.381  16.802  1.00  0.00    -0.011 A 
ATOM     13  C   UNL     1      71.453  54.512  15.868  1.00  0.00     0.013 A 
ATOM     14  C   UNL     1      71.742  54.957  14.574  1.00  0.00     0.047 A 
ATOM     15  C   UNL     1      71.444  56.269  14.197  1.00  0.00     0.115 A 
ATOM     16  C   UNL     1      70.558  56.699  16.415  1.00  0.00     0.013 A 
ATOM     17  C   UNL     1      70.851  57.139  15.121  1.00  0.00     0.047 A 
BRANCH  15  18
ATOM     18  O   UNL     1      71.740  56.698  12.905  1.00  0.00    -0.508 OA
ATOM     19  H   UNL     1      72.127  56.067  12.213  1.00  0.00     0.293 HD
ENDBRANCH  15  18
ENDBRANCH   1  12
BRANCH  11  20
ATOM     20  C   UNL     1      69.586  54.887  23.203  1.00  0.00     0.188 C 
ATOM     21  C   UNL     1      68.113  55.182  23.609  1.00  0.00     0.179 C 
ATOM     22  O   UNL     1      70.341  54.459  24.324  1.00  0.00    -0.362 OA
ATOM     23  C   UNL     1      68.000  55.495  25.116  1.00  0.00     0.177 C 
ATOM     24  C   UNL     1      70.558  55.536  25.224  1.00  0.00     0.176 C 
ATOM     25  C   UNL     1      69.237  56.274  25.615  1.00  0.00     0.177 C 
BRANCH  21  26
ATOM     26  O   UNL     1      67.625  56.272  22.869  1.00  0.00    -0.387 OA
ATOM     27  H   UNL     1      66.724  56.482  23.228  1.00  0.00     0.211 HD
ENDBRANCH  21  26
BRANCH  23  28
ATOM     28  O   UNL     1      67.874  54.290  25.830  1.00  0.00    -0.387 OA
ATOM     29  H   UNL     1      68.669  54.221  26.422  1.00  0.00     0.211 HD
ENDBRANCH  23  28
BRANCH  24  30
ATOM     30  C   UNL     1      71.300  54.997  26.457  1.00  0.00     0.191 C 
BRANCH  30  31
ATOM     31  O   UNL     1      70.561  53.981  27.082  1.00  0.00    -0.394 OA
ATOM     32  H   UNL     1      69.973  54.419  27.751  1.00  0.00     0.210 HD
ENDBRANCH  30  31
ENDBRANCH  24  30
BRANCH  25  33
ATOM     33  O   UNL     1      69.244  57.560  25.047  1.00  0.00    -0.388 OA
ATOM     34  H   UNL     1      69.004  57.456  24.089  1.00  0.00     0.211 HD
ENDBRANCH  25  33
ENDBRANCH  11  20
BRANCH  10  35
ATOM     35  O   UNL     1      68.957  52.113  23.719  1.00  0.00    -0.507 OA
ATOM     36  H   UNL     1      68.615  52.791  24.389  1.00  0.00     0.293 HD
ENDBRANCH  10  35
TORSDOF 9
ENDMDL
MODEL 4
REMARK VINA RESULT:    -5.764      1.920      3.833
REMARK INTER + INTRA:          -8.571
REMARK INTER:                  -7.574
REMARK INTRA:                  -0.997
REMARK UNBOUND:                -0.785
REMARK SMILES O=c1c(-c2ccc(O)cc2)coc2c([C@@H]3O[C@H](CO)[C@@H](O)[C@H](O)[C@H]3O)c(O)ccc12
REMARK SMILES IDX 3 1 11 2 12 3 13 4 30 5 2 6 1 7 29 8 28 9 26 10 14 11 4 12
REMARK SMILES IDX 5 13 6 14 7 15 10 16 9 17 8 18 15 20 24 21 16 22 22 23 17 24
REMARK SMILES IDX 20 25 25 26 23 28 18 30 19 31 21 33 27 35
REMARK H PARENT 8 19 25 27 23 29 19 32 21 34 27 36
REMARK Flexibility Score: inf
ROOT
ATOM      1  C   UNL     1      71.431  55.071  16.729  1.00  0.00     0.065 A 
ATOM      2  C   UNL     1      72.523  55.376  17.553  1.00  0.00     0.208 A 
ATOM      3  O   UNL     1      72.643  54.826  18.756  1.00  0.00    -0.463 OA
ATOM      4  C   UNL     1      71.758  53.967  19.256  1.00  0.00     0.147 A 
ATOM      5  C   UNL     1      70.625  53.603  18.490  1.00  0.00     0.066 A 
ATOM      6  C   UNL     1      70.471  54.161  17.209  1.00  0.00     0.200 A 
ATOM      7  O   UNL     1      69.490  53.834  16.485  1.00  0.00    -0.288 OA
ATOM      8  C   UNL     1      69.690  52.703  19.022  1.00  0.00     0.020 A 
ATOM      9  C   UNL     1      69.865  52.183  20.302  1.00  0.00     0.047 A 
ATOM     10  C   UNL     1      70.977  52.543  21.072  1.00  0.00     0.125 A 
ATOM     11  C   UNL     1      71.950  53.424  20.548  1.00  0.00     0.069 A 
ENDROOT
BRANCH   1  12
ATOM     12  C   UNL     1      71.314  55.705  15.391  1.00  0.00    -0.011 A 
ATOM     13  C   UNL     1      71.024  57.075  15.270  1.00  0.00     0.013 A 
ATOM     14  C   UNL     1      70.925  57.667  14.007  1.00  0.00     0.047 A 
ATOM     15  C   UNL     1      71.119  56.903  12.853  1.00  0.00     0.115 A 
ATOM     16  C   UNL     1      71.515  54.942  14.226  1.00  0.00     0.013 A 
ATOM     17  C   UNL     1      71.414  55.538  12.966  1.00  0.00     0.047 A 
BRANCH  15  18
ATOM     18  O   UNL     1      71.016  57.507  11.602  1.00  0.00    -0.508 OA
ATOM     19  H   UNL     1      71.524  58.355  11.380  1.00  0.00     0.293 HD
ENDBRANCH  15  18
ENDBRANCH   1  12
BRANCH  11  20
ATOM     20  C   UNL     1      73.150  53.833  21.388  1.00  0.00     0.188 C 
ATOM     21  C   UNL     1      72.806  55.077  22.257  1.00  0.00     0.179 C 
ATOM     22  O   UNL     1      73.552  52.745  22.204  1.00  0.00    -0.362 OA
ATOM     23  C   UNL     1      73.512  55.015  23.628  1.00  0.00     0.177 C 
ATOM     24  C   UNL     1      74.830  52.991  22.776  1.00  0.00     0.176 C 
ATOM     25  C   UNL     1      74.911  54.372  23.504  1.00  0.00     0.177 C 
BRANCH  21  26
ATOM     26  O   UNL     1      73.196  56.249  21.586  1.00  0.00    -0.387 OA
ATOM     27  H   UNL     1      72.986  56.113  20.626  1.00  0.00     0.211 HD
ENDBRANCH  21  26
BRANCH  23  28
ATOM     28  O   UNL     1      72.722  54.270  24.522  1.00  0.00    -0.387 OA
ATOM     29  H   UNL     1      71.895  54.017  24.034  1.00  0.00     0.211 HD
ENDBRANCH  23  28
BRANCH  24  30
ATOM     30  C   UNL     1      75.173  51.826  23.716  1.00  0.00     0.191 C 
BRANCH  30  31
ATOM     31  O   UNL     1      74.151  50.865  23.719  1.00  0.00    -0.394 OA
ATOM     32  H   UNL     1      74.395  50.184  24.399  1.00  0.00     0.210 HD
ENDBRANCH  30  31
ENDBRANCH  24  30
BRANCH  25  33
ATOM     33  O   UNL     1      75.758  55.226  22.776  1.00  0.00    -0.388 OA
ATOM     34  H   UNL     1      75.592  55.048  21.812  1.00  0.00     0.211 HD
ENDBRANCH  25  33
ENDBRANCH  11  20
BRANCH  10  35
ATOM     35  O   UNL     1      71.113  52.030  22.363  1.00  0.00    -0.507 OA
ATOM     36  H   UNL     1      70.740  51.123  22.618  1.00  0.00     0.293 HD
ENDBRANCH  10  35
TORSDOF 9
ENDMDL
MODEL 5
REMARK VINA RESULT:    -5.690      2.806      8.126
REMARK INTER + INTRA:          -8.471
REMARK INTER:                  -7.136
REMARK INTRA:                  -1.335
REMARK UNBOUND:                -0.785
REMARK SMILES O=c1c(-c2ccc(O)cc2)coc2c([C@@H]3O[C@H](CO)[C@@H](O)[C@H](O)[C@H]3O)c(O)ccc12
REMARK SMILES IDX 3 1 11 2 12 3 13 4 30 5 2 6 1 7 29 8 28 9 26 10 14 11 4 12
REMARK SMILES IDX 5 13 6 14 7 15 10 16 9 17 8 18 15 20 24 21 16 22 22 23 17 24
REMARK SMILES IDX 20 25 25 26 23 28 18 30 19 31 21 33 27 35
REMARK H PARENT 8 19 25 27 23 29 19 32 21 34 27 36
REMARK Flexibility Score: inf
ROOT
ATOM      1  C   UNL     1      68.795  55.405  23.090  1.00  0.00     0.065 A 
ATOM      2  C   UNL     1      69.400  56.283  22.180  1.00  0.00     0.208 A 
ATOM      3  O   UNL     1      69.953  55.830  21.062  1.00  0.00    -0.463 OA
ATOM      4  C   UNL     1      69.975  54.541  20.729  1.00  0.00     0.147 A 
ATOM      5  C   UNL     1      69.386  53.586  21.591  1.00  0.00     0.066 A 
ATOM      6  C   UNL     1      68.785  54.033  22.781  1.00  0.00     0.200 A 
ATOM      7  O   UNL     1      68.222  53.212  23.558  1.00  0.00    -0.288 OA
ATOM      8  C   UNL     1      69.417  52.227  21.243  1.00  0.00     0.020 A 
ATOM      9  C   UNL     1      70.038  51.818  20.065  1.00  0.00     0.047 A 
ATOM     10  C   UNL     1      70.630  52.754  19.209  1.00  0.00     0.125 A 
ATOM     11  C   UNL     1      70.586  54.132  19.521  1.00  0.00     0.069 A 
ENDROOT
BRANCH   1  12
ATOM     12  C   UNL     1      68.190  55.935  24.339  1.00  0.00    -0.011 A 
ATOM     13  C   UNL     1      66.901  56.495  24.329  1.00  0.00     0.013 A 
ATOM     14  C   UNL     1      66.333  56.982  25.511  1.00  0.00     0.047 A 
ATOM     15  C   UNL     1      67.042  56.913  26.714  1.00  0.00     0.115 A 
ATOM     16  C   UNL     1      68.896  55.861  25.553  1.00  0.00     0.013 A 
ATOM     17  C   UNL     1      68.325  56.351  26.732  1.00  0.00     0.047 A 
BRANCH  15  18
ATOM     18  O   UNL     1      66.464  57.403  27.883  1.00  0.00    -0.508 OA
ATOM     19  H   UNL     1      65.498  57.708  27.908  1.00  0.00     0.293 HD
ENDBRANCH  15  18
ENDBRANCH   1  12
BRANCH  11  20
ATOM     20  C   UNL     1      71.246  55.150  18.604  1.00  0.00     0.188 C 
ATOM     21  C   UNL     1      72.790  55.140  18.803  1.00  0.00     0.179 C 
ATOM     22  O   UNL     1      70.911  54.864  17.257  1.00  0.00    -0.362 OA
ATOM     23  C   UNL     1      73.527  55.402  17.473  1.00  0.00     0.177 C 
ATOM     24  C   UNL     1      71.262  55.949  16.410  1.00  0.00     0.176 C 
ATOM     25  C   UNL     1      72.747  56.405  16.594  1.00  0.00     0.177 C 
BRANCH  21  26
ATOM     26  O   UNL     1      73.155  56.122  19.739  1.00  0.00    -0.387 OA
ATOM     27  H   UNL     1      72.570  56.907  19.575  1.00  0.00     0.211 HD
ENDBRANCH  21  26
BRANCH  23  28
ATOM     28  O   UNL     1      73.686  54.186  16.785  1.00  0.00    -0.387 OA
ATOM     29  H   UNL     1      72.905  53.619  17.016  1.00  0.00     0.211 HD
ENDBRANCH  23  28
BRANCH  24  30
ATOM     30  C   UNL     1      70.960  55.551  14.958  1.00  0.00     0.191 C 
BRANCH  30  31
ATOM     31  O   UNL     1      71.737  54.449  14.568  1.00  0.00    -0.394 OA
ATOM     32  H   UNL     1      71.224  53.965  13.869  1.00  0.00     0.210 HD
ENDBRANCH  30  31
ENDBRANCH  24  30
BRANCH  25  33
ATOM     33  O   UNL     1      72.767  57.674  17.196  1.00  0.00    -0.388 OA
ATOM     34  H   UNL     1      72.620  58.341  16.475  1.00  0.00     0.211 HD
ENDBRANCH  25  33
ENDBRANCH  11  20
BRANCH  10  35
ATOM     35  O   UNL     1      71.270  52.313  18.049  1.00  0.00    -0.507 OA
ATOM     36  H   UNL     1      70.911  51.540  17.503  1.00  0.00     0.293 HD
ENDBRANCH  10  35
TORSDOF 9
ENDMDL
MODEL 6
REMARK VINA RESULT:    -5.672      2.779      8.197
REMARK INTER + INTRA:          -8.446
REMARK INTER:                  -7.755
REMARK INTRA:                  -0.691
REMARK UNBOUND:                -0.785
REMARK SMILES O=c1c(-c2ccc(O)cc2)coc2c([C@@H]3O[C@H](CO)[C@@H](O)[C@H](O)[C@H]3O)c(O)ccc12
REMARK SMILES IDX 3 1 11 2 12 3 13 4 30 5 2 6 1 7 29 8 28 9 26 10 14 11 4 12
REMARK SMILES IDX 5 13 6 14 7 15 10 16 9 17 8 18 15 20 24 21 16 22 22 23 17 24
REMARK SMILES IDX 20 25 25 26 23 28 18 30 19 31 21 33 27 35
REMARK H PARENT 8 19 25 27 23 29 19 32 21 34 27 36
REMARK Flexibility Score: inf
ROOT
ATOM      1  C   UNL     1      69.420  53.649  20.338  1.00  0.00     0.065 A 
ATOM      2  C   UNL     1      70.398  53.921  19.372  1.00  0.00     0.208 A 
ATOM      3  O   UNL     1      70.336  55.020  18.630  1.00  0.00    -0.463 OA
ATOM      4  C   UNL     1      69.365  55.923  18.744  1.00  0.00     0.147 A 
ATOM      5  C   UNL     1      68.336  55.728  19.697  1.00  0.00     0.066 A 
ATOM      6  C   UNL     1      68.376  54.578  20.504  1.00  0.00     0.200 A 
ATOM      7  O   UNL     1      67.493  54.387  21.386  1.00  0.00    -0.288 OA
ATOM      8  C   UNL     1      67.309  56.677  19.811  1.00  0.00     0.020 A 
ATOM      9  C   UNL     1      67.291  57.796  18.982  1.00  0.00     0.047 A 
ATOM     10  C   UNL     1      68.299  57.995  18.031  1.00  0.00     0.125 A 
ATOM     11  C   UNL     1      69.362  57.070  17.917  1.00  0.00     0.069 A 
ENDROOT
BRANCH   1  12
ATOM     12  C   UNL     1      69.507  52.409  21.150  1.00  0.00    -0.011 A 
ATOM     13  C   UNL     1      68.816  51.248  20.761  1.00  0.00     0.013 A 
ATOM     14  C   UNL     1      68.911  50.081  21.525  1.00  0.00     0.047 A 
ATOM     15  C   UNL     1      69.696  50.056  22.682  1.00  0.00     0.115 A 
ATOM     16  C   UNL     1      70.301  52.377  22.311  1.00  0.00     0.013 A 
ATOM     17  C   UNL     1      70.391  51.208  23.072  1.00  0.00     0.047 A 
BRANCH  15  18
ATOM     18  O   UNL     1      69.779  48.886  23.433  1.00  0.00    -0.508 OA
ATOM     19  H   UNL     1      69.126  48.692  24.184  1.00  0.00     0.293 HD
ENDBRANCH  15  18
ENDBRANCH   1  12
BRANCH  11  20
ATOM     20  C   UNL     1      70.448  57.272  16.871  1.00  0.00     0.188 C 
ATOM     21  C   UNL     1      71.840  57.414  17.553  1.00  0.00     0.179 C 
ATOM     22  O   UNL     1      70.442  56.182  15.964  1.00  0.00    -0.362 OA
ATOM     23  C   UNL     1      72.951  56.771  16.697  1.00  0.00     0.177 C 
ATOM     24  C   UNL     1      71.233  56.475  14.821  1.00  0.00     0.176 C 
ATOM     25  C   UNL     1      72.672  56.964  15.190  1.00  0.00     0.177 C 
BRANCH  21  26
ATOM     26  O   UNL     1      72.134  58.773  17.754  1.00  0.00    -0.387 OA
ATOM     27  H   UNL     1      72.209  59.187  16.855  1.00  0.00     0.211 HD
ENDBRANCH  21  26
BRANCH  23  28
ATOM     28  O   UNL     1      73.032  55.400  16.997  1.00  0.00    -0.387 OA
ATOM     29  H   UNL     1      72.132  55.119  17.309  1.00  0.00     0.211 HD
ENDBRANCH  23  28
BRANCH  24  30
ATOM     30  C   UNL     1      71.264  55.232  13.919  1.00  0.00     0.191 C 
BRANCH  30  31
ATOM     31  O   UNL     1      71.902  55.511  12.701  1.00  0.00    -0.394 OA
ATOM     32  H   UNL     1      72.520  56.271  12.864  1.00  0.00     0.210 HD
ENDBRANCH  30  31
ENDBRANCH  24  30
BRANCH  25  33
ATOM     33  O   UNL     1      72.795  58.324  14.858  1.00  0.00    -0.388 OA
ATOM     34  H   UNL     1      73.341  58.749  15.571  1.00  0.00     0.211 HD
ENDBRANCH  25  33
ENDBRANCH  11  20
BRANCH  10  35
ATOM     35  O   UNL     1      68.241  59.110  17.194  1.00  0.00    -0.507 OA
ATOM     36  H   UNL     1      67.449  59.280  16.587  1.00  0.00     0.293 HD
ENDBRANCH  10  35
TORSDOF 9
ENDMDL
MODEL 7
REMARK VINA RESULT:    -5.648      3.562      8.383
REMARK INTER + INTRA:          -8.414
REMARK INTER:                  -7.120
REMARK INTRA:                  -1.294
REMARK UNBOUND:                -0.785
REMARK SMILES O=c1c(-c2ccc(O)cc2)coc2c([C@@H]3O[C@H](CO)[C@@H](O)[C@H](O)[C@H]3O)c(O)ccc12
REMARK SMILES IDX 3 1 11 2 12 3 13 4 30 5 2 6 1 7 29 8 28 9 26 10 14 11 4 12
REMARK SMILES IDX 5 13 6 14 7 15 10 16 9 17 8 18 15 20 24 21 16 22 22 23 17 24
REMARK SMILES IDX 20 25 25 26 23 28 18 30 19 31 21 33 27 35
REMARK H PARENT 8 19 25 27 23 29 19 32 21 34 27 36
REMARK Flexibility Score: inf
ROOT
ATOM      1  C   UNL     1      67.393  56.628  21.845  1.00  0.00     0.065 A 
ATOM      2  C   UNL     1      68.494  57.232  21.223  1.00  0.00     0.208 A 
ATOM      3  O   UNL     1      69.091  56.656  20.186  1.00  0.00    -0.463 OA
ATOM      4  C   UNL     1      68.698  55.493  19.672  1.00  0.00     0.147 A 
ATOM      5  C   UNL     1      67.593  54.815  20.239  1.00  0.00     0.066 A 
ATOM      6  C   UNL     1      66.934  55.400  21.334  1.00  0.00     0.200 A 
ATOM      7  O   UNL     1      65.924  54.839  21.845  1.00  0.00    -0.288 OA
ATOM      8  C   UNL     1      67.186  53.584  19.701  1.00  0.00     0.020 A 
ATOM      9  C   UNL     1      67.873  53.025  18.627  1.00  0.00     0.047 A 
ATOM     10  C   UNL     1      68.973  53.683  18.063  1.00  0.00     0.125 A 
ATOM     11  C   UNL     1      69.385  54.939  18.567  1.00  0.00     0.069 A 
ENDROOT
BRANCH   1  12
ATOM     12  C   UNL     1      66.748  57.286  23.009  1.00  0.00    -0.011 A 
ATOM     13  C   UNL     1      65.665  58.165  22.826  1.00  0.00     0.013 A 
ATOM     14  C   UNL     1      65.055  58.773  23.928  1.00  0.00     0.047 A 
ATOM     15  C   UNL     1      65.515  58.510  25.222  1.00  0.00     0.115 A 
ATOM     16  C   UNL     1      67.201  57.020  24.314  1.00  0.00     0.013 A 
ATOM     17  C   UNL     1      66.589  57.632  25.412  1.00  0.00     0.047 A 
BRANCH  15  18
ATOM     18  O   UNL     1      64.898  59.125  26.310  1.00  0.00    -0.508 OA
ATOM     19  H   UNL     1      64.007  59.599  26.214  1.00  0.00     0.293 HD
ENDBRANCH  15  18
ENDBRANCH   1  12
BRANCH  11  20
ATOM     20  C   UNL     1      70.591  55.648  17.971  1.00  0.00     0.188 C 
ATOM     21  C   UNL     1      71.905  55.129  18.625  1.00  0.00     0.179 C 
ATOM     22  O   UNL     1      70.615  55.448  16.568  1.00  0.00    -0.362 OA
ATOM     23  C   UNL     1      73.060  55.087  17.603  1.00  0.00     0.177 C 
ATOM     24  C   UNL     1      71.545  56.326  15.950  1.00  0.00     0.176 C 
ATOM     25  C   UNL     1      72.963  56.264  16.607  1.00  0.00     0.177 C 
BRANCH  21  26
ATOM     26  O   UNL     1      72.263  55.961  19.698  1.00  0.00    -0.387 OA
ATOM     27  H   UNL     1      71.499  55.958  20.332  1.00  0.00     0.211 HD
ENDBRANCH  21  26
BRANCH  23  28
ATOM     28  O   UNL     1      73.017  53.867  16.905  1.00  0.00    -0.387 OA
ATOM     29  H   UNL     1      73.733  53.292  17.284  1.00  0.00     0.211 HD
ENDBRANCH  23  28
BRANCH  24  30
ATOM     30  C   UNL     1      71.595  56.005  14.449  1.00  0.00     0.191 C 
BRANCH  30  31
ATOM     31  O   UNL     1      71.597  54.619  14.232  1.00  0.00    -0.394 OA
ATOM     32  H   UNL     1      71.052  54.211  14.954  1.00  0.00     0.210 HD
ENDBRANCH  30  31
ENDBRANCH  24  30
BRANCH  25  33
ATOM     33  O   UNL     1      73.210  57.472  17.281  1.00  0.00    -0.388 OA
ATOM     34  H   UNL     1      72.680  58.176  16.821  1.00  0.00     0.211 HD
ENDBRANCH  25  33
ENDBRANCH  11  20
BRANCH  10  35
ATOM     35  O   UNL     1      69.661  53.087  17.007  1.00  0.00    -0.507 OA
ATOM     36  H   UNL     1      69.274  53.048  16.072  1.00  0.00     0.293 HD
ENDBRANCH  10  35
TORSDOF 9
ENDMDL
MODEL 8
REMARK VINA RESULT:    -5.591      4.530      7.249
REMARK INTER + INTRA:          -8.338
REMARK INTER:                  -7.461
REMARK INTRA:                  -0.877
REMARK UNBOUND:                -0.785
REMARK SMILES O=c1c(-c2ccc(O)cc2)coc2c([C@@H]3O[C@H](CO)[C@@H](O)[C@H](O)[C@H]3O)c(O)ccc12
REMARK SMILES IDX 3 1 11 2 12 3 13 4 30 5 2 6 1 7 29 8 28 9 26 10 14 11 4 12
REMARK SMILES IDX 5 13 6 14 7 15 10 16 9 17 8 18 15 20 24 21 16 22 22 23 17 24
REMARK SMILES IDX 20 25 25 26 23 28 18 30 19 31 21 33 27 35
REMARK H PARENT 8 19 25 27 23 29 19 32 21 34 27 36
REMARK Flexibility Score: inf
ROOT
ATOM      1  C   UNL     1      67.785  54.873  21.821  1.00  0.00     0.065 A 
ATOM      2  C   UNL     1      68.738  54.590  22.809  1.00  0.00     0.208 A 
ATOM      3  O   UNL     1      68.658  55.146  24.012  1.00  0.00    -0.463 OA
ATOM      4  C   UNL     1      67.691  55.990  24.362  1.00  0.00     0.147 A 
ATOM      5  C   UNL     1      66.686  56.330  23.426  1.00  0.00     0.066 A 
ATOM      6  C   UNL     1      66.737  55.755  22.144  1.00  0.00     0.200 A 
ATOM      7  O   UNL     1      65.839  56.011  21.294  1.00  0.00    -0.288 OA
ATOM      8  C   UNL     1      65.672  57.227  23.794  1.00  0.00     0.020 A 
ATOM      9  C   UNL     1      65.662  57.792  25.067  1.00  0.00     0.047 A 
ATOM     10  C   UNL     1      66.656  57.469  25.998  1.00  0.00     0.125 A 
ATOM     11  C   UNL     1      67.671  56.545  25.663  1.00  0.00     0.069 A 
ENDROOT
BRANCH   1  12
ATOM     12  C   UNL     1      67.901  54.247  20.480  1.00  0.00    -0.011 A 
ATOM     13  C   UNL     1      68.806  54.751  19.529  1.00  0.00     0.013 A 
ATOM     14  C   UNL     1      68.917  54.150  18.272  1.00  0.00     0.047 A 
ATOM     15  C   UNL     1      68.132  53.039  17.949  1.00  0.00     0.115 A 
ATOM     16  C   UNL     1      67.118  53.125  20.152  1.00  0.00     0.013 A 
ATOM     17  C   UNL     1      67.231  52.529  18.893  1.00  0.00     0.047 A 
BRANCH  15  18
ATOM     18  O   UNL     1      68.253  52.452  16.691  1.00  0.00    -0.508 OA
ATOM     19  H   UNL     1      67.511  51.884  16.299  1.00  0.00     0.293 HD
ENDBRANCH  15  18
ENDBRANCH   1  12
BRANCH  11  20
ATOM     20  C   UNL     1      68.765  56.206  26.664  1.00  0.00     0.188 C 
ATOM     21  C   UNL     1      68.824  54.670  26.906  1.00  0.00     0.179 C 
ATOM     22  O   UNL     1      70.011  56.688  26.189  1.00  0.00    -0.362 OA
ATOM     23  C   UNL     1      70.274  54.194  27.132  1.00  0.00     0.177 C 
ATOM     24  C   UNL     1      70.990  56.652  27.218  1.00  0.00     0.176 C 
ATOM     25  C   UNL     1      71.092  55.252  27.907  1.00  0.00     0.177 C 
BRANCH  21  26
ATOM     26  O   UNL     1      68.045  54.335  28.027  1.00  0.00    -0.387 OA
ATOM     27  H   UNL     1      67.519  55.143  28.263  1.00  0.00     0.211 HD
ENDBRANCH  21  26
BRANCH  23  28
ATOM     28  O   UNL     1      70.877  53.942  25.887  1.00  0.00    -0.387 OA
ATOM     29  H   UNL     1      70.836  52.961  25.739  1.00  0.00     0.211 HD
ENDBRANCH  23  28
BRANCH  24  30
ATOM     30  C   UNL     1      72.334  57.098  26.625  1.00  0.00     0.191 C 
BRANCH  30  31
ATOM     31  O   UNL     1      73.076  55.995  26.175  1.00  0.00    -0.394 OA
ATOM     32  H   UNL     1      72.449  55.227  26.122  1.00  0.00     0.210 HD
ENDBRANCH  30  31
ENDBRANCH  24  30
BRANCH  25  33
ATOM     33  O   UNL     1      70.607  55.351  29.222  1.00  0.00    -0.388 OA
ATOM     34  H   UNL     1      71.342  55.725  29.776  1.00  0.00     0.211 HD
ENDBRANCH  25  33
ENDBRANCH  11  20
BRANCH  10  35
ATOM     35  O   UNL     1      66.638  58.072  27.257  1.00  0.00    -0.507 OA
ATOM     36  H   UNL     1      65.798  58.102  27.822  1.00  0.00     0.293 HD
ENDBRANCH  10  35
TORSDOF 9
ENDMDL
MODEL 9
REMARK VINA RESULT:    -5.470      1.724      2.947
REMARK INTER + INTRA:          -8.173
REMARK INTER:                  -6.831
REMARK INTRA:                  -1.342
REMARK UNBOUND:                -0.785
REMARK SMILES O=c1c(-c2ccc(O)cc2)coc2c([C@@H]3O[C@H](CO)[C@@H](O)[C@H](O)[C@H]3O)c(O)ccc12
REMARK SMILES IDX 3 1 11 2 12 3 13 4 30 5 2 6 1 7 29 8 28 9 26 10 14 11 4 12
REMARK SMILES IDX 5 13 6 14 7 15 10 16 9 17 8 18 15 20 24 21 16 22 22 23 17 24
REMARK SMILES IDX 20 25 25 26 23 28 18 30 19 31 21 33 27 35
REMARK H PARENT 8 19 25 27 23 29 19 32 21 34 27 36
REMARK Flexibility Score: inf
ROOT
ATOM      1  C   UNL     1      71.727  55.463  17.867  1.00  0.00     0.065 A 
ATOM      2  C   UNL     1      70.631  55.872  18.639  1.00  0.00     0.208 A 
ATOM      3  O   UNL     1      70.594  55.645  19.946  1.00  0.00    -0.463 OA
ATOM      4  C   UNL     1      71.571  55.027  20.606  1.00  0.00     0.147 A 
ATOM      5  C   UNL     1      72.716  54.580  19.905  1.00  0.00     0.066 A 
ATOM      6  C   UNL     1      72.790  54.811  18.520  1.00  0.00     0.200 A 
ATOM      7  O   UNL     1      73.811  54.455  17.868  1.00  0.00    -0.288 OA
ATOM      8  C   UNL     1      73.741  53.922  20.601  1.00  0.00     0.020 A 
ATOM      9  C   UNL     1      73.626  53.694  21.970  1.00  0.00     0.047 A 
ATOM     10  C   UNL     1      72.495  54.125  22.673  1.00  0.00     0.125 A 
ATOM     11  C   UNL     1      71.461  54.817  22.001  1.00  0.00     0.069 A 
ENDROOT
BRANCH   1  12
ATOM     12  C   UNL     1      71.741  55.720  16.405  1.00  0.00    -0.011 A 
ATOM     13  C   UNL     1      71.415  54.700  15.495  1.00  0.00     0.013 A 
ATOM     14  C   UNL     1      71.420  54.952  14.119  1.00  0.00     0.047 A 
ATOM     15  C   UNL     1      71.747  56.223  13.637  1.00  0.00     0.115 A 
ATOM     16  C   UNL     1      72.062  56.999  15.915  1.00  0.00     0.013 A 
ATOM     17  C   UNL     1      72.068  57.246  14.539  1.00  0.00     0.047 A 
BRANCH  15  18
ATOM     18  O   UNL     1      71.749  56.459  12.264  1.00  0.00    -0.508 OA
ATOM     19  H   UNL     1      71.098  57.108  11.837  1.00  0.00     0.293 HD
ENDBRANCH  15  18
ENDBRANCH   1  12
BRANCH  11  20
ATOM     20  C   UNL     1      70.220  55.269  22.755  1.00  0.00     0.188 C 
ATOM     21  C   UNL     1      69.290  54.056  23.047  1.00  0.00     0.179 C 
ATOM     22  O   UNL     1      70.604  55.909  23.961  1.00  0.00    -0.362 OA
ATOM     23  C   UNL     1      68.585  54.206  24.411  1.00  0.00     0.177 C 
ATOM     24  C   UNL     1      69.502  56.594  24.539  1.00  0.00     0.176 C 
ATOM     25  C   UNL     1      68.240  55.685  24.697  1.00  0.00     0.177 C 
BRANCH  21  26
ATOM     26  O   UNL     1      68.324  53.943  22.033  1.00  0.00    -0.387 OA
ATOM     27  H   UNL     1      67.813  54.794  22.028  1.00  0.00     0.211 HD
ENDBRANCH  21  26
BRANCH  23  28
ATOM     28  O   UNL     1      69.423  53.707  25.423  1.00  0.00    -0.387 OA
ATOM     29  H   UNL     1      69.103  54.093  26.280  1.00  0.00     0.211 HD
ENDBRANCH  23  28
BRANCH  24  30
ATOM     30  C   UNL     1      69.950  57.191  25.881  1.00  0.00     0.191 C 
BRANCH  30  31
ATOM     31  O   UNL     1      70.291  56.180  26.792  1.00  0.00    -0.394 OA
ATOM     32  H   UNL     1      69.531  56.090  27.424  1.00  0.00     0.210 HD
ENDBRANCH  30  31
ENDBRANCH  24  30
BRANCH  25  33
ATOM     33  O   UNL     1      67.246  56.118  23.803  1.00  0.00    -0.388 OA
ATOM     34  H   UNL     1      66.369  55.962  24.243  1.00  0.00     0.211 HD
ENDBRANCH  25  33
ENDBRANCH  11  20
BRANCH  10  35
ATOM     35  O   UNL     1      72.392  53.858  24.038  1.00  0.00    -0.507 OA
ATOM     36  H   UNL     1      73.004  53.195  24.499  1.00  0.00     0.293 HD
ENDBRANCH  10  35
TORSDOF 9
ENDMDL
