MODEL 1
REMARK VINA RESULT:    -5.437      0.000      0.000
REMARK INTER + INTRA:          -7.784
REMARK INTER:                  -7.344
REMARK INTRA:                  -0.440
REMARK UNBOUND:                -0.440
REMARK SMILES CCCCCCC=CC(=O)[O-]
REMARK SMILES IDX 5 1 6 2 7 3 8 4 9 5 10 6 11 7 4 8 3 9 2 10 1 11
REMARK H PARENT
REMARK Flexibility Score: inf
ROOT
ATOM      1  C   UNL     1     129.479 127.348 123.873  1.00  0.00     0.004 C 
ENDROOT
BRANCH   1   2
ATOM      2  C   UNL     1     129.383 128.332 125.048  1.00  0.00     0.027 C 
BRANCH   2   3
ATOM      3  C   UNL     1     129.228 127.619 126.368  1.00  0.00    -0.025 C 
ATOM      4  C   UNL     1     130.211 127.150 127.156  1.00  0.00     0.020 C 
BRANCH   4   5
ATOM      5  C   UNL     1     131.669 127.235 126.925  1.00  0.00     0.064 C 
ATOM      6  O   UNL     1     132.414 127.990 127.601  1.00  0.00    -0.545 OA
ATOM      7  O   UNL     1     132.233 126.459 125.922  1.00  0.00    -0.545 OA
ENDBRANCH   4   5
ENDBRANCH   2   3
ENDBRANCH   1   2
BRANCH   1   8
ATOM      8  C   UNL     1     128.113 126.781 123.463  1.00  0.00     0.000 C 
BRANCH   8   9
ATOM      9  C   UNL     1     127.810 127.086 121.992  1.00  0.00    -0.000 C 
BRANCH   9  10
ATOM     10  C   UNL     1     127.569 128.585 121.779  1.00  0.00    -0.003 C 
ATOM     11  C   UNL     1     126.120 128.958 122.073  1.00  0.00     0.004 C 
ENDBRANCH   9  10
ENDBRANCH   8   9
ENDBRANCH   1   8
TORSDOF 6
ENDMDL
MODEL 2
REMARK VINA RESULT:    -5.222      2.137      2.519
REMARK INTER + INTRA:          -7.493
REMARK INTER:                  -7.079
REMARK INTRA:                  -0.414
REMARK UNBOUND:                -0.440
REMARK SMILES CCCCCCC=CC(=O)[O-]
REMARK SMILES IDX 5 1 6 2 7 3 8 4 9 5 10 6 11 7 4 8 3 9 2 10 1 11
REMARK H PARENT
REMARK Flexibility Score: inf
ROOT
ATOM      1  C   UNL     1     129.745 127.260 124.216  1.00  0.00     0.004 C 
ENDROOT
BRANCH   1   2
ATOM      2  C   UNL     1     130.811 126.160 124.336  1.00  0.00     0.027 C 
BRANCH   2   3
ATOM      3  C   UNL     1     131.550 126.233 125.647  1.00  0.00    -0.025 C 
ATOM      4  C   UNL     1     131.265 125.561 126.776  1.00  0.00     0.020 C 
BRANCH   4   5
ATOM      5  C   UNL     1     130.176 124.585 126.994  1.00  0.00     0.064 C 
ATOM      6  O   UNL     1     130.384 123.347 127.059  1.00  0.00    -0.545 OA
ATOM      7  O   UNL     1     128.875 125.054 127.122  1.00  0.00    -0.545 OA
ENDBRANCH   4   5
ENDBRANCH   2   3
ENDBRANCH   1   2
BRANCH   1   8
ATOM      8  C   UNL     1     128.357 126.704 123.873  1.00  0.00     0.000 C 
BRANCH   8   9
ATOM      9  C   UNL     1     127.994 126.994 122.412  1.00  0.00    -0.000 C 
BRANCH   9  10
ATOM     10  C   UNL     1     127.908 128.503 122.156  1.00  0.00    -0.003 C 
ATOM     11  C   UNL     1     126.459 128.959 122.025  1.00  0.00     0.004 C 
ENDBRANCH   9  10
ENDBRANCH   8   9
ENDBRANCH   1   8
TORSDOF 6
ENDMDL
MODEL 3
REMARK VINA RESULT:    -5.108      2.844      5.020
REMARK INTER + INTRA:          -7.340
REMARK INTER:                  -6.788
REMARK INTRA:                  -0.552
REMARK UNBOUND:                -0.440
REMARK SMILES CCCCCCC=CC(=O)[O-]
REMARK SMILES IDX 5 1 6 2 7 3 8 4 9 5 10 6 11 7 4 8 3 9 2 10 1 11
REMARK H PARENT
REMARK Flexibility Score: inf
ROOT
ATOM      1  C   UNL     1     130.949 125.633 127.299  1.00  0.00     0.004 C 
ENDROOT
BRANCH   1   2
ATOM      2  C   UNL     1     131.731 126.370 126.202  1.00  0.00     0.027 C 
BRANCH   2   3
ATOM      3  C   UNL     1     131.260 125.986 124.822  1.00  0.00    -0.025 C 
ATOM      4  C   UNL     1     130.239 126.527 124.135  1.00  0.00     0.020 C 
BRANCH   4   5
ATOM      5  C   UNL     1     129.351 127.631 124.559  1.00  0.00     0.064 C 
ATOM      6  O   UNL     1     128.573 127.529 125.542  1.00  0.00    -0.545 OA
ATOM      7  O   UNL     1     129.372 128.819 123.841  1.00  0.00    -0.545 OA
ENDBRANCH   4   5
ENDBRANCH   2   3
ENDBRANCH   1   2
BRANCH   1   8
ATOM      8  C   UNL     1     130.499 124.232 126.865  1.00  0.00     0.000 C 
BRANCH   8   9
ATOM      9  C   UNL     1     129.035 123.983 127.244  1.00  0.00    -0.000 C 
BRANCH   9  10
ATOM     10  C   UNL     1     128.437 125.198 127.963  1.00  0.00    -0.003 C 
ATOM     11  C   UNL     1     127.572 124.771 129.144  1.00  0.00     0.004 C 
ENDBRANCH   9  10
ENDBRANCH   8   9
ENDBRANCH   1   8
TORSDOF 6
ENDMDL
MODEL 4
REMARK VINA RESULT:    -5.058      3.278      5.647
REMARK INTER + INTRA:          -7.273
REMARK INTER:                  -6.744
REMARK INTRA:                  -0.528
REMARK UNBOUND:                -0.440
REMARK SMILES CCCCCCC=CC(=O)[O-]
REMARK SMILES IDX 5 1 6 2 7 3 8 4 9 5 10 6 11 7 4 8 3 9 2 10 1 11
REMARK H PARENT
REMARK Flexibility Score: inf
ROOT
ATOM      1  C   UNL     1     129.017 127.889 126.434  1.00  0.00     0.004 C 
ENDROOT
BRANCH   1   2
ATOM      2  C   UNL     1     129.152 128.005 124.908  1.00  0.00     0.027 C 
BRANCH   2   3
ATOM      3  C   UNL     1     128.633 126.779 124.203  1.00  0.00    -0.025 C 
ATOM      4  C   UNL     1     127.868 126.743 123.097  1.00  0.00     0.020 C 
BRANCH   4   5
ATOM      5  C   UNL     1     127.372 127.890 122.307  1.00  0.00     0.064 C 
ATOM      6  O   UNL     1     128.107 128.529 121.513  1.00  0.00    -0.545 OA
ATOM      7  O   UNL     1     126.047 128.278 122.456  1.00  0.00    -0.545 OA
ENDBRANCH   4   5
ENDBRANCH   2   3
ENDBRANCH   1   2
BRANCH   1   8
ATOM      8  C   UNL     1     129.064 126.435 126.922  1.00  0.00     0.000 C 
BRANCH   8   9
ATOM      9  C   UNL     1     130.471 126.063 127.406  1.00  0.00    -0.000 C 
BRANCH   9  10
ATOM     10  C   UNL     1     130.801 124.604 127.068  1.00  0.00    -0.003 C 
ATOM     11  C   UNL     1     129.532 123.785 126.856  1.00  0.00     0.004 C 
ENDBRANCH   9  10
ENDBRANCH   8   9
ENDBRANCH   1   8
TORSDOF 6
ENDMDL
MODEL 5
REMARK VINA RESULT:    -5.006      3.540      5.972
REMARK INTER + INTRA:          -7.202
REMARK INTER:                  -6.887
REMARK INTRA:                  -0.315
REMARK UNBOUND:                -0.440
REMARK SMILES CCCCCCC=CC(=O)[O-]
REMARK SMILES IDX 5 1 6 2 7 3 8 4 9 5 10 6 11 7 4 8 3 9 2 10 1 11
REMARK H PARENT
REMARK Flexibility Score: inf
ROOT
ATOM      1  C   UNL     1     130.148 126.752 124.942  1.00  0.00     0.004 C 
ENDROOT
BRANCH   1   2
ATOM      2  C   UNL     1     128.788 127.069 124.301  1.00  0.00     0.027 C 
BRANCH   2   3
ATOM      3  C   UNL     1     128.887 128.192 123.300  1.00  0.00    -0.025 C 
ATOM      4  C   UNL     1     127.963 128.549 122.390  1.00  0.00     0.020 C 
BRANCH   4   5
ATOM      5  C   UNL     1     126.634 127.940 122.168  1.00  0.00     0.064 C 
ATOM      6  O   UNL     1     126.494 126.755 121.772  1.00  0.00    -0.545 OA
ATOM      7  O   UNL     1     125.501 128.709 122.398  1.00  0.00    -0.545 OA
ENDBRANCH   4   5
ENDBRANCH   2   3
ENDBRANCH   1   2
BRANCH   1   8
ATOM      8  C   UNL     1     130.283 127.330 126.357  1.00  0.00     0.000 C 
BRANCH   8   9
ATOM      9  C   UNL     1     130.304 126.213 127.407  1.00  0.00    -0.000 C 
BRANCH   9  10
ATOM     10  C   UNL     1     130.881 124.918 126.822  1.00  0.00    -0.003 C 
ATOM     11  C   UNL     1     129.949 123.737 127.072  1.00  0.00     0.004 C 
ENDBRANCH   9  10
ENDBRANCH   8   9
ENDBRANCH   1   8
TORSDOF 6
ENDMDL
MODEL 6
REMARK VINA RESULT:    -4.802      3.472      5.882
REMARK INTER + INTRA:          -6.927
REMARK INTER:                  -6.749
REMARK INTRA:                  -0.178
REMARK UNBOUND:                -0.440
REMARK SMILES CCCCCCC=CC(=O)[O-]
REMARK SMILES IDX 5 1 6 2 7 3 8 4 9 5 10 6 11 7 4 8 3 9 2 10 1 11
REMARK H PARENT
REMARK Flexibility Score: inf
ROOT
ATOM      1  C   UNL     1     128.666 126.698 124.935  1.00  0.00     0.004 C 
ENDROOT
BRANCH   1   2
ATOM      2  C   UNL     1     129.078 126.850 123.463  1.00  0.00     0.027 C 
BRANCH   2   3
ATOM      3  C   UNL     1     128.856 128.253 122.959  1.00  0.00    -0.025 C 
ATOM      4  C   UNL     1     127.728 128.753 122.425  1.00  0.00     0.020 C 
BRANCH   4   5
ATOM      5  C   UNL     1     126.441 128.054 122.219  1.00  0.00     0.064 C 
ATOM      6  O   UNL     1     125.333 128.601 122.454  1.00  0.00    -0.545 OA
ATOM      7  O   UNL     1     126.459 126.745 121.758  1.00  0.00    -0.545 OA
ENDBRANCH   4   5
ENDBRANCH   2   3
ENDBRANCH   1   2
BRANCH   1   8
ATOM      8  C   UNL     1     129.856 126.385 125.852  1.00  0.00     0.000 C 
BRANCH   8   9
ATOM      9  C   UNL     1     130.253 127.616 126.675  1.00  0.00    -0.000 C 
BRANCH   9  10
ATOM     10  C   UNL     1     131.697 127.499 127.178  1.00  0.00    -0.003 C 
ATOM     11  C   UNL     1     132.335 126.190 126.726  1.00  0.00     0.004 C 
ENDBRANCH   9  10
ENDBRANCH   8   9
ENDBRANCH   1   8
TORSDOF 6
ENDMDL
MODEL 7
REMARK VINA RESULT:    -4.558      5.330      6.823
REMARK INTER + INTRA:          -6.597
REMARK INTER:                  -6.227
REMARK INTRA:                  -0.370
REMARK UNBOUND:                -0.440
REMARK SMILES CCCCCCC=CC(=O)[O-]
REMARK SMILES IDX 5 1 6 2 7 3 8 4 9 5 10 6 11 7 4 8 3 9 2 10 1 11
REMARK H PARENT
REMARK Flexibility Score: inf
ROOT
ATOM      1  C   UNL     1     128.608 125.216 128.405  1.00  0.00     0.004 C 
ENDROOT
BRANCH   1   2
ATOM      2  C   UNL     1     127.412 125.222 129.370  1.00  0.00     0.027 C 
BRANCH   2   3
ATOM      3  C   UNL     1     126.261 124.403 128.844  1.00  0.00    -0.025 C 
ATOM      4  C   UNL     1     124.951 124.685 128.952  1.00  0.00     0.020 C 
BRANCH   4   5
ATOM      5  C   UNL     1     124.332 125.864 129.594  1.00  0.00     0.064 C 
ATOM      6  O   UNL     1     123.686 125.783 130.669  1.00  0.00    -0.545 OA
ATOM      7  O   UNL     1     124.464 127.103 128.982  1.00  0.00    -0.545 OA
ENDBRANCH   4   5
ENDBRANCH   2   3
ENDBRANCH   1   2
BRANCH   1   8
ATOM      8  C   UNL     1     128.620 123.986 127.488  1.00  0.00     0.000 C 
BRANCH   8   9
ATOM      9  C   UNL     1     130.048 123.648 127.042  1.00  0.00    -0.000 C 
BRANCH   9  10
ATOM     10  C   UNL     1     130.938 124.895 127.053  1.00  0.00    -0.003 C 
ATOM     11  C   UNL     1     131.047 125.508 125.661  1.00  0.00     0.004 C 
ENDBRANCH   9  10
ENDBRANCH   8   9
ENDBRANCH   1   8
TORSDOF 6
ENDMDL
MODEL 8
REMARK VINA RESULT:    -4.489      2.569      5.535
REMARK INTER + INTRA:          -6.504
REMARK INTER:                  -6.044
REMARK INTRA:                  -0.460
REMARK UNBOUND:                -0.440
REMARK SMILES CCCCCCC=CC(=O)[O-]
REMARK SMILES IDX 5 1 6 2 7 3 8 4 9 5 10 6 11 7 4 8 3 9 2 10 1 11
REMARK H PARENT
REMARK Flexibility Score: inf
ROOT
ATOM      1  C   UNL     1     131.730 125.660 126.533  1.00  0.00     0.004 C 
ENDROOT
BRANCH   1   2
ATOM      2  C   UNL     1     131.460 126.088 125.084  1.00  0.00     0.027 C 
BRANCH   2   3
ATOM      3  C   UNL     1     130.033 125.824 124.676  1.00  0.00    -0.025 C 
ATOM      4  C   UNL     1     129.080 126.738 124.424  1.00  0.00     0.020 C 
BRANCH   4   5
ATOM      5  C   UNL     1     129.208 128.210 124.473  1.00  0.00     0.064 C 
ATOM      6  O   UNL     1     129.250 128.847 125.556  1.00  0.00    -0.545 OA
ATOM      7  O   UNL     1     129.277 128.914 123.278  1.00  0.00    -0.545 OA
ENDBRANCH   4   5
ENDBRANCH   2   3
ENDBRANCH   1   2
BRANCH   1   8
ATOM      8  C   UNL     1     131.101 126.613 127.558  1.00  0.00     0.000 C 
BRANCH   8   9
ATOM      9  C   UNL     1     131.951 127.878 127.726  1.00  0.00    -0.000 C 
BRANCH   9  10
ATOM     10  C   UNL     1     131.703 128.530 129.091  1.00  0.00    -0.003 C 
ATOM     11  C   UNL     1     132.853 129.454 129.478  1.00  0.00     0.004 C 
ENDBRANCH   9  10
ENDBRANCH   8   9
ENDBRANCH   1   8
TORSDOF 6
ENDMDL
MODEL 9
REMARK VINA RESULT:    -4.224      4.436      6.018
REMARK INTER + INTRA:          -6.146
REMARK INTER:                  -5.811
REMARK INTRA:                  -0.335
REMARK UNBOUND:                -0.440
REMARK SMILES CCCCCCC=CC(=O)[O-]
REMARK SMILES IDX 5 1 6 2 7 3 8 4 9 5 10 6 11 7 4 8 3 9 2 10 1 11
REMARK H PARENT
REMARK Flexibility Score: inf
ROOT
ATOM      1  C   UNL     1     128.713 126.331 127.105  1.00  0.00     0.004 C 
ENDROOT
BRANCH   1   2
ATOM      2  C   UNL     1     128.106 124.967 127.465  1.00  0.00     0.027 C 
BRANCH   2   3
ATOM      3  C   UNL     1     127.962 124.792 128.956  1.00  0.00    -0.025 C 
ATOM      4  C   UNL     1     126.821 124.804 129.666  1.00  0.00     0.020 C 
BRANCH   4   5
ATOM      5  C   UNL     1     125.444 124.976 129.157  1.00  0.00     0.064 C 
ATOM      6  O   UNL     1     124.830 124.060 128.553  1.00  0.00    -0.545 OA
ATOM      7  O   UNL     1     124.810 126.197 129.345  1.00  0.00    -0.545 OA
ENDBRANCH   4   5
ENDBRANCH   2   3
ENDBRANCH   1   2
BRANCH   1   8
ATOM      8  C   UNL     1     129.116 126.427 125.627  1.00  0.00     0.000 C 
BRANCH   8   9
ATOM      9  C   UNL     1     130.631 126.607 125.480  1.00  0.00    -0.000 C 
BRANCH   9  10
ATOM     10  C   UNL     1     131.359 126.218 126.772  1.00  0.00    -0.003 C 
ATOM     11  C   UNL     1     132.268 127.344 127.254  1.00  0.00     0.004 C 
ENDBRANCH   9  10
ENDBRANCH   8   9
ENDBRANCH   1   8
TORSDOF 6
ENDMDL
