MODEL 1
REMARK VINA RESULT:    -4.058      0.000      0.000
REMARK INTER + INTRA:          -8.180
REMARK INTER:                  -7.143
REMARK INTRA:                  -1.037
REMARK UNBOUND:                -1.037
REMARK SMILES CCCCCCC=CCCCCCCCC(=O)[O-]
REMARK SMILES IDX 10 1 11 2 12 3 13 4 14 5 15 6 16 7 17 8 18 9 9 10 8 11 7 12
REMARK SMILES IDX 6 13 5 14 4 15 3 16 2 17 1 18
REMARK H PARENT
REMARK Flexibility Score: inf
ROOT
ATOM      1  C   UNL     1      11.780   2.519 -17.907  1.00  0.00     0.004 C 
ENDROOT
BRANCH   1   2
ATOM      2  C   UNL     1      12.580   3.309 -18.954  1.00  0.00     0.000 C 
BRANCH   2   3
ATOM      3  C   UNL     1      12.586   2.630 -20.335  1.00  0.00     0.000 C 
BRANCH   3   4
ATOM      4  C   UNL     1      13.322   1.273 -20.312  1.00  0.00     0.000 C 
BRANCH   4   5
ATOM      5  C   UNL     1      12.377   0.060 -20.369  1.00  0.00     0.006 C 
BRANCH   5   6
ATOM      6  C   UNL     1      11.135   0.311 -21.231  1.00  0.00     0.053 C 
BRANCH   6   7
ATOM      7  C   UNL     1      11.061  -0.687 -22.343  1.00  0.00     0.041 C 
ATOM      8  O   UNL     1      12.011  -0.796 -23.162  1.00  0.00    -0.550 OA
ATOM      9  O   UNL     1       9.962  -1.531 -22.447  1.00  0.00    -0.550 OA
ENDBRANCH   6   7
ENDBRANCH   5   6
ENDBRANCH   4   5
ENDBRANCH   3   4
ENDBRANCH   2   3
ENDBRANCH   1   2
BRANCH   1  10
ATOM     10  C   UNL     1      12.569   2.290 -16.610  1.00  0.00     0.027 C 
BRANCH  10  11
ATOM     11  C   UNL     1      12.948   0.843 -16.455  1.00  0.00    -0.031 C 
ATOM     12  C   UNL     1      12.326  -0.106 -17.168  1.00  0.00    -0.031 C 
BRANCH  12  13
ATOM     13  C   UNL     1      12.686  -1.562 -17.030  1.00  0.00     0.027 C 
BRANCH  13  14
ATOM     14  C   UNL     1      12.269  -2.147 -15.669  1.00  0.00     0.004 C 
BRANCH  14  15
ATOM     15  C   UNL     1      11.534  -3.499 -15.757  1.00  0.00     0.000 C 
BRANCH  15  16
ATOM     16  C   UNL     1      12.282  -4.693 -15.130  1.00  0.00    -0.000 C 
BRANCH  16  17
ATOM     17  C   UNL     1      12.637  -4.525 -13.642  1.00  0.00    -0.003 C 
ATOM     18  C   UNL     1      11.404  -4.431 -12.743  1.00  0.00     0.004 C 
ENDBRANCH  16  17
ENDBRANCH  15  16
ENDBRANCH  14  15
ENDBRANCH  13  14
ENDBRANCH  12  13
ENDBRANCH  10  11
ENDBRANCH   1  10
TORSDOF 13
ENDMDL
MODEL 2
REMARK VINA RESULT:    -3.782      3.182      6.566
REMARK INTER + INTRA:          -7.694
REMARK INTER:                  -6.651
REMARK INTRA:                  -1.043
REMARK UNBOUND:                -1.037
REMARK SMILES CCCCCCC=CCCCCCCCC(=O)[O-]
REMARK SMILES IDX 10 1 11 2 12 3 13 4 14 5 15 6 16 7 17 8 18 9 9 10 8 11 7 12
REMARK SMILES IDX 6 13 5 14 4 15 3 16 2 17 1 18
REMARK H PARENT
REMARK Flexibility Score: inf
ROOT
ATOM      1  C   UNL     1      12.721   2.614 -16.864  1.00  0.00     0.004 C 
ENDROOT
BRANCH   1   2
ATOM      2  C   UNL     1      11.717   1.501 -16.522  1.00  0.00     0.000 C 
BRANCH   2   3
ATOM      3  C   UNL     1      12.403   0.208 -16.047  1.00  0.00     0.000 C 
BRANCH   3   4
ATOM      4  C   UNL     1      12.268  -0.934 -17.076  1.00  0.00     0.000 C 
BRANCH   4   5
ATOM      5  C   UNL     1      12.658  -2.314 -16.518  1.00  0.00     0.006 C 
BRANCH   5   6
ATOM      6  C   UNL     1      12.245  -2.505 -15.055  1.00  0.00     0.053 C 
BRANCH   6   7
ATOM      7  C   UNL     1      12.117  -3.960 -14.733  1.00  0.00     0.041 C 
ATOM      8  O   UNL     1      11.949  -4.334 -13.543  1.00  0.00    -0.550 OA
ATOM      9  O   UNL     1      12.136  -4.902 -15.755  1.00  0.00    -0.550 OA
ENDBRANCH   6   7
ENDBRANCH   5   6
ENDBRANCH   4   5
ENDBRANCH   3   4
ENDBRANCH   2   3
ENDBRANCH   1   2
BRANCH   1  10
ATOM     10  C   UNL     1      12.546   3.148 -18.293  1.00  0.00     0.027 C 
BRANCH  10  11
ATOM     11  C   UNL     1      12.157   2.047 -19.240  1.00  0.00    -0.031 C 
ATOM     12  C   UNL     1      13.092   1.365 -19.915  1.00  0.00    -0.031 C 
BRANCH  12  13
ATOM     13  C   UNL     1      12.727   0.259 -20.870  1.00  0.00     0.027 C 
BRANCH  13  14
ATOM     14  C   UNL     1      11.285   0.381 -21.393  1.00  0.00     0.004 C 
BRANCH  14  15
ATOM     15  C   UNL     1      10.864  -0.738 -22.367  1.00  0.00     0.000 C 
BRANCH  15  16
ATOM     16  C   UNL     1       9.679  -1.604 -21.896  1.00  0.00    -0.000 C 
BRANCH  16  17
ATOM     17  C   UNL     1       9.603  -3.001 -22.538  1.00  0.00    -0.003 C 
ATOM     18  C   UNL     1       9.047  -2.972 -23.961  1.00  0.00     0.004 C 
ENDBRANCH  16  17
ENDBRANCH  15  16
ENDBRANCH  14  15
ENDBRANCH  13  14
ENDBRANCH  12  13
ENDBRANCH  10  11
ENDBRANCH   1  10
TORSDOF 13
ENDMDL
MODEL 3
REMARK VINA RESULT:    -3.726      3.578      7.015
REMARK INTER + INTRA:          -7.594
REMARK INTER:                  -6.954
REMARK INTRA:                  -0.640
REMARK UNBOUND:                -1.037
REMARK SMILES CCCCCCC=CCCCCCCCC(=O)[O-]
REMARK SMILES IDX 10 1 11 2 12 3 13 4 14 5 15 6 16 7 17 8 18 9 9 10 8 11 7 12
REMARK SMILES IDX 6 13 5 14 4 15 3 16 2 17 1 18
REMARK H PARENT
REMARK Flexibility Score: inf
ROOT
ATOM      1  C   UNL     1      11.794   1.232 -16.130  1.00  0.00     0.004 C 
ENDROOT
BRANCH   1   2
ATOM      2  C   UNL     1      11.517  -0.009 -16.993  1.00  0.00     0.000 C 
BRANCH   2   3
ATOM      3  C   UNL     1      12.620  -1.075 -16.872  1.00  0.00     0.000 C 
BRANCH   3   4
ATOM      4  C   UNL     1      12.462  -1.934 -15.599  1.00  0.00     0.000 C 
BRANCH   4   5
ATOM      5  C   UNL     1      12.523  -3.448 -15.867  1.00  0.00     0.006 C 
BRANCH   5   6
ATOM      6  C   UNL     1      11.484  -4.238 -15.064  1.00  0.00     0.053 C 
BRANCH   6   7
ATOM      7  C   UNL     1      11.927  -4.391 -13.644  1.00  0.00     0.041 C 
ATOM      8  O   UNL     1      11.163  -4.057 -12.701  1.00  0.00    -0.550 OA
ATOM      9  O   UNL     1      13.168  -4.950 -13.360  1.00  0.00    -0.550 OA
ENDBRANCH   6   7
ENDBRANCH   5   6
ENDBRANCH   4   5
ENDBRANCH   3   4
ENDBRANCH   2   3
ENDBRANCH   1   2
BRANCH   1  10
ATOM     10  C   UNL     1      12.456   2.368 -16.923  1.00  0.00     0.027 C 
BRANCH  10  11
ATOM     11  C   UNL     1      12.121   2.274 -18.386  1.00  0.00    -0.031 C 
ATOM     12  C   UNL     1      12.994   1.744 -19.253  1.00  0.00    -0.031 C 
BRANCH  12  13
ATOM     13  C   UNL     1      12.683   1.640 -20.723  1.00  0.00     0.027 C 
BRANCH  13  14
ATOM     14  C   UNL     1      12.313   0.209 -21.149  1.00  0.00     0.004 C 
BRANCH  14  15
ATOM     15  C   UNL     1      10.805  -0.015 -21.382  1.00  0.00     0.000 C 
BRANCH  15  16
ATOM     16  C   UNL     1      10.456  -0.928 -22.574  1.00  0.00    -0.000 C 
BRANCH  16  17
ATOM     17  C   UNL     1       9.673  -2.202 -22.206  1.00  0.00    -0.003 C 
ATOM     18  C   UNL     1       9.331  -3.062 -23.421  1.00  0.00     0.004 C 
ENDBRANCH  16  17
ENDBRANCH  15  16
ENDBRANCH  14  15
ENDBRANCH  13  14
ENDBRANCH  12  13
ENDBRANCH  10  11
ENDBRANCH   1  10
TORSDOF 13
ENDMDL
MODEL 4
REMARK VINA RESULT:    -3.472      1.291      2.367
REMARK INTER + INTRA:          -7.147
REMARK INTER:                  -6.466
REMARK INTRA:                  -0.681
REMARK UNBOUND:                -1.037
REMARK SMILES CCCCCCC=CCCCCCCCC(=O)[O-]
REMARK SMILES IDX 10 1 11 2 12 3 13 4 14 5 15 6 16 7 17 8 18 9 9 10 8 11 7 12
REMARK SMILES IDX 6 13 5 14 4 15 3 16 2 17 1 18
REMARK H PARENT
REMARK Flexibility Score: inf
ROOT
ATOM      1  C   UNL     1      12.654   2.528 -20.178  1.00  0.00     0.004 C 
ENDROOT
BRANCH   1   2
ATOM      2  C   UNL     1      12.778   0.999 -20.270  1.00  0.00     0.000 C 
BRANCH   2   3
ATOM      3  C   UNL     1      11.709   0.370 -21.181  1.00  0.00     0.000 C 
BRANCH   3   4
ATOM      4  C   UNL     1      12.332  -0.358 -22.391  1.00  0.00     0.000 C 
BRANCH   4   5
ATOM      5  C   UNL     1      11.342  -1.273 -23.134  1.00  0.00     0.006 C 
BRANCH   5   6
ATOM      6  C   UNL     1       9.998  -1.411 -22.410  1.00  0.00     0.053 C 
BRANCH   6   7
ATOM      7  C   UNL     1       9.349  -2.712 -22.758  1.00  0.00     0.041 C 
ATOM      8  O   UNL     1       9.546  -3.731 -22.044  1.00  0.00    -0.550 OA
ATOM      9  O   UNL     1       8.485  -2.790 -23.844  1.00  0.00    -0.550 OA
ENDBRANCH   6   7
ENDBRANCH   5   6
ENDBRANCH   4   5
ENDBRANCH   3   4
ENDBRANCH   2   3
ENDBRANCH   1   2
BRANCH   1  10
ATOM     10  C   UNL     1      12.287   3.008 -18.767  1.00  0.00     0.027 C 
BRANCH  10  11
ATOM     11  C   UNL     1      11.855   1.858 -17.899  1.00  0.00    -0.031 C 
ATOM     12  C   UNL     1      12.586   1.493 -16.837  1.00  0.00    -0.031 C 
BRANCH  12  13
ATOM     13  C   UNL     1      12.175   0.344 -15.953  1.00  0.00     0.027 C 
BRANCH  13  14
ATOM     14  C   UNL     1      12.580  -1.022 -16.534  1.00  0.00     0.004 C 
BRANCH  14  15
ATOM     15  C   UNL     1      12.562  -2.178 -15.513  1.00  0.00     0.000 C 
BRANCH  15  16
ATOM     16  C   UNL     1      12.016  -3.516 -16.050  1.00  0.00    -0.000 C 
BRANCH  16  17
ATOM     17  C   UNL     1      12.029  -4.674 -15.036  1.00  0.00    -0.003 C 
ATOM     18  C   UNL     1      12.116  -4.196 -13.588  1.00  0.00     0.004 C 
ENDBRANCH  16  17
ENDBRANCH  15  16
ENDBRANCH  14  15
ENDBRANCH  13  14
ENDBRANCH  12  13
ENDBRANCH  10  11
ENDBRANCH   1  10
TORSDOF 13
ENDMDL
MODEL 5
REMARK VINA RESULT:    -3.203      2.585      3.715
REMARK INTER + INTRA:          -6.673
REMARK INTER:                  -6.141
REMARK INTRA:                  -0.532
REMARK UNBOUND:                -1.037
REMARK SMILES CCCCCCC=CCCCCCCCC(=O)[O-]
REMARK SMILES IDX 10 1 11 2 12 3 13 4 14 5 15 6 16 7 17 8 18 9 9 10 8 11 7 12
REMARK SMILES IDX 6 13 5 14 4 15 3 16 2 17 1 18
REMARK H PARENT
REMARK Flexibility Score: inf
ROOT
ATOM      1  C   UNL     1      12.958  -0.350 -20.907  1.00  0.00     0.004 C 
ENDROOT
BRANCH   1   2
ATOM      2  C   UNL     1      11.827   0.672 -20.712  1.00  0.00     0.000 C 
BRANCH   2   3
ATOM      3  C   UNL     1      10.456   0.008 -20.496  1.00  0.00     0.000 C 
BRANCH   3   4
ATOM      4  C   UNL     1       9.997   0.087 -19.024  1.00  0.00     0.000 C 
BRANCH   4   5
ATOM      5  C   UNL     1      10.047   1.510 -18.441  1.00  0.00     0.006 C 
BRANCH   5   6
ATOM      6  C   UNL     1      10.918   1.609 -17.184  1.00  0.00     0.053 C 
BRANCH   6   7
ATOM      7  C   UNL     1      12.095   2.498 -17.433  1.00  0.00     0.041 C 
ATOM      8  O   UNL     1      12.237   3.065 -18.549  1.00  0.00    -0.550 OA
ATOM      9  O   UNL     1      13.011   2.741 -16.417  1.00  0.00    -0.550 OA
ENDBRANCH   6   7
ENDBRANCH   5   6
ENDBRANCH   4   5
ENDBRANCH   3   4
ENDBRANCH   2   3
ENDBRANCH   1   2
BRANCH   1  10
ATOM     10  C   UNL     1      14.161  -0.083 -19.990  1.00  0.00     0.027 C 
BRANCH  10  11
ATOM     11  C   UNL     1      13.735   0.008 -18.550  1.00  0.00    -0.031 C 
ATOM     12  C   UNL     1      13.039  -0.984 -17.981  1.00  0.00    -0.031 C 
BRANCH  12  13
ATOM     13  C   UNL     1      12.600  -0.916 -16.541  1.00  0.00     0.027 C 
BRANCH  13  14
ATOM     14  C   UNL     1      12.879  -2.221 -15.776  1.00  0.00     0.004 C 
BRANCH  14  15
ATOM     15  C   UNL     1      11.834  -3.331 -16.008  1.00  0.00     0.000 C 
BRANCH  15  16
ATOM     16  C   UNL     1      12.183  -4.698 -15.387  1.00  0.00    -0.000 C 
BRANCH  16  17
ATOM     17  C   UNL     1      12.585  -4.650 -13.902  1.00  0.00    -0.003 C 
ATOM     18  C   UNL     1      11.449  -4.186 -12.992  1.00  0.00     0.004 C 
ENDBRANCH  16  17
ENDBRANCH  15  16
ENDBRANCH  14  15
ENDBRANCH  13  14
ENDBRANCH  12  13
ENDBRANCH  10  11
ENDBRANCH   1  10
TORSDOF 13
ENDMDL
MODEL 6
REMARK VINA RESULT:    -3.111      1.771      2.354
REMARK INTER + INTRA:          -6.513
REMARK INTER:                  -5.715
REMARK INTRA:                  -0.798
REMARK UNBOUND:                -1.037
REMARK SMILES CCCCCCC=CCCCCCCCC(=O)[O-]
REMARK SMILES IDX 10 1 11 2 12 3 13 4 14 5 15 6 16 7 17 8 18 9 9 10 8 11 7 12
REMARK SMILES IDX 6 13 5 14 4 15 3 16 2 17 1 18
REMARK H PARENT
REMARK Flexibility Score: inf
ROOT
ATOM      1  C   UNL     1      11.227   2.000 -18.056  1.00  0.00     0.004 C 
ENDROOT
BRANCH   1   2
ATOM      2  C   UNL     1      10.077   0.986 -17.943  1.00  0.00     0.000 C 
BRANCH   2   3
ATOM      3  C   UNL     1      10.078  -0.043 -19.087  1.00  0.00     0.000 C 
BRANCH   3   4
ATOM      4  C   UNL     1      10.369   0.609 -20.455  1.00  0.00     0.000 C 
BRANCH   4   5
ATOM      5  C   UNL     1      10.968  -0.365 -21.485  1.00  0.00     0.006 C 
BRANCH   5   6
ATOM      6  C   UNL     1      12.440  -0.074 -21.797  1.00  0.00     0.053 C 
BRANCH   6   7
ATOM      7  C   UNL     1      13.087   0.634 -20.649  1.00  0.00     0.041 C 
ATOM      8  O   UNL     1      13.649  -0.025 -19.735  1.00  0.00    -0.550 OA
ATOM      9  O   UNL     1      13.112   2.022 -20.612  1.00  0.00    -0.550 OA
ENDBRANCH   6   7
ENDBRANCH   5   6
ENDBRANCH   4   5
ENDBRANCH   3   4
ENDBRANCH   2   3
ENDBRANCH   1   2
BRANCH   1  10
ATOM     10  C   UNL     1      12.225   1.894 -16.894  1.00  0.00     0.027 C 
BRANCH  10  11
ATOM     11  C   UNL     1      12.017   0.626 -16.114  1.00  0.00    -0.031 C 
ATOM     12  C   UNL     1      12.857  -0.409 -16.257  1.00  0.00    -0.031 C 
BRANCH  12  13
ATOM     13  C   UNL     1      12.669  -1.690 -15.488  1.00  0.00     0.027 C 
BRANCH  13  14
ATOM     14  C   UNL     1      11.996  -2.790 -16.327  1.00  0.00     0.004 C 
BRANCH  14  15
ATOM     15  C   UNL     1      11.542  -4.020 -15.517  1.00  0.00     0.000 C 
BRANCH  15  16
ATOM     16  C   UNL     1      12.668  -4.763 -14.770  1.00  0.00    -0.000 C 
BRANCH  16  17
ATOM     17  C   UNL     1      12.504  -4.817 -13.240  1.00  0.00    -0.003 C 
ATOM     18  C   UNL     1      11.362  -3.937 -12.733  1.00  0.00     0.004 C 
ENDBRANCH  16  17
ENDBRANCH  15  16
ENDBRANCH  14  15
ENDBRANCH  13  14
ENDBRANCH  12  13
ENDBRANCH  10  11
ENDBRANCH   1  10
TORSDOF 13
ENDMDL
MODEL 7
REMARK VINA RESULT:    -3.033      4.048      8.600
REMARK INTER + INTRA:          -6.376
REMARK INTER:                  -5.714
REMARK INTRA:                  -0.661
REMARK UNBOUND:                -1.037
REMARK SMILES CCCCCCC=CCCCCCCCC(=O)[O-]
REMARK SMILES IDX 10 1 11 2 12 3 13 4 14 5 15 6 16 7 17 8 18 9 9 10 8 11 7 12
REMARK SMILES IDX 6 13 5 14 4 15 3 16 2 17 1 18
REMARK H PARENT
REMARK Flexibility Score: inf
ROOT
ATOM      1  C   UNL     1      11.542   0.547 -19.943  1.00  0.00     0.004 C 
ENDROOT
BRANCH   1   2
ATOM      2  C   UNL     1      11.388   0.229 -18.448  1.00  0.00     0.000 C 
BRANCH   2   3
ATOM      3  C   UNL     1      12.703  -0.240 -17.801  1.00  0.00     0.000 C 
BRANCH   3   4
ATOM      4  C   UNL     1      12.506  -0.682 -16.336  1.00  0.00     0.000 C 
BRANCH   4   5
ATOM      5  C   UNL     1      12.207  -2.184 -16.182  1.00  0.00     0.006 C 
BRANCH   5   6
ATOM      6  C   UNL     1      12.921  -2.814 -14.982  1.00  0.00     0.053 C 
BRANCH   6   7
ATOM      7  C   UNL     1      12.457  -4.222 -14.778  1.00  0.00     0.041 C 
ATOM      8  O   UNL     1      12.052  -4.904 -15.755  1.00  0.00    -0.550 OA
ATOM      9  O   UNL     1      12.517  -4.798 -13.514  1.00  0.00    -0.550 OA
ENDBRANCH   6   7
ENDBRANCH   5   6
ENDBRANCH   4   5
ENDBRANCH   3   4
ENDBRANCH   2   3
ENDBRANCH   1   2
BRANCH   1  10
ATOM     10  C   UNL     1      12.901   1.181 -20.276  1.00  0.00     0.027 C 
BRANCH  10  11
ATOM     11  C   UNL     1      12.749   2.634 -20.633  1.00  0.00    -0.031 C 
ATOM     12  C   UNL     1      12.773   3.576 -19.680  1.00  0.00    -0.031 C 
BRANCH  12  13
ATOM     13  C   UNL     1      12.621   5.038 -20.012  1.00  0.00     0.027 C 
BRANCH  13  14
ATOM     14  C   UNL     1      13.894   5.847 -19.708  1.00  0.00     0.004 C 
BRANCH  14  15
ATOM     15  C   UNL     1      14.530   6.519 -20.942  1.00  0.00     0.000 C 
BRANCH  15  16
ATOM     16  C   UNL     1      16.005   6.934 -20.772  1.00  0.00    -0.000 C 
BRANCH  16  17
ATOM     17  C   UNL     1      16.913   6.601 -21.970  1.00  0.00    -0.003 C 
ATOM     18  C   UNL     1      16.134   6.112 -23.190  1.00  0.00     0.004 C 
ENDBRANCH  16  17
ENDBRANCH  15  16
ENDBRANCH  14  15
ENDBRANCH  13  14
ENDBRANCH  12  13
ENDBRANCH  10  11
ENDBRANCH   1  10
TORSDOF 13
ENDMDL
MODEL 8
REMARK VINA RESULT:    -2.889      3.222      6.591
REMARK INTER + INTRA:          -6.121
REMARK INTER:                  -5.442
REMARK INTRA:                  -0.679
REMARK UNBOUND:                -1.037
REMARK SMILES CCCCCCC=CCCCCCCCC(=O)[O-]
REMARK SMILES IDX 10 1 11 2 12 3 13 4 14 5 15 6 16 7 17 8 18 9 9 10 8 11 7 12
REMARK SMILES IDX 6 13 5 14 4 15 3 16 2 17 1 18
REMARK H PARENT
REMARK Flexibility Score: inf
ROOT
ATOM      1  C   UNL     1      11.315   1.038 -16.142  1.00  0.00     0.004 C 
ENDROOT
BRANCH   1   2
ATOM      2  C   UNL     1      12.721   0.971 -16.760  1.00  0.00     0.000 C 
BRANCH   2   3
ATOM      3  C   UNL     1      13.010  -0.383 -17.433  1.00  0.00     0.000 C 
BRANCH   3   4
ATOM      4  C   UNL     1      12.278  -1.548 -16.733  1.00  0.00     0.000 C 
BRANCH   4   5
ATOM      5  C   UNL     1      12.909  -1.951 -15.389  1.00  0.00     0.006 C 
BRANCH   5   6
ATOM      6  C   UNL     1      11.973  -2.800 -14.521  1.00  0.00     0.053 C 
BRANCH   6   7
ATOM      7  C   UNL     1      12.342  -4.246 -14.616  1.00  0.00     0.041 C 
ATOM      8  O   UNL     1      12.255  -4.852 -15.717  1.00  0.00    -0.550 OA
ATOM      9  O   UNL     1      12.830  -4.914 -13.500  1.00  0.00    -0.550 OA
ENDBRANCH   6   7
ENDBRANCH   5   6
ENDBRANCH   4   5
ENDBRANCH   3   4
ENDBRANCH   2   3
ENDBRANCH   1   2
BRANCH   1  10
ATOM     10  C   UNL     1      10.236   1.415 -17.167  1.00  0.00     0.027 C 
BRANCH  10  11
ATOM     11  C   UNL     1      10.558   0.853 -18.524  1.00  0.00    -0.031 C 
ATOM     12  C   UNL     1       9.707   0.020 -19.137  1.00  0.00    -0.031 C 
BRANCH  12  13
ATOM     13  C   UNL     1      10.007  -0.557 -20.496  1.00  0.00     0.027 C 
BRANCH  13  14
ATOM     14  C   UNL     1      10.991   0.309 -21.301  1.00  0.00     0.004 C 
BRANCH  14  15
ATOM     15  C   UNL     1      12.476  -0.048 -21.087  1.00  0.00     0.000 C 
BRANCH  15  16
ATOM     16  C   UNL     1      13.345   1.087 -20.509  1.00  0.00    -0.000 C 
BRANCH  16  17
ATOM     17  C   UNL     1      12.780   2.504 -20.717  1.00  0.00    -0.003 C 
ATOM     18  C   UNL     1      12.614   3.276 -19.409  1.00  0.00     0.004 C 
ENDBRANCH  16  17
ENDBRANCH  15  16
ENDBRANCH  14  15
ENDBRANCH  13  14
ENDBRANCH  12  13
ENDBRANCH  10  11
ENDBRANCH   1  10
TORSDOF 13
ENDMDL
MODEL 9
REMARK VINA RESULT:    -2.602      3.741      5.062
REMARK INTER + INTRA:          -5.617
REMARK INTER:                  -4.909
REMARK INTRA:                  -0.708
REMARK UNBOUND:                -1.037
REMARK SMILES CCCCCCC=CCCCCCCCC(=O)[O-]
REMARK SMILES IDX 10 1 11 2 12 3 13 4 14 5 15 6 16 7 17 8 18 9 9 10 8 11 7 12
REMARK SMILES IDX 6 13 5 14 4 15 3 16 2 17 1 18
REMARK H PARENT
REMARK Flexibility Score: inf
ROOT
ATOM      1  C   UNL     1      13.029   2.023 -20.234  1.00  0.00     0.004 C 
ENDROOT
BRANCH   1   2
ATOM      2  C   UNL     1      12.566   3.465 -20.493  1.00  0.00     0.000 C 
BRANCH   2   3
ATOM      3  C   UNL     1      12.981   4.433 -19.370  1.00  0.00     0.000 C 
BRANCH   3   4
ATOM      4  C   UNL     1      13.192   5.870 -19.890  1.00  0.00     0.000 C 
BRANCH   4   5
ATOM      5  C   UNL     1      14.657   6.188 -20.240  1.00  0.00     0.006 C 
BRANCH   5   6
ATOM      6  C   UNL     1      14.793   7.125 -21.445  1.00  0.00     0.053 C 
BRANCH   6   7
ATOM      7  C   UNL     1      16.053   6.831 -22.195  1.00  0.00     0.041 C 
ATOM      8  O   UNL     1      16.032   6.713 -23.448  1.00  0.00    -0.550 OA
ATOM      9  O   UNL     1      17.261   6.735 -21.515  1.00  0.00    -0.550 OA
ENDBRANCH   6   7
ENDBRANCH   5   6
ENDBRANCH   4   5
ENDBRANCH   3   4
ENDBRANCH   2   3
ENDBRANCH   1   2
BRANCH   1  10
ATOM     10  C   UNL     1      11.905   0.996 -20.430  1.00  0.00     0.027 C 
BRANCH  10  11
ATOM     11  C   UNL     1      11.505   0.374 -19.121  1.00  0.00    -0.031 C 
ATOM     12  C   UNL     1      12.172   0.664 -17.995  1.00  0.00    -0.031 C 
BRANCH  12  13
ATOM     13  C   UNL     1      11.791   0.052 -16.672  1.00  0.00     0.027 C 
BRANCH  13  14
ATOM     14  C   UNL     1      12.954  -0.715 -16.020  1.00  0.00     0.004 C 
BRANCH  14  15
ATOM     15  C   UNL     1      12.533  -2.001 -15.281  1.00  0.00     0.000 C 
BRANCH  15  16
ATOM     16  C   UNL     1      12.185  -3.194 -16.193  1.00  0.00    -0.000 C 
BRANCH  16  17
ATOM     17  C   UNL     1      11.942  -4.523 -15.455  1.00  0.00    -0.003 C 
ATOM     18  C   UNL     1      12.366  -4.476 -13.988  1.00  0.00     0.004 C 
ENDBRANCH  16  17
ENDBRANCH  15  16
ENDBRANCH  14  15
ENDBRANCH  13  14
ENDBRANCH  12  13
ENDBRANCH  10  11
ENDBRANCH   1  10
TORSDOF 13
ENDMDL
