MODEL 1
REMARK VINA RESULT:    -3.609      0.000      0.000
REMARK INTER + INTRA:          -5.825
REMARK INTER:                  -5.507
REMARK INTRA:                  -0.318
REMARK UNBOUND:                -0.318
REMARK SMILES CC1=CCC[C@H](C)C(=O)C[C@@H](C(C)C)C(=O)C1
REMARK SMILES IDX 8 1 9 2 6 3 7 4 5 5 4 6 3 7 2 8 1 9 10 11 11 12 15 13 16 14
REMARK SMILES IDX 17 15 12 17 13 18 14 19
REMARK H PARENT
REMARK Flexibility Score: 70.00
ROOT
ATOM      1  C   UNL     1       2.502  15.649  20.383  1.00  0.00     0.136 C 
ATOM      2  O   UNL     1       2.210  16.088  19.279  1.00  0.00    -0.299 OA
ENDROOT
BRANCH   1   3
ATOM      3  C   UNL     1       2.186  16.455  21.631  1.00  0.00     0.053 C 
ATOM      4  C   UNL     1       0.759  16.200  22.142  1.00  0.00     0.016 C 
BRANCH   3   5
ATOM      5  C   UNL     1       3.238  16.225  22.734  1.00  0.00     0.015 C 
BRANCH   5   6
ATOM      6  C   UNL     1       2.750  15.321  23.886  1.00  0.00     0.028 C 
BRANCH   6   7
ATOM      7  C   UNL     1       3.742  14.223  24.176  1.00  0.00    -0.028 C 
ATOM      8  C   UNL     1       3.597  12.932  23.796  1.00  0.00    -0.070 CG0
ATOM      9  C   UNL     1       4.705  11.966  24.131  1.00  0.00     0.039 C 
ATOM     10  G   UNL     1       2.368  12.413  23.062  1.00  0.00     0.000 G0
ENDBRANCH   6   7
ENDBRANCH   5   6
ENDBRANCH   3   5
ENDBRANCH   1   3
BRANCH   1  11
ATOM     11  C   UNL     1       3.175  14.301  20.480  1.00  0.00     0.087 C 
BRANCH  11  12
ATOM     12  C   UNL     1       2.150  13.140  20.554  1.00  0.00     0.066 C 
BRANCH  12  13
ATOM     13  C   UNL     1       2.599  12.135  21.603  1.00  0.00     0.140 C 
ATOM     14  O   UNL     1       3.079  11.067  21.246  1.00  0.00    -0.299 OA
BRANCH  13  15
ATOM     15  C   UNL     1       2.358  12.394  23.070  1.00  0.00     0.106 CG0
ATOM     16  G   UNL     1       3.590  12.944  23.774  1.00  0.00     0.000 G0
ENDBRANCH  13  15
ENDBRANCH  12  13
BRANCH  12  17
ATOM     17  C   UNL     1       1.936  12.435  19.175  1.00  0.00    -0.006 C 
ATOM     18  C   UNL     1       0.670  12.961  18.472  1.00  0.00     0.008 C 
ATOM     19  C   UNL     1       3.137  12.619  18.229  1.00  0.00     0.008 C 
ENDBRANCH  12  17
ENDBRANCH  11  12
ENDBRANCH   1  11
TORSDOF 1
ENDMDL
MODEL 2
REMARK VINA RESULT:    -3.453      3.632      5.941
REMARK INTER + INTRA:          -5.588
REMARK INTER:                  -5.295
REMARK INTRA:                  -0.293
REMARK UNBOUND:                -0.318
REMARK SMILES CC1=CCC[C@H](C)C(=O)C[C@@H](C(C)C)C(=O)C1
REMARK SMILES IDX 8 1 9 2 6 3 7 4 5 5 4 6 3 7 2 8 1 9 10 11 11 12 15 13 16 14
REMARK SMILES IDX 17 15 12 17 13 18 14 19
REMARK H PARENT
REMARK Flexibility Score: 70.00
ROOT
ATOM      1  C   UNL     1       2.032  10.460  16.609  1.00  0.00     0.136 C 
ATOM      2  O   UNL     1       1.769   9.547  15.839  1.00  0.00    -0.299 OA
ENDROOT
BRANCH   1   3
ATOM      3  C   UNL     1       2.296  11.857  16.074  1.00  0.00     0.053 C 
ATOM      4  C   UNL     1       3.517  11.902  15.141  1.00  0.00     0.016 C 
BRANCH   3   5
ATOM      5  C   UNL     1       1.042  12.453  15.404  1.00  0.00     0.015 C 
BRANCH   5   6
ATOM      6  C   UNL     1       0.142  13.258  16.364  1.00  0.00     0.028 C 
BRANCH   6   7
ATOM      7  C   UNL     1       0.957  14.192  17.222  1.00  0.00    -0.028 C 
ATOM      8  C   UNL     1       1.049  14.117  18.571  1.00  0.00    -0.070 CG0
ATOM      9  C   UNL     1       1.943  15.106  19.275  1.00  0.00     0.039 C 
ATOM     10  G   UNL     1       0.288  13.094  19.403  1.00  0.00     0.000 G0
ENDBRANCH   6   7
ENDBRANCH   5   6
ENDBRANCH   3   5
ENDBRANCH   1   3
BRANCH   1  11
ATOM     11  C   UNL     1       2.087  10.175  18.091  1.00  0.00     0.087 C 
BRANCH  11  12
ATOM     12  C   UNL     1       0.777  10.586  18.814  1.00  0.00     0.066 C 
BRANCH  12  13
ATOM     13  C   UNL     1       1.033  11.823  19.659  1.00  0.00     0.140 C 
ATOM     14  O   UNL     1       1.799  11.754  20.612  1.00  0.00    -0.299 OA
BRANCH  13  15
ATOM     15  C   UNL     1       0.272  13.101  19.403  1.00  0.00     0.106 CG0
ATOM     16  G   UNL     1       1.069  14.098  18.573  1.00  0.00     0.000 G0
ENDBRANCH  13  15
ENDBRANCH  12  13
BRANCH  12  17
ATOM     17  C   UNL     1       0.185   9.435  19.691  1.00  0.00    -0.006 C 
ATOM     18  C   UNL     1      -1.217   9.800  20.217  1.00  0.00     0.008 C 
ATOM     19  C   UNL     1       0.091   8.102  18.925  1.00  0.00     0.008 C 
ENDBRANCH  12  17
ENDBRANCH  11  12
ENDBRANCH   1  11
TORSDOF 1
ENDMDL
MODEL 3
REMARK VINA RESULT:    -3.447      2.784      4.712
REMARK INTER + INTRA:          -5.578
REMARK INTER:                  -5.231
REMARK INTRA:                  -0.347
REMARK UNBOUND:                -0.318
REMARK SMILES CC1=CCC[C@H](C)C(=O)C[C@@H](C(C)C)C(=O)C1
REMARK SMILES IDX 8 1 9 2 6 3 7 4 5 5 4 6 3 7 2 8 1 9 10 11 11 12 15 13 16 14
REMARK SMILES IDX 17 15 12 17 13 18 14 19
REMARK H PARENT
REMARK Flexibility Score: 70.00
ROOT
ATOM      1  C   UNL     1       1.794  14.218  22.516  1.00  0.00     0.136 C 
ATOM      2  O   UNL     1       2.281  13.519  23.394  1.00  0.00    -0.299 OA
ENDROOT
BRANCH   1   3
ATOM      3  C   UNL     1       1.726  15.725  22.690  1.00  0.00     0.053 C 
ATOM      4  C   UNL     1       3.100  16.393  22.527  1.00  0.00     0.016 C 
BRANCH   3   5
ATOM      5  C   UNL     1       0.671  16.355  21.758  1.00  0.00     0.015 C 
BRANCH   5   6
ATOM      6  C   UNL     1       1.268  17.245  20.648  1.00  0.00     0.028 C 
BRANCH   6   7
ATOM      7  C   UNL     1       0.466  17.141  19.375  1.00  0.00    -0.028 C 
ATOM      8  C   UNL     1       0.753  16.306  18.349  1.00  0.00    -0.070 CG0
ATOM      9  C   UNL     1      -0.178  16.297  17.162  1.00  0.00     0.039 C 
ATOM     10  G   UNL     1       1.970  15.392  18.334  1.00  0.00     0.000 G0
ENDBRANCH   6   7
ENDBRANCH   5   6
ENDBRANCH   3   5
ENDBRANCH   1   3
BRANCH   1  11
ATOM     11  C   UNL     1       1.268  13.558  21.264  1.00  0.00     0.087 C 
BRANCH  11  12
ATOM     12  C   UNL     1       2.333  13.510  20.137  1.00  0.00     0.066 C 
BRANCH  12  13
ATOM     13  C   UNL     1       1.714  13.994  18.835  1.00  0.00     0.140 C 
ATOM     14  O   UNL     1       1.056  13.216  18.156  1.00  0.00    -0.299 OA
BRANCH  13  15
ATOM     15  C   UNL     1       1.993  15.384  18.321  1.00  0.00     0.106 CG0
ATOM     16  G   UNL     1       0.758  16.273  18.341  1.00  0.00     0.000 G0
ENDBRANCH  13  15
ENDBRANCH  12  13
BRANCH  12  17
ATOM     17  C   UNL     1       2.953  12.086  19.953  1.00  0.00    -0.006 C 
ATOM     18  C   UNL     1       4.390  12.030  20.506  1.00  0.00     0.008 C 
ATOM     19  C   UNL     1       2.119  10.989  20.639  1.00  0.00     0.008 C 
ENDBRANCH  12  17
ENDBRANCH  11  12
ENDBRANCH   1  11
TORSDOF 1
ENDMDL
MODEL 4
REMARK VINA RESULT:    -3.324      2.490      4.514
REMARK INTER + INTRA:          -5.390
REMARK INTER:                  -5.057
REMARK INTRA:                  -0.333
REMARK UNBOUND:                -0.318
REMARK SMILES CC1=CCC[C@H](C)C(=O)C[C@@H](C(C)C)C(=O)C1
REMARK SMILES IDX 8 1 9 2 6 3 7 4 5 5 4 6 3 7 2 8 1 9 10 11 11 12 15 13 16 14
REMARK SMILES IDX 17 15 12 17 13 18 14 19
REMARK H PARENT
REMARK Flexibility Score: 70.00
ROOT
ATOM      1  C   UNL     1       2.289  15.291  21.573  1.00  0.00     0.136 C 
ATOM      2  O   UNL     1       3.271  15.855  22.035  1.00  0.00    -0.299 OA
ENDROOT
BRANCH   1   3
ATOM      3  C   UNL     1       1.103  16.103  21.082  1.00  0.00     0.053 C 
ATOM      4  C   UNL     1       0.346  16.782  22.234  1.00  0.00     0.016 C 
BRANCH   3   5
ATOM      5  C   UNL     1       1.522  17.116  19.998  1.00  0.00     0.015 C 
BRANCH   5   6
ATOM      6  C   UNL     1       1.925  16.467  18.657  1.00  0.00     0.028 C 
BRANCH   6   7
ATOM      7  C   UNL     1       0.818  15.598  18.117  1.00  0.00    -0.028 C 
ATOM      8  C   UNL     1       0.945  14.285  17.817  1.00  0.00    -0.070 CG0
ATOM      9  C   UNL     1      -0.276  13.549  17.323  1.00  0.00     0.039 C 
ATOM     10  G   UNL     1       2.257  13.525  17.944  1.00  0.00     0.000 G0
ENDBRANCH   6   7
ENDBRANCH   5   6
ENDBRANCH   3   5
ENDBRANCH   1   3
BRANCH   1  11
ATOM     11  C   UNL     1       2.279  13.782  21.497  1.00  0.00     0.087 C 
BRANCH  11  12
ATOM     12  C   UNL     1       3.203  13.247  20.372  1.00  0.00     0.066 C 
BRANCH  12  13
ATOM     13  C   UNL     1       2.353  12.726  19.224  1.00  0.00     0.140 C 
ATOM     14  O   UNL     1       1.820  11.628  19.321  1.00  0.00    -0.299 OA
BRANCH  13  15
ATOM     15  C   UNL     1       2.248  13.497  17.932  1.00  0.00     0.106 CG0
ATOM     16  G   UNL     1       0.947  14.279  17.822  1.00  0.00     0.000 G0
ENDBRANCH  13  15
ENDBRANCH  12  13
BRANCH  12  17
ATOM     17  C   UNL     1       4.186  12.140  20.873  1.00  0.00    -0.006 C 
ATOM     18  C   UNL     1       5.553  12.248  20.169  1.00  0.00     0.008 C 
ATOM     19  C   UNL     1       4.411  12.200  22.396  1.00  0.00     0.008 C 
ENDBRANCH  12  17
ENDBRANCH  11  12
ENDBRANCH   1  11
TORSDOF 1
ENDMDL
MODEL 5
REMARK VINA RESULT:    -3.316      4.496      6.640
REMARK INTER + INTRA:          -5.379
REMARK INTER:                  -5.237
REMARK INTRA:                  -0.142
REMARK UNBOUND:                -0.318
REMARK SMILES CC1=CCC[C@H](C)C(=O)C[C@@H](C(C)C)C(=O)C1
REMARK SMILES IDX 8 1 9 2 6 3 7 4 5 5 4 6 3 7 2 8 1 9 10 11 11 12 15 13 16 14
REMARK SMILES IDX 17 15 12 17 13 18 14 19
REMARK H PARENT
REMARK Flexibility Score: 70.00
ROOT
ATOM      1  C   UNL     1       2.158  10.066  16.451  1.00  0.00     0.136 C 
ATOM      2  O   UNL     1       3.048   9.228  16.401  1.00  0.00    -0.299 OA
ENDROOT
BRANCH   1   3
ATOM      3  C   UNL     1       1.445  10.343  17.764  1.00  0.00     0.053 C 
ATOM      4  C   UNL     1       0.750   9.092  18.324  1.00  0.00     0.016 C 
BRANCH   3   5
ATOM      5  C   UNL     1       2.392  10.983  18.798  1.00  0.00     0.015 C 
BRANCH   5   6
ATOM      6  C   UNL     1       2.238  12.513  18.926  1.00  0.00     0.028 C 
BRANCH   6   7
ATOM      7  C   UNL     1       0.784  12.915  18.949  1.00  0.00    -0.028 C 
ATOM      8  C   UNL     1       0.161  13.609  17.968  1.00  0.00    -0.070 CG0
ATOM      9  C   UNL     1      -1.311  13.894  18.129  1.00  0.00     0.039 C 
ATOM     10  G   UNL     1       0.876  14.120  16.726  1.00  0.00     0.000 G0
ENDBRANCH   6   7
ENDBRANCH   5   6
ENDBRANCH   3   5
ENDBRANCH   1   3
BRANCH   1  11
ATOM     11  C   UNL     1       1.786  10.815  15.194  1.00  0.00     0.087 C 
BRANCH  11  12
ATOM     12  C   UNL     1       2.139  12.323  15.286  1.00  0.00     0.066 C 
BRANCH  12  13
ATOM     13  C   UNL     1       0.880  13.119  15.594  1.00  0.00     0.140 C 
ATOM     14  O   UNL     1      -0.098  13.003  14.866  1.00  0.00    -0.299 OA
BRANCH  13  15
ATOM     15  C   UNL     1       0.863  14.127  16.716  1.00  0.00     0.106 CG0
ATOM     16  G   UNL     1       0.163  13.601  17.961  1.00  0.00     0.000 G0
ENDBRANCH  13  15
ENDBRANCH  12  13
BRANCH  12  17
ATOM     17  C   UNL     1       2.826  12.862  13.990  1.00  0.00    -0.006 C 
ATOM     18  C   UNL     1       3.405  14.273  14.212  1.00  0.00     0.008 C 
ATOM     19  C   UNL     1       3.956  11.939  13.497  1.00  0.00     0.008 C 
ENDBRANCH  12  17
ENDBRANCH  11  12
ENDBRANCH   1  11
TORSDOF 1
ENDMDL
MODEL 6
REMARK VINA RESULT:    -3.276      3.340      6.638
REMARK INTER + INTRA:          -5.317
REMARK INTER:                  -5.436
REMARK INTRA:                   0.119
REMARK UNBOUND:                -0.318
REMARK SMILES CC1=CCC[C@H](C)C(=O)C[C@@H](C(C)C)C(=O)C1
REMARK SMILES IDX 8 1 9 2 6 3 7 4 5 5 4 6 3 7 2 8 1 9 10 11 11 12 15 13 16 14
REMARK SMILES IDX 17 15 12 17 13 18 14 19
REMARK H PARENT
REMARK Flexibility Score: 70.00
ROOT
ATOM      1  C   UNL     1       0.935  10.612  19.091  1.00  0.00     0.136 C 
ATOM      2  O   UNL     1      -0.257  10.880  19.139  1.00  0.00    -0.299 OA
ENDROOT
BRANCH   1   3
ATOM      3  C   UNL     1       1.390   9.234  18.644  1.00  0.00     0.053 C 
ATOM      4  C   UNL     1       0.555   8.111  19.280  1.00  0.00     0.016 C 
BRANCH   3   5
ATOM      5  C   UNL     1       1.426   9.120  17.107  1.00  0.00     0.015 C 
BRANCH   5   6
ATOM      6  C   UNL     1       2.566   9.921  16.446  1.00  0.00     0.028 C 
BRANCH   6   7
ATOM      7  C   UNL     1       2.023  11.029  15.579  1.00  0.00    -0.028 C 
ATOM      8  C   UNL     1       2.159  12.351  15.841  1.00  0.00    -0.070 CG0
ATOM      9  C   UNL     1       1.591  13.331  14.846  1.00  0.00     0.039 C 
ATOM     10  G   UNL     1       2.844  12.886  17.090  1.00  0.00     0.000 G0
ENDBRANCH   6   7
ENDBRANCH   5   6
ENDBRANCH   3   5
ENDBRANCH   1   3
BRANCH   1  11
ATOM     11  C   UNL     1       1.939  11.672  19.479  1.00  0.00     0.087 C 
BRANCH  11  12
ATOM     12  C   UNL     1       1.380  13.106  19.284  1.00  0.00     0.066 C 
BRANCH  12  13
ATOM     13  C   UNL     1       1.933  13.693  17.995  1.00  0.00     0.140 C 
ATOM     14  O   UNL     1       1.562  14.802  17.632  1.00  0.00    -0.299 OA
BRANCH  13  15
ATOM     15  C   UNL     1       2.844  12.882  17.108  1.00  0.00     0.106 CG0
ATOM     16  G   UNL     1       2.136  12.360  15.866  1.00  0.00     0.000 G0
ENDBRANCH  13  15
ENDBRANCH  12  13
BRANCH  12  17
ATOM     17  C   UNL     1       1.694  14.045  20.494  1.00  0.00    -0.006 C 
ATOM     18  C   UNL     1       0.833  13.682  21.719  1.00  0.00     0.008 C 
ATOM     19  C   UNL     1       3.178  13.998  20.904  1.00  0.00     0.008 C 
ENDBRANCH  12  17
ENDBRANCH  11  12
ENDBRANCH   1  11
TORSDOF 1
ENDMDL
MODEL 7
REMARK VINA RESULT:    -3.142      4.704      6.588
REMARK INTER + INTRA:          -5.112
REMARK INTER:                  -4.939
REMARK INTRA:                  -0.174
REMARK UNBOUND:                -0.318
REMARK SMILES CC1=CCC[C@H](C)C(=O)C[C@@H](C(C)C)C(=O)C1
REMARK SMILES IDX 8 1 9 2 6 3 7 4 5 5 4 6 3 7 2 8 1 9 10 11 11 12 15 13 16 14
REMARK SMILES IDX 17 15 12 17 13 18 14 19
REMARK H PARENT
REMARK Flexibility Score: 70.00
ROOT
ATOM      1  C   UNL     1       2.254  11.881  15.644  1.00  0.00     0.136 C 
ATOM      2  O   UNL     1       2.304  10.947  14.856  1.00  0.00    -0.299 OA
ENDROOT
BRANCH   1   3
ATOM      3  C   UNL     1       2.074  13.301  15.134  1.00  0.00     0.053 C 
ATOM      4  C   UNL     1       3.304  13.800  14.358  1.00  0.00     0.016 C 
BRANCH   3   5
ATOM      5  C   UNL     1       0.781  13.445  14.308  1.00  0.00     0.015 C 
BRANCH   5   6
ATOM      6  C   UNL     1      -0.502  13.521  15.162  1.00  0.00     0.028 C 
BRANCH   6   7
ATOM      7  C   UNL     1      -0.485  14.727  16.066  1.00  0.00    -0.028 C 
ATOM      8  C   UNL     1      -0.559  14.680  17.417  1.00  0.00    -0.070 CG0
ATOM      9  C   UNL     1      -0.487  15.980  18.177  1.00  0.00     0.039 C 
ATOM     10  G   UNL     1      -0.722  13.383  18.197  1.00  0.00     0.000 G0
ENDBRANCH   6   7
ENDBRANCH   5   6
ENDBRANCH   3   5
ENDBRANCH   1   3
BRANCH   1  11
ATOM     11  C   UNL     1       2.371  11.599  17.123  1.00  0.00     0.087 C 
BRANCH  11  12
ATOM     12  C   UNL     1       0.984  11.424  17.796  1.00  0.00     0.066 C 
BRANCH  12  13
ATOM     13  C   UNL     1       0.596  12.715  18.499  1.00  0.00     0.140 C 
ATOM     14  O   UNL     1       1.322  13.163  19.377  1.00  0.00    -0.299 OA
BRANCH  13  15
ATOM     15  C   UNL     1      -0.722  13.386  18.203  1.00  0.00     0.106 CG0
ATOM     16  G   UNL     1      -0.557  14.667  17.399  1.00  0.00     0.000 G0
ENDBRANCH  13  15
ENDBRANCH  12  13
BRANCH  12  17
ATOM     17  C   UNL     1       0.945  10.221  18.795  1.00  0.00    -0.006 C 
ATOM     18  C   UNL     1      -0.460  10.047  19.401  1.00  0.00     0.008 C 
ATOM     19  C   UNL     1       1.364   8.895  18.133  1.00  0.00     0.008 C 
ENDBRANCH  12  17
ENDBRANCH  11  12
ENDBRANCH   1  11
TORSDOF 1
ENDMDL
MODEL 8
REMARK VINA RESULT:    -3.133      3.487      5.775
REMARK INTER + INTRA:          -5.099
REMARK INTER:                  -4.907
REMARK INTRA:                  -0.192
REMARK UNBOUND:                -0.318
REMARK SMILES CC1=CCC[C@H](C)C(=O)C[C@@H](C(C)C)C(=O)C1
REMARK SMILES IDX 8 1 9 2 6 3 7 4 5 5 4 6 3 7 2 8 1 9 10 11 11 12 15 13 16 14
REMARK SMILES IDX 17 15 12 17 13 18 14 19
REMARK H PARENT
REMARK Flexibility Score: 70.00
ROOT
ATOM      1  C   UNL     1       1.698  12.487  16.754  1.00  0.00     0.136 C 
ATOM      2  O   UNL     1       2.441  13.434  16.535  1.00  0.00    -0.299 OA
ENDROOT
BRANCH   1   3
ATOM      3  C   UNL     1       1.894  11.176  16.011  1.00  0.00     0.053 C 
ATOM      4  C   UNL     1       2.789  11.337  14.772  1.00  0.00     0.016 C 
BRANCH   3   5
ATOM      5  C   UNL     1       2.411  10.067  16.949  1.00  0.00     0.015 C 
BRANCH   5   6
ATOM      6  C   UNL     1       1.351   9.004  17.304  1.00  0.00     0.028 C 
BRANCH   6   7
ATOM      7  C   UNL     1       1.425   8.625  18.762  1.00  0.00    -0.028 C 
ATOM      8  C   UNL     1       0.644   9.149  19.736  1.00  0.00    -0.070 CG0
ATOM      9  C   UNL     1       0.818   8.628  21.140  1.00  0.00     0.039 C 
ATOM     10  G   UNL     1      -0.387  10.239  19.480  1.00  0.00     0.000 G0
ENDBRANCH   6   7
ENDBRANCH   5   6
ENDBRANCH   3   5
ENDBRANCH   1   3
BRANCH   1  11
ATOM     11  C   UNL     1       0.593  12.644  17.770  1.00  0.00     0.087 C 
BRANCH  11  12
ATOM     12  C   UNL     1       1.096  12.417  19.220  1.00  0.00     0.066 C 
BRANCH  12  13
ATOM     13  C   UNL     1       0.069  11.602  19.990  1.00  0.00     0.140 C 
ATOM     14  O   UNL     1      -0.327  12.005  21.077  1.00  0.00    -0.299 OA
BRANCH  13  15
ATOM     15  C   UNL     1      -0.383  10.255  19.482  1.00  0.00     0.106 CG0
ATOM     16  G   UNL     1       0.649   9.163  19.728  1.00  0.00     0.000 G0
ENDBRANCH  13  15
ENDBRANCH  12  13
BRANCH  12  17
ATOM     17  C   UNL     1       1.407  13.755  19.968  1.00  0.00    -0.006 C 
ATOM     18  C   UNL     1       2.904  14.107  19.879  1.00  0.00     0.008 C 
ATOM     19  C   UNL     1       0.589  14.938  19.417  1.00  0.00     0.008 C 
ENDBRANCH  12  17
ENDBRANCH  11  12
ENDBRANCH   1  11
TORSDOF 1
ENDMDL
MODEL 9
REMARK VINA RESULT:    -3.122      3.903      6.036
REMARK INTER + INTRA:          -5.082
REMARK INTER:                  -4.809
REMARK INTRA:                  -0.273
REMARK UNBOUND:                -0.318
REMARK SMILES CC1=CCC[C@H](C)C(=O)C[C@@H](C(C)C)C(=O)C1
REMARK SMILES IDX 8 1 9 2 6 3 7 4 5 5 4 6 3 7 2 8 1 9 10 11 11 12 15 13 16 14
REMARK SMILES IDX 17 15 12 17 13 18 14 19
REMARK H PARENT
REMARK Flexibility Score: 70.00
ROOT
ATOM      1  C   UNL     1       0.196   9.905  19.239  1.00  0.00     0.136 C 
ATOM      2  O   UNL     1      -0.918   9.417  19.108  1.00  0.00    -0.299 OA
ENDROOT
BRANCH   1   3
ATOM      3  C   UNL     1       1.408   9.211  18.642  1.00  0.00     0.053 C 
ATOM      4  C   UNL     1       1.564   7.770  19.153  1.00  0.00     0.016 C 
BRANCH   3   5
ATOM      5  C   UNL     1       1.393   9.272  17.101  1.00  0.00     0.015 C 
BRANCH   5   6
ATOM      6  C   UNL     1       2.150  10.482  16.516  1.00  0.00     0.028 C 
BRANCH   6   7
ATOM      7  C   UNL     1       3.415  10.760  17.288  1.00  0.00    -0.028 C 
ATOM      8  C   UNL     1       3.678  11.911  17.950  1.00  0.00    -0.070 CG0
ATOM      9  C   UNL     1       4.977  12.011  18.709  1.00  0.00     0.039 C 
ATOM     10  G   UNL     1       2.733  13.104  17.952  1.00  0.00     0.000 G0
ENDBRANCH   6   7
ENDBRANCH   5   6
ENDBRANCH   3   5
ENDBRANCH   1   3
BRANCH   1  11
ATOM     11  C   UNL     1       0.343  11.202  19.999  1.00  0.00     0.087 C 
BRANCH  11  12
ATOM     12  C   UNL     1       0.420  12.428  19.052  1.00  0.00     0.066 C 
BRANCH  12  13
ATOM     13  C   UNL     1       1.796  13.067  19.162  1.00  0.00     0.140 C 
ATOM     14  O   UNL     1       2.114  13.636  20.199  1.00  0.00    -0.299 OA
BRANCH  13  15
ATOM     15  C   UNL     1       2.726  13.099  17.975  1.00  0.00     0.106 CG0
ATOM     16  G   UNL     1       3.678  11.912  17.947  1.00  0.00     0.000 G0
ENDBRANCH  13  15
ENDBRANCH  12  13
BRANCH  12  17
ATOM     17  C   UNL     1      -0.699  13.483  19.338  1.00  0.00    -0.006 C 
ATOM     18  C   UNL     1      -1.612  13.672  18.112  1.00  0.00     0.008 C 
ATOM     19  C   UNL     1      -1.571  13.100  20.548  1.00  0.00     0.008 C 
ENDBRANCH  12  17
ENDBRANCH  11  12
ENDBRANCH   1  11
TORSDOF 1
ENDMDL
