MODEL 1
REMARK VINA RESULT:    -3.066      0.000      0.000
REMARK INTER + INTRA:          -7.090
REMARK INTER:                  -5.396
REMARK INTRA:                  -1.694
REMARK UNBOUND:                -1.694
REMARK SMILES CCCCCCCCCCCCCCC(=O)[O-]
REMARK SMILES IDX 9 1 10 2 11 3 12 4 13 5 14 6 15 7 16 8 17 9 8 10 7 11 6 12
REMARK SMILES IDX 5 13 4 14 3 15 2 16 1 17
REMARK H PARENT
REMARK Flexibility Score: inf
ROOT
ATOM      1  C   UNL     1       2.057  19.307  10.883  1.00  0.00     0.000 C 
ENDROOT
BRANCH   1   2
ATOM      2  C   UNL     1       3.313  18.816  10.143  1.00  0.00     0.000 C 
BRANCH   2   3
ATOM      3  C   UNL     1       3.842  17.480  10.692  1.00  0.00     0.000 C 
BRANCH   3   4
ATOM      4  C   UNL     1       4.894  16.838   9.775  1.00  0.00     0.000 C 
BRANCH   4   5
ATOM      5  C   UNL     1       4.421  15.502   9.179  1.00  0.00     0.006 C 
BRANCH   5   6
ATOM      6  C   UNL     1       3.989  15.642   7.713  1.00  0.00     0.053 C 
BRANCH   6   7
ATOM      7  C   UNL     1       4.486  14.505   6.873  1.00  0.00     0.041 C 
ATOM      8  O   UNL     1       5.643  14.542   6.378  1.00  0.00    -0.550 OA
ATOM      9  O   UNL     1       3.682  13.391   6.664  1.00  0.00    -0.550 OA
ENDBRANCH   6   7
ENDBRANCH   5   6
ENDBRANCH   4   5
ENDBRANCH   3   4
ENDBRANCH   2   3
ENDBRANCH   1   2
BRANCH   1  10
ATOM     10  C   UNL     1       1.324  20.425  10.123  1.00  0.00     0.000 C 
BRANCH  10  11
ATOM     11  C   UNL     1       2.041  20.833   8.824  1.00  0.00    -0.000 C 
BRANCH  11  12
ATOM     12  C   UNL     1       1.212  20.662   7.535  1.00  0.00    -0.000 C 
BRANCH  12  13
ATOM     13  C   UNL     1       1.985  20.098   6.326  1.00  0.00    -0.000 C 
BRANCH  13  14
ATOM     14  C   UNL     1       2.946  18.939   6.648  1.00  0.00    -0.000 C 
BRANCH  14  15
ATOM     15  C   UNL     1       4.145  18.876   5.685  1.00  0.00    -0.000 C 
BRANCH  15  16
ATOM     16  C   UNL     1       5.493  18.953   6.419  1.00  0.00    -0.003 C 
ATOM     17  C   UNL     1       5.503  20.003   7.531  1.00  0.00     0.004 C 
ENDBRANCH  15  16
ENDBRANCH  14  15
ENDBRANCH  13  14
ENDBRANCH  12  13
ENDBRANCH  11  12
ENDBRANCH  10  11
ENDBRANCH   1  10
TORSDOF 13
ENDMDL
MODEL 2
REMARK VINA RESULT:    -2.977      1.314      2.193
REMARK INTER + INTRA:          -6.933
REMARK INTER:                  -5.725
REMARK INTRA:                  -1.208
REMARK UNBOUND:                -1.694
REMARK SMILES CCCCCCCCCCCCCCC(=O)[O-]
REMARK SMILES IDX 9 1 10 2 11 3 12 4 13 5 14 6 15 7 16 8 17 9 8 10 7 11 6 12
REMARK SMILES IDX 5 13 4 14 3 15 2 16 1 17
REMARK H PARENT
REMARK Flexibility Score: inf
ROOT
ATOM      1  C   UNL     1       3.751  19.305   9.986  1.00  0.00     0.000 C 
ENDROOT
BRANCH   1   2
ATOM      2  C   UNL     1       3.978  18.043   9.137  1.00  0.00     0.000 C 
BRANCH   2   3
ATOM      3  C   UNL     1       4.272  16.798   9.992  1.00  0.00     0.000 C 
BRANCH   3   4
ATOM      4  C   UNL     1       4.361  15.513   9.155  1.00  0.00     0.000 C 
BRANCH   4   5
ATOM      5  C   UNL     1       4.372  15.793   7.642  1.00  0.00     0.006 C 
BRANCH   5   6
ATOM      6  C   UNL     1       5.317  14.850   6.885  1.00  0.00     0.053 C 
BRANCH   6   7
ATOM      7  C   UNL     1       4.576  13.969   5.927  1.00  0.00     0.041 C 
ATOM      8  O   UNL     1       3.649  13.223   6.339  1.00  0.00    -0.550 OA
ATOM      9  O   UNL     1       4.888  13.995   4.573  1.00  0.00    -0.550 OA
ENDBRANCH   6   7
ENDBRANCH   5   6
ENDBRANCH   4   5
ENDBRANCH   3   4
ENDBRANCH   2   3
ENDBRANCH   1   2
BRANCH   1  10
ATOM     10  C   UNL     1       2.453  19.237  10.808  1.00  0.00     0.000 C 
BRANCH  10  11
ATOM     11  C   UNL     1       1.361  20.182  10.278  1.00  0.00    -0.000 C 
BRANCH  11  12
ATOM     12  C   UNL     1       1.723  20.942   8.986  1.00  0.00    -0.000 C 
BRANCH  12  13
ATOM     13  C   UNL     1       0.572  21.098   7.971  1.00  0.00    -0.000 C 
BRANCH  13  14
ATOM     14  C   UNL     1       0.782  20.375   6.628  1.00  0.00    -0.000 C 
BRANCH  14  15
ATOM     15  C   UNL     1       2.088  19.563   6.588  1.00  0.00    -0.000 C 
BRANCH  15  16
ATOM     16  C   UNL     1       3.050  20.051   5.492  1.00  0.00    -0.003 C 
ATOM     17  C   UNL     1       2.440  21.142   4.611  1.00  0.00     0.004 C 
ENDBRANCH  15  16
ENDBRANCH  14  15
ENDBRANCH  13  14
ENDBRANCH  12  13
ENDBRANCH  11  12
ENDBRANCH  10  11
ENDBRANCH   1  10
TORSDOF 13
ENDMDL
MODEL 3
REMARK VINA RESULT:    -2.968      1.269      1.996
REMARK INTER + INTRA:          -6.918
REMARK INTER:                  -5.017
REMARK INTRA:                  -1.900
REMARK UNBOUND:                -1.694
REMARK SMILES CCCCCCCCCCCCCCC(=O)[O-]
REMARK SMILES IDX 9 1 10 2 11 3 12 4 13 5 14 6 15 7 16 8 17 9 8 10 7 11 6 12
REMARK SMILES IDX 5 13 4 14 3 15 2 16 1 17
REMARK H PARENT
REMARK Flexibility Score: inf
ROOT
ATOM      1  C   UNL     1       3.160  18.061  11.501  1.00  0.00     0.000 C 
ENDROOT
BRANCH   1   2
ATOM      2  C   UNL     1       4.013  17.315  10.462  1.00  0.00     0.000 C 
BRANCH   2   3
ATOM      3  C   UNL     1       5.146  18.184   9.890  1.00  0.00     0.000 C 
BRANCH   3   4
ATOM      4  C   UNL     1       5.222  18.125   8.357  1.00  0.00     0.000 C 
BRANCH   4   5
ATOM      5  C   UNL     1       4.095  17.278   7.742  1.00  0.00     0.006 C 
BRANCH   5   6
ATOM      6  C   UNL     1       4.636  16.146   6.859  1.00  0.00     0.053 C 
BRANCH   6   7
ATOM      7  C   UNL     1       4.369  14.797   7.455  1.00  0.00     0.041 C 
ATOM      8  O   UNL     1       3.616  13.981   6.863  1.00  0.00    -0.550 OA
ATOM      9  O   UNL     1       4.977  14.432   8.649  1.00  0.00    -0.550 OA
ENDBRANCH   6   7
ENDBRANCH   5   6
ENDBRANCH   4   5
ENDBRANCH   3   4
ENDBRANCH   2   3
ENDBRANCH   1   2
BRANCH   1  10
ATOM     10  C   UNL     1       3.042  19.565  11.197  1.00  0.00     0.000 C 
BRANCH  10  11
ATOM     11  C   UNL     1       1.959  19.878  10.149  1.00  0.00    -0.000 C 
BRANCH  11  12
ATOM     12  C   UNL     1       2.461  20.610   8.888  1.00  0.00    -0.000 C 
BRANCH  12  13
ATOM     13  C   UNL     1       1.441  20.708   7.735  1.00  0.00    -0.000 C 
BRANCH  13  14
ATOM     14  C   UNL     1       1.689  19.746   6.560  1.00  0.00    -0.000 C 
BRANCH  14  15
ATOM     15  C   UNL     1       2.341  20.439   5.351  1.00  0.00    -0.000 C 
BRANCH  15  16
ATOM     16  C   UNL     1       3.862  20.587   5.507  1.00  0.00    -0.003 C 
ATOM     17  C   UNL     1       4.644  19.525   4.733  1.00  0.00     0.004 C 
ENDBRANCH  15  16
ENDBRANCH  14  15
ENDBRANCH  13  14
ENDBRANCH  12  13
ENDBRANCH  11  12
ENDBRANCH  10  11
ENDBRANCH   1  10
TORSDOF 13
ENDMDL
MODEL 4
REMARK VINA RESULT:    -2.941      1.090      3.636
REMARK INTER + INTRA:          -6.869
REMARK INTER:                  -5.398
REMARK INTRA:                  -1.472
REMARK UNBOUND:                -1.694
REMARK SMILES CCCCCCCCCCCCCCC(=O)[O-]
REMARK SMILES IDX 9 1 10 2 11 3 12 4 13 5 14 6 15 7 16 8 17 9 8 10 7 11 6 12
REMARK SMILES IDX 5 13 4 14 3 15 2 16 1 17
REMARK H PARENT
REMARK Flexibility Score: inf
ROOT
ATOM      1  C   UNL     1       3.794  19.413   5.510  1.00  0.00     0.000 C 
ENDROOT
BRANCH   1   2
ATOM      2  C   UNL     1       4.886  19.865   6.493  1.00  0.00     0.000 C 
BRANCH   2   3
ATOM      3  C   UNL     1       4.972  18.968   7.740  1.00  0.00     0.000 C 
BRANCH   3   4
ATOM      4  C   UNL     1       4.036  17.752   7.660  1.00  0.00     0.000 C 
BRANCH   4   5
ATOM      5  C   UNL     1       4.802  16.427   7.508  1.00  0.00     0.006 C 
BRANCH   5   6
ATOM      6  C   UNL     1       3.893  15.206   7.706  1.00  0.00     0.053 C 
BRANCH   6   7
ATOM      7  C   UNL     1       4.394  14.010   6.955  1.00  0.00     0.041 C 
ATOM      8  O   UNL     1       3.634  13.398   6.160  1.00  0.00    -0.550 OA
ATOM      9  O   UNL     1       5.709  13.591   7.111  1.00  0.00    -0.550 OA
ENDBRANCH   6   7
ENDBRANCH   5   6
ENDBRANCH   4   5
ENDBRANCH   3   4
ENDBRANCH   2   3
ENDBRANCH   1   2
BRANCH   1  10
ATOM     10  C   UNL     1       3.158  20.590   4.752  1.00  0.00     0.000 C 
BRANCH  10  11
ATOM     11  C   UNL     1       1.812  21.031   5.355  1.00  0.00    -0.000 C 
BRANCH  11  12
ATOM     12  C   UNL     1       1.280  20.135   6.493  1.00  0.00    -0.000 C 
BRANCH  12  13
ATOM     13  C   UNL     1       0.983  20.864   7.819  1.00  0.00    -0.000 C 
BRANCH  13  14
ATOM     14  C   UNL     1       1.988  20.592   8.953  1.00  0.00    -0.000 C 
BRANCH  14  15
ATOM     15  C   UNL     1       1.312  20.475  10.330  1.00  0.00    -0.000 C 
BRANCH  15  16
ATOM     16  C   UNL     1       1.875  19.313  11.164  1.00  0.00    -0.003 C 
ATOM     17  C   UNL     1       3.388  19.150  11.010  1.00  0.00     0.004 C 
ENDBRANCH  15  16
ENDBRANCH  14  15
ENDBRANCH  13  14
ENDBRANCH  12  13
ENDBRANCH  11  12
ENDBRANCH  10  11
ENDBRANCH   1  10
TORSDOF 13
ENDMDL
MODEL 5
REMARK VINA RESULT:    -2.816      1.286      3.538
REMARK INTER + INTRA:          -6.650
REMARK INTER:                  -5.148
REMARK INTRA:                  -1.502
REMARK UNBOUND:                -1.694
REMARK SMILES CCCCCCCCCCCCCCC(=O)[O-]
REMARK SMILES IDX 9 1 10 2 11 3 12 4 13 5 14 6 15 7 16 8 17 9 8 10 7 11 6 12
REMARK SMILES IDX 5 13 4 14 3 15 2 16 1 17
REMARK H PARENT
REMARK Flexibility Score: inf
ROOT
ATOM      1  C   UNL     1       5.674  18.511   6.202  1.00  0.00     0.000 C 
ENDROOT
BRANCH   1   2
ATOM      2  C   UNL     1       4.718  17.307   6.193  1.00  0.00     0.000 C 
BRANCH   2   3
ATOM      3  C   UNL     1       3.957  17.144   7.520  1.00  0.00     0.000 C 
BRANCH   3   4
ATOM      4  C   UNL     1       4.477  15.968   8.361  1.00  0.00     0.000 C 
BRANCH   4   5
ATOM      5  C   UNL     1       5.330  14.986   7.538  1.00  0.00     0.006 C 
BRANCH   5   6
ATOM      6  C   UNL     1       4.662  13.611   7.405  1.00  0.00     0.053 C 
BRANCH   6   7
ATOM      7  C   UNL     1       4.253  13.325   5.992  1.00  0.00     0.041 C 
ATOM      8  O   UNL     1       3.467  12.375   5.740  1.00  0.00    -0.550 OA
ATOM      9  O   UNL     1       4.718  14.127   4.957  1.00  0.00    -0.550 OA
ENDBRANCH   6   7
ENDBRANCH   5   6
ENDBRANCH   4   5
ENDBRANCH   3   4
ENDBRANCH   2   3
ENDBRANCH   1   2
BRANCH   1  10
ATOM     10  C   UNL     1       4.929  19.856   6.201  1.00  0.00     0.000 C 
BRANCH  10  11
ATOM     11  C   UNL     1       4.065  20.059   4.943  1.00  0.00    -0.000 C 
BRANCH  11  12
ATOM     12  C   UNL     1       2.620  20.526   5.209  1.00  0.00    -0.000 C 
BRANCH  12  13
ATOM     13  C   UNL     1       1.893  19.793   6.355  1.00  0.00    -0.000 C 
BRANCH  13  14
ATOM     14  C   UNL     1       0.867  20.643   7.127  1.00  0.00    -0.000 C 
BRANCH  14  15
ATOM     15  C   UNL     1       1.346  21.013   8.542  1.00  0.00    -0.000 C 
BRANCH  15  16
ATOM     16  C   UNL     1       2.544  20.165   8.997  1.00  0.00    -0.003 C 
ATOM     17  C   UNL     1       2.315  19.496  10.354  1.00  0.00     0.004 C 
ENDBRANCH  15  16
ENDBRANCH  14  15
ENDBRANCH  13  14
ENDBRANCH  12  13
ENDBRANCH  11  12
ENDBRANCH  10  11
ENDBRANCH   1  10
TORSDOF 13
ENDMDL
MODEL 6
REMARK VINA RESULT:    -2.810      1.441      2.729
REMARK INTER + INTRA:          -6.639
REMARK INTER:                  -5.230
REMARK INTRA:                  -1.409
REMARK UNBOUND:                -1.694
REMARK SMILES CCCCCCCCCCCCCCC(=O)[O-]
REMARK SMILES IDX 9 1 10 2 11 3 12 4 13 5 14 6 15 7 16 8 17 9 8 10 7 11 6 12
REMARK SMILES IDX 5 13 4 14 3 15 2 16 1 17
REMARK H PARENT
REMARK Flexibility Score: inf
ROOT
ATOM      1  C   UNL     1       3.815  18.593  10.603  1.00  0.00     0.000 C 
ENDROOT
BRANCH   1   2
ATOM      2  C   UNL     1       3.885  17.152  11.134  1.00  0.00     0.000 C 
BRANCH   2   3
ATOM      3  C   UNL     1       4.310  16.142  10.054  1.00  0.00     0.000 C 
BRANCH   3   4
ATOM      4  C   UNL     1       4.728  16.820   8.740  1.00  0.00     0.000 C 
BRANCH   4   5
ATOM      5  C   UNL     1       4.366  15.982   7.502  1.00  0.00     0.006 C 
BRANCH   5   6
ATOM      6  C   UNL     1       5.339  14.815   7.287  1.00  0.00     0.053 C 
BRANCH   6   7
ATOM      7  C   UNL     1       4.619  13.515   7.097  1.00  0.00     0.041 C 
ATOM      8  O   UNL     1       3.647  13.440   6.301  1.00  0.00    -0.550 OA
ATOM      9  O   UNL     1       5.040  12.380   7.778  1.00  0.00    -0.550 OA
ENDBRANCH   6   7
ENDBRANCH   5   6
ENDBRANCH   4   5
ENDBRANCH   3   4
ENDBRANCH   2   3
ENDBRANCH   1   2
BRANCH   1  10
ATOM     10  C   UNL     1       2.376  19.133  10.550  1.00  0.00     0.000 C 
BRANCH  10  11
ATOM     11  C   UNL     1       2.178  20.197   9.456  1.00  0.00    -0.000 C 
BRANCH  11  12
ATOM     12  C   UNL     1       3.123  20.072   8.243  1.00  0.00    -0.000 C 
BRANCH  12  13
ATOM     13  C   UNL     1       2.578  19.234   7.069  1.00  0.00    -0.000 C 
BRANCH  13  14
ATOM     14  C   UNL     1       2.374  20.006   5.753  1.00  0.00    -0.000 C 
BRANCH  14  15
ATOM     15  C   UNL     1       1.433  21.213   5.912  1.00  0.00    -0.000 C 
BRANCH  15  16
ATOM     16  C   UNL     1      -0.036  20.796   6.086  1.00  0.00    -0.003 C 
ATOM     17  C   UNL     1      -0.673  21.380   7.347  1.00  0.00     0.004 C 
ENDBRANCH  15  16
ENDBRANCH  14  15
ENDBRANCH  13  14
ENDBRANCH  12  13
ENDBRANCH  11  12
ENDBRANCH  10  11
ENDBRANCH   1  10
TORSDOF 13
ENDMDL
MODEL 7
REMARK VINA RESULT:    -2.768      2.026      2.790
REMARK INTER + INTRA:          -6.565
REMARK INTER:                  -4.813
REMARK INTRA:                  -1.752
REMARK UNBOUND:                -1.694
REMARK SMILES CCCCCCCCCCCCCCC(=O)[O-]
REMARK SMILES IDX 9 1 10 2 11 3 12 4 13 5 14 6 15 7 16 8 17 9 8 10 7 11 6 12
REMARK SMILES IDX 5 13 4 14 3 15 2 16 1 17
REMARK H PARENT
REMARK Flexibility Score: inf
ROOT
ATOM      1  C   UNL     1       4.383  18.685   8.294  1.00  0.00     0.000 C 
ENDROOT
BRANCH   1   2
ATOM      2  C   UNL     1       3.988  17.236   7.965  1.00  0.00     0.000 C 
BRANCH   2   3
ATOM      3  C   UNL     1       4.400  16.243   9.066  1.00  0.00     0.000 C 
BRANCH   3   4
ATOM      4  C   UNL     1       4.790  14.867   8.506  1.00  0.00     0.000 C 
BRANCH   4   5
ATOM      5  C   UNL     1       4.051  14.530   7.200  1.00  0.00     0.006 C 
BRANCH   5   6
ATOM      6  C   UNL     1       4.756  13.422   6.405  1.00  0.00     0.053 C 
BRANCH   6   7
ATOM      7  C   UNL     1       4.001  12.129   6.460  1.00  0.00     0.041 C 
ATOM      8  O   UNL     1       3.139  11.860   5.583  1.00  0.00    -0.550 OA
ATOM      9  O   UNL     1       4.271  11.208   7.465  1.00  0.00    -0.550 OA
ENDBRANCH   6   7
ENDBRANCH   5   6
ENDBRANCH   4   5
ENDBRANCH   3   4
ENDBRANCH   2   3
ENDBRANCH   1   2
BRANCH   1  10
ATOM     10  C   UNL     1       3.295  19.697   7.897  1.00  0.00     0.000 C 
BRANCH  10  11
ATOM     11  C   UNL     1       2.503  19.263   6.651  1.00  0.00    -0.000 C 
BRANCH  11  12
ATOM     12  C   UNL     1       2.538  20.257   5.473  1.00  0.00    -0.000 C 
BRANCH  12  13
ATOM     13  C   UNL     1       3.942  20.755   5.075  1.00  0.00    -0.000 C 
BRANCH  13  14
ATOM     14  C   UNL     1       4.707  19.843   4.098  1.00  0.00    -0.000 C 
BRANCH  14  15
ATOM     15  C   UNL     1       5.803  19.016   4.790  1.00  0.00    -0.000 C 
BRANCH  15  16
ATOM     16  C   UNL     1       5.534  17.504   4.717  1.00  0.00    -0.003 C 
ATOM     17  C   UNL     1       6.558  16.681   5.500  1.00  0.00     0.004 C 
ENDBRANCH  15  16
ENDBRANCH  14  15
ENDBRANCH  13  14
ENDBRANCH  12  13
ENDBRANCH  11  12
ENDBRANCH  10  11
ENDBRANCH   1  10
TORSDOF 13
ENDMDL
MODEL 8
REMARK VINA RESULT:    -2.754      1.199      3.313
REMARK INTER + INTRA:          -6.540
REMARK INTER:                  -4.516
REMARK INTRA:                  -2.024
REMARK UNBOUND:                -1.694
REMARK SMILES CCCCCCCCCCCCCCC(=O)[O-]
REMARK SMILES IDX 9 1 10 2 11 3 12 4 13 5 14 6 15 7 16 8 17 9 8 10 7 11 6 12
REMARK SMILES IDX 5 13 4 14 3 15 2 16 1 17
REMARK H PARENT
REMARK Flexibility Score: inf
ROOT
ATOM      1  C   UNL     1       1.797  20.241   6.238  1.00  0.00     0.000 C 
ENDROOT
BRANCH   1   2
ATOM      2  C   UNL     1       2.728  19.076   6.611  1.00  0.00     0.000 C 
BRANCH   2   3
ATOM      3  C   UNL     1       4.188  19.521   6.800  1.00  0.00     0.000 C 
BRANCH   3   4
ATOM      4  C   UNL     1       5.159  18.335   6.908  1.00  0.00     0.000 C 
BRANCH   4   5
ATOM      5  C   UNL     1       4.433  16.979   6.946  1.00  0.00     0.006 C 
BRANCH   5   6
ATOM      6  C   UNL     1       4.802  16.158   8.188  1.00  0.00     0.053 C 
BRANCH   6   7
ATOM      7  C   UNL     1       4.578  14.692   7.975  1.00  0.00     0.041 C 
ATOM      8  O   UNL     1       5.230  13.847   8.643  1.00  0.00    -0.550 OA
ATOM      9  O   UNL     1       3.627  14.260   7.059  1.00  0.00    -0.550 OA
ENDBRANCH   6   7
ENDBRANCH   5   6
ENDBRANCH   4   5
ENDBRANCH   3   4
ENDBRANCH   2   3
ENDBRANCH   1   2
BRANCH   1  10
ATOM     10  C   UNL     1       0.996  20.765   7.443  1.00  0.00     0.000 C 
BRANCH  10  11
ATOM     11  C   UNL     1       1.723  21.893   8.196  1.00  0.00    -0.000 C 
BRANCH  11  12
ATOM     12  C   UNL     1       2.075  21.579   9.664  1.00  0.00    -0.000 C 
BRANCH  12  13
ATOM     13  C   UNL     1       1.188  20.514  10.340  1.00  0.00    -0.000 C 
BRANCH  13  14
ATOM     14  C   UNL     1       1.950  19.428  11.120  1.00  0.00    -0.000 C 
BRANCH  14  15
ATOM     15  C   UNL     1       3.031  18.734  10.273  1.00  0.00    -0.000 C 
BRANCH  15  16
ATOM     16  C   UNL     1       4.419  18.788  10.931  1.00  0.00    -0.003 C 
ATOM     17  C   UNL     1       5.325  19.856  10.317  1.00  0.00     0.004 C 
ENDBRANCH  15  16
ENDBRANCH  14  15
ENDBRANCH  13  14
ENDBRANCH  12  13
ENDBRANCH  11  12
ENDBRANCH  10  11
ENDBRANCH   1  10
TORSDOF 13
ENDMDL
MODEL 9
REMARK VINA RESULT:    -2.751      2.355      4.470
REMARK INTER + INTRA:          -6.535
REMARK INTER:                  -5.049
REMARK INTRA:                  -1.486
REMARK UNBOUND:                -1.694
REMARK SMILES CCCCCCCCCCCCCCC(=O)[O-]
REMARK SMILES IDX 9 1 10 2 11 3 12 4 13 5 14 6 15 7 16 8 17 9 8 10 7 11 6 12
REMARK SMILES IDX 5 13 4 14 3 15 2 16 1 17
REMARK H PARENT
REMARK Flexibility Score: inf
ROOT
ATOM      1  C   UNL     1       1.578  19.923   6.539  1.00  0.00     0.000 C 
ENDROOT
BRANCH   1   2
ATOM      2  C   UNL     1       1.418  20.700   7.856  1.00  0.00     0.000 C 
BRANCH   2   3
ATOM      3  C   UNL     1       2.334  20.168   8.973  1.00  0.00     0.000 C 
BRANCH   3   4
ATOM      4  C   UNL     1       1.665  20.208  10.355  1.00  0.00     0.000 C 
BRANCH   4   5
ATOM      5  C   UNL     1       2.171  19.095  11.288  1.00  0.00     0.006 C 
BRANCH   5   6
ATOM      6  C   UNL     1       3.454  18.437  10.762  1.00  0.00     0.053 C 
BRANCH   6   7
ATOM      7  C   UNL     1       3.898  17.304  11.636  1.00  0.00     0.041 C 
ATOM      8  O   UNL     1       3.480  17.215  12.820  1.00  0.00    -0.550 OA
ATOM      9  O   UNL     1       4.751  16.330  11.132  1.00  0.00    -0.550 OA
ENDBRANCH   6   7
ENDBRANCH   5   6
ENDBRANCH   4   5
ENDBRANCH   3   4
ENDBRANCH   2   3
ENDBRANCH   1   2
BRANCH   1  10
ATOM     10  C   UNL     1       1.920  20.839   5.351  1.00  0.00     0.000 C 
BRANCH  10  11
ATOM     11  C   UNL     1       3.262  20.480   4.688  1.00  0.00    -0.000 C 
BRANCH  11  12
ATOM     12  C   UNL     1       4.402  20.129   5.666  1.00  0.00    -0.000 C 
BRANCH  12  13
ATOM     13  C   UNL     1       4.802  18.640   5.700  1.00  0.00    -0.000 C 
BRANCH  13  14
ATOM     14  C   UNL     1       4.955  18.037   7.108  1.00  0.00    -0.000 C 
BRANCH  14  15
ATOM     15  C   UNL     1       3.819  17.063   7.464  1.00  0.00    -0.000 C 
BRANCH  15  16
ATOM     16  C   UNL     1       4.321  15.626   7.680  1.00  0.00    -0.003 C 
ATOM     17  C   UNL     1       4.756  14.949   6.379  1.00  0.00     0.004 C 
ENDBRANCH  15  16
ENDBRANCH  14  15
ENDBRANCH  13  14
ENDBRANCH  12  13
ENDBRANCH  11  12
ENDBRANCH  10  11
ENDBRANCH   1  10
TORSDOF 13
ENDMDL
