MODEL 1
REMARK VINA RESULT:    -3.760      0.000      0.000
REMARK INTER + INTRA:          -4.892
REMARK INTER:                  -4.639
REMARK INTRA:                  -0.253
REMARK UNBOUND:                -0.253
REMARK SMILES C=CC[C@@H](C)C(=O)CC
REMARK SMILES IDX 4 1 5 2 6 3 7 4 8 5 9 6 3 7 2 8 1 9
REMARK H PARENT
REMARK Flexibility Score: inf
ROOT
ATOM      1  C   UNL     1       3.877  19.940   6.680  1.00  0.00     0.057 C 
ATOM      2  C   UNL     1       2.907  20.709   7.588  1.00  0.00     0.016 C 
ENDROOT
BRANCH   1   3
ATOM      3  C   UNL     1       3.512  18.470   6.668  1.00  0.00     0.135 C 
ATOM      4  O   UNL     1       4.398  17.627   6.657  1.00  0.00    -0.299 OA
BRANCH   3   5
ATOM      5  C   UNL     1       2.074  18.024   6.680  1.00  0.00     0.072 C 
ATOM      6  C   UNL     1       1.920  16.676   5.982  1.00  0.00     0.012 C 
ENDBRANCH   3   5
ENDBRANCH   1   3
BRANCH   1   7
ATOM      7  C   UNL     1       3.872  20.494   5.240  1.00  0.00     0.038 C 
BRANCH   7   8
ATOM      8  C   UNL     1       5.254  20.855   4.760  1.00  0.00    -0.034 C 
ATOM      9  C   UNL     1       6.113  19.928   4.329  1.00  0.00     0.004 C 
ENDBRANCH   7   8
ENDBRANCH   1   7
TORSDOF 4
ENDMDL
MODEL 2
REMARK VINA RESULT:    -3.734      2.691      4.556
REMARK INTER + INTRA:          -4.860
REMARK INTER:                  -4.582
REMARK INTRA:                  -0.278
REMARK UNBOUND:                -0.253
REMARK SMILES C=CC[C@@H](C)C(=O)CC
REMARK SMILES IDX 4 1 5 2 6 3 7 4 8 5 9 6 3 7 2 8 1 9
REMARK H PARENT
REMARK Flexibility Score: inf
ROOT
ATOM      1  C   UNL     1       5.167  20.939   4.428  1.00  0.00     0.057 C 
ATOM      2  C   UNL     1       6.507  20.203   4.287  1.00  0.00     0.016 C 
ENDROOT
BRANCH   1   3
ATOM      3  C   UNL     1       4.481  21.017   3.080  1.00  0.00     0.135 C 
ATOM      4  O   UNL     1       3.260  21.053   3.023  1.00  0.00    -0.299 OA
BRANCH   3   5
ATOM      5  C   UNL     1       5.276  21.061   1.801  1.00  0.00     0.072 C 
ATOM      6  C   UNL     1       4.931  19.874   0.908  1.00  0.00     0.012 C 
ENDBRANCH   3   5
ENDBRANCH   1   3
BRANCH   1   7
ATOM      7  C   UNL     1       4.241  20.249   5.450  1.00  0.00     0.038 C 
BRANCH   7   8
ATOM      8  C   UNL     1       3.958  21.119   6.648  1.00  0.00    -0.034 C 
ATOM      9  C   UNL     1       4.443  22.359   6.746  1.00  0.00     0.004 C 
ENDBRANCH   7   8
ENDBRANCH   1   7
TORSDOF 4
ENDMDL
MODEL 3
REMARK VINA RESULT:    -3.714      1.663      2.011
REMARK INTER + INTRA:          -4.835
REMARK INTER:                  -4.392
REMARK INTRA:                  -0.443
REMARK UNBOUND:                -0.253
REMARK SMILES C=CC[C@@H](C)C(=O)CC
REMARK SMILES IDX 4 1 5 2 6 3 7 4 8 5 9 6 3 7 2 8 1 9
REMARK H PARENT
REMARK Flexibility Score: inf
ROOT
ATOM      1  C   UNL     1       4.404  21.059   6.161  1.00  0.00     0.057 C 
ATOM      2  C   UNL     1       4.458  22.487   6.720  1.00  0.00     0.016 C 
ENDROOT
BRANCH   1   3
ATOM      3  C   UNL     1       3.430  20.228   6.969  1.00  0.00     0.135 C 
ATOM      4  O   UNL     1       2.881  20.717   7.946  1.00  0.00    -0.299 OA
BRANCH   3   5
ATOM      5  C   UNL     1       3.114  18.805   6.587  1.00  0.00     0.072 C 
ATOM      6  C   UNL     1       4.383  17.961   6.548  1.00  0.00     0.012 C 
ENDBRANCH   3   5
ENDBRANCH   1   3
BRANCH   1   7
ATOM      7  C   UNL     1       4.000  21.043   4.672  1.00  0.00     0.038 C 
BRANCH   7   8
ATOM      8  C   UNL     1       5.155  20.697   3.768  1.00  0.00    -0.034 C 
ATOM      9  C   UNL     1       6.329  20.283   4.253  1.00  0.00     0.004 C 
ENDBRANCH   7   8
ENDBRANCH   1   7
TORSDOF 4
ENDMDL
MODEL 4
REMARK VINA RESULT:    -3.711      1.953      3.811
REMARK INTER + INTRA:          -4.831
REMARK INTER:                  -4.439
REMARK INTRA:                  -0.392
REMARK UNBOUND:                -0.253
REMARK SMILES C=CC[C@@H](C)C(=O)CC
REMARK SMILES IDX 4 1 5 2 6 3 7 4 8 5 9 6 3 7 2 8 1 9
REMARK H PARENT
REMARK Flexibility Score: inf
ROOT
ATOM      1  C   UNL     1       3.747  21.519   6.078  1.00  0.00     0.057 C 
ATOM      2  C   UNL     1       4.234  22.855   6.655  1.00  0.00     0.016 C 
ENDROOT
BRANCH   1   3
ATOM      3  C   UNL     1       4.547  21.173   4.840  1.00  0.00     0.135 C 
ATOM      4  O   UNL     1       3.974  21.032   3.769  1.00  0.00    -0.299 OA
BRANCH   3   5
ATOM      5  C   UNL     1       6.043  21.007   4.899  1.00  0.00     0.072 C 
ATOM      6  C   UNL     1       6.502  19.893   3.964  1.00  0.00     0.012 C 
ENDBRANCH   3   5
ENDBRANCH   1   3
BRANCH   1   7
ATOM      7  C   UNL     1       3.857  20.377   7.110  1.00  0.00     0.038 C 
BRANCH   7   8
ATOM      8  C   UNL     1       3.423  19.049   6.546  1.00  0.00    -0.034 C 
ATOM      9  C   UNL     1       4.235  17.988   6.541  1.00  0.00     0.004 C 
ENDBRANCH   7   8
ENDBRANCH   1   7
TORSDOF 4
ENDMDL
MODEL 5
REMARK VINA RESULT:    -3.691      9.605     11.475
REMARK INTER + INTRA:          -4.807
REMARK INTER:                  -4.591
REMARK INTRA:                  -0.217
REMARK UNBOUND:                -0.253
REMARK SMILES C=CC[C@@H](C)C(=O)CC
REMARK SMILES IDX 4 1 5 2 6 3 7 4 8 5 9 6 3 7 2 8 1 9
REMARK H PARENT
REMARK Flexibility Score: inf
ROOT
ATOM      1  C   UNL     1       3.126  10.146  12.184  1.00  0.00     0.057 C 
ATOM      2  C   UNL     1       3.272  11.654  12.433  1.00  0.00     0.016 C 
ENDROOT
BRANCH   1   3
ATOM      3  C   UNL     1       2.810   9.439  13.485  1.00  0.00     0.135 C 
ATOM      4  O   UNL     1       1.933   8.587  13.514  1.00  0.00    -0.299 OA
BRANCH   3   5
ATOM      5  C   UNL     1       3.564   9.760  14.749  1.00  0.00     0.072 C 
ATOM      6  C   UNL     1       4.939   9.101  14.741  1.00  0.00     0.012 C 
ENDBRANCH   3   5
ENDBRANCH   1   3
BRANCH   1   7
ATOM      7  C   UNL     1       2.030   9.843  11.141  1.00  0.00     0.038 C 
BRANCH   7   8
ATOM      8  C   UNL     1       1.642  11.062  10.345  1.00  0.00    -0.034 C 
ATOM      9  C   UNL     1       1.775  11.106   9.017  1.00  0.00     0.004 C 
ENDBRANCH   7   8
ENDBRANCH   1   7
TORSDOF 4
ENDMDL
MODEL 6
REMARK VINA RESULT:    -3.605      2.038      3.780
REMARK INTER + INTRA:          -4.701
REMARK INTER:                  -4.261
REMARK INTRA:                  -0.440
REMARK UNBOUND:                -0.253
REMARK SMILES C=CC[C@@H](C)C(=O)CC
REMARK SMILES IDX 4 1 5 2 6 3 7 4 8 5 9 6 3 7 2 8 1 9
REMARK H PARENT
REMARK Flexibility Score: inf
ROOT
ATOM      1  C   UNL     1       4.244  20.151   6.157  1.00  0.00     0.057 C 
ATOM      2  C   UNL     1       3.641  18.783   6.505  1.00  0.00     0.016 C 
ENDROOT
BRANCH   1   3
ATOM      3  C   UNL     1       3.921  20.504   4.720  1.00  0.00     0.135 C 
ATOM      4  O   UNL     1       2.755  20.632   4.375  1.00  0.00    -0.299 OA
BRANCH   3   5
ATOM      5  C   UNL     1       5.014  20.710   3.703  1.00  0.00     0.072 C 
ATOM      6  C   UNL     1       6.373  20.342   4.287  1.00  0.00     0.012 C 
ENDBRANCH   3   5
ENDBRANCH   1   3
BRANCH   1   7
ATOM      7  C   UNL     1       3.730  21.259   7.099  1.00  0.00     0.038 C 
BRANCH   7   8
ATOM      8  C   UNL     1       4.427  22.575   6.871  1.00  0.00    -0.034 C 
ATOM      9  C   UNL     1       3.751  23.684   6.556  1.00  0.00     0.004 C 
ENDBRANCH   7   8
ENDBRANCH   1   7
TORSDOF 4
ENDMDL
MODEL 7
REMARK VINA RESULT:    -3.602      2.278      3.382
REMARK INTER + INTRA:          -4.697
REMARK INTER:                  -4.464
REMARK INTRA:                  -0.233
REMARK UNBOUND:                -0.253
REMARK SMILES C=CC[C@@H](C)C(=O)CC
REMARK SMILES IDX 4 1 5 2 6 3 7 4 8 5 9 6 3 7 2 8 1 9
REMARK H PARENT
REMARK Flexibility Score: inf
ROOT
ATOM      1  C   UNL     1       5.162  20.364   4.402  1.00  0.00     0.057 C 
ATOM      2  C   UNL     1       6.682  20.576   4.383  1.00  0.00     0.016 C 
ENDROOT
BRANCH   1   3
ATOM      3  C   UNL     1       4.572  20.992   5.647  1.00  0.00     0.135 C 
ATOM      4  O   UNL     1       4.941  22.103   5.999  1.00  0.00    -0.299 OA
BRANCH   3   5
ATOM      5  C   UNL     1       3.527  20.274   6.462  1.00  0.00     0.072 C 
ATOM      6  C   UNL     1       3.882  18.800   6.618  1.00  0.00     0.012 C 
ENDBRANCH   3   5
ENDBRANCH   1   3
BRANCH   1   7
ATOM      7  C   UNL     1       4.488  20.953   3.146  1.00  0.00     0.038 C 
BRANCH   7   8
ATOM      8  C   UNL     1       5.330  20.782   1.908  1.00  0.00    -0.034 C 
ATOM      9  C   UNL     1       4.965  19.966   0.916  1.00  0.00     0.004 C 
ENDBRANCH   7   8
ENDBRANCH   1   7
TORSDOF 4
ENDMDL
MODEL 8
REMARK VINA RESULT:    -3.498     10.789     12.509
REMARK INTER + INTRA:          -4.569
REMARK INTER:                  -4.262
REMARK INTRA:                  -0.307
REMARK UNBOUND:                -0.253
REMARK SMILES C=CC[C@@H](C)C(=O)CC
REMARK SMILES IDX 4 1 5 2 6 3 7 4 8 5 9 6 3 7 2 8 1 9
REMARK H PARENT
REMARK Flexibility Score: inf
ROOT
ATOM      1  C   UNL     1       3.643   9.449  13.388  1.00  0.00     0.057 C 
ATOM      2  C   UNL     1       5.023   9.341  14.052  1.00  0.00     0.016 C 
ENDROOT
BRANCH   1   3
ATOM      3  C   UNL     1       2.612   8.723  14.227  1.00  0.00     0.135 C 
ATOM      4  O   UNL     1       1.664   8.177  13.682  1.00  0.00    -0.299 OA
BRANCH   3   5
ATOM      5  C   UNL     1       2.736   8.654  15.726  1.00  0.00     0.072 C 
ATOM      6  C   UNL     1       1.880   9.727  16.391  1.00  0.00     0.012 C 
ENDBRANCH   3   5
ENDBRANCH   1   3
BRANCH   1   7
ATOM      7  C   UNL     1       3.218  10.918  13.187  1.00  0.00     0.038 C 
BRANCH   7   8
ATOM      8  C   UNL     1       2.924  11.239  11.744  1.00  0.00    -0.034 C 
ATOM      9  C   UNL     1       2.168  10.440  10.987  1.00  0.00     0.004 C 
ENDBRANCH   7   8
ENDBRANCH   1   7
TORSDOF 4
ENDMDL
MODEL 9
REMARK VINA RESULT:    -3.398      1.989      3.508
REMARK INTER + INTRA:          -4.446
REMARK INTER:                  -4.218
REMARK INTRA:                  -0.228
REMARK UNBOUND:                -0.253
REMARK SMILES C=CC[C@@H](C)C(=O)CC
REMARK SMILES IDX 4 1 5 2 6 3 7 4 8 5 9 6 3 7 2 8 1 9
REMARK H PARENT
REMARK Flexibility Score: inf
ROOT
ATOM      1  C   UNL     1       3.542  20.212   5.868  1.00  0.00     0.057 C 
ATOM      2  C   UNL     1       4.005  18.842   6.382  1.00  0.00     0.016 C 
ENDROOT
BRANCH   1   3
ATOM      3  C   UNL     1       3.552  21.215   7.002  1.00  0.00     0.135 C 
ATOM      4  O   UNL     1       2.819  21.048   7.966  1.00  0.00    -0.299 OA
BRANCH   3   5
ATOM      5  C   UNL     1       4.458  22.418   6.970  1.00  0.00     0.072 C 
ATOM      6  C   UNL     1       3.664  23.687   6.680  1.00  0.00     0.012 C 
ENDBRANCH   3   5
ENDBRANCH   1   3
BRANCH   1   7
ATOM      7  C   UNL     1       4.427  20.718   4.710  1.00  0.00     0.038 C 
BRANCH   7   8
ATOM      8  C   UNL     1       5.749  19.999   4.642  1.00  0.00    -0.034 C 
ATOM      9  C   UNL     1       6.476  19.968   3.522  1.00  0.00     0.004 C 
ENDBRANCH   7   8
ENDBRANCH   1   7
TORSDOF 4
ENDMDL
