MODEL 1
REMARK VINA RESULT:    -3.318      0.000      0.000
REMARK INTER + INTRA:          -4.848
REMARK INTER:                  -4.288
REMARK INTRA:                  -0.560
REMARK UNBOUND:                -0.560
REMARK SMILES C=CC(=O)CCCCC
REMARK SMILES IDX 6 1 7 2 8 3 9 4 5 5 3 6 4 7 2 8 1 9
REMARK H PARENT
REMARK Flexibility Score: inf
ROOT
ATOM      1  C   UNL     1       1.399  -4.804  16.381  1.00  0.00     0.008 C 
ENDROOT
BRANCH   1   2
ATOM      2  C   UNL     1      -0.113  -4.549  16.387  1.00  0.00     0.000 C 
BRANCH   2   3
ATOM      3  C   UNL     1      -0.834  -5.541  17.306  1.00  0.00    -0.003 C 
ATOM      4  C   UNL     1      -2.076  -6.115  16.631  1.00  0.00     0.004 C 
ENDBRANCH   2   3
ENDBRANCH   1   2
BRANCH   1   5
ATOM      5  C   UNL     1       1.828  -5.542  15.110  1.00  0.00     0.080 C 
BRANCH   5   6
ATOM      6  C   UNL     1       1.824  -7.026  15.335  1.00  0.00     0.155 C 
ATOM      7  O   UNL     1       2.637  -7.527  16.159  1.00  0.00    -0.295 OA
BRANCH   6   8
ATOM      8  C   UNL     1       0.907  -7.888  14.564  1.00  0.00     0.039 C 
ATOM      9  C   UNL     1       0.106  -7.410  13.614  1.00  0.00     0.012 C 
ENDBRANCH   6   8
ENDBRANCH   5   6
ENDBRANCH   1   5
TORSDOF 5
ENDMDL
MODEL 2
REMARK VINA RESULT:    -3.158      1.666      3.487
REMARK INTER + INTRA:          -4.641
REMARK INTER:                  -4.069
REMARK INTRA:                  -0.572
REMARK UNBOUND:                -0.560
REMARK SMILES C=CC(=O)CCCCC
REMARK SMILES IDX 6 1 7 2 8 3 9 4 5 5 3 6 4 7 2 8 1 9
REMARK H PARENT
REMARK Flexibility Score: inf
ROOT
ATOM      1  C   UNL     1       1.501  -5.495  16.259  1.00  0.00     0.008 C 
ENDROOT
BRANCH   1   2
ATOM      2  C   UNL     1       1.566  -5.962  14.800  1.00  0.00     0.000 C 
BRANCH   2   3
ATOM      3  C   UNL     1       1.035  -7.392  14.656  1.00  0.00    -0.003 C 
ATOM      4  C   UNL     1       0.020  -7.493  13.522  1.00  0.00     0.004 C 
ENDBRANCH   2   3
ENDBRANCH   1   2
BRANCH   1   5
ATOM      5  C   UNL     1       0.341  -4.517  16.472  1.00  0.00     0.080 C 
BRANCH   5   6
ATOM      6  C   UNL     1      -0.754  -5.163  17.269  1.00  0.00     0.155 C 
ATOM      7  O   UNL     1      -0.677  -5.174  18.528  1.00  0.00    -0.295 OA
BRANCH   6   8
ATOM      8  C   UNL     1      -1.883  -5.817  16.579  1.00  0.00     0.039 C 
ATOM      9  C   UNL     1      -2.126  -7.122  16.686  1.00  0.00     0.012 C 
ENDBRANCH   6   8
ENDBRANCH   5   6
ENDBRANCH   1   5
TORSDOF 5
ENDMDL
MODEL 3
REMARK VINA RESULT:    -3.059      2.197      3.569
REMARK INTER + INTRA:          -4.514
REMARK INTER:                  -4.016
REMARK INTRA:                  -0.498
REMARK UNBOUND:                -0.560
REMARK SMILES C=CC(=O)CCCCC
REMARK SMILES IDX 6 1 7 2 8 3 9 4 5 5 3 6 4 7 2 8 1 9
REMARK H PARENT
REMARK Flexibility Score: inf
ROOT
ATOM      1  C   UNL     1       0.044  -4.485  16.518  1.00  0.00     0.008 C 
ENDROOT
BRANCH   1   2
ATOM      2  C   UNL     1       1.501  -4.800  16.159  1.00  0.00     0.000 C 
BRANCH   2   3
ATOM      3  C   UNL     1       1.578  -5.814  15.013  1.00  0.00    -0.003 C 
ATOM      4  C   UNL     1       2.276  -7.097  15.457  1.00  0.00     0.004 C 
ENDBRANCH   2   3
ENDBRANCH   1   2
BRANCH   1   5
ATOM      5  C   UNL     1      -0.589  -5.635  17.307  1.00  0.00     0.080 C 
BRANCH   5   6
ATOM      6  C   UNL     1      -1.850  -6.101  16.641  1.00  0.00     0.155 C 
ATOM      7  O   UNL     1      -2.802  -5.289  16.485  1.00  0.00    -0.295 OA
BRANCH   6   8
ATOM      8  C   UNL     1      -1.985  -7.508  16.215  1.00  0.00     0.039 C 
ATOM      9  C   UNL     1      -1.401  -7.981  15.116  1.00  0.00     0.012 C 
ENDBRANCH   6   8
ENDBRANCH   5   6
ENDBRANCH   1   5
TORSDOF 5
ENDMDL
MODEL 4
REMARK VINA RESULT:    -3.031     21.947     22.309
REMARK INTER + INTRA:          -4.478
REMARK INTER:                  -4.249
REMARK INTRA:                  -0.228
REMARK UNBOUND:                -0.560
REMARK SMILES C=CC(=O)CCCCC
REMARK SMILES IDX 6 1 7 2 8 3 9 4 5 5 3 6 4 7 2 8 1 9
REMARK H PARENT
REMARK Flexibility Score: inf
ROOT
ATOM      1  C   UNL     1      11.707   8.431   3.948  1.00  0.00     0.008 C 
ENDROOT
BRANCH   1   2
ATOM      2  C   UNL     1      11.980   9.138   5.281  1.00  0.00     0.000 C 
BRANCH   2   3
ATOM      3  C   UNL     1      10.928  10.218   5.556  1.00  0.00    -0.003 C 
ATOM      4  C   UNL     1      11.276  11.023   6.804  1.00  0.00     0.004 C 
ENDBRANCH   2   3
ENDBRANCH   1   2
BRANCH   1   5
ATOM      5  C   UNL     1      11.212   9.422   2.891  1.00  0.00     0.080 C 
BRANCH   5   6
ATOM      6  C   UNL     1      10.606   8.693   1.728  1.00  0.00     0.155 C 
ATOM      7  O   UNL     1       9.677   9.239   1.073  1.00  0.00    -0.295 OA
BRANCH   6   8
ATOM      8  C   UNL     1      11.066   7.332   1.387  1.00  0.00     0.039 C 
ATOM      9  C   UNL     1      10.250   6.406   0.889  1.00  0.00     0.012 C 
ENDBRANCH   6   8
ENDBRANCH   5   6
ENDBRANCH   1   5
TORSDOF 5
ENDMDL
MODEL 5
REMARK VINA RESULT:    -3.008     20.982     22.015
REMARK INTER + INTRA:          -4.448
REMARK INTER:                  -4.273
REMARK INTRA:                  -0.175
REMARK UNBOUND:                -0.560
REMARK SMILES C=CC(=O)CCCCC
REMARK SMILES IDX 6 1 7 2 8 3 9 4 5 5 3 6 4 7 2 8 1 9
REMARK H PARENT
REMARK Flexibility Score: inf
ROOT
ATOM      1  C   UNL     1      11.232   9.411   5.733  1.00  0.00     0.008 C 
ENDROOT
BRANCH   1   2
ATOM      2  C   UNL     1      11.334  10.217   4.434  1.00  0.00     0.000 C 
BRANCH   2   3
ATOM      3  C   UNL     1      11.306   9.294   3.211  1.00  0.00    -0.003 C 
ATOM      4  C   UNL     1      11.896   7.926   3.538  1.00  0.00     0.004 C 
ENDBRANCH   2   3
ENDBRANCH   1   2
BRANCH   1   5
ATOM      5  C   UNL     1      12.264   9.889   6.760  1.00  0.00     0.080 C 
BRANCH   5   6
ATOM      6  C   UNL     1      11.597  10.666   7.856  1.00  0.00     0.155 C 
ATOM      7  O   UNL     1      10.979  11.728   7.571  1.00  0.00    -0.295 OA
BRANCH   6   8
ATOM      8  C   UNL     1      11.704  10.211   9.256  1.00  0.00     0.039 C 
ATOM      9  C   UNL     1      10.996  10.760  10.241  1.00  0.00     0.012 C 
ENDBRANCH   6   8
ENDBRANCH   5   6
ENDBRANCH   1   5
TORSDOF 5
ENDMDL
MODEL 6
REMARK VINA RESULT:    -2.983      2.045      4.220
REMARK INTER + INTRA:          -4.416
REMARK INTER:                  -3.903
REMARK INTRA:                  -0.512
REMARK UNBOUND:                -0.560
REMARK SMILES C=CC(=O)CCCCC
REMARK SMILES IDX 6 1 7 2 8 3 9 4 5 5 3 6 4 7 2 8 1 9
REMARK H PARENT
REMARK Flexibility Score: inf
ROOT
ATOM      1  C   UNL     1      -0.278  -7.180  14.734  1.00  0.00     0.008 C 
ENDROOT
BRANCH   1   2
ATOM      2  C   UNL     1       0.998  -8.009  14.922  1.00  0.00     0.000 C 
BRANCH   2   3
ATOM      3  C   UNL     1       2.152  -7.136  15.426  1.00  0.00    -0.003 C 
ATOM      4  C   UNL     1       2.224  -5.819  14.658  1.00  0.00     0.004 C 
ENDBRANCH   2   3
ENDBRANCH   1   2
BRANCH   1   5
ATOM      5  C   UNL     1      -1.225  -7.353  15.925  1.00  0.00     0.080 C 
BRANCH   5   6
ATOM      6  C   UNL     1      -1.476  -6.033  16.595  1.00  0.00     0.155 C 
ATOM      7  O   UNL     1      -2.560  -5.427  16.377  1.00  0.00    -0.295 OA
BRANCH   6   8
ATOM      8  C   UNL     1      -0.441  -5.436  17.462  1.00  0.00     0.039 C 
ATOM      9  C   UNL     1       0.213  -4.325  17.131  1.00  0.00     0.012 C 
ENDBRANCH   6   8
ENDBRANCH   5   6
ENDBRANCH   1   5
TORSDOF 5
ENDMDL
MODEL 7
REMARK VINA RESULT:    -2.983     20.101     21.512
REMARK INTER + INTRA:          -4.415
REMARK INTER:                  -4.252
REMARK INTRA:                  -0.162
REMARK UNBOUND:                -0.560
REMARK SMILES C=CC(=O)CCCCC
REMARK SMILES IDX 6 1 7 2 8 3 9 4 5 5 3 6 4 7 2 8 1 9
REMARK H PARENT
REMARK Flexibility Score: inf
ROOT
ATOM      1  C   UNL     1      11.624   9.884   7.191  1.00  0.00     0.008 C 
ENDROOT
BRANCH   1   2
ATOM      2  C   UNL     1      10.892  10.246   5.894  1.00  0.00     0.000 C 
BRANCH   2   3
ATOM      3  C   UNL     1      11.815  10.095   4.680  1.00  0.00    -0.003 C 
ATOM      4  C   UNL     1      11.706   8.700   4.073  1.00  0.00     0.004 C 
ENDBRANCH   2   3
ENDBRANCH   1   2
BRANCH   1   5
ATOM      5  C   UNL     1      11.500  11.007   8.225  1.00  0.00     0.080 C 
BRANCH   5   6
ATOM      6  C   UNL     1      11.657  10.464   9.615  1.00  0.00     0.155 C 
ATOM      7  O   UNL     1      10.759  10.688  10.470  1.00  0.00    -0.295 OA
BRANCH   6   8
ATOM      8  C   UNL     1      12.874   9.713   9.982  1.00  0.00     0.039 C 
ATOM      9  C   UNL     1      12.827   8.515  10.560  1.00  0.00     0.012 C 
ENDBRANCH   6   8
ENDBRANCH   5   6
ENDBRANCH   1   5
TORSDOF 5
ENDMDL
MODEL 8
REMARK VINA RESULT:    -2.910     21.774     22.372
REMARK INTER + INTRA:          -4.320
REMARK INTER:                  -4.084
REMARK INTRA:                  -0.236
REMARK UNBOUND:                -0.560
REMARK SMILES C=CC(=O)CCCCC
REMARK SMILES IDX 6 1 7 2 8 3 9 4 5 5 3 6 4 7 2 8 1 9
REMARK H PARENT
REMARK Flexibility Score: inf
ROOT
ATOM      1  C   UNL     1      11.637   6.865   2.626  1.00  0.00     0.008 C 
ENDROOT
BRANCH   1   2
ATOM      2  C   UNL     1      11.404   6.981   1.115  1.00  0.00     0.000 C 
BRANCH   2   3
ATOM      3  C   UNL     1       9.940   6.702   0.761  1.00  0.00    -0.003 C 
ATOM      4  C   UNL     1       9.181   7.998   0.489  1.00  0.00     0.004 C 
ENDBRANCH   2   3
ENDBRANCH   1   2
BRANCH   1   5
ATOM      5  C   UNL     1      12.477   8.036   3.145  1.00  0.00     0.080 C 
BRANCH   5   6
ATOM      6  C   UNL     1      11.599   9.071   3.785  1.00  0.00     0.155 C 
ATOM      7  O   UNL     1      10.889   9.815   3.055  1.00  0.00    -0.295 OA
BRANCH   6   8
ATOM      8  C   UNL     1      11.604   9.241   5.252  1.00  0.00     0.039 C 
ATOM      9  C   UNL     1      10.879  10.173   5.865  1.00  0.00     0.012 C 
ENDBRANCH   6   8
ENDBRANCH   5   6
ENDBRANCH   1   5
TORSDOF 5
ENDMDL
MODEL 9
REMARK VINA RESULT:    -2.903     21.706     22.253
REMARK INTER + INTRA:          -4.311
REMARK INTER:                  -4.060
REMARK INTRA:                  -0.251
REMARK UNBOUND:                -0.560
REMARK SMILES C=CC(=O)CCCCC
REMARK SMILES IDX 6 1 7 2 8 3 9 4 5 5 3 6 4 7 2 8 1 9
REMARK H PARENT
REMARK Flexibility Score: inf
ROOT
ATOM      1  C   UNL     1      11.556   9.098   5.320  1.00  0.00     0.008 C 
ENDROOT
BRANCH   1   2
ATOM      2  C   UNL     1      12.458   9.834   6.318  1.00  0.00     0.000 C 
BRANCH   2   3
ATOM      3  C   UNL     1      11.675  10.236   7.572  1.00  0.00    -0.003 C 
ATOM      4  C   UNL     1      11.223  11.692   7.497  1.00  0.00     0.004 C 
ENDBRANCH   2   3
ENDBRANCH   1   2
BRANCH   1   5
ATOM      5  C   UNL     1      11.253   9.975   4.101  1.00  0.00     0.080 C 
BRANCH   5   6
ATOM      6  C   UNL     1      11.268   9.155   2.845  1.00  0.00     0.155 C 
ATOM      7  O   UNL     1      10.470   9.441   1.911  1.00  0.00    -0.295 OA
BRANCH   6   8
ATOM      8  C   UNL     1      12.179   8.000   2.727  1.00  0.00     0.039 C 
ATOM      9  C   UNL     1      11.759   6.794   2.348  1.00  0.00     0.012 C 
ENDBRANCH   6   8
ENDBRANCH   5   6
ENDBRANCH   1   5
TORSDOF 5
ENDMDL
