MODEL 1
REMARK VINA RESULT:    -3.611      0.000      0.000
REMARK INTER + INTRA:          -4.353
REMARK INTER:                  -4.350
REMARK INTRA:                  -0.003
REMARK UNBOUND:                -0.003
REMARK SMILES OCC(O)CO
REMARK SMILES IDX 3 1 5 2 6 3 2 5 1 6 4 8
REMARK H PARENT 6 4 1 7 4 9
REMARK Flexibility Score: inf
ROOT
ATOM      1  C   UNL     1       1.777  -0.289 -22.451  1.00  0.00     0.165 C 
ENDROOT
BRANCH   1   2
ATOM      2  C   UNL     1       2.754  -0.140 -23.632  1.00  0.00     0.190 C 
BRANCH   2   3
ATOM      3  O   UNL     1       3.143   1.197 -23.793  1.00  0.00    -0.394 OA
ATOM      4  H   UNL     1       3.872   1.202 -24.466  1.00  0.00     0.210 HD
ENDBRANCH   2   3
ENDBRANCH   1   2
BRANCH   1   5
ATOM      5  C   UNL     1       1.755  -1.731 -21.911  1.00  0.00     0.190 C 
BRANCH   5   6
ATOM      6  O   UNL     1       0.643  -1.925 -21.078  1.00  0.00    -0.394 OA
ATOM      7  H   UNL     1       0.617  -2.893 -20.860  1.00  0.00     0.210 HD
ENDBRANCH   5   6
ENDBRANCH   1   5
BRANCH   1   8
ATOM      8  O   UNL     1       2.107   0.616 -21.429  1.00  0.00    -0.388 OA
ATOM      9  H   UNL     1       1.263   1.028 -21.108  1.00  0.00     0.211 HD
ENDBRANCH   1   8
TORSDOF 5
ENDMDL
MODEL 2
REMARK VINA RESULT:    -3.610      1.729      2.289
REMARK INTER + INTRA:          -4.352
REMARK INTER:                  -4.131
REMARK INTRA:                  -0.221
REMARK UNBOUND:                -0.003
REMARK SMILES OCC(O)CO
REMARK SMILES IDX 3 1 5 2 6 3 2 5 1 6 4 8
REMARK H PARENT 6 4 1 7 4 9
REMARK Flexibility Score: inf
ROOT
ATOM      1  C   UNL     1       1.633  -1.854 -22.029  1.00  0.00     0.165 C 
ENDROOT
BRANCH   1   2
ATOM      2  C   UNL     1       2.160  -0.416 -22.188  1.00  0.00     0.190 C 
BRANCH   2   3
ATOM      3  O   UNL     1       3.122  -0.345 -23.205  1.00  0.00    -0.394 OA
ATOM      4  H   UNL     1       2.656  -0.009 -24.014  1.00  0.00     0.210 HD
ENDBRANCH   2   3
ENDBRANCH   1   2
BRANCH   1   5
ATOM      5  C   UNL     1       2.775  -2.851 -21.763  1.00  0.00     0.190 C 
BRANCH   5   6
ATOM      6  O   UNL     1       3.300  -3.329 -22.973  1.00  0.00    -0.394 OA
ATOM      7  H   UNL     1       2.594  -3.202 -23.659  1.00  0.00     0.210 HD
ENDBRANCH   5   6
ENDBRANCH   1   5
BRANCH   1   8
ATOM      8  O   UNL     1       0.678  -1.912 -21.001  1.00  0.00    -0.388 OA
ATOM      9  H   UNL     1      -0.043  -1.266 -21.224  1.00  0.00     0.211 HD
ENDBRANCH   1   8
TORSDOF 5
ENDMDL
MODEL 3
REMARK VINA RESULT:    -3.607      1.462      2.008
REMARK INTER + INTRA:          -4.348
REMARK INTER:                  -4.138
REMARK INTRA:                  -0.210
REMARK UNBOUND:                -0.003
REMARK SMILES OCC(O)CO
REMARK SMILES IDX 3 1 5 2 6 3 2 5 1 6 4 8
REMARK H PARENT 6 4 1 7 4 9
REMARK Flexibility Score: inf
ROOT
ATOM      1  C   UNL     1       2.602  -1.559 -22.311  1.00  0.00     0.165 C 
ENDROOT
BRANCH   1   2
ATOM      2  C   UNL     1       2.168  -0.124 -22.663  1.00  0.00     0.190 C 
BRANCH   2   3
ATOM      3  O   UNL     1       2.127   0.682 -21.517  1.00  0.00    -0.394 OA
ATOM      4  H   UNL     1       2.325   0.090 -20.746  1.00  0.00     0.210 HD
ENDBRANCH   2   3
ENDBRANCH   1   2
BRANCH   1   5
ATOM      5  C   UNL     1       1.552  -2.272 -21.440  1.00  0.00     0.190 C 
BRANCH   5   6
ATOM      6  O   UNL     1       0.379  -1.506 -21.360  1.00  0.00    -0.394 OA
ATOM      7  H   UNL     1      -0.379  -2.148 -21.352  1.00  0.00     0.210 HD
ENDBRANCH   5   6
ENDBRANCH   1   5
BRANCH   1   8
ATOM      8  O   UNL     1       2.853  -2.293 -23.482  1.00  0.00    -0.388 OA
ATOM      9  H   UNL     1       1.982  -2.447 -23.933  1.00  0.00     0.211 HD
ENDBRANCH   1   8
TORSDOF 5
ENDMDL
MODEL 4
REMARK VINA RESULT:    -3.529      1.499      3.240
REMARK INTER + INTRA:          -4.254
REMARK INTER:                  -4.031
REMARK INTRA:                  -0.224
REMARK UNBOUND:                -0.003
REMARK SMILES OCC(O)CO
REMARK SMILES IDX 3 1 5 2 6 3 2 5 1 6 4 8
REMARK H PARENT 6 4 1 7 4 9
REMARK Flexibility Score: inf
ROOT
ATOM      1  C   UNL     1       2.056  -1.592 -22.759  1.00  0.00     0.165 C 
ENDROOT
BRANCH   1   2
ATOM      2  C   UNL     1       1.816  -2.196 -21.364  1.00  0.00     0.190 C 
BRANCH   2   3
ATOM      3  O   UNL     1       0.512  -1.934 -20.923  1.00  0.00    -0.394 OA
ATOM      4  H   UNL     1       0.492  -0.982 -20.643  1.00  0.00     0.210 HD
ENDBRANCH   2   3
ENDBRANCH   1   2
BRANCH   1   5
ATOM      5  C   UNL     1       2.579  -0.147 -22.671  1.00  0.00     0.190 C 
BRANCH   5   6
ATOM      6  O   UNL     1       2.145   0.459 -21.483  1.00  0.00    -0.394 OA
ATOM      7  H   UNL     1       2.508   1.383 -21.487  1.00  0.00     0.210 HD
ENDBRANCH   5   6
ENDBRANCH   1   5
BRANCH   1   8
ATOM      8  O   UNL     1       2.946  -2.396 -23.491  1.00  0.00    -0.388 OA
ATOM      9  H   UNL     1       3.424  -2.980 -22.846  1.00  0.00     0.211 HD
ENDBRANCH   1   8
TORSDOF 5
ENDMDL
MODEL 5
REMARK VINA RESULT:    -3.519      1.446      2.795
REMARK INTER + INTRA:          -4.242
REMARK INTER:                  -4.034
REMARK INTRA:                  -0.208
REMARK UNBOUND:                -0.003
REMARK SMILES OCC(O)CO
REMARK SMILES IDX 3 1 5 2 6 3 2 5 1 6 4 8
REMARK H PARENT 6 4 1 7 4 9
REMARK Flexibility Score: inf
ROOT
ATOM      1  C   UNL     1       2.110  -0.451 -22.161  1.00  0.00     0.165 C 
ENDROOT
BRANCH   1   2
ATOM      2  C   UNL     1       1.763  -1.906 -21.793  1.00  0.00     0.190 C 
BRANCH   2   3
ATOM      3  O   UNL     1       0.585  -1.963 -21.036  1.00  0.00    -0.394 OA
ATOM      4  H   UNL     1      -0.028  -2.583 -21.510  1.00  0.00     0.210 HD
ENDBRANCH   2   3
ENDBRANCH   1   2
BRANCH   1   5
ATOM      5  C   UNL     1       1.005   0.198 -23.013  1.00  0.00     0.190 C 
BRANCH   5   6
ATOM      6  O   UNL     1       0.066   0.840 -22.192  1.00  0.00    -0.394 OA
ATOM      7  H   UNL     1      -0.727   0.244 -22.149  1.00  0.00     0.210 HD
ENDBRANCH   5   6
ENDBRANCH   1   5
BRANCH   1   8
ATOM      8  O   UNL     1       2.344   0.302 -20.998  1.00  0.00    -0.388 OA
ATOM      9  H   UNL     1       1.612   0.103 -20.358  1.00  0.00     0.211 HD
ENDBRANCH   1   8
TORSDOF 5
ENDMDL
MODEL 6
REMARK VINA RESULT:    -3.490      0.602      3.205
REMARK INTER + INTRA:          -4.207
REMARK INTER:                  -4.204
REMARK INTRA:                  -0.003
REMARK UNBOUND:                -0.003
REMARK SMILES OCC(O)CO
REMARK SMILES IDX 3 1 5 2 6 3 2 5 1 6 4 8
REMARK H PARENT 6 4 1 7 4 9
REMARK Flexibility Score: inf
ROOT
ATOM      1  C   UNL     1       2.081  -0.294 -22.240  1.00  0.00     0.165 C 
ENDROOT
BRANCH   1   2
ATOM      2  C   UNL     1       1.779  -1.767 -21.910  1.00  0.00     0.190 C 
BRANCH   2   3
ATOM      3  O   UNL     1       0.650  -1.873 -21.086  1.00  0.00    -0.394 OA
ATOM      4  H   UNL     1      -0.143  -1.819 -21.680  1.00  0.00     0.210 HD
ENDBRANCH   2   3
ENDBRANCH   1   2
BRANCH   1   5
ATOM      5  C   UNL     1       2.750  -0.147 -23.619  1.00  0.00     0.190 C 
BRANCH   5   6
ATOM      6  O   UNL     1       3.155   1.180 -23.828  1.00  0.00    -0.394 OA
ATOM      7  H   UNL     1       3.927   1.339 -23.225  1.00  0.00     0.210 HD
ENDBRANCH   5   6
ENDBRANCH   1   5
BRANCH   1   8
ATOM      8  O   UNL     1       0.903   0.470 -22.179  1.00  0.00    -0.388 OA
ATOM      9  H   UNL     1       1.065   1.312 -22.680  1.00  0.00     0.211 HD
ENDBRANCH   1   8
TORSDOF 5
ENDMDL
MODEL 7
REMARK VINA RESULT:    -3.472      1.561      2.814
REMARK INTER + INTRA:          -4.185
REMARK INTER:                  -3.962
REMARK INTRA:                  -0.223
REMARK UNBOUND:                -0.003
REMARK SMILES OCC(O)CO
REMARK SMILES IDX 3 1 5 2 6 3 2 5 1 6 4 8
REMARK H PARENT 6 4 1 7 4 9
REMARK Flexibility Score: inf
ROOT
ATOM      1  C   UNL     1       1.722  -1.444 -21.556  1.00  0.00     0.165 C 
ENDROOT
BRANCH   1   2
ATOM      2  C   UNL     1       2.566  -2.601 -22.121  1.00  0.00     0.190 C 
BRANCH   2   3
ATOM      3  O   UNL     1       2.881  -2.378 -23.469  1.00  0.00    -0.394 OA
ATOM      4  H   UNL     1       2.559  -1.466 -23.689  1.00  0.00     0.210 HD
ENDBRANCH   2   3
ENDBRANCH   1   2
BRANCH   1   5
ATOM      5  C   UNL     1       1.466  -0.357 -22.615  1.00  0.00     0.190 C 
BRANCH   5   6
ATOM      6  O   UNL     1       2.606   0.441 -22.785  1.00  0.00    -0.394 OA
ATOM      7  H   UNL     1       2.289   1.325 -23.106  1.00  0.00     0.210 HD
ENDBRANCH   5   6
ENDBRANCH   1   5
BRANCH   1   8
ATOM      8  O   UNL     1       0.508  -1.932 -21.045  1.00  0.00    -0.388 OA
ATOM      9  H   UNL     1       0.722  -2.661 -20.404  1.00  0.00     0.211 HD
ENDBRANCH   1   8
TORSDOF 5
ENDMDL
MODEL 8
REMARK VINA RESULT:    -3.428     12.916     14.084
REMARK INTER + INTRA:          -4.132
REMARK INTER:                  -4.117
REMARK INTRA:                  -0.015
REMARK UNBOUND:                -0.003
REMARK SMILES OCC(O)CO
REMARK SMILES IDX 3 1 5 2 6 3 2 5 1 6 4 8
REMARK H PARENT 6 4 1 7 4 9
REMARK Flexibility Score: inf
ROOT
ATOM      1  C   UNL     1       8.491 -10.050 -13.890  1.00  0.00     0.165 C 
ENDROOT
BRANCH   1   2
ATOM      2  C   UNL     1       7.731  -9.895 -12.559  1.00  0.00     0.190 C 
BRANCH   2   3
ATOM      3  O   UNL     1       7.934  -8.619 -12.014  1.00  0.00    -0.394 OA
ATOM      4  H   UNL     1       7.143  -8.422 -11.449  1.00  0.00     0.210 HD
ENDBRANCH   2   3
ENDBRANCH   1   2
BRANCH   1   5
ATOM      5  C   UNL     1       7.527 -10.125 -15.088  1.00  0.00     0.190 C 
BRANCH   5   6
ATOM      6  O   UNL     1       7.637  -8.971 -15.878  1.00  0.00    -0.394 OA
ATOM      7  H   UNL     1       8.308  -8.387 -15.436  1.00  0.00     0.210 HD
ENDBRANCH   5   6
ENDBRANCH   1   5
BRANCH   1   8
ATOM      8  O   UNL     1       9.404  -8.995 -14.055  1.00  0.00    -0.388 OA
ATOM      9  H   UNL     1       8.882  -8.152 -14.114  1.00  0.00     0.211 HD
ENDBRANCH   1   8
TORSDOF 5
ENDMDL
MODEL 9
REMARK VINA RESULT:    -3.343      5.355      5.844
REMARK INTER + INTRA:          -4.030
REMARK INTER:                  -3.806
REMARK INTRA:                  -0.224
REMARK UNBOUND:                -0.003
REMARK SMILES OCC(O)CO
REMARK SMILES IDX 3 1 5 2 6 3 2 5 1 6 4 8
REMARK H PARENT 6 4 1 7 4 9
REMARK Flexibility Score: inf
ROOT
ATOM      1  C   UNL     1      -2.463   3.274 -23.032  1.00  0.00     0.165 C 
ENDROOT
BRANCH   1   2
ATOM      2  C   UNL     1      -1.366   2.202 -22.899  1.00  0.00     0.190 C 
BRANCH   2   3
ATOM      3  O   UNL     1      -1.914   0.972 -22.510  1.00  0.00    -0.394 OA
ATOM      4  H   UNL     1      -2.563   0.713 -23.214  1.00  0.00     0.210 HD
ENDBRANCH   2   3
ENDBRANCH   1   2
BRANCH   1   5
ATOM      5  C   UNL     1      -3.634   3.012 -22.068  1.00  0.00     0.190 C 
BRANCH   5   6
ATOM      6  O   UNL     1      -3.173   2.945 -20.745  1.00  0.00    -0.394 OA
ATOM      7  H   UNL     1      -3.978   2.944 -20.163  1.00  0.00     0.210 HD
ENDBRANCH   5   6
ENDBRANCH   1   5
BRANCH   1   8
ATOM      8  O   UNL     1      -1.923   4.553 -22.817  1.00  0.00    -0.388 OA
ATOM      9  H   UNL     1      -2.315   4.909 -21.977  1.00  0.00     0.211 HD
ENDBRANCH   1   8
TORSDOF 5
ENDMDL
