MODEL 1
REMARK VINA RESULT:    -4.459      0.000      0.000
REMARK INTER + INTRA:          -6.062
REMARK INTER:                  -5.763
REMARK INTRA:                  -0.299
REMARK UNBOUND:                -0.299
REMARK SMILES CCCCCCC(=O)[O-]
REMARK SMILES IDX 5 1 6 2 7 3 8 4 9 5 4 6 3 7 2 8 1 9
REMARK H PARENT
REMARK Flexibility Score: inf
ROOT
ATOM      1  C   UNL     1      15.150   1.571  12.902  1.00  0.00     0.006 C 
ENDROOT
BRANCH   1   2
ATOM      2  C   UNL     1      14.606   0.615  13.974  1.00  0.00     0.053 C 
BRANCH   2   3
ATOM      3  C   UNL     1      15.347   0.744  15.270  1.00  0.00     0.041 C 
ATOM      4  O   UNL     1      16.215  -0.111  15.590  1.00  0.00    -0.550 OA
ATOM      5  O   UNL     1      15.104   1.825  16.106  1.00  0.00    -0.550 OA
ENDBRANCH   2   3
ENDBRANCH   1   2
BRANCH   1   6
ATOM      6  C   UNL     1      15.512   0.893  11.564  1.00  0.00     0.000 C 
BRANCH   6   7
ATOM      7  C   UNL     1      17.017   0.663  11.335  1.00  0.00    -0.000 C 
BRANCH   7   8
ATOM      8  C   UNL     1      17.398  -0.824  11.319  1.00  0.00    -0.003 C 
ATOM      9  C   UNL     1      17.807  -1.301  12.710  1.00  0.00     0.004 C 
ENDBRANCH   7   8
ENDBRANCH   6   7
ENDBRANCH   1   6
TORSDOF 5
ENDMDL
MODEL 2
REMARK VINA RESULT:    -4.408     14.424     16.251
REMARK INTER + INTRA:          -5.996
REMARK INTER:                  -5.783
REMARK INTRA:                  -0.213
REMARK UNBOUND:                -0.299
REMARK SMILES CCCCCCC(=O)[O-]
REMARK SMILES IDX 5 1 6 2 7 3 8 4 9 5 4 6 3 7 2 8 1 9
REMARK H PARENT
REMARK Flexibility Score: inf
ROOT
ATOM      1  C   UNL     1      29.571  -4.556   6.358  1.00  0.00     0.006 C 
ENDROOT
BRANCH   1   2
ATOM      2  C   UNL     1      30.790  -3.633   6.204  1.00  0.00     0.053 C 
BRANCH   2   3
ATOM      3  C   UNL     1      32.025  -4.228   6.807  1.00  0.00     0.041 C 
ATOM      4  O   UNL     1      33.007  -4.524   6.077  1.00  0.00    -0.550 OA
ATOM      5  O   UNL     1      32.104  -4.424   8.180  1.00  0.00    -0.550 OA
ENDBRANCH   2   3
ENDBRANCH   1   2
BRANCH   1   6
ATOM      6  C   UNL     1      28.268  -4.004   5.742  1.00  0.00     0.000 C 
BRANCH   6   7
ATOM      7  C   UNL     1      27.138  -3.724   6.748  1.00  0.00    -0.000 C 
BRANCH   7   8
ATOM      8  C   UNL     1      26.825  -2.228   6.894  1.00  0.00    -0.003 C 
ATOM      9  C   UNL     1      27.578  -1.622   8.075  1.00  0.00     0.004 C 
ENDBRANCH   7   8
ENDBRANCH   6   7
ENDBRANCH   1   6
TORSDOF 5
ENDMDL
MODEL 3
REMARK VINA RESULT:    -4.394      1.124      1.739
REMARK INTER + INTRA:          -5.978
REMARK INTER:                  -5.645
REMARK INTRA:                  -0.333
REMARK UNBOUND:                -0.299
REMARK SMILES CCCCCCC(=O)[O-]
REMARK SMILES IDX 5 1 6 2 7 3 8 4 9 5 4 6 3 7 2 8 1 9
REMARK H PARENT
REMARK Flexibility Score: inf
ROOT
ATOM      1  C   UNL     1      14.458   0.974  13.932  1.00  0.00     0.006 C 
ENDROOT
BRANCH   1   2
ATOM      2  C   UNL     1      15.295   1.002  15.221  1.00  0.00     0.053 C 
BRANCH   2   3
ATOM      3  C   UNL     1      16.087  -0.256  15.404  1.00  0.00     0.041 C 
ATOM      4  O   UNL     1      17.022  -0.298  16.246  1.00  0.00    -0.550 OA
ATOM      5  O   UNL     1      15.771  -1.391  14.668  1.00  0.00    -0.550 OA
ENDBRANCH   2   3
ENDBRANCH   1   2
BRANCH   1   6
ATOM      6  C   UNL     1      15.165   1.572  12.698  1.00  0.00     0.000 C 
BRANCH   6   7
ATOM      7  C   UNL     1      15.460   0.571  11.566  1.00  0.00    -0.000 C 
BRANCH   7   8
ATOM      8  C   UNL     1      16.944   0.533  11.173  1.00  0.00    -0.003 C 
ATOM      9  C   UNL     1      17.668  -0.615  11.871  1.00  0.00     0.004 C 
ENDBRANCH   7   8
ENDBRANCH   6   7
ENDBRANCH   1   6
TORSDOF 5
ENDMDL
MODEL 4
REMARK VINA RESULT:    -4.367     13.882     15.670
REMARK INTER + INTRA:          -5.943
REMARK INTER:                  -5.642
REMARK INTRA:                  -0.300
REMARK UNBOUND:                -0.299
REMARK SMILES CCCCCCC(=O)[O-]
REMARK SMILES IDX 5 1 6 2 7 3 8 4 9 5 4 6 3 7 2 8 1 9
REMARK H PARENT
REMARK Flexibility Score: inf
ROOT
ATOM      1  C   UNL     1      30.742  -4.001   6.468  1.00  0.00     0.006 C 
ENDROOT
BRANCH   1   2
ATOM      2  C   UNL     1      30.970  -3.500   7.903  1.00  0.00     0.053 C 
BRANCH   2   3
ATOM      3  C   UNL     1      30.945  -2.005   7.986  1.00  0.00     0.041 C 
ATOM      4  O   UNL     1      31.961  -1.375   8.382  1.00  0.00    -0.550 OA
ATOM      5  O   UNL     1      29.811  -1.304   7.593  1.00  0.00    -0.550 OA
ENDBRANCH   2   3
ENDBRANCH   1   2
BRANCH   1   6
ATOM      6  C   UNL     1      29.411  -4.751   6.255  1.00  0.00     0.000 C 
BRANCH   6   7
ATOM      7  C   UNL     1      28.255  -3.888   5.719  1.00  0.00    -0.000 C 
BRANCH   7   8
ATOM      8  C   UNL     1      27.140  -3.674   6.753  1.00  0.00    -0.003 C 
ATOM      9  C   UNL     1      26.351  -2.402   6.453  1.00  0.00     0.004 C 
ENDBRANCH   7   8
ENDBRANCH   6   7
ENDBRANCH   1   6
TORSDOF 5
ENDMDL
MODEL 5
REMARK VINA RESULT:    -4.348      2.514      4.006
REMARK INTER + INTRA:          -5.917
REMARK INTER:                  -5.565
REMARK INTRA:                  -0.352
REMARK UNBOUND:                -0.299
REMARK SMILES CCCCCCC(=O)[O-]
REMARK SMILES IDX 5 1 6 2 7 3 8 4 9 5 4 6 3 7 2 8 1 9
REMARK H PARENT
REMARK Flexibility Score: inf
ROOT
ATOM      1  C   UNL     1      15.463   0.903  11.585  1.00  0.00     0.006 C 
ENDROOT
BRANCH   1   2
ATOM      2  C   UNL     1      16.970   0.836  11.292  1.00  0.00     0.053 C 
BRANCH   2   3
ATOM      3  C   UNL     1      17.450  -0.575  11.141  1.00  0.00     0.041 C 
ATOM      4  O   UNL     1      17.812  -1.233  12.152  1.00  0.00    -0.550 OA
ATOM      5  O   UNL     1      17.465  -1.175   9.889  1.00  0.00    -0.550 OA
ENDBRANCH   2   3
ENDBRANCH   1   2
BRANCH   1   6
ATOM      6  C   UNL     1      15.085   1.782  12.796  1.00  0.00     0.000 C 
BRANCH   6   7
ATOM      7  C   UNL     1      15.345   1.142  14.171  1.00  0.00    -0.000 C 
BRANCH   7   8
ATOM      8  C   UNL     1      14.987  -0.351  14.213  1.00  0.00    -0.003 C 
ATOM      9  C   UNL     1      15.947  -1.120  15.118  1.00  0.00     0.004 C 
ENDBRANCH   7   8
ENDBRANCH   6   7
ENDBRANCH   1   6
TORSDOF 5
ENDMDL
MODEL 6
REMARK VINA RESULT:    -4.344      0.973      1.416
REMARK INTER + INTRA:          -5.913
REMARK INTER:                  -5.788
REMARK INTRA:                  -0.125
REMARK UNBOUND:                -0.299
REMARK SMILES CCCCCCC(=O)[O-]
REMARK SMILES IDX 5 1 6 2 7 3 8 4 9 5 4 6 3 7 2 8 1 9
REMARK H PARENT
REMARK Flexibility Score: inf
ROOT
ATOM      1  C   UNL     1      14.394   0.483  13.703  1.00  0.00     0.006 C 
ENDROOT
BRANCH   1   2
ATOM      2  C   UNL     1      13.877   1.149  14.988  1.00  0.00     0.053 C 
BRANCH   2   3
ATOM      3  C   UNL     1      14.954   1.292  16.019  1.00  0.00     0.041 C 
ATOM      4  O   UNL     1      15.923   0.488  16.037  1.00  0.00    -0.550 OA
ATOM      5  O   UNL     1      14.905   2.333  16.937  1.00  0.00    -0.550 OA
ENDBRANCH   2   3
ENDBRANCH   1   2
BRANCH   1   6
ATOM      6  C   UNL     1      15.147   1.433  12.748  1.00  0.00     0.000 C 
BRANCH   6   7
ATOM      7  C   UNL     1      15.538   0.819  11.392  1.00  0.00    -0.000 C 
BRANCH   7   8
ATOM      8  C   UNL     1      17.046   0.556  11.268  1.00  0.00    -0.003 C 
ATOM      9  C   UNL     1      17.314  -0.777  10.573  1.00  0.00     0.004 C 
ENDBRANCH   7   8
ENDBRANCH   6   7
ENDBRANCH   1   6
TORSDOF 5
ENDMDL
MODEL 7
REMARK VINA RESULT:    -4.282     12.776     14.177
REMARK INTER + INTRA:          -5.833
REMARK INTER:                  -5.517
REMARK INTRA:                  -0.316
REMARK UNBOUND:                -0.299
REMARK SMILES CCCCCCC(=O)[O-]
REMARK SMILES IDX 5 1 6 2 7 3 8 4 9 5 4 6 3 7 2 8 1 9
REMARK H PARENT
REMARK Flexibility Score: inf
ROOT
ATOM      1  C   UNL     1      26.892  -2.442   7.565  1.00  0.00     0.006 C 
ENDROOT
BRANCH   1   2
ATOM      2  C   UNL     1      28.032  -1.411   7.543  1.00  0.00     0.053 C 
BRANCH   2   3
ATOM      3  C   UNL     1      28.508  -1.070   8.921  1.00  0.00     0.041 C 
ATOM      4  O   UNL     1      27.980  -0.121   9.557  1.00  0.00    -0.550 OA
ATOM      5  O   UNL     1      29.511  -1.824   9.517  1.00  0.00    -0.550 OA
ENDBRANCH   2   3
ENDBRANCH   1   2
BRANCH   1   6
ATOM      6  C   UNL     1      27.053  -3.595   6.552  1.00  0.00     0.000 C 
BRANCH   6   7
ATOM      7  C   UNL     1      28.389  -3.609   5.787  1.00  0.00    -0.000 C 
BRANCH   7   8
ATOM      8  C   UNL     1      29.302  -4.773   6.202  1.00  0.00    -0.003 C 
ATOM      9  C   UNL     1      30.544  -4.264   6.928  1.00  0.00     0.004 C 
ENDBRANCH   7   8
ENDBRANCH   6   7
ENDBRANCH   1   6
TORSDOF 5
ENDMDL
MODEL 8
REMARK VINA RESULT:    -4.238      3.188      4.822
REMARK INTER + INTRA:          -5.776
REMARK INTER:                  -5.522
REMARK INTRA:                  -0.254
REMARK UNBOUND:                -0.299
REMARK SMILES CCCCCCC(=O)[O-]
REMARK SMILES IDX 5 1 6 2 7 3 8 4 9 5 4 6 3 7 2 8 1 9
REMARK H PARENT
REMARK Flexibility Score: inf
ROOT
ATOM      1  C   UNL     1      13.140   2.005  18.144  1.00  0.00     0.006 C 
ENDROOT
BRANCH   1   2
ATOM      2  C   UNL     1      13.374   0.515  18.438  1.00  0.00     0.053 C 
BRANCH   2   3
ATOM      3  C   UNL     1      14.678   0.278  19.135  1.00  0.00     0.041 C 
ATOM      4  O   UNL     1      15.742   0.167  18.470  1.00  0.00    -0.550 OA
ATOM      5  O   UNL     1      14.724   0.214  20.522  1.00  0.00    -0.550 OA
ENDBRANCH   2   3
ENDBRANCH   1   2
BRANCH   1   6
ATOM      6  C   UNL     1      12.875   2.331  16.660  1.00  0.00     0.000 C 
BRANCH   6   7
ATOM      7  C   UNL     1      13.383   1.277  15.660  1.00  0.00    -0.000 C 
BRANCH   7   8
ATOM      8  C   UNL     1      14.817   1.550  15.182  1.00  0.00    -0.003 C 
ATOM      9  C   UNL     1      14.982   1.188  13.708  1.00  0.00     0.004 C 
ENDBRANCH   7   8
ENDBRANCH   6   7
ENDBRANCH   1   6
TORSDOF 5
ENDMDL
MODEL 9
REMARK VINA RESULT:    -4.219      1.753      2.810
REMARK INTER + INTRA:          -5.751
REMARK INTER:                  -5.429
REMARK INTRA:                  -0.322
REMARK UNBOUND:                -0.299
REMARK SMILES CCCCCCC(=O)[O-]
REMARK SMILES IDX 5 1 6 2 7 3 8 4 9 5 4 6 3 7 2 8 1 9
REMARK H PARENT
REMARK Flexibility Score: inf
ROOT
ATOM      1  C   UNL     1      15.387  -0.027  14.843  1.00  0.00     0.006 C 
ENDROOT
BRANCH   1   2
ATOM      2  C   UNL     1      16.038  -1.401  14.625  1.00  0.00     0.053 C 
BRANCH   2   3
ATOM      3  C   UNL     1      17.517  -1.366  14.860  1.00  0.00     0.041 C 
ATOM      4  O   UNL     1      18.312  -1.713  13.947  1.00  0.00    -0.550 OA
ATOM      5  O   UNL     1      18.018  -0.918  16.075  1.00  0.00    -0.550 OA
ENDBRANCH   2   3
ENDBRANCH   1   2
BRANCH   1   6
ATOM      6  C   UNL     1      14.501   0.455  13.675  1.00  0.00     0.000 C 
BRANCH   6   7
ATOM      7  C   UNL     1      15.169   1.464  12.724  1.00  0.00    -0.000 C 
BRANCH   7   8
ATOM      8  C   UNL     1      15.579   0.839  11.382  1.00  0.00    -0.003 C 
ATOM      9  C   UNL     1      17.055   0.452  11.386  1.00  0.00     0.004 C 
ENDBRANCH   7   8
ENDBRANCH   6   7
ENDBRANCH   1   6
TORSDOF 5
ENDMDL
