MODEL 1
REMARK VINA RESULT:    -3.170      0.000      0.000
REMARK INTER + INTRA:          -4.905
REMARK INTER:                  -4.282
REMARK INTRA:                  -0.623
REMARK UNBOUND:                -0.623
REMARK SMILES CCCCCCC=CC(=O)[O-]
REMARK SMILES IDX 5 1 6 2 7 3 8 4 9 5 10 6 11 7 4 8 3 9 2 10 1 11
REMARK H PARENT
REMARK Flexibility Score: inf
ROOT
ATOM      1  C   UNL     1      34.819   5.461 -33.038  1.00  0.00     0.004 C 
ENDROOT
BRANCH   1   2
ATOM      2  C   UNL     1      35.232   5.884 -31.620  1.00  0.00     0.027 C 
BRANCH   2   3
ATOM      3  C   UNL     1      34.766   7.271 -31.276  1.00  0.00    -0.025 C 
ATOM      4  C   UNL     1      33.572   7.487 -30.714  1.00  0.00     0.020 C 
BRANCH   4   5
ATOM      5  C   UNL     1      33.100   8.839 -30.380  1.00  0.00     0.064 C 
ATOM      6  O   UNL     1      32.542   9.045 -29.270  1.00  0.00    -0.545 OA
ATOM      7  O   UNL     1      33.263   9.894 -31.270  1.00  0.00    -0.545 OA
ENDBRANCH   4   5
ENDBRANCH   2   3
ENDBRANCH   1   2
BRANCH   1   8
ATOM      8  C   UNL     1      33.932   4.205 -33.032  1.00  0.00     0.000 C 
BRANCH   8   9
ATOM      9  C   UNL     1      32.441   4.535 -32.864  1.00  0.00    -0.000 C 
BRANCH   9  10
ATOM     10  C   UNL     1      31.785   3.753 -31.717  1.00  0.00    -0.003 C 
ATOM     11  C   UNL     1      32.833   3.229 -30.739  1.00  0.00     0.004 C 
ENDBRANCH   9  10
ENDBRANCH   8   9
ENDBRANCH   1   8
TORSDOF 6
ENDMDL
MODEL 2
REMARK VINA RESULT:    -3.130      4.680      5.934
REMARK INTER + INTRA:          -4.851
REMARK INTER:                  -4.640
REMARK INTRA:                  -0.211
REMARK UNBOUND:                -0.623
REMARK SMILES CCCCCCC=CC(=O)[O-]
REMARK SMILES IDX 5 1 6 2 7 3 8 4 9 5 10 6 11 7 4 8 3 9 2 10 1 11
REMARK H PARENT
REMARK Flexibility Score: inf
ROOT
ATOM      1  C   UNL     1      32.595   0.526 -34.110  1.00  0.00     0.004 C 
ENDROOT
BRANCH   1   2
ATOM      2  C   UNL     1      32.284   2.013 -33.877  1.00  0.00     0.027 C 
BRANCH   2   3
ATOM      3  C   UNL     1      33.468   2.770 -33.343  1.00  0.00    -0.025 C 
ATOM      4  C   UNL     1      33.431   4.096 -33.174  1.00  0.00     0.020 C 
BRANCH   4   5
ATOM      5  C   UNL     1      34.585   4.849 -32.660  1.00  0.00     0.064 C 
ATOM      6  O   UNL     1      35.312   5.494 -33.461  1.00  0.00    -0.545 OA
ATOM      7  O   UNL     1      34.887   4.860 -31.304  1.00  0.00    -0.545 OA
ENDBRANCH   4   5
ENDBRANCH   2   3
ENDBRANCH   1   2
BRANCH   1   8
ATOM      8  C   UNL     1      33.643   0.321 -35.216  1.00  0.00     0.000 C 
BRANCH   8   9
ATOM      9  C   UNL     1      33.191  -0.693 -36.278  1.00  0.00    -0.000 C 
BRANCH   9  10
ATOM     10  C   UNL     1      33.241  -0.122 -37.703  1.00  0.00    -0.003 C 
ATOM     11  C   UNL     1      32.714  -1.132 -38.719  1.00  0.00     0.004 C 
ENDBRANCH   9  10
ENDBRANCH   8   9
ENDBRANCH   1   8
TORSDOF 6
ENDMDL
MODEL 3
REMARK VINA RESULT:    -3.044     14.187     15.587
REMARK INTER + INTRA:          -4.735
REMARK INTER:                  -4.391
REMARK INTRA:                  -0.344
REMARK UNBOUND:                -0.623
REMARK SMILES CCCCCCC=CC(=O)[O-]
REMARK SMILES IDX 5 1 6 2 7 3 8 4 9 5 10 6 11 7 4 8 3 9 2 10 1 11
REMARK H PARENT
REMARK Flexibility Score: inf
ROOT
ATOM      1  C   UNL     1      25.131  -6.064 -29.495  1.00  0.00     0.004 C 
ENDROOT
BRANCH   1   2
ATOM      2  C   UNL     1      23.865  -5.673 -30.274  1.00  0.00     0.027 C 
BRANCH   2   3
ATOM      3  C   UNL     1      24.099  -5.618 -31.758  1.00  0.00    -0.025 C 
ATOM      4  C   UNL     1      25.032  -4.822 -32.290  1.00  0.00     0.020 C 
BRANCH   4   5
ATOM      5  C   UNL     1      25.264  -4.753 -33.740  1.00  0.00     0.064 C 
ATOM      6  O   UNL     1      24.584  -3.958 -34.441  1.00  0.00    -0.545 OA
ATOM      7  O   UNL     1      26.225  -5.551 -34.350  1.00  0.00    -0.545 OA
ENDBRANCH   4   5
ENDBRANCH   2   3
ENDBRANCH   1   2
BRANCH   1   8
ATOM      8  C   UNL     1      25.098  -7.532 -29.038  1.00  0.00     0.000 C 
BRANCH   8   9
ATOM      9  C   UNL     1      24.344  -7.722 -27.713  1.00  0.00    -0.000 C 
BRANCH   9  10
ATOM     10  C   UNL     1      24.827  -6.765 -26.613  1.00  0.00    -0.003 C 
ATOM     11  C   UNL     1      23.686  -5.888 -26.106  1.00  0.00     0.004 C 
ENDBRANCH   9  10
ENDBRANCH   8   9
ENDBRANCH   1   8
TORSDOF 6
ENDMDL
MODEL 4
REMARK VINA RESULT:    -3.043      1.490      2.492
REMARK INTER + INTRA:          -4.733
REMARK INTER:                  -4.351
REMARK INTRA:                  -0.382
REMARK UNBOUND:                -0.623
REMARK SMILES CCCCCCC=CC(=O)[O-]
REMARK SMILES IDX 5 1 6 2 7 3 8 4 9 5 10 6 11 7 4 8 3 9 2 10 1 11
REMARK H PARENT
REMARK Flexibility Score: inf
ROOT
ATOM      1  C   UNL     1      34.805   6.334 -30.882  1.00  0.00     0.004 C 
ENDROOT
BRANCH   1   2
ATOM      2  C   UNL     1      34.240   7.727 -31.198  1.00  0.00     0.027 C 
BRANCH   2   3
ATOM      3  C   UNL     1      33.014   8.046 -30.388  1.00  0.00    -0.025 C 
ATOM      4  C   UNL     1      32.466   9.266 -30.402  1.00  0.00     0.020 C 
BRANCH   4   5
ATOM      5  C   UNL     1      31.272   9.593 -29.608  1.00  0.00     0.064 C 
ATOM      6  O   UNL     1      30.204   9.909 -30.194  1.00  0.00    -0.545 OA
ATOM      7  O   UNL     1      31.304   9.557 -28.219  1.00  0.00    -0.545 OA
ENDBRANCH   4   5
ENDBRANCH   2   3
ENDBRANCH   1   2
BRANCH   1   8
ATOM      8  C   UNL     1      35.587   5.744 -32.068  1.00  0.00     0.000 C 
BRANCH   8   9
ATOM      9  C   UNL     1      34.678   5.379 -33.252  1.00  0.00    -0.000 C 
BRANCH   9  10
ATOM     10  C   UNL     1      33.892   4.081 -33.018  1.00  0.00    -0.003 C 
ATOM     11  C   UNL     1      32.390   4.349 -32.968  1.00  0.00     0.004 C 
ENDBRANCH   9  10
ENDBRANCH   8   9
ENDBRANCH   1   8
TORSDOF 6
ENDMDL
MODEL 5
REMARK VINA RESULT:    -3.012      4.898      6.575
REMARK INTER + INTRA:          -4.691
REMARK INTER:                  -4.322
REMARK INTRA:                  -0.369
REMARK UNBOUND:                -0.623
REMARK SMILES CCCCCCC=CC(=O)[O-]
REMARK SMILES IDX 5 1 6 2 7 3 8 4 9 5 10 6 11 7 4 8 3 9 2 10 1 11
REMARK H PARENT
REMARK Flexibility Score: inf
ROOT
ATOM      1  C   UNL     1      33.416   4.382 -33.043  1.00  0.00     0.004 C 
ENDROOT
BRANCH   1   2
ATOM      2  C   UNL     1      33.090   3.274 -32.030  1.00  0.00     0.027 C 
BRANCH   2   3
ATOM      3  C   UNL     1      32.926   1.930 -32.683  1.00  0.00    -0.025 C 
ATOM      4  C   UNL     1      33.344   1.704 -33.933  1.00  0.00     0.020 C 
BRANCH   4   5
ATOM      5  C   UNL     1      33.182   0.396 -34.585  1.00  0.00     0.064 C 
ATOM      6  O   UNL     1      33.868   0.122 -35.605  1.00  0.00    -0.545 OA
ATOM      7  O   UNL     1      32.285  -0.544 -34.092  1.00  0.00    -0.545 OA
ENDBRANCH   4   5
ENDBRANCH   2   3
ENDBRANCH   1   2
BRANCH   1   8
ATOM      8  C   UNL     1      34.799   5.006 -32.794  1.00  0.00     0.000 C 
BRANCH   8   9
ATOM      9  C   UNL     1      35.033   5.354 -31.316  1.00  0.00    -0.000 C 
BRANCH   9  10
ATOM     10  C   UNL     1      35.311   6.848 -31.095  1.00  0.00    -0.003 C 
ATOM     11  C   UNL     1      34.013   7.651 -31.071  1.00  0.00     0.004 C 
ENDBRANCH   9  10
ENDBRANCH   8   9
ENDBRANCH   1   8
TORSDOF 6
ENDMDL
MODEL 6
REMARK VINA RESULT:    -3.002     13.679     15.713
REMARK INTER + INTRA:          -4.677
REMARK INTER:                  -3.947
REMARK INTRA:                  -0.730
REMARK UNBOUND:                -0.623
REMARK SMILES CCCCCCC=CC(=O)[O-]
REMARK SMILES IDX 5 1 6 2 7 3 8 4 9 5 10 6 11 7 4 8 3 9 2 10 1 11
REMARK H PARENT
REMARK Flexibility Score: inf
ROOT
ATOM      1  C   UNL     1      26.264  -7.895 -26.756  1.00  0.00     0.004 C 
ENDROOT
BRANCH   1   2
ATOM      2  C   UNL     1      24.833  -8.104 -27.274  1.00  0.00     0.027 C 
BRANCH   2   3
ATOM      3  C   UNL     1      24.591  -7.415 -28.588  1.00  0.00    -0.025 C 
ATOM      4  C   UNL     1      24.126  -6.162 -28.645  1.00  0.00     0.020 C 
BRANCH   4   5
ATOM      5  C   UNL     1      23.878  -5.480 -29.924  1.00  0.00     0.064 C 
ATOM      6  O   UNL     1      23.419  -4.308 -29.923  1.00  0.00    -0.545 OA
ATOM      7  O   UNL     1      24.143  -6.109 -31.135  1.00  0.00    -0.545 OA
ENDBRANCH   4   5
ENDBRANCH   2   3
ENDBRANCH   1   2
BRANCH   1   8
ATOM      8  C   UNL     1      27.301  -7.932 -27.892  1.00  0.00     0.000 C 
BRANCH   8   9
ATOM      9  C   UNL     1      28.366  -6.833 -27.755  1.00  0.00    -0.000 C 
BRANCH   9  10
ATOM     10  C   UNL     1      27.844  -5.447 -28.163  1.00  0.00    -0.003 C 
ATOM     11  C   UNL     1      27.626  -5.363 -29.671  1.00  0.00     0.004 C 
ENDBRANCH   9  10
ENDBRANCH   8   9
ENDBRANCH   1   8
TORSDOF 6
ENDMDL
MODEL 7
REMARK VINA RESULT:    -2.979      3.492      4.702
REMARK INTER + INTRA:          -4.647
REMARK INTER:                  -3.905
REMARK INTRA:                  -0.742
REMARK UNBOUND:                -0.623
REMARK SMILES CCCCCCC=CC(=O)[O-]
REMARK SMILES IDX 5 1 6 2 7 3 8 4 9 5 10 6 11 7 4 8 3 9 2 10 1 11
REMARK H PARENT
REMARK Flexibility Score: inf
ROOT
ATOM      1  C   UNL     1      35.198   6.027 -31.272  1.00  0.00     0.004 C 
ENDROOT
BRANCH   1   2
ATOM      2  C   UNL     1      35.416   5.670 -32.750  1.00  0.00     0.027 C 
BRANCH   2   3
ATOM      3  C   UNL     1      34.270   4.887 -33.327  1.00  0.00    -0.025 C 
ATOM      4  C   UNL     1      33.893   3.714 -32.807  1.00  0.00     0.020 C 
BRANCH   4   5
ATOM      5  C   UNL     1      32.779   2.935 -33.367  1.00  0.00     0.064 C 
ATOM      6  O   UNL     1      32.916   1.696 -33.546  1.00  0.00    -0.545 OA
ATOM      7  O   UNL     1      31.575   3.544 -33.701  1.00  0.00    -0.545 OA
ENDBRANCH   4   5
ENDBRANCH   2   3
ENDBRANCH   1   2
BRANCH   1   8
ATOM      8  C   UNL     1      34.563   7.417 -31.100  1.00  0.00     0.000 C 
BRANCH   8   9
ATOM      9  C   UNL     1      33.119   7.348 -30.579  1.00  0.00    -0.000 C 
BRANCH   9  10
ATOM     10  C   UNL     1      32.805   6.018 -29.878  1.00  0.00    -0.003 C 
ATOM     11  C   UNL     1      31.539   5.382 -30.447  1.00  0.00     0.004 C 
ENDBRANCH   9  10
ENDBRANCH   8   9
ENDBRANCH   1   8
TORSDOF 6
ENDMDL
MODEL 8
REMARK VINA RESULT:    -2.978      3.303      6.101
REMARK INTER + INTRA:          -4.645
REMARK INTER:                  -4.413
REMARK INTRA:                  -0.232
REMARK UNBOUND:                -0.623
REMARK SMILES CCCCCCC=CC(=O)[O-]
REMARK SMILES IDX 5 1 6 2 7 3 8 4 9 5 10 6 11 7 4 8 3 9 2 10 1 11
REMARK H PARENT
REMARK Flexibility Score: inf
ROOT
ATOM      1  C   UNL     1      31.962   9.352 -29.521  1.00  0.00     0.004 C 
ENDROOT
BRANCH   1   2
ATOM      2  C   UNL     1      33.063   9.210 -30.582  1.00  0.00     0.027 C 
BRANCH   2   3
ATOM      3  C   UNL     1      33.480   7.781 -30.789  1.00  0.00    -0.025 C 
ATOM      4  C   UNL     1      34.686   7.468 -31.275  1.00  0.00     0.020 C 
BRANCH   4   5
ATOM      5  C   UNL     1      35.103   6.074 -31.490  1.00  0.00     0.064 C 
ATOM      6  O   UNL     1      35.178   5.290 -30.508  1.00  0.00    -0.545 OA
ATOM      7  O   UNL     1      35.414   5.608 -32.762  1.00  0.00    -0.545 OA
ENDBRANCH   4   5
ENDBRANCH   2   3
ENDBRANCH   1   2
BRANCH   1   8
ATOM      8  C   UNL     1      32.489   9.085 -28.101  1.00  0.00     0.000 C 
BRANCH   8   9
ATOM      9  C   UNL     1      32.240  10.263 -27.146  1.00  0.00    -0.000 C 
BRANCH   9  10
ATOM     10  C   UNL     1      33.534  10.988 -26.750  1.00  0.00    -0.003 C 
ATOM     11  C   UNL     1      33.518  11.373 -25.273  1.00  0.00     0.004 C 
ENDBRANCH   9  10
ENDBRANCH   8   9
ENDBRANCH   1   8
TORSDOF 6
ENDMDL
MODEL 9
REMARK VINA RESULT:    -2.897      1.184      2.798
REMARK INTER + INTRA:          -4.536
REMARK INTER:                  -3.926
REMARK INTRA:                  -0.609
REMARK UNBOUND:                -0.623
REMARK SMILES CCCCCCC=CC(=O)[O-]
REMARK SMILES IDX 5 1 6 2 7 3 8 4 9 5 10 6 11 7 4 8 3 9 2 10 1 11
REMARK H PARENT
REMARK Flexibility Score: inf
ROOT
ATOM      1  C   UNL     1      32.633   4.852 -30.214  1.00  0.00     0.004 C 
ENDROOT
BRANCH   1   2
ATOM      2  C   UNL     1      31.619   5.621 -31.074  1.00  0.00     0.027 C 
BRANCH   2   3
ATOM      3  C   UNL     1      31.695   7.107 -30.860  1.00  0.00    -0.025 C 
ATOM      4  C   UNL     1      32.747   7.673 -30.258  1.00  0.00     0.020 C 
BRANCH   4   5
ATOM      5  C   UNL     1      32.829   9.125 -30.036  1.00  0.00     0.064 C 
ATOM      6  O   UNL     1      33.089   9.887 -31.004  1.00  0.00    -0.545 OA
ATOM      7  O   UNL     1      32.623   9.669 -28.774  1.00  0.00    -0.545 OA
ENDBRANCH   4   5
ENDBRANCH   2   3
ENDBRANCH   1   2
BRANCH   1   8
ATOM      8  C   UNL     1      33.769   4.248 -31.059  1.00  0.00     0.000 C 
BRANCH   8   9
ATOM      9  C   UNL     1      33.712   4.692 -32.529  1.00  0.00    -0.000 C 
BRANCH   9  10
ATOM     10  C   UNL     1      35.013   5.359 -32.998  1.00  0.00    -0.003 C 
ATOM     11  C   UNL     1      35.688   6.113 -31.855  1.00  0.00     0.004 C 
ENDBRANCH   9  10
ENDBRANCH   8   9
ENDBRANCH   1   8
TORSDOF 6
ENDMDL
