MODEL 1
REMARK VINA RESULT:    -5.396      0.000      0.000
REMARK INTER + INTRA:         -11.550
REMARK INTER:                  -9.971
REMARK INTRA:                  -1.580
REMARK UNBOUND:                -1.580
REMARK SMILES CCCCCCCCCCCCCCCCO
REMARK SMILES IDX 9 1 8 2 7 3 6 4 5 5 4 6 3 7 2 8 1 9 10 10 11 11 12 12 13 13
REMARK SMILES IDX 14 14 15 15 16 16 17 17
REMARK H PARENT 17 18
REMARK Flexibility Score: inf
ROOT
ATOM      1  C   UNL     1      13.905  13.138  29.058  1.00  0.00     0.000 C 
ENDROOT
BRANCH   1   2
ATOM      2  C   UNL     1      13.165  13.071  30.406  1.00  0.00    -0.000 C 
BRANCH   2   3
ATOM      3  C   UNL     1      13.687  14.031  31.494  1.00  0.00    -0.000 C 
BRANCH   3   4
ATOM      4  C   UNL     1      12.609  14.872  32.200  1.00  0.00    -0.000 C 
BRANCH   4   5
ATOM      5  C   UNL     1      12.448  16.273  31.586  1.00  0.00    -0.000 C 
BRANCH   5   6
ATOM      6  C   UNL     1      11.181  16.398  30.725  1.00  0.00    -0.000 C 
BRANCH   6   7
ATOM      7  C   UNL     1      10.101  15.374  31.107  1.00  0.00    -0.000 C 
BRANCH   7   8
ATOM      8  C   UNL     1       9.706  14.518  29.898  1.00  0.00    -0.003 C 
ATOM      9  C   UNL     1       8.242  14.735  29.522  1.00  0.00     0.004 C 
ENDBRANCH   7   8
ENDBRANCH   6   7
ENDBRANCH   5   6
ENDBRANCH   4   5
ENDBRANCH   3   4
ENDBRANCH   2   3
ENDBRANCH   1   2
BRANCH   1  10
ATOM     10  C   UNL     1      13.823  14.526  28.401  1.00  0.00     0.000 C 
BRANCH  10  11
ATOM     11  C   UNL     1      12.455  14.794  27.753  1.00  0.00     0.000 C 
BRANCH  11  12
ATOM     12  C   UNL     1      12.463  14.551  26.233  1.00  0.00     0.000 C 
BRANCH  12  13
ATOM     13  C   UNL     1      11.275  15.216  25.518  1.00  0.00     0.000 C 
BRANCH  13  14
ATOM     14  C   UNL     1      11.591  15.784  24.121  1.00  0.00     0.002 C 
BRANCH  14  15
ATOM     15  C   UNL     1      11.282  17.291  23.977  1.00  0.00     0.028 C 
BRANCH  15  16
ATOM     16  C   UNL     1      11.964  18.148  25.052  1.00  0.00     0.156 C 
BRANCH  16  17
ATOM     17  O   UNL     1      13.340  18.255  24.807  1.00  0.00    -0.396 OA
ATOM     18  H   UNL     1      13.746  18.643  25.624  1.00  0.00     0.210 HD
ENDBRANCH  16  17
ENDBRANCH  15  16
ENDBRANCH  14  15
ENDBRANCH  13  14
ENDBRANCH  12  13
ENDBRANCH  11  12
ENDBRANCH  10  11
ENDBRANCH   1  10
TORSDOF 15
ENDMDL
MODEL 2
REMARK VINA RESULT:    -5.298      1.777      5.240
REMARK INTER + INTRA:         -11.369
REMARK INTER:                  -9.832
REMARK INTRA:                  -1.537
REMARK UNBOUND:                -1.580
REMARK SMILES CCCCCCCCCCCCCCCCO
REMARK SMILES IDX 9 1 8 2 7 3 6 4 5 5 4 6 3 7 2 8 1 9 10 10 11 11 12 12 13 13
REMARK SMILES IDX 14 14 15 15 16 16 17 17
REMARK H PARENT 17 18
REMARK Flexibility Score: inf
ROOT
ATOM      1  C   UNL     1      13.784  14.127  31.364  1.00  0.00     0.000 C 
ENDROOT
BRANCH   1   2
ATOM      2  C   UNL     1      13.264  13.124  30.319  1.00  0.00    -0.000 C 
BRANCH   2   3
ATOM      3  C   UNL     1      13.779  13.343  28.881  1.00  0.00    -0.000 C 
BRANCH   3   4
ATOM      4  C   UNL     1      13.818  14.810  28.415  1.00  0.00    -0.000 C 
BRANCH   4   5
ATOM      5  C   UNL     1      12.539  15.234  27.674  1.00  0.00    -0.000 C 
BRANCH   5   6
ATOM      6  C   UNL     1      12.561  14.845  26.187  1.00  0.00    -0.000 C 
BRANCH   6   7
ATOM      7  C   UNL     1      12.008  15.951  25.275  1.00  0.00    -0.000 C 
BRANCH   7   8
ATOM      8  C   UNL     1      12.478  17.333  25.744  1.00  0.00    -0.003 C 
ATOM      9  C   UNL     1      12.958  18.181  24.569  1.00  0.00     0.004 C 
ENDBRANCH   7   8
ENDBRANCH   6   7
ENDBRANCH   5   6
ENDBRANCH   4   5
ENDBRANCH   3   4
ENDBRANCH   2   3
ENDBRANCH   1   2
BRANCH   1  10
ATOM     10  C   UNL     1      12.652  14.796  32.162  1.00  0.00     0.000 C 
BRANCH  10  11
ATOM     11  C   UNL     1      12.484  16.284  31.815  1.00  0.00     0.000 C 
BRANCH  11  12
ATOM     12  C   UNL     1      11.413  16.521  30.735  1.00  0.00     0.000 C 
BRANCH  12  13
ATOM     13  C   UNL     1      10.186  15.609  30.903  1.00  0.00     0.000 C 
BRANCH  13  14
ATOM     14  C   UNL     1       9.790  14.812  29.645  1.00  0.00     0.002 C 
BRANCH  14  15
ATOM     15  C   UNL     1       8.407  14.132  29.748  1.00  0.00     0.028 C 
BRANCH  15  16
ATOM     16  C   UNL     1       7.492  14.452  28.557  1.00  0.00     0.156 C 
BRANCH  16  17
ATOM     17  O   UNL     1       8.244  14.864  27.447  1.00  0.00    -0.396 OA
ATOM     18  H   UNL     1       8.687  15.714  27.702  1.00  0.00     0.210 HD
ENDBRANCH  16  17
ENDBRANCH  15  16
ENDBRANCH  14  15
ENDBRANCH  13  14
ENDBRANCH  12  13
ENDBRANCH  11  12
ENDBRANCH  10  11
ENDBRANCH   1  10
TORSDOF 15
ENDMDL
MODEL 3
REMARK VINA RESULT:    -5.192      4.396      6.783
REMARK INTER + INTRA:         -11.173
REMARK INTER:                  -9.274
REMARK INTRA:                  -1.899
REMARK UNBOUND:                -1.580
REMARK SMILES CCCCCCCCCCCCCCCCO
REMARK SMILES IDX 9 1 8 2 7 3 6 4 5 5 4 6 3 7 2 8 1 9 10 10 11 11 12 12 13 13
REMARK SMILES IDX 14 14 15 15 16 16 17 17
REMARK H PARENT 17 18
REMARK Flexibility Score: inf
ROOT
ATOM      1  C   UNL     1      12.683  14.574  22.996  1.00  0.00     0.000 C 
ENDROOT
BRANCH   1   2
ATOM      2  C   UNL     1      12.003  13.885  24.192  1.00  0.00    -0.000 C 
BRANCH   2   3
ATOM      3  C   UNL     1      12.410  14.420  25.580  1.00  0.00    -0.000 C 
BRANCH   3   4
ATOM      4  C   UNL     1      11.562  15.592  26.107  1.00  0.00    -0.000 C 
BRANCH   4   5
ATOM      5  C   UNL     1      12.378  16.881  26.299  1.00  0.00    -0.000 C 
BRANCH   5   6
ATOM      6  C   UNL     1      12.054  17.948  25.241  1.00  0.00    -0.000 C 
BRANCH   6   7
ATOM      7  C   UNL     1      13.280  18.346  24.404  1.00  0.00    -0.000 C 
BRANCH   7   8
ATOM      8  C   UNL     1      12.928  18.412  22.914  1.00  0.00    -0.003 C 
ATOM      9  C   UNL     1      13.721  19.507  22.207  1.00  0.00     0.004 C 
ENDBRANCH   7   8
ENDBRANCH   6   7
ENDBRANCH   5   6
ENDBRANCH   4   5
ENDBRANCH   3   4
ENDBRANCH   2   3
ENDBRANCH   1   2
BRANCH   1  10
ATOM     10  C   UNL     1      11.675  15.123  21.973  1.00  0.00     0.000 C 
BRANCH  10  11
ATOM     11  C   UNL     1      10.446  15.764  22.638  1.00  0.00     0.000 C 
BRANCH  11  12
ATOM     12  C   UNL     1       9.198  15.725  21.737  1.00  0.00     0.000 C 
BRANCH  12  13
ATOM     13  C   UNL     1       8.744  14.292  21.412  1.00  0.00     0.000 C 
BRANCH  13  14
ATOM     14  C   UNL     1       8.050  13.550  22.571  1.00  0.00     0.002 C 
BRANCH  14  15
ATOM     15  C   UNL     1       8.493  12.079  22.723  1.00  0.00     0.028 C 
BRANCH  15  16
ATOM     16  C   UNL     1       9.635  11.696  21.771  1.00  0.00     0.156 C 
BRANCH  16  17
ATOM     17  O   UNL     1      10.443  10.699  22.336  1.00  0.00    -0.396 OA
ATOM     18  H   UNL     1       9.832   9.987  22.661  1.00  0.00     0.210 HD
ENDBRANCH  16  17
ENDBRANCH  15  16
ENDBRANCH  14  15
ENDBRANCH  13  14
ENDBRANCH  12  13
ENDBRANCH  11  12
ENDBRANCH  10  11
ENDBRANCH   1  10
TORSDOF 15
ENDMDL
MODEL 4
REMARK VINA RESULT:    -5.105      4.497      8.090
REMARK INTER + INTRA:         -11.013
REMARK INTER:                  -9.835
REMARK INTRA:                  -1.177
REMARK UNBOUND:                -1.580
REMARK SMILES CCCCCCCCCCCCCCCCO
REMARK SMILES IDX 9 1 8 2 7 3 6 4 5 5 4 6 3 7 2 8 1 9 10 10 11 11 12 12 13 13
REMARK SMILES IDX 14 14 15 15 16 16 17 17
REMARK H PARENT 17 18
REMARK Flexibility Score: inf
ROOT
ATOM      1  C   UNL     1      11.969  14.424  23.433  1.00  0.00     0.000 C 
ENDROOT
BRANCH   1   2
ATOM      2  C   UNL     1      13.291  14.469  22.646  1.00  0.00    -0.000 C 
BRANCH   2   3
ATOM      3  C   UNL     1      14.016  13.116  22.497  1.00  0.00    -0.000 C 
BRANCH   3   4
ATOM      4  C   UNL     1      15.544  13.204  22.329  1.00  0.00    -0.000 C 
BRANCH   4   5
ATOM      5  C   UNL     1      16.004  12.908  20.891  1.00  0.00    -0.000 C 
BRANCH   5   6
ATOM      6  C   UNL     1      17.304  13.641  20.524  1.00  0.00    -0.000 C 
BRANCH   6   7
ATOM      7  C   UNL     1      18.244  13.821  21.727  1.00  0.00    -0.000 C 
BRANCH   7   8
ATOM      8  C   UNL     1      19.172  12.610  21.882  1.00  0.00    -0.003 C 
ATOM      9  C   UNL     1      19.459  12.319  23.352  1.00  0.00     0.004 C 
ENDBRANCH   7   8
ENDBRANCH   6   7
ENDBRANCH   5   6
ENDBRANCH   4   5
ENDBRANCH   3   4
ENDBRANCH   2   3
ENDBRANCH   1   2
BRANCH   1  10
ATOM     10  C   UNL     1      12.176  14.145  24.931  1.00  0.00     0.000 C 
BRANCH  10  11
ATOM     11  C   UNL     1      11.241  14.979  25.822  1.00  0.00     0.000 C 
BRANCH  11  12
ATOM     12  C   UNL     1      11.978  15.628  27.008  1.00  0.00     0.000 C 
BRANCH  12  13
ATOM     13  C   UNL     1      12.792  16.866  26.596  1.00  0.00     0.000 C 
BRANCH  13  14
ATOM     14  C   UNL     1      12.097  17.794  25.581  1.00  0.00     0.002 C 
BRANCH  14  15
ATOM     15  C   UNL     1      12.971  18.144  24.356  1.00  0.00     0.028 C 
BRANCH  15  16
ATOM     16  C   UNL     1      12.181  18.156  23.040  1.00  0.00     0.156 C 
BRANCH  16  17
ATOM     17  O   UNL     1      10.805  18.271  23.285  1.00  0.00    -0.396 OA
ATOM     18  H   UNL     1      10.666  19.150  23.724  1.00  0.00     0.210 HD
ENDBRANCH  16  17
ENDBRANCH  15  16
ENDBRANCH  14  15
ENDBRANCH  13  14
ENDBRANCH  12  13
ENDBRANCH  11  12
ENDBRANCH  10  11
ENDBRANCH   1  10
TORSDOF 15
ENDMDL
MODEL 5
REMARK VINA RESULT:    -5.086      5.511      8.976
REMARK INTER + INTRA:         -10.978
REMARK INTER:                 -10.004
REMARK INTRA:                  -0.973
REMARK UNBOUND:                -1.580
REMARK SMILES CCCCCCCCCCCCCCCCO
REMARK SMILES IDX 9 1 8 2 7 3 6 4 5 5 4 6 3 7 2 8 1 9 10 10 11 11 12 12 13 13
REMARK SMILES IDX 14 14 15 15 16 16 17 17
REMARK H PARENT 17 18
REMARK Flexibility Score: inf
ROOT
ATOM      1  C   UNL     1      14.466  12.966  20.319  1.00  0.00     0.000 C 
ENDROOT
BRANCH   1   2
ATOM      2  C   UNL     1      15.985  12.771  20.469  1.00  0.00    -0.000 C 
BRANCH   2   3
ATOM      3  C   UNL     1      16.856  13.897  19.875  1.00  0.00    -0.000 C 
BRANCH   3   4
ATOM      4  C   UNL     1      18.044  14.340  20.749  1.00  0.00    -0.000 C 
BRANCH   4   5
ATOM      5  C   UNL     1      18.133  13.562  22.073  1.00  0.00    -0.000 C 
BRANCH   5   6
ATOM      6  C   UNL     1      19.352  12.627  22.127  1.00  0.00    -0.000 C 
BRANCH   6   7
ATOM      7  C   UNL     1      19.852  12.387  23.561  1.00  0.00    -0.000 C 
BRANCH   7   8
ATOM      8  C   UNL     1      19.193  13.364  24.541  1.00  0.00    -0.003 C 
ATOM      9  C   UNL     1      20.222  14.311  25.153  1.00  0.00     0.004 C 
ENDBRANCH   7   8
ENDBRANCH   6   7
ENDBRANCH   5   6
ENDBRANCH   4   5
ENDBRANCH   3   4
ENDBRANCH   2   3
ENDBRANCH   1   2
BRANCH   1  10
ATOM     10  C   UNL     1      14.079  14.422  20.011  1.00  0.00     0.000 C 
BRANCH  10  11
ATOM     11  C   UNL     1      13.006  14.964  20.969  1.00  0.00     0.000 C 
BRANCH  11  12
ATOM     12  C   UNL     1      13.200  14.470  22.414  1.00  0.00     0.000 C 
BRANCH  12  13
ATOM     13  C   UNL     1      11.910  14.549  23.249  1.00  0.00     0.000 C 
BRANCH  13  14
ATOM     14  C   UNL     1      11.958  15.541  24.428  1.00  0.00     0.002 C 
BRANCH  14  15
ATOM     15  C   UNL     1      12.401  16.965  24.027  1.00  0.00     0.028 C 
BRANCH  15  16
ATOM     16  C   UNL     1      11.321  18.024  24.284  1.00  0.00     0.156 C 
BRANCH  16  17
ATOM     17  O   UNL     1      10.513  18.199  23.151  1.00  0.00    -0.396 OA
ATOM     18  H   UNL     1      10.167  17.302  22.907  1.00  0.00     0.210 HD
ENDBRANCH  16  17
ENDBRANCH  15  16
ENDBRANCH  14  15
ENDBRANCH  13  14
ENDBRANCH  12  13
ENDBRANCH  11  12
ENDBRANCH  10  11
ENDBRANCH   1  10
TORSDOF 15
ENDMDL
MODEL 6
REMARK VINA RESULT:    -5.065      1.491      3.426
REMARK INTER + INTRA:         -10.937
REMARK INTER:                  -8.997
REMARK INTRA:                  -1.940
REMARK UNBOUND:                -1.580
REMARK SMILES CCCCCCCCCCCCCCCCO
REMARK SMILES IDX 9 1 8 2 7 3 6 4 5 5 4 6 3 7 2 8 1 9 10 10 11 11 12 12 13 13
REMARK SMILES IDX 14 14 15 15 16 16 17 17
REMARK H PARENT 17 18
REMARK Flexibility Score: inf
ROOT
ATOM      1  C   UNL     1      12.603  14.924  32.160  1.00  0.00     0.000 C 
ENDROOT
BRANCH   1   2
ATOM      2  C   UNL     1      12.594  16.367  31.624  1.00  0.00    -0.000 C 
BRANCH   2   3
ATOM      3  C   UNL     1      11.439  16.704  30.658  1.00  0.00    -0.000 C 
BRANCH   3   4
ATOM      4  C   UNL     1      10.205  15.790  30.765  1.00  0.00    -0.000 C 
BRANCH   4   5
ATOM      5  C   UNL     1      10.035  14.871  29.543  1.00  0.00    -0.000 C 
BRANCH   5   6
ATOM      6  C   UNL     1       8.687  14.134  29.541  1.00  0.00    -0.000 C 
BRANCH   6   7
ATOM      7  C   UNL     1       7.535  15.002  30.074  1.00  0.00    -0.000 C 
BRANCH   7   8
ATOM      8  C   UNL     1       6.713  14.238  31.118  1.00  0.00    -0.003 C 
ATOM      9  C   UNL     1       7.147  14.600  32.536  1.00  0.00     0.004 C 
ENDBRANCH   7   8
ENDBRANCH   6   7
ENDBRANCH   5   6
ENDBRANCH   4   5
ENDBRANCH   3   4
ENDBRANCH   2   3
ENDBRANCH   1   2
BRANCH   1  10
ATOM     10  C   UNL     1      13.724  14.068  31.548  1.00  0.00     0.000 C 
BRANCH  10  11
ATOM     11  C   UNL     1      13.214  13.132  30.440  1.00  0.00     0.000 C 
BRANCH  11  12
ATOM     12  C   UNL     1      14.035  13.250  29.143  1.00  0.00     0.000 C 
BRANCH  12  13
ATOM     13  C   UNL     1      13.283  13.999  28.030  1.00  0.00     0.000 C 
BRANCH  13  14
ATOM     14  C   UNL     1      13.506  15.524  28.007  1.00  0.00     0.002 C 
BRANCH  14  15
ATOM     15  C   UNL     1      12.528  16.282  27.082  1.00  0.00     0.028 C 
BRANCH  15  16
ATOM     16  C   UNL     1      12.009  15.420  25.923  1.00  0.00     0.156 C 
BRANCH  16  17
ATOM     17  O   UNL     1      10.735  15.842  25.518  1.00  0.00    -0.396 OA
ATOM     18  H   UNL     1      10.591  15.478  24.606  1.00  0.00     0.210 HD
ENDBRANCH  16  17
ENDBRANCH  15  16
ENDBRANCH  14  15
ENDBRANCH  13  14
ENDBRANCH  12  13
ENDBRANCH  11  12
ENDBRANCH  10  11
ENDBRANCH   1  10
TORSDOF 15
ENDMDL
MODEL 7
REMARK VINA RESULT:    -5.031      4.529      8.386
REMARK INTER + INTRA:         -10.875
REMARK INTER:                  -9.670
REMARK INTRA:                  -1.205
REMARK UNBOUND:                -1.580
REMARK SMILES CCCCCCCCCCCCCCCCO
REMARK SMILES IDX 9 1 8 2 7 3 6 4 5 5 4 6 3 7 2 8 1 9 10 10 11 11 12 12 13 13
REMARK SMILES IDX 14 14 15 15 16 16 17 17
REMARK H PARENT 17 18
REMARK Flexibility Score: inf
ROOT
ATOM      1  C   UNL     1      13.015  14.399  23.458  1.00  0.00     0.000 C 
ENDROOT
BRANCH   1   2
ATOM      2  C   UNL     1      12.581  13.544  22.254  1.00  0.00    -0.000 C 
BRANCH   2   3
ATOM      3  C   UNL     1      12.550  14.281  20.900  1.00  0.00    -0.000 C 
BRANCH   3   4
ATOM      4  C   UNL     1      13.919  14.458  20.217  1.00  0.00    -0.000 C 
BRANCH   4   5
ATOM      5  C   UNL     1      14.641  13.122  19.972  1.00  0.00    -0.000 C 
BRANCH   5   6
ATOM      6  C   UNL     1      15.933  12.991  20.794  1.00  0.00    -0.000 C 
BRANCH   6   7
ATOM      7  C   UNL     1      17.073  13.868  20.251  1.00  0.00    -0.000 C 
BRANCH   7   8
ATOM      8  C   UNL     1      18.200  14.001  21.283  1.00  0.00    -0.003 C 
ATOM      9  C   UNL     1      18.552  12.647  21.893  1.00  0.00     0.004 C 
ENDBRANCH   7   8
ENDBRANCH   6   7
ENDBRANCH   5   6
ENDBRANCH   4   5
ENDBRANCH   3   4
ENDBRANCH   2   3
ENDBRANCH   1   2
BRANCH   1  10
ATOM     10  C   UNL     1      12.336  13.972  24.770  1.00  0.00     0.000 C 
BRANCH  10  11
ATOM     11  C   UNL     1      11.297  14.994  25.258  1.00  0.00     0.000 C 
BRANCH  11  12
ATOM     12  C   UNL     1      11.208  16.230  24.343  1.00  0.00     0.000 C 
BRANCH  12  13
ATOM     13  C   UNL     1      11.682  17.518  25.036  1.00  0.00     0.000 C 
BRANCH  13  14
ATOM     14  C   UNL     1      12.894  18.205  24.376  1.00  0.00     0.002 C 
BRANCH  14  15
ATOM     15  C   UNL     1      12.901  18.110  22.835  1.00  0.00     0.028 C 
BRANCH  15  16
ATOM     16  C   UNL     1      13.400  19.393  22.157  1.00  0.00     0.156 C 
BRANCH  16  17
ATOM     17  O   UNL     1      14.456  19.963  22.883  1.00  0.00    -0.396 OA
ATOM     18  H   UNL     1      14.740  20.773  22.385  1.00  0.00     0.210 HD
ENDBRANCH  16  17
ENDBRANCH  15  16
ENDBRANCH  14  15
ENDBRANCH  13  14
ENDBRANCH  12  13
ENDBRANCH  11  12
ENDBRANCH  10  11
ENDBRANCH   1  10
TORSDOF 15
ENDMDL
MODEL 8
REMARK VINA RESULT:    -5.021      2.131      5.303
REMARK INTER + INTRA:         -10.858
REMARK INTER:                  -9.119
REMARK INTRA:                  -1.739
REMARK UNBOUND:                -1.580
REMARK SMILES CCCCCCCCCCCCCCCCO
REMARK SMILES IDX 9 1 8 2 7 3 6 4 5 5 4 6 3 7 2 8 1 9 10 10 11 11 12 12 13 13
REMARK SMILES IDX 14 14 15 15 16 16 17 17
REMARK H PARENT 17 18
REMARK Flexibility Score: inf
ROOT
ATOM      1  C   UNL     1      13.056  13.286  30.272  1.00  0.00     0.000 C 
ENDROOT
BRANCH   1   2
ATOM      2  C   UNL     1      14.004  13.398  29.065  1.00  0.00    -0.000 C 
BRANCH   2   3
ATOM      3  C   UNL     1      13.895  14.709  28.260  1.00  0.00    -0.000 C 
BRANCH   3   4
ATOM      4  C   UNL     1      12.557  14.922  27.530  1.00  0.00    -0.000 C 
BRANCH   4   5
ATOM      5  C   UNL     1      12.595  14.452  26.066  1.00  0.00    -0.000 C 
BRANCH   5   6
ATOM      6  C   UNL     1      11.549  15.161  25.191  1.00  0.00    -0.000 C 
BRANCH   6   7
ATOM      7  C   UNL     1      10.145  15.147  25.814  1.00  0.00    -0.000 C 
BRANCH   7   8
ATOM      8  C   UNL     1       9.072  14.922  24.742  1.00  0.00    -0.003 C 
ATOM      9  C   UNL     1       9.602  14.053  23.605  1.00  0.00     0.004 C 
ENDBRANCH   7   8
ENDBRANCH   6   7
ENDBRANCH   5   6
ENDBRANCH   4   5
ENDBRANCH   3   4
ENDBRANCH   2   3
ENDBRANCH   1   2
BRANCH   1  10
ATOM     10  C   UNL     1      13.606  13.981  31.529  1.00  0.00     0.000 C 
BRANCH  10  11
ATOM     11  C   UNL     1      12.616  14.995  32.124  1.00  0.00     0.000 C 
BRANCH  11  12
ATOM     12  C   UNL     1      12.602  16.329  31.355  1.00  0.00     0.000 C 
BRANCH  12  13
ATOM     13  C   UNL     1      11.292  16.554  30.581  1.00  0.00     0.000 C 
BRANCH  13  14
ATOM     14  C   UNL     1      10.163  15.555  30.906  1.00  0.00     0.002 C 
BRANCH  14  15
ATOM     15  C   UNL     1       9.655  14.768  29.679  1.00  0.00     0.028 C 
BRANCH  15  16
ATOM     16  C   UNL     1       8.125  14.775  29.554  1.00  0.00     0.156 C 
BRANCH  16  17
ATOM     17  O   UNL     1       7.724  14.280  28.305  1.00  0.00    -0.396 OA
ATOM     18  H   UNL     1       7.477  13.329  28.441  1.00  0.00     0.210 HD
ENDBRANCH  16  17
ENDBRANCH  15  16
ENDBRANCH  14  15
ENDBRANCH  13  14
ENDBRANCH  12  13
ENDBRANCH  11  12
ENDBRANCH  10  11
ENDBRANCH   1  10
TORSDOF 15
ENDMDL
MODEL 9
REMARK VINA RESULT:    -4.941      1.577      2.371
REMARK INTER + INTRA:         -10.708
REMARK INTER:                  -9.186
REMARK INTRA:                  -1.523
REMARK UNBOUND:                -1.580
REMARK SMILES CCCCCCCCCCCCCCCCO
REMARK SMILES IDX 9 1 8 2 7 3 6 4 5 5 4 6 3 7 2 8 1 9 10 10 11 11 12 12 13 13
REMARK SMILES IDX 14 14 15 15 16 16 17 17
REMARK H PARENT 17 18
REMARK Flexibility Score: inf
ROOT
ATOM      1  C   UNL     1      13.163  14.354  27.759  1.00  0.00     0.000 C 
ENDROOT
BRANCH   1   2
ATOM      2  C   UNL     1      13.977  13.845  28.962  1.00  0.00    -0.000 C 
BRANCH   2   3
ATOM      3  C   UNL     1      13.141  13.330  30.152  1.00  0.00    -0.000 C 
BRANCH   3   4
ATOM      4  C   UNL     1      13.476  13.965  31.514  1.00  0.00    -0.000 C 
BRANCH   4   5
ATOM      5  C   UNL     1      13.663  15.489  31.431  1.00  0.00    -0.000 C 
BRANCH   5   6
ATOM      6  C   UNL     1      12.331  16.241  31.279  1.00  0.00    -0.000 C 
BRANCH   6   7
ATOM      7  C   UNL     1      11.155  15.503  31.938  1.00  0.00    -0.000 C 
BRANCH   7   8
ATOM      8  C   UNL     1       9.860  15.723  31.148  1.00  0.00    -0.003 C 
ATOM      9  C   UNL     1       9.816  14.842  29.903  1.00  0.00     0.004 C 
ENDBRANCH   7   8
ENDBRANCH   6   7
ENDBRANCH   5   6
ENDBRANCH   4   5
ENDBRANCH   3   4
ENDBRANCH   2   3
ENDBRANCH   1   2
BRANCH   1  10
ATOM     10  C   UNL     1      13.016  15.884  27.742  1.00  0.00     0.000 C 
BRANCH  10  11
ATOM     11  C   UNL     1      12.072  16.376  26.633  1.00  0.00     0.000 C 
BRANCH  11  12
ATOM     12  C   UNL     1      12.706  17.476  25.762  1.00  0.00     0.000 C 
BRANCH  12  13
ATOM     13  C   UNL     1      11.939  17.711  24.450  1.00  0.00     0.000 C 
BRANCH  13  14
ATOM     14  C   UNL     1      11.384  16.437  23.783  1.00  0.00     0.002 C 
BRANCH  14  15
ATOM     15  C   UNL     1      12.461  15.583  23.079  1.00  0.00     0.028 C 
BRANCH  15  16
ATOM     16  C   UNL     1      12.158  14.079  23.127  1.00  0.00     0.156 C 
BRANCH  16  17
ATOM     17  O   UNL     1      12.148  13.613  24.450  1.00  0.00    -0.396 OA
ATOM     18  H   UNL     1      11.737  14.329  25.001  1.00  0.00     0.210 HD
ENDBRANCH  16  17
ENDBRANCH  15  16
ENDBRANCH  14  15
ENDBRANCH  13  14
ENDBRANCH  12  13
ENDBRANCH  11  12
ENDBRANCH  10  11
ENDBRANCH   1  10
TORSDOF 15
ENDMDL
