MODEL 1
REMARK VINA RESULT:    -4.081      0.000      0.000
REMARK INTER + INTRA:          -9.459
REMARK INTER:                  -7.421
REMARK INTRA:                  -2.038
REMARK UNBOUND:                -2.038
REMARK SMILES CCCCCCCCCCCCCC[C@H](C)C(=O)[O-]
REMARK SMILES IDX 9 1 10 2 11 3 12 4 13 5 14 6 15 7 16 8 17 9 18 10 19 11 8 12
REMARK SMILES IDX 7 13 6 14 5 15 4 16 3 17 2 18 1 19
REMARK H PARENT
REMARK Flexibility Score: inf
ROOT
ATOM      1  C   UNL     1      20.528  38.981  35.444  1.00  0.00     0.000 C 
ENDROOT
BRANCH   1   2
ATOM      2  C   UNL     1      21.756  38.077  35.240  1.00  0.00     0.000 C 
BRANCH   2   3
ATOM      3  C   UNL     1      21.517  36.630  35.713  1.00  0.00     0.000 C 
BRANCH   3   4
ATOM      4  C   UNL     1      22.191  36.266  37.050  1.00  0.00     0.000 C 
BRANCH   4   5
ATOM      5  C   UNL     1      21.348  36.552  38.308  1.00  0.00     0.001 C 
BRANCH   5   6
ATOM      6  C   UNL     1      21.528  37.963  38.908  1.00  0.00     0.009 C 
BRANCH   6   7
ATOM      7  C   UNL     1      20.356  38.430  39.799  1.00  0.00     0.032 C 
ATOM      8  C   UNL     1      19.063  37.710  39.402  1.00  0.00     0.014 C 
BRANCH   7   9
ATOM      9  C   UNL     1      20.156  39.919  39.707  1.00  0.00     0.044 C 
ATOM     10  O   UNL     1      20.385  40.650  40.706  1.00  0.00    -0.550 OA
ATOM     11  O   UNL     1      19.717  40.497  38.522  1.00  0.00    -0.550 OA
ENDBRANCH   7   9
ENDBRANCH   6   7
ENDBRANCH   5   6
ENDBRANCH   4   5
ENDBRANCH   3   4
ENDBRANCH   2   3
ENDBRANCH   1   2
BRANCH   1  12
ATOM     12  C   UNL     1      19.264  38.174  35.812  1.00  0.00     0.000 C 
BRANCH  12  13
ATOM     13  C   UNL     1      17.954  38.860  35.393  1.00  0.00    -0.000 C 
BRANCH  13  14
ATOM     14  C   UNL     1      16.932  37.881  34.792  1.00  0.00    -0.000 C 
BRANCH  14  15
ATOM     15  C   UNL     1      17.103  37.708  33.274  1.00  0.00    -0.000 C 
BRANCH  15  16
ATOM     16  C   UNL     1      18.084  36.577  32.917  1.00  0.00    -0.000 C 
BRANCH  16  17
ATOM     17  C   UNL     1      18.926  36.897  31.672  1.00  0.00    -0.000 C 
BRANCH  17  18
ATOM     18  C   UNL     1      20.085  37.857  31.975  1.00  0.00    -0.003 C 
ATOM     19  C   UNL     1      21.226  37.671  30.979  1.00  0.00     0.004 C 
ENDBRANCH  17  18
ENDBRANCH  16  17
ENDBRANCH  15  16
ENDBRANCH  14  15
ENDBRANCH  13  14
ENDBRANCH  12  13
ENDBRANCH   1  12
TORSDOF 14
ENDMDL
MODEL 2
REMARK VINA RESULT:    -4.025      2.754      6.549
REMARK INTER + INTRA:          -9.357
REMARK INTER:                  -6.651
REMARK INTRA:                  -2.706
REMARK UNBOUND:                -2.038
REMARK SMILES CCCCCCCCCCCCCC[C@H](C)C(=O)[O-]
REMARK SMILES IDX 9 1 10 2 11 3 12 4 13 5 14 6 15 7 16 8 17 9 18 10 19 11 8 12
REMARK SMILES IDX 7 13 6 14 5 15 4 16 3 17 2 18 1 19
REMARK H PARENT
REMARK Flexibility Score: inf
ROOT
ATOM      1  C   UNL     1      20.195  40.001  35.796  1.00  0.00     0.000 C 
ENDROOT
BRANCH   1   2
ATOM      2  C   UNL     1      18.696  39.664  35.881  1.00  0.00     0.000 C 
BRANCH   2   3
ATOM      3  C   UNL     1      18.392  38.200  35.512  1.00  0.00     0.000 C 
BRANCH   3   4
ATOM      4  C   UNL     1      17.161  38.002  34.606  1.00  0.00     0.000 C 
BRANCH   4   5
ATOM      5  C   UNL     1      17.336  36.962  33.482  1.00  0.00     0.001 C 
BRANCH   5   6
ATOM      6  C   UNL     1      18.799  36.664  33.089  1.00  0.00     0.009 C 
BRANCH   6   7
ATOM      7  C   UNL     1      19.175  37.102  31.656  1.00  0.00     0.032 C 
ATOM      8  C   UNL     1      20.696  37.226  31.517  1.00  0.00     0.014 C 
BRANCH   7   9
ATOM      9  C   UNL     1      18.524  38.410  31.293  1.00  0.00     0.044 C 
ATOM     10  O   UNL     1      17.551  38.430  30.495  1.00  0.00    -0.550 OA
ATOM     11  O   UNL     1      18.992  39.601  31.833  1.00  0.00    -0.550 OA
ENDBRANCH   7   9
ENDBRANCH   6   7
ENDBRANCH   5   6
ENDBRANCH   4   5
ENDBRANCH   3   4
ENDBRANCH   2   3
ENDBRANCH   1   2
BRANCH   1  12
ATOM     12  C   UNL     1      20.902  39.231  34.660  1.00  0.00     0.000 C 
BRANCH  12  13
ATOM     13  C   UNL     1      22.136  38.442  35.128  1.00  0.00    -0.000 C 
BRANCH  13  14
ATOM     14  C   UNL     1      21.897  36.924  35.164  1.00  0.00    -0.000 C 
BRANCH  14  15
ATOM     15  C   UNL     1      21.789  36.377  36.596  1.00  0.00    -0.000 C 
BRANCH  15  16
ATOM     16  C   UNL     1      22.453  37.302  37.631  1.00  0.00    -0.000 C 
BRANCH  16  17
ATOM     17  C   UNL     1      21.449  37.862  38.652  1.00  0.00    -0.000 C 
BRANCH  17  18
ATOM     18  C   UNL     1      20.082  37.167  38.578  1.00  0.00    -0.003 C 
ATOM     19  C   UNL     1      19.000  38.012  39.242  1.00  0.00     0.004 C 
ENDBRANCH  17  18
ENDBRANCH  16  17
ENDBRANCH  15  16
ENDBRANCH  14  15
ENDBRANCH  13  14
ENDBRANCH  12  13
ENDBRANCH   1  12
TORSDOF 14
ENDMDL
MODEL 3
REMARK VINA RESULT:    -3.935      2.152      4.018
REMARK INTER + INTRA:          -9.194
REMARK INTER:                  -6.579
REMARK INTRA:                  -2.615
REMARK UNBOUND:                -2.038
REMARK SMILES CCCCCCCCCCCCCC[C@H](C)C(=O)[O-]
REMARK SMILES IDX 9 1 10 2 11 3 12 4 13 5 14 6 15 7 16 8 17 9 18 10 19 11 8 12
REMARK SMILES IDX 7 13 6 14 5 15 4 16 3 17 2 18 1 19
REMARK H PARENT
REMARK Flexibility Score: inf
ROOT
ATOM      1  C   UNL     1      16.683  37.258  33.486  1.00  0.00     0.000 C 
ENDROOT
BRANCH   1   2
ATOM      2  C   UNL     1      17.164  38.072  34.701  1.00  0.00     0.000 C 
BRANCH   2   3
ATOM      3  C   UNL     1      17.047  39.592  34.485  1.00  0.00     0.000 C 
BRANCH   3   4
ATOM      4  C   UNL     1      18.290  40.403  34.902  1.00  0.00     0.000 C 
BRANCH   4   5
ATOM      5  C   UNL     1      19.469  39.567  35.434  1.00  0.00     0.001 C 
BRANCH   5   6
ATOM      6  C   UNL     1      19.594  39.515  36.971  1.00  0.00     0.009 C 
BRANCH   6   7
ATOM      7  C   UNL     1      19.398  38.109  37.579  1.00  0.00     0.032 C 
ATOM      8  C   UNL     1      18.789  38.213  38.982  1.00  0.00     0.014 C 
BRANCH   7   9
ATOM      9  C   UNL     1      20.697  37.353  37.645  1.00  0.00     0.044 C 
ATOM     10  O   UNL     1      21.291  37.212  38.747  1.00  0.00    -0.550 OA
ATOM     11  O   UNL     1      21.252  36.807  36.494  1.00  0.00    -0.550 OA
ENDBRANCH   7   9
ENDBRANCH   6   7
ENDBRANCH   5   6
ENDBRANCH   4   5
ENDBRANCH   3   4
ENDBRANCH   2   3
ENDBRANCH   1   2
BRANCH   1  12
ATOM     12  C   UNL     1      17.815  36.407  32.871  1.00  0.00     0.000 C 
BRANCH  12  13
ATOM     13  C   UNL     1      19.145  36.508  33.636  1.00  0.00    -0.000 C 
BRANCH  13  14
ATOM     14  C   UNL     1      20.311  36.975  32.750  1.00  0.00    -0.000 C 
BRANCH  14  15
ATOM     15  C   UNL     1      19.838  37.791  31.536  1.00  0.00    -0.000 C 
BRANCH  15  16
ATOM     16  C   UNL     1      20.210  39.281  31.647  1.00  0.00    -0.000 C 
BRANCH  16  17
ATOM     17  C   UNL     1      19.047  40.209  31.262  1.00  0.00    -0.000 C 
BRANCH  17  18
ATOM     18  C   UNL     1      17.823  39.439  30.744  1.00  0.00    -0.003 C 
ATOM     19  C   UNL     1      16.890  40.356  29.959  1.00  0.00     0.004 C 
ENDBRANCH  17  18
ENDBRANCH  16  17
ENDBRANCH  15  16
ENDBRANCH  14  15
ENDBRANCH  13  14
ENDBRANCH  12  13
ENDBRANCH   1  12
TORSDOF 14
ENDMDL
MODEL 4
REMARK VINA RESULT:    -3.934      3.285      6.554
REMARK INTER + INTRA:          -9.193
REMARK INTER:                  -7.100
REMARK INTRA:                  -2.093
REMARK UNBOUND:                -2.038
REMARK SMILES CCCCCCCCCCCCCC[C@H](C)C(=O)[O-]
REMARK SMILES IDX 9 1 10 2 11 3 12 4 13 5 14 6 15 7 16 8 17 9 18 10 19 11 8 12
REMARK SMILES IDX 7 13 6 14 5 15 4 16 3 17 2 18 1 19
REMARK H PARENT
REMARK Flexibility Score: inf
ROOT
ATOM      1  C   UNL     1      19.005  38.187  37.210  1.00  0.00     0.000 C 
ENDROOT
BRANCH   1   2
ATOM      2  C   UNL     1      19.165  39.457  36.355  1.00  0.00     0.000 C 
BRANCH   2   3
ATOM      3  C   UNL     1      18.317  39.422  35.071  1.00  0.00     0.000 C 
BRANCH   3   4
ATOM      4  C   UNL     1      17.461  38.153  34.893  1.00  0.00     0.000 C 
BRANCH   4   5
ATOM      5  C   UNL     1      17.479  37.543  33.478  1.00  0.00     0.001 C 
BRANCH   5   6
ATOM      6  C   UNL     1      18.531  36.435  33.257  1.00  0.00     0.009 C 
BRANCH   6   7
ATOM      7  C   UNL     1      19.503  36.705  32.087  1.00  0.00     0.032 C 
ATOM      8  C   UNL     1      20.526  37.776  32.479  1.00  0.00     0.014 C 
BRANCH   7   9
ATOM      9  C   UNL     1      18.766  37.136  30.848  1.00  0.00     0.044 C 
ATOM     10  O   UNL     1      19.003  38.260  30.331  1.00  0.00    -0.550 OA
ATOM     11  O   UNL     1      17.819  36.301  30.267  1.00  0.00    -0.550 OA
ENDBRANCH   7   9
ENDBRANCH   6   7
ENDBRANCH   5   6
ENDBRANCH   4   5
ENDBRANCH   3   4
ENDBRANCH   2   3
ENDBRANCH   1   2
BRANCH   1  12
ATOM     12  C   UNL     1      18.865  38.510  38.713  1.00  0.00     0.000 C 
BRANCH  12  13
ATOM     13  C   UNL     1      19.950  37.857  39.585  1.00  0.00    -0.000 C 
BRANCH  13  14
ATOM     14  C   UNL     1      21.352  38.431  39.324  1.00  0.00    -0.000 C 
BRANCH  14  15
ATOM     15  C   UNL     1      22.411  37.334  39.125  1.00  0.00    -0.000 C 
BRANCH  15  16
ATOM     16  C   UNL     1      21.864  36.122  38.349  1.00  0.00    -0.000 C 
BRANCH  16  17
ATOM     17  C   UNL     1      22.559  35.929  36.991  1.00  0.00    -0.000 C 
BRANCH  17  18
ATOM     18  C   UNL     1      21.828  36.645  35.847  1.00  0.00    -0.003 C 
ATOM     19  C   UNL     1      22.464  38.000  35.551  1.00  0.00     0.004 C 
ENDBRANCH  17  18
ENDBRANCH  16  17
ENDBRANCH  15  16
ENDBRANCH  14  15
ENDBRANCH  13  14
ENDBRANCH  12  13
ENDBRANCH   1  12
TORSDOF 14
ENDMDL
MODEL 5
REMARK VINA RESULT:    -3.931      2.436      6.003
REMARK INTER + INTRA:          -9.186
REMARK INTER:                  -6.913
REMARK INTRA:                  -2.273
REMARK UNBOUND:                -2.038
REMARK SMILES CCCCCCCCCCCCCC[C@H](C)C(=O)[O-]
REMARK SMILES IDX 9 1 10 2 11 3 12 4 13 5 14 6 15 7 16 8 17 9 18 10 19 11 8 12
REMARK SMILES IDX 7 13 6 14 5 15 4 16 3 17 2 18 1 19
REMARK H PARENT
REMARK Flexibility Score: inf
ROOT
ATOM      1  C   UNL     1      21.891  39.437  33.300  1.00  0.00     0.000 C 
ENDROOT
BRANCH   1   2
ATOM      2  C   UNL     1      22.207  38.633  32.026  1.00  0.00     0.000 C 
BRANCH   2   3
ATOM      3  C   UNL     1      20.999  38.519  31.078  1.00  0.00     0.000 C 
BRANCH   3   4
ATOM      4  C   UNL     1      20.217  37.194  31.181  1.00  0.00     0.000 C 
BRANCH   4   5
ATOM      5  C   UNL     1      20.115  36.603  32.601  1.00  0.00     0.001 C 
BRANCH   5   6
ATOM      6  C   UNL     1      18.747  36.790  33.290  1.00  0.00     0.009 C 
BRANCH   6   7
ATOM      7  C   UNL     1      18.518  38.199  33.882  1.00  0.00     0.032 C 
ATOM      8  C   UNL     1      18.193  38.104  35.376  1.00  0.00     0.014 C 
BRANCH   7   9
ATOM      9  C   UNL     1      17.410  38.922  33.166  1.00  0.00     0.044 C 
ATOM     10  O   UNL     1      17.179  38.681  31.952  1.00  0.00    -0.550 OA
ATOM     11  O   UNL     1      16.635  39.861  33.837  1.00  0.00    -0.550 OA
ENDBRANCH   7   9
ENDBRANCH   6   7
ENDBRANCH   5   6
ENDBRANCH   4   5
ENDBRANCH   3   4
ENDBRANCH   2   3
ENDBRANCH   1   2
BRANCH   1  12
ATOM     12  C   UNL     1      22.706  38.946  34.516  1.00  0.00     0.000 C 
BRANCH  12  13
ATOM     13  C   UNL     1      21.834  38.411  35.664  1.00  0.00    -0.000 C 
BRANCH  13  14
ATOM     14  C   UNL     1      21.852  36.877  35.763  1.00  0.00    -0.000 C 
BRANCH  14  15
ATOM     15  C   UNL     1      21.841  36.381  37.218  1.00  0.00    -0.000 C 
BRANCH  15  16
ATOM     16  C   UNL     1      21.281  37.430  38.195  1.00  0.00    -0.000 C 
BRANCH  16  17
ATOM     17  C   UNL     1      19.881  37.065  38.714  1.00  0.00    -0.000 C 
BRANCH  17  18
ATOM     18  C   UNL     1      19.007  38.300  38.974  1.00  0.00    -0.003 C 
ATOM     19  C   UNL     1      19.729  39.580  38.563  1.00  0.00     0.004 C 
ENDBRANCH  17  18
ENDBRANCH  16  17
ENDBRANCH  15  16
ENDBRANCH  14  15
ENDBRANCH  13  14
ENDBRANCH  12  13
ENDBRANCH   1  12
TORSDOF 14
ENDMDL
MODEL 6
REMARK VINA RESULT:    -3.921      5.889      8.558
REMARK INTER + INTRA:          -9.168
REMARK INTER:                  -6.778
REMARK INTRA:                  -2.390
REMARK UNBOUND:                -2.038
REMARK SMILES CCCCCCCCCCCCCC[C@H](C)C(=O)[O-]
REMARK SMILES IDX 9 1 10 2 11 3 12 4 13 5 14 6 15 7 16 8 17 9 18 10 19 11 8 12
REMARK SMILES IDX 7 13 6 14 5 15 4 16 3 17 2 18 1 19
REMARK H PARENT
REMARK Flexibility Score: inf
ROOT
ATOM      1  C   UNL     1      14.806  40.788  27.814  1.00  0.00     0.000 C 
ENDROOT
BRANCH   1   2
ATOM      2  C   UNL     1      16.266  40.925  27.348  1.00  0.00     0.000 C 
BRANCH   2   3
ATOM      3  C   UNL     1      17.277  40.741  28.495  1.00  0.00     0.000 C 
BRANCH   3   4
ATOM      4  C   UNL     1      16.660  40.311  29.841  1.00  0.00     0.000 C 
BRANCH   4   5
ATOM      5  C   UNL     1      17.471  39.265  30.629  1.00  0.00     0.001 C 
BRANCH   5   6
ATOM      6  C   UNL     1      18.757  38.772  29.931  1.00  0.00     0.009 C 
BRANCH   6   7
ATOM      7  C   UNL     1      19.127  37.305  30.240  1.00  0.00     0.032 C 
ATOM      8  C   UNL     1      17.920  36.559  30.817  1.00  0.00     0.014 C 
BRANCH   7   9
ATOM      9  C   UNL     1      20.283  37.220  31.200  1.00  0.00     0.044 C 
ATOM     10  O   UNL     1      21.387  37.750  30.908  1.00  0.00    -0.550 OA
ATOM     11  O   UNL     1      20.140  36.558  32.414  1.00  0.00    -0.550 OA
ENDBRANCH   7   9
ENDBRANCH   6   7
ENDBRANCH   5   6
ENDBRANCH   4   5
ENDBRANCH   3   4
ENDBRANCH   2   3
ENDBRANCH   1   2
BRANCH   1  12
ATOM     12  C   UNL     1      14.125  39.529  27.235  1.00  0.00     0.000 C 
BRANCH  12  13
ATOM     13  C   UNL     1      15.030  38.722  26.289  1.00  0.00    -0.000 C 
BRANCH  13  14
ATOM     14  C   UNL     1      15.222  37.266  26.742  1.00  0.00    -0.000 C 
BRANCH  14  15
ATOM     15  C   UNL     1      16.570  37.039  27.444  1.00  0.00    -0.000 C 
BRANCH  15  16
ATOM     16  C   UNL     1      17.757  37.583  26.629  1.00  0.00    -0.000 C 
BRANCH  16  17
ATOM     17  C   UNL     1      18.669  36.466  26.097  1.00  0.00    -0.000 C 
BRANCH  17  18
ATOM     18  C   UNL     1      18.979  35.401  27.158  1.00  0.00    -0.003 C 
ATOM     19  C   UNL     1      19.780  34.248  26.561  1.00  0.00     0.004 C 
ENDBRANCH  17  18
ENDBRANCH  16  17
ENDBRANCH  15  16
ENDBRANCH  14  15
ENDBRANCH  13  14
ENDBRANCH  12  13
ENDBRANCH   1  12
TORSDOF 14
ENDMDL
MODEL 7
REMARK VINA RESULT:    -3.909      2.798      6.464
REMARK INTER + INTRA:          -9.146
REMARK INTER:                  -6.665
REMARK INTRA:                  -2.481
REMARK UNBOUND:                -2.038
REMARK SMILES CCCCCCCCCCCCCC[C@H](C)C(=O)[O-]
REMARK SMILES IDX 9 1 10 2 11 3 12 4 13 5 14 6 15 7 16 8 17 9 18 10 19 11 8 12
REMARK SMILES IDX 7 13 6 14 5 15 4 16 3 17 2 18 1 19
REMARK H PARENT
REMARK Flexibility Score: inf
ROOT
ATOM      1  C   UNL     1      22.229  36.248  36.372  1.00  0.00     0.000 C 
ENDROOT
BRANCH   1   2
ATOM      2  C   UNL     1      21.228  37.245  35.761  1.00  0.00     0.000 C 
BRANCH   2   3
ATOM      3  C   UNL     1      21.827  38.652  35.575  1.00  0.00     0.000 C 
BRANCH   3   4
ATOM      4  C   UNL     1      21.137  39.513  34.498  1.00  0.00     0.000 C 
BRANCH   4   5
ATOM      5  C   UNL     1      19.745  40.051  34.883  1.00  0.00     0.001 C 
BRANCH   5   6
ATOM      6  C   UNL     1      18.669  39.928  33.783  1.00  0.00     0.009 C 
BRANCH   6   7
ATOM      7  C   UNL     1      17.785  38.666  33.895  1.00  0.00     0.032 C 
ATOM      8  C   UNL     1      17.656  38.232  35.358  1.00  0.00     0.014 C 
BRANCH   7   9
ATOM      9  C   UNL     1      18.341  37.532  33.077  1.00  0.00     0.044 C 
ATOM     10  O   UNL     1      18.560  36.414  33.613  1.00  0.00    -0.550 OA
ATOM     11  O   UNL     1      18.617  37.709  31.726  1.00  0.00    -0.550 OA
ENDBRANCH   7   9
ENDBRANCH   6   7
ENDBRANCH   5   6
ENDBRANCH   4   5
ENDBRANCH   3   4
ENDBRANCH   2   3
ENDBRANCH   1   2
BRANCH   1  12
ATOM     12  C   UNL     1      21.915  35.939  37.851  1.00  0.00     0.000 C 
BRANCH  12  13
ATOM     13  C   UNL     1      23.042  36.344  38.816  1.00  0.00    -0.000 C 
BRANCH  13  14
ATOM     14  C   UNL     1      23.037  37.845  39.145  1.00  0.00    -0.000 C 
BRANCH  14  15
ATOM     15  C   UNL     1      22.469  38.141  40.542  1.00  0.00    -0.000 C 
BRANCH  15  16
ATOM     16  C   UNL     1      21.093  38.828  40.486  1.00  0.00    -0.000 C 
BRANCH  16  17
ATOM     17  C   UNL     1      20.808  39.466  39.117  1.00  0.00    -0.000 C 
BRANCH  17  18
ATOM     18  C   UNL     1      19.484  38.987  38.506  1.00  0.00    -0.003 C 
ATOM     19  C   UNL     1      18.893  37.834  39.312  1.00  0.00     0.004 C 
ENDBRANCH  17  18
ENDBRANCH  16  17
ENDBRANCH  15  16
ENDBRANCH  14  15
ENDBRANCH  13  14
ENDBRANCH  12  13
ENDBRANCH   1  12
TORSDOF 14
ENDMDL
MODEL 8
REMARK VINA RESULT:    -3.905      2.511      4.217
REMARK INTER + INTRA:          -9.140
REMARK INTER:                  -6.455
REMARK INTRA:                  -2.685
REMARK UNBOUND:                -2.038
REMARK SMILES CCCCCCCCCCCCCC[C@H](C)C(=O)[O-]
REMARK SMILES IDX 9 1 10 2 11 3 12 4 13 5 14 6 15 7 16 8 17 9 18 10 19 11 8 12
REMARK SMILES IDX 7 13 6 14 5 15 4 16 3 17 2 18 1 19
REMARK H PARENT
REMARK Flexibility Score: inf
ROOT
ATOM      1  C   UNL     1      17.019  37.012  33.092  1.00  0.00     0.000 C 
ENDROOT
BRANCH   1   2
ATOM      2  C   UNL     1      18.404  36.343  33.109  1.00  0.00     0.000 C 
BRANCH   2   3
ATOM      3  C   UNL     1      19.398  37.005  32.136  1.00  0.00     0.000 C 
BRANCH   3   4
ATOM      4  C   UNL     1      20.863  37.019  32.616  1.00  0.00     0.000 C 
BRANCH   4   5
ATOM      5  C   UNL     1      21.272  38.259  33.435  1.00  0.00     0.001 C 
BRANCH   5   6
ATOM      6  C   UNL     1      22.060  37.958  34.727  1.00  0.00     0.009 C 
BRANCH   6   7
ATOM      7  C   UNL     1      21.300  37.083  35.748  1.00  0.00     0.032 C 
ATOM      8  C   UNL     1      20.023  37.790  36.212  1.00  0.00     0.014 C 
BRANCH   7   9
ATOM      9  C   UNL     1      22.160  36.755  36.939  1.00  0.00     0.044 C 
ATOM     10  O   UNL     1      23.088  37.534  37.281  1.00  0.00    -0.550 OA
ATOM     11  O   UNL     1      21.937  35.593  37.667  1.00  0.00    -0.550 OA
ENDBRANCH   7   9
ENDBRANCH   6   7
ENDBRANCH   5   6
ENDBRANCH   4   5
ENDBRANCH   3   4
ENDBRANCH   2   3
ENDBRANCH   1   2
BRANCH   1  12
ATOM     12  C   UNL     1      16.765  37.858  34.359  1.00  0.00     0.000 C 
BRANCH  12  13
ATOM     13  C   UNL     1      16.598  39.359  34.072  1.00  0.00    -0.000 C 
BRANCH  13  14
ATOM     14  C   UNL     1      17.704  40.216  34.708  1.00  0.00    -0.000 C 
BRANCH  14  15
ATOM     15  C   UNL     1      18.753  40.680  33.684  1.00  0.00    -0.000 C 
BRANCH  15  16
ATOM     16  C   UNL     1      18.131  41.029  32.320  1.00  0.00    -0.000 C 
BRANCH  16  17
ATOM     17  C   UNL     1      18.907  40.417  31.144  1.00  0.00    -0.000 C 
BRANCH  17  18
ATOM     18  C   UNL     1      17.984  39.812  30.077  1.00  0.00    -0.003 C 
ATOM     19  C   UNL     1      16.520  40.111  30.385  1.00  0.00     0.004 C 
ENDBRANCH  17  18
ENDBRANCH  16  17
ENDBRANCH  15  16
ENDBRANCH  14  15
ENDBRANCH  13  14
ENDBRANCH  12  13
ENDBRANCH   1  12
TORSDOF 14
ENDMDL
MODEL 9
REMARK VINA RESULT:    -3.842      2.120      4.041
REMARK INTER + INTRA:          -9.025
REMARK INTER:                  -6.397
REMARK INTRA:                  -2.628
REMARK UNBOUND:                -2.038
REMARK SMILES CCCCCCCCCCCCCC[C@H](C)C(=O)[O-]
REMARK SMILES IDX 9 1 10 2 11 3 12 4 13 5 14 6 15 7 16 8 17 9 18 10 19 11 8 12
REMARK SMILES IDX 7 13 6 14 5 15 4 16 3 17 2 18 1 19
REMARK H PARENT
REMARK Flexibility Score: inf
ROOT
ATOM      1  C   UNL     1      17.288  39.080  32.376  1.00  0.00     0.000 C 
ENDROOT
BRANCH   1   2
ATOM      2  C   UNL     1      16.705  39.270  33.787  1.00  0.00     0.000 C 
BRANCH   2   3
ATOM      3  C   UNL     1      17.068  38.118  34.743  1.00  0.00     0.000 C 
BRANCH   3   4
ATOM      4  C   UNL     1      18.099  38.478  35.830  1.00  0.00     0.000 C 
BRANCH   4   5
ATOM      5  C   UNL     1      19.455  37.755  35.712  1.00  0.00     0.001 C 
BRANCH   5   6
ATOM      6  C   UNL     1      20.670  38.557  36.225  1.00  0.00     0.009 C 
BRANCH   6   7
ATOM      7  C   UNL     1      21.842  37.685  36.729  1.00  0.00     0.032 C 
ATOM      8  C   UNL     1      22.006  36.447  35.842  1.00  0.00     0.014 C 
BRANCH   7   9
ATOM      9  C   UNL     1      21.636  37.261  38.158  1.00  0.00     0.044 C 
ATOM     10  O   UNL     1      21.157  36.126  38.418  1.00  0.00    -0.550 OA
ATOM     11  O   UNL     1      21.971  38.118  39.200  1.00  0.00    -0.550 OA
ENDBRANCH   7   9
ENDBRANCH   6   7
ENDBRANCH   5   6
ENDBRANCH   4   5
ENDBRANCH   3   4
ENDBRANCH   2   3
ENDBRANCH   1   2
BRANCH   1  12
ATOM     12  C   UNL     1      18.175  40.268  31.947  1.00  0.00     0.000 C 
BRANCH  12  13
ATOM     13  C   UNL     1      18.932  40.923  33.115  1.00  0.00    -0.000 C 
BRANCH  13  14
ATOM     14  C   UNL     1      20.425  40.556  33.140  1.00  0.00    -0.000 C 
BRANCH  14  15
ATOM     15  C   UNL     1      21.038  40.483  31.732  1.00  0.00    -0.000 C 
BRANCH  15  16
ATOM     16  C   UNL     1      21.634  39.099  31.421  1.00  0.00    -0.000 C 
BRANCH  16  17
ATOM     17  C   UNL     1      21.427  38.095  32.566  1.00  0.00    -0.000 C 
BRANCH  17  18
ATOM     18  C   UNL     1      20.441  36.977  32.200  1.00  0.00    -0.003 C 
ATOM     19  C   UNL     1      20.126  36.989  30.707  1.00  0.00     0.004 C 
ENDBRANCH  17  18
ENDBRANCH  16  17
ENDBRANCH  15  16
ENDBRANCH  14  15
ENDBRANCH  13  14
ENDBRANCH  12  13
ENDBRANCH   1  12
TORSDOF 14
ENDMDL
