MODEL 1
REMARK VINA RESULT:    -3.634      0.000      0.000
REMARK INTER + INTRA:          -3.857
REMARK INTER:                  -3.846
REMARK INTRA:                  -0.011
REMARK UNBOUND:                -0.011
REMARK SMILES O=Cc1ccco1
REMARK SMILES IDX 5 1 6 2 7 3 3 4 4 5 2 6 1 7
REMARK H PARENT
REMARK Flexibility Score: inf
ROOT
ATOM      1  C   UNL     1       5.673   4.383  13.704  1.00  0.00     0.043 A 
ATOM      2  C   UNL     1       6.042   5.425  12.878  1.00  0.00     0.196 A 
ATOM      3  O   UNL     1       6.697   6.328  13.572  1.00  0.00    -0.462 OA
ATOM      4  C   UNL     1       6.772   5.921  14.819  1.00  0.00     0.166 A 
ATOM      5  C   UNL     1       6.143   4.702  14.959  1.00  0.00     0.054 A 
ENDROOT
BRANCH   4   6
ATOM      6  C   UNL     1       7.432   6.668  15.891  1.00  0.00     0.298 C 
ATOM      7  O   UNL     1       8.681   6.608  16.030  1.00  0.00    -0.294 OA
ENDBRANCH   4   6
TORSDOF 1
ENDMDL
MODEL 2
REMARK VINA RESULT:    -3.584      1.350      1.702
REMARK INTER + INTRA:          -3.805
REMARK INTER:                  -3.793
REMARK INTRA:                  -0.012
REMARK UNBOUND:                -0.011
REMARK SMILES O=Cc1ccco1
REMARK SMILES IDX 5 1 6 2 7 3 3 4 4 5 2 6 1 7
REMARK H PARENT
REMARK Flexibility Score: inf
ROOT
ATOM      1  C   UNL     1       6.061   4.636  14.986  1.00  0.00     0.043 A 
ATOM      2  C   UNL     1       5.801   4.685  13.631  1.00  0.00     0.196 A 
ATOM      3  O   UNL     1       6.312   5.783  13.123  1.00  0.00    -0.462 OA
ATOM      4  C   UNL     1       6.896   6.456  14.088  1.00  0.00     0.166 A 
ATOM      5  C   UNL     1       6.768   5.781  15.283  1.00  0.00     0.054 A 
ENDROOT
BRANCH   4   6
ATOM      6  C   UNL     1       7.578   7.737  13.902  1.00  0.00     0.298 C 
ATOM      7  O   UNL     1       8.670   7.791  13.278  1.00  0.00    -0.294 OA
ENDBRANCH   4   6
TORSDOF 1
ENDMDL
MODEL 3
REMARK VINA RESULT:    -3.535      1.517      3.280
REMARK INTER + INTRA:          -3.753
REMARK INTER:                  -3.741
REMARK INTRA:                  -0.012
REMARK UNBOUND:                -0.011
REMARK SMILES O=Cc1ccco1
REMARK SMILES IDX 5 1 6 2 7 3 3 4 4 5 2 6 1 7
REMARK H PARENT
REMARK Flexibility Score: inf
ROOT
ATOM      1  C   UNL     1       6.744   5.671  15.419  1.00  0.00     0.043 A 
ATOM      2  C   UNL     1       7.119   6.670  14.544  1.00  0.00     0.196 A 
ATOM      3  O   UNL     1       6.635   6.416  13.350  1.00  0.00    -0.462 OA
ATOM      4  C   UNL     1       5.959   5.291  13.406  1.00  0.00     0.166 A 
ATOM      5  C   UNL     1       5.995   4.778  14.685  1.00  0.00     0.054 A 
ENDROOT
BRANCH   4   6
ATOM      6  C   UNL     1       5.274   4.685  12.263  1.00  0.00     0.298 C 
ATOM      7  O   UNL     1       4.398   3.799  12.445  1.00  0.00    -0.294 OA
ENDBRANCH   4   6
TORSDOF 1
ENDMDL
MODEL 4
REMARK VINA RESULT:    -3.385      4.460      6.453
REMARK INTER + INTRA:          -3.594
REMARK INTER:                  -3.583
REMARK INTRA:                  -0.011
REMARK UNBOUND:                -0.011
REMARK SMILES O=Cc1ccco1
REMARK SMILES IDX 5 1 6 2 7 3 3 4 4 5 2 6 1 7
REMARK H PARENT
REMARK Flexibility Score: inf
ROOT
ATOM      1  C   UNL     1       9.422   7.944  21.115  1.00  0.00     0.043 A 
ATOM      2  C   UNL     1       8.943   6.653  21.204  1.00  0.00     0.196 A 
ATOM      3  O   UNL     1       8.959   6.093  20.015  1.00  0.00    -0.462 OA
ATOM      4  C   UNL     1       9.429   6.964  19.152  1.00  0.00     0.166 A 
ATOM      5  C   UNL     1       9.736   8.148  19.789  1.00  0.00     0.054 A 
ENDROOT
BRANCH   4   6
ATOM      6  C   UNL     1       9.595   6.699  17.722  1.00  0.00     0.298 C 
ATOM      7  O   UNL     1       8.602   6.739  16.949  1.00  0.00    -0.294 OA
ENDBRANCH   4   6
TORSDOF 1
ENDMDL
MODEL 5
REMARK VINA RESULT:    -3.309      2.305      3.030
REMARK INTER + INTRA:          -3.514
REMARK INTER:                  -3.502
REMARK INTRA:                  -0.012
REMARK UNBOUND:                -0.011
REMARK SMILES O=Cc1ccco1
REMARK SMILES IDX 5 1 6 2 7 3 3 4 4 5 2 6 1 7
REMARK H PARENT
REMARK Flexibility Score: inf
ROOT
ATOM      1  C   UNL     1       4.464   3.314  11.503  1.00  0.00     0.043 A 
ATOM      2  C   UNL     1       5.538   2.499  11.796  1.00  0.00     0.196 A 
ATOM      3  O   UNL     1       6.232   3.020  12.783  1.00  0.00    -0.462 OA
ATOM      4  C   UNL     1       5.656   4.142  13.148  1.00  0.00     0.166 A 
ATOM      5  C   UNL     1       4.539   4.378  12.376  1.00  0.00     0.054 A 
ENDROOT
BRANCH   4   6
ATOM      6  C   UNL     1       6.146   5.007  14.224  1.00  0.00     0.298 C 
ATOM      7  O   UNL     1       6.004   4.666  15.427  1.00  0.00    -0.294 OA
ENDBRANCH   4   6
TORSDOF 1
ENDMDL
MODEL 6
REMARK VINA RESULT:    -3.179      1.724      2.675
REMARK INTER + INTRA:          -3.377
REMARK INTER:                  -3.364
REMARK INTRA:                  -0.012
REMARK UNBOUND:                -0.011
REMARK SMILES O=Cc1ccco1
REMARK SMILES IDX 5 1 6 2 7 3 3 4 4 5 2 6 1 7
REMARK H PARENT
REMARK Flexibility Score: inf
ROOT
ATOM      1  C   UNL     1       7.725   7.844  14.406  1.00  0.00     0.043 A 
ATOM      2  C   UNL     1       7.637   7.390  13.106  1.00  0.00     0.196 A 
ATOM      3  O   UNL     1       7.026   6.227  13.083  1.00  0.00    -0.462 OA
ATOM      4  C   UNL     1       6.709   5.900  14.315  1.00  0.00     0.166 A 
ATOM      5  C   UNL     1       7.126   6.881  15.190  1.00  0.00     0.054 A 
ENDROOT
BRANCH   4   6
ATOM      6  C   UNL     1       6.015   4.667  14.687  1.00  0.00     0.298 C 
ATOM      7  O   UNL     1       5.826   4.385  15.899  1.00  0.00    -0.294 OA
ENDBRANCH   4   6
TORSDOF 1
ENDMDL
MODEL 7
REMARK VINA RESULT:    -3.154      4.982      6.232
REMARK INTER + INTRA:          -3.350
REMARK INTER:                  -3.336
REMARK INTRA:                  -0.014
REMARK UNBOUND:                -0.011
REMARK SMILES O=Cc1ccco1
REMARK SMILES IDX 5 1 6 2 7 3 3 4 4 5 2 6 1 7
REMARK H PARENT
REMARK Flexibility Score: inf
ROOT
ATOM      1  C   UNL     1       1.354   1.448  12.031  1.00  0.00     0.043 A 
ATOM      2  C   UNL     1       2.192   0.355  12.121  1.00  0.00     0.196 A 
ATOM      3  O   UNL     1       3.424   0.720  11.848  1.00  0.00    -0.462 OA
ATOM      4  C   UNL     1       3.428   2.006  11.582  1.00  0.00     0.166 A 
ATOM      5  C   UNL     1       2.151   2.516  11.681  1.00  0.00     0.054 A 
ENDROOT
BRANCH   4   6
ATOM      6  C   UNL     1       4.626   2.770  11.231  1.00  0.00     0.298 C 
ATOM      7  O   UNL     1       5.697   2.600  11.869  1.00  0.00    -0.294 OA
ENDBRANCH   4   6
TORSDOF 1
ENDMDL
MODEL 8
REMARK VINA RESULT:    -3.064      4.138      5.336
REMARK INTER + INTRA:          -3.255
REMARK INTER:                  -3.241
REMARK INTRA:                  -0.013
REMARK UNBOUND:                -0.011
REMARK SMILES O=Cc1ccco1
REMARK SMILES IDX 5 1 6 2 7 3 3 4 4 5 2 6 1 7
REMARK H PARENT
REMARK Flexibility Score: inf
ROOT
ATOM      1  C   UNL     1       5.704   4.777  11.999  1.00  0.00     0.043 A 
ATOM      2  C   UNL     1       6.069   4.033  10.896  1.00  0.00     0.196 A 
ATOM      3  O   UNL     1       5.167   3.105  10.670  1.00  0.00    -0.462 OA
ATOM      4  C   UNL     1       4.225   3.211  11.579  1.00  0.00     0.166 A 
ATOM      5  C   UNL     1       4.512   4.246  12.443  1.00  0.00     0.054 A 
ENDROOT
BRANCH   4   6
ATOM      6  C   UNL     1       3.049   2.343  11.650  1.00  0.00     0.298 C 
ATOM      7  O   UNL     1       3.181   1.092  11.654  1.00  0.00    -0.294 OA
ENDBRANCH   4   6
TORSDOF 1
ENDMDL
MODEL 9
REMARK VINA RESULT:    -3.026     14.201     15.496
REMARK INTER + INTRA:          -3.214
REMARK INTER:                  -3.204
REMARK INTRA:                  -0.011
REMARK UNBOUND:                -0.011
REMARK SMILES O=Cc1ccco1
REMARK SMILES IDX 5 1 6 2 7 3 3 4 4 5 2 6 1 7
REMARK H PARENT
REMARK Flexibility Score: inf
ROOT
ATOM      1  C   UNL     1      -2.893  -4.807  13.560  1.00  0.00     0.043 A 
ATOM      2  C   UNL     1      -2.435  -4.322  12.352  1.00  0.00     0.196 A 
ATOM      3  O   UNL     1      -2.286  -5.315  11.505  1.00  0.00    -0.462 OA
ATOM      4  C   UNL     1      -2.629  -6.431  12.108  1.00  0.00     0.166 A 
ATOM      5  C   UNL     1      -3.019  -6.170  13.405  1.00  0.00     0.054 A 
ENDROOT
BRANCH   4   6
ATOM      6  C   UNL     1      -2.594  -7.751  11.478  1.00  0.00     0.298 C 
ATOM      7  O   UNL     1      -1.638  -8.538  11.705  1.00  0.00    -0.294 OA
ENDBRANCH   4   6
TORSDOF 1
ENDMDL
