MODEL 1
REMARK VINA RESULT:    -4.051      0.000      0.000
REMARK INTER + INTRA:          -5.098
REMARK INTER:                  -4.999
REMARK INTRA:                  -0.099
REMARK UNBOUND:                -0.099
REMARK SMILES CCCCCC(=O)[O-]
REMARK SMILES IDX 4 1 5 2 6 3 7 4 8 5 3 6 2 7 1 8
REMARK H PARENT
REMARK Flexibility Score: inf
ROOT
ATOM      1  C   UNL     1       9.493  53.956  22.708  1.00  0.00     0.006 C 
ENDROOT
BRANCH   1   2
ATOM      2  C   UNL     1       8.505  55.123  22.833  1.00  0.00     0.053 C 
BRANCH   2   3
ATOM      3  C   UNL     1       8.034  55.555  21.479  1.00  0.00     0.041 C 
ATOM      4  O   UNL     1       7.900  56.779  21.216  1.00  0.00    -0.550 OA
ATOM      5  O   UNL     1       7.697  54.604  20.524  1.00  0.00    -0.550 OA
ENDBRANCH   2   3
ENDBRANCH   1   2
BRANCH   1   6
ATOM      6  C   UNL     1      10.326  53.746  23.983  1.00  0.00     0.000 C 
BRANCH   6   7
ATOM      7  C   UNL     1       9.990  54.767  25.080  1.00  0.00    -0.003 C 
ATOM      8  C   UNL     1      10.967  54.658  26.249  1.00  0.00     0.004 C 
ENDBRANCH   6   7
ENDBRANCH   1   6
TORSDOF 4
ENDMDL
MODEL 2
REMARK VINA RESULT:    -3.972      2.859      4.372
REMARK INTER + INTRA:          -5.001
REMARK INTER:                  -4.895
REMARK INTRA:                  -0.106
REMARK UNBOUND:                -0.099
REMARK SMILES CCCCCC(=O)[O-]
REMARK SMILES IDX 4 1 5 2 6 3 7 4 8 5 3 6 2 7 1 8
REMARK H PARENT
REMARK Flexibility Score: inf
ROOT
ATOM      1  C   UNL     1       9.695  54.330  22.851  1.00  0.00     0.006 C 
ENDROOT
BRANCH   1   2
ATOM      2  C   UNL     1      10.199  53.639  24.126  1.00  0.00     0.053 C 
BRANCH   2   3
ATOM      3  C   UNL     1      10.245  54.612  25.262  1.00  0.00     0.041 C 
ATOM      4  O   UNL     1       9.485  55.617  25.267  1.00  0.00    -0.550 OA
ATOM      5  O   UNL     1      11.160  54.435  26.292  1.00  0.00    -0.550 OA
ENDBRANCH   2   3
ENDBRANCH   1   2
BRANCH   1   6
ATOM      6  C   UNL     1       8.264  53.910  22.478  1.00  0.00     0.000 C 
BRANCH   6   7
ATOM      7  C   UNL     1       7.702  54.717  21.298  1.00  0.00    -0.003 C 
ATOM      8  C   UNL     1       7.915  56.214  21.506  1.00  0.00     0.004 C 
ENDBRANCH   6   7
ENDBRANCH   1   6
TORSDOF 4
ENDMDL
MODEL 3
REMARK VINA RESULT:    -3.940      2.598      4.902
REMARK INTER + INTRA:          -4.961
REMARK INTER:                  -4.874
REMARK INTRA:                  -0.087
REMARK UNBOUND:                -0.099
REMARK SMILES CCCCCC(=O)[O-]
REMARK SMILES IDX 4 1 5 2 6 3 7 4 8 5 3 6 2 7 1 8
REMARK H PARENT
REMARK Flexibility Score: inf
ROOT
ATOM      1  C   UNL     1       8.363  55.490  21.889  1.00  0.00     0.006 C 
ENDROOT
BRANCH   1   2
ATOM      2  C   UNL     1       8.645  54.067  22.390  1.00  0.00     0.053 C 
BRANCH   2   3
ATOM      3  C   UNL     1       9.884  54.044  23.228  1.00  0.00     0.041 C 
ATOM      4  O   UNL     1      10.874  53.350  22.876  1.00  0.00    -0.550 OA
ATOM      5  O   UNL     1       9.929  54.752  24.422  1.00  0.00    -0.550 OA
ENDBRANCH   2   3
ENDBRANCH   1   2
BRANCH   1   6
ATOM      6  C   UNL     1       7.241  55.537  20.840  1.00  0.00     0.000 C 
BRANCH   6   7
ATOM      7  C   UNL     1       7.257  54.318  19.905  1.00  0.00    -0.003 C 
ATOM      8  C   UNL     1       6.840  54.709  18.489  1.00  0.00     0.004 C 
ENDBRANCH   6   7
ENDBRANCH   1   6
TORSDOF 4
ENDMDL
MODEL 4
REMARK VINA RESULT:    -3.936      1.325      1.795
REMARK INTER + INTRA:          -4.956
REMARK INTER:                  -4.811
REMARK INTRA:                  -0.145
REMARK UNBOUND:                -0.099
REMARK SMILES CCCCCC(=O)[O-]
REMARK SMILES IDX 4 1 5 2 6 3 7 4 8 5 3 6 2 7 1 8
REMARK H PARENT
REMARK Flexibility Score: inf
ROOT
ATOM      1  C   UNL     1       8.417  55.095  22.925  1.00  0.00     0.006 C 
ENDROOT
BRANCH   1   2
ATOM      2  C   UNL     1       8.033  55.520  21.502  1.00  0.00     0.053 C 
BRANCH   2   3
ATOM      3  C   UNL     1       7.369  54.390  20.780  1.00  0.00     0.041 C 
ATOM      4  O   UNL     1       7.694  54.117  19.594  1.00  0.00    -0.550 OA
ATOM      5  O   UNL     1       6.358  53.668  21.401  1.00  0.00    -0.550 OA
ENDBRANCH   2   3
ENDBRANCH   1   2
BRANCH   1   6
ATOM      6  C   UNL     1       9.578  54.087  22.948  1.00  0.00     0.000 C 
BRANCH   6   7
ATOM      7  C   UNL     1      10.293  54.043  24.307  1.00  0.00    -0.003 C 
ATOM      8  C   UNL     1       9.769  55.133  25.239  1.00  0.00     0.004 C 
ENDBRANCH   6   7
ENDBRANCH   1   6
TORSDOF 4
ENDMDL
MODEL 5
REMARK VINA RESULT:    -3.935      2.805      4.589
REMARK INTER + INTRA:          -4.955
REMARK INTER:                  -4.839
REMARK INTRA:                  -0.117
REMARK UNBOUND:                -0.099
REMARK SMILES CCCCCC(=O)[O-]
REMARK SMILES IDX 4 1 5 2 6 3 7 4 8 5 3 6 2 7 1 8
REMARK H PARENT
REMARK Flexibility Score: inf
ROOT
ATOM      1  C   UNL     1       8.791  54.027  22.360  1.00  0.00     0.006 C 
ENDROOT
BRANCH   1   2
ATOM      2  C   UNL     1      10.117  53.967  23.129  1.00  0.00     0.053 C 
BRANCH   2   3
ATOM      3  C   UNL     1       9.866  53.972  24.604  1.00  0.00     0.041 C 
ATOM      4  O   UNL     1       8.721  53.701  25.052  1.00  0.00    -0.550 OA
ATOM      5  O   UNL     1      10.884  54.323  25.481  1.00  0.00    -0.550 OA
ENDBRANCH   2   3
ENDBRANCH   1   2
BRANCH   1   6
ATOM      6  C   UNL     1       8.406  55.459  21.954  1.00  0.00     0.000 C 
BRANCH   6   7
ATOM      7  C   UNL     1       7.333  55.493  20.856  1.00  0.00    -0.003 C 
ATOM      8  C   UNL     1       7.462  54.289  19.926  1.00  0.00     0.004 C 
ENDBRANCH   6   7
ENDBRANCH   1   6
TORSDOF 4
ENDMDL
MODEL 6
REMARK VINA RESULT:    -3.923      2.932      4.422
REMARK INTER + INTRA:          -4.939
REMARK INTER:                  -4.833
REMARK INTRA:                  -0.106
REMARK UNBOUND:                -0.099
REMARK SMILES CCCCCC(=O)[O-]
REMARK SMILES IDX 4 1 5 2 6 3 7 4 8 5 3 6 2 7 1 8
REMARK H PARENT
REMARK Flexibility Score: inf
ROOT
ATOM      1  C   UNL     1       8.821  54.695  22.686  1.00  0.00     0.006 C 
ENDROOT
BRANCH   1   2
ATOM      2  C   UNL     1      10.038  53.810  22.984  1.00  0.00     0.053 C 
BRANCH   2   3
ATOM      3  C   UNL     1       9.602  52.505  23.572  1.00  0.00     0.041 C 
ATOM      4  O   UNL     1      10.270  51.459  23.356  1.00  0.00    -0.550 OA
ATOM      5  O   UNL     1       8.432  52.434  24.317  1.00  0.00    -0.550 OA
ENDBRANCH   2   3
ENDBRANCH   1   2
BRANCH   1   6
ATOM      6  C   UNL     1       8.055  54.244  21.431  1.00  0.00     0.000 C 
BRANCH   6   7
ATOM      7  C   UNL     1       7.416  55.420  20.676  1.00  0.00    -0.003 C 
ATOM      8  C   UNL     1       7.710  56.745  21.374  1.00  0.00     0.004 C 
ENDBRANCH   6   7
ENDBRANCH   1   6
TORSDOF 4
ENDMDL
MODEL 7
REMARK VINA RESULT:    -3.858      2.036      2.400
REMARK INTER + INTRA:          -4.860
REMARK INTER:                  -4.791
REMARK INTRA:                  -0.069
REMARK UNBOUND:                -0.099
REMARK SMILES CCCCCC(=O)[O-]
REMARK SMILES IDX 4 1 5 2 6 3 7 4 8 5 3 6 2 7 1 8
REMARK H PARENT
REMARK Flexibility Score: inf
ROOT
ATOM      1  C   UNL     1       8.319  54.588  21.913  1.00  0.00     0.006 C 
ENDROOT
BRANCH   1   2
ATOM      2  C   UNL     1       7.867  56.045  21.752  1.00  0.00     0.053 C 
BRANCH   2   3
ATOM      3  C   UNL     1       6.438  56.197  22.168  1.00  0.00     0.041 C 
ATOM      4  O   UNL     1       5.895  57.334  22.168  1.00  0.00    -0.550 OA
ATOM      5  O   UNL     1       5.718  55.091  22.603  1.00  0.00    -0.550 OA
ENDBRANCH   2   3
ENDBRANCH   1   2
BRANCH   1   6
ATOM      6  C   UNL     1       9.078  54.345  23.227  1.00  0.00     0.000 C 
BRANCH   6   7
ATOM      7  C   UNL     1      10.369  53.538  23.022  1.00  0.00    -0.003 C 
ATOM      8  C   UNL     1      10.154  52.065  23.360  1.00  0.00     0.004 C 
ENDBRANCH   6   7
ENDBRANCH   1   6
TORSDOF 4
ENDMDL
MODEL 8
REMARK VINA RESULT:    -3.829      1.511      1.997
REMARK INTER + INTRA:          -4.824
REMARK INTER:                  -4.738
REMARK INTRA:                  -0.086
REMARK UNBOUND:                -0.099
REMARK SMILES CCCCCC(=O)[O-]
REMARK SMILES IDX 4 1 5 2 6 3 7 4 8 5 3 6 2 7 1 8
REMARK H PARENT
REMARK Flexibility Score: inf
ROOT
ATOM      1  C   UNL     1       8.746  54.689  22.601  1.00  0.00     0.006 C 
ENDROOT
BRANCH   1   2
ATOM      2  C   UNL     1       8.017  55.836  21.888  1.00  0.00     0.053 C 
BRANCH   2   3
ATOM      3  C   UNL     1       6.574  55.861  22.283  1.00  0.00     0.041 C 
ATOM      4  O   UNL     1       5.929  54.785  22.398  1.00  0.00    -0.550 OA
ATOM      5  O   UNL     1       5.927  57.075  22.479  1.00  0.00    -0.550 OA
ENDBRANCH   2   3
ENDBRANCH   1   2
BRANCH   1   6
ATOM      6  C   UNL     1       9.063  55.013  24.069  1.00  0.00     0.000 C 
BRANCH   6   7
ATOM      7  C   UNL     1      10.227  54.174  24.620  1.00  0.00    -0.003 C 
ATOM      8  C   UNL     1      10.695  54.706  25.972  1.00  0.00     0.004 C 
ENDBRANCH   6   7
ENDBRANCH   1   6
TORSDOF 4
ENDMDL
MODEL 9
REMARK VINA RESULT:    -3.813      2.572      4.310
REMARK INTER + INTRA:          -4.804
REMARK INTER:                  -4.680
REMARK INTRA:                  -0.124
REMARK UNBOUND:                -0.099
REMARK SMILES CCCCCC(=O)[O-]
REMARK SMILES IDX 4 1 5 2 6 3 7 4 8 5 3 6 2 7 1 8
REMARK H PARENT
REMARK Flexibility Score: inf
ROOT
ATOM      1  C   UNL     1       8.018  54.122  22.133  1.00  0.00     0.006 C 
ENDROOT
BRANCH   1   2
ATOM      2  C   UNL     1       8.796  54.763  23.290  1.00  0.00     0.053 C 
BRANCH   2   3
ATOM      3  C   UNL     1      10.016  53.957  23.609  1.00  0.00     0.041 C 
ATOM      4  O   UNL     1      10.480  53.149  22.762  1.00  0.00    -0.550 OA
ATOM      5  O   UNL     1      10.612  54.062  24.859  1.00  0.00    -0.550 OA
ENDBRANCH   2   3
ENDBRANCH   1   2
BRANCH   1   6
ATOM      6  C   UNL     1       7.511  55.157  21.116  1.00  0.00     0.000 C 
BRANCH   6   7
ATOM      7  C   UNL     1       7.550  56.591  21.665  1.00  0.00    -0.003 C 
ATOM      8  C   UNL     1       6.165  57.042  22.121  1.00  0.00     0.004 C 
ENDBRANCH   6   7
ENDBRANCH   1   6
TORSDOF 4
ENDMDL
