MODEL 1
REMARK VINA RESULT:    -3.825      0.000      0.000
REMARK INTER + INTRA:          -4.390
REMARK INTER:                  -4.161
REMARK INTRA:                  -0.229
REMARK UNBOUND:                -0.229
REMARK SMILES O=C([O-])c1ccccc1O
REMARK SMILES IDX 4 1 9 2 5 3 8 4 6 5 7 6 2 7 1 8 3 9 10 10
REMARK H PARENT 10 11
REMARK Flexibility Score: inf
ROOT
ATOM      1  C   UNL     1      42.643 183.130 173.275  1.00  0.00     0.039 A 
ATOM      2  C   UNL     1      41.575 182.721 172.442  1.00  0.00     0.124 A 
ATOM      3  C   UNL     1      42.770 184.497 173.594  1.00  0.00     0.014 A 
ATOM      4  C   UNL     1      40.666 183.672 171.952  1.00  0.00     0.047 A 
ATOM      5  C   UNL     1      41.858 185.432 173.098  1.00  0.00     0.001 A 
ATOM      6  C   UNL     1      40.808 185.020 172.278  1.00  0.00     0.004 A 
ENDROOT
BRANCH   1   7
ATOM      7  C   UNL     1      43.628 182.158 173.816  1.00  0.00     0.075 C 
ATOM      8  O   UNL     1      44.807 182.523 174.069  1.00  0.00    -0.545 OA
ATOM      9  O   UNL     1      43.275 180.836 174.056  1.00  0.00    -0.545 OA
ENDBRANCH   1   7
BRANCH   2  10
ATOM     10  O   UNL     1      41.410 181.379 172.100  1.00  0.00    -0.507 OA
ATOM     11  H   UNL     1      41.182 181.094 171.154  1.00  0.00     0.293 HD
ENDBRANCH   2  10
TORSDOF 2
ENDMDL
MODEL 2
REMARK VINA RESULT:    -3.788      2.819      4.270
REMARK INTER + INTRA:          -4.349
REMARK INTER:                  -4.095
REMARK INTRA:                  -0.255
REMARK UNBOUND:                -0.229
REMARK SMILES O=C([O-])c1ccccc1O
REMARK SMILES IDX 4 1 9 2 5 3 8 4 6 5 7 6 2 7 1 8 3 9 10 10
REMARK H PARENT 10 11
REMARK Flexibility Score: inf
ROOT
ATOM      1  C   UNL     1      41.139 184.042 172.116  1.00  0.00     0.039 A 
ATOM      2  C   UNL     1      41.742 184.957 173.011  1.00  0.00     0.124 A 
ATOM      3  C   UNL     1      41.603 182.712 172.090  1.00  0.00     0.014 A 
ATOM      4  C   UNL     1      42.781 184.530 173.853  1.00  0.00     0.047 A 
ATOM      5  C   UNL     1      42.638 182.301 172.934  1.00  0.00     0.001 A 
ATOM      6  C   UNL     1      43.226 183.209 173.814  1.00  0.00     0.004 A 
ENDROOT
BRANCH   1   7
ATOM      7  C   UNL     1      40.037 184.451 171.206  1.00  0.00     0.075 C 
ATOM      8  O   UNL     1      40.064 184.126 169.989  1.00  0.00    -0.545 OA
ATOM      9  O   UNL     1      38.959 185.193 171.673  1.00  0.00    -0.545 OA
ENDBRANCH   1   7
BRANCH   2  10
ATOM     10  O   UNL     1      41.317 186.283 173.071  1.00  0.00    -0.507 OA
ATOM     11  H   UNL     1      41.425 186.914 172.284  1.00  0.00     0.293 HD
ENDBRANCH   2  10
TORSDOF 2
ENDMDL
MODEL 3
REMARK VINA RESULT:    -3.766      2.796      4.240
REMARK INTER + INTRA:          -4.326
REMARK INTER:                  -4.076
REMARK INTRA:                  -0.250
REMARK UNBOUND:                -0.229
REMARK SMILES O=C([O-])c1ccccc1O
REMARK SMILES IDX 4 1 9 2 5 3 8 4 6 5 7 6 2 7 1 8 3 9 10 10
REMARK H PARENT 10 11
REMARK Flexibility Score: inf
ROOT
ATOM      1  C   UNL     1      41.158 184.006 172.198  1.00  0.00     0.039 A 
ATOM      2  C   UNL     1      41.744 184.896 173.130  1.00  0.00     0.124 A 
ATOM      3  C   UNL     1      41.636 182.683 172.132  1.00  0.00     0.014 A 
ATOM      4  C   UNL     1      42.781 184.452 173.965  1.00  0.00     0.047 A 
ATOM      5  C   UNL     1      42.668 182.254 172.969  1.00  0.00     0.001 A 
ATOM      6  C   UNL     1      43.240 183.137 173.884  1.00  0.00     0.004 A 
ENDROOT
BRANCH   1   7
ATOM      7  C   UNL     1      40.058 184.434 171.295  1.00  0.00     0.075 C 
ATOM      8  O   UNL     1      39.073 185.073 171.751  1.00  0.00    -0.545 OA
ATOM      9  O   UNL     1      40.090 184.144 169.936  1.00  0.00    -0.545 OA
ENDBRANCH   1   7
BRANCH   2  10
ATOM     10  O   UNL     1      41.304 186.216 173.231  1.00  0.00    -0.507 OA
ATOM     11  H   UNL     1      40.394 186.446 173.615  1.00  0.00     0.293 HD
ENDBRANCH   2  10
TORSDOF 2
ENDMDL
MODEL 4
REMARK VINA RESULT:    -3.719     22.175     22.677
REMARK INTER + INTRA:          -4.274
REMARK INTER:                  -4.020
REMARK INTRA:                  -0.254
REMARK UNBOUND:                -0.229
REMARK SMILES O=C([O-])c1ccccc1O
REMARK SMILES IDX 4 1 9 2 5 3 8 4 6 5 7 6 2 7 1 8 3 9 10 10
REMARK H PARENT 10 11
REMARK Flexibility Score: inf
ROOT
ATOM      1  C   UNL     1      32.927 169.710 157.697  1.00  0.00     0.039 A 
ATOM      2  C   UNL     1      34.030 168.888 158.031  1.00  0.00     0.124 A 
ATOM      3  C   UNL     1      33.003 170.508 156.538  1.00  0.00     0.014 A 
ATOM      4  C   UNL     1      35.169 168.878 157.211  1.00  0.00     0.047 A 
ATOM      5  C   UNL     1      34.143 170.488 155.731  1.00  0.00     0.001 A 
ATOM      6  C   UNL     1      35.224 169.674 156.067  1.00  0.00     0.004 A 
ENDROOT
BRANCH   1   7
ATOM      7  C   UNL     1      31.702 169.752 158.536  1.00  0.00     0.075 C 
ATOM      8  O   UNL     1      30.565 169.624 158.008  1.00  0.00    -0.545 OA
ATOM      9  O   UNL     1      31.779 169.931 159.912  1.00  0.00    -0.545 OA
ENDBRANCH   1   7
BRANCH   2  10
ATOM     10  O   UNL     1      34.001 168.082 159.169  1.00  0.00    -0.507 OA
ATOM     11  H   UNL     1      33.826 168.467 160.091  1.00  0.00     0.293 HD
ENDBRANCH   2  10
TORSDOF 2
ENDMDL
MODEL 5
REMARK VINA RESULT:    -3.607      1.600      2.913
REMARK INTER + INTRA:          -4.153
REMARK INTER:                  -3.899
REMARK INTRA:                  -0.254
REMARK UNBOUND:                -0.229
REMARK SMILES O=C([O-])c1ccccc1O
REMARK SMILES IDX 4 1 9 2 5 3 8 4 6 5 7 6 2 7 1 8 3 9 10 10
REMARK H PARENT 10 11
REMARK Flexibility Score: inf
ROOT
ATOM      1  C   UNL     1      41.317 183.997 172.490  1.00  0.00     0.039 A 
ATOM      2  C   UNL     1      41.720 185.156 173.196  1.00  0.00     0.124 A 
ATOM      3  C   UNL     1      40.080 184.010 171.815  1.00  0.00     0.014 A 
ATOM      4  C   UNL     1      40.891 186.289 173.212  1.00  0.00     0.047 A 
ATOM      5  C   UNL     1      39.266 185.145 171.839  1.00  0.00     0.001 A 
ATOM      6  C   UNL     1      39.671 186.282 172.537  1.00  0.00     0.004 A 
ENDROOT
BRANCH   1   7
ATOM      7  C   UNL     1      42.162 182.776 172.447  1.00  0.00     0.075 C 
ATOM      8  O   UNL     1      41.659 181.646 172.690  1.00  0.00    -0.545 OA
ATOM      9  O   UNL     1      43.515 182.849 172.138  1.00  0.00    -0.545 OA
ENDBRANCH   1   7
BRANCH   2  10
ATOM     10  O   UNL     1      42.935 185.189 173.879  1.00  0.00    -0.507 OA
ATOM     11  H   UNL     1      43.327 184.359 174.311  1.00  0.00     0.293 HD
ENDBRANCH   2  10
TORSDOF 2
ENDMDL
MODEL 6
REMARK VINA RESULT:    -3.597      3.389      4.966
REMARK INTER + INTRA:          -4.141
REMARK INTER:                  -3.891
REMARK INTRA:                  -0.250
REMARK UNBOUND:                -0.229
REMARK SMILES O=C([O-])c1ccccc1O
REMARK SMILES IDX 4 1 9 2 5 3 8 4 6 5 7 6 2 7 1 8 3 9 10 10
REMARK H PARENT 10 11
REMARK Flexibility Score: inf
ROOT
ATOM      1  C   UNL     1      39.073 184.678 171.571  1.00  0.00     0.039 A 
ATOM      2  C   UNL     1      40.322 184.312 171.014  1.00  0.00     0.124 A 
ATOM      3  C   UNL     1      39.013 185.016 172.937  1.00  0.00     0.014 A 
ATOM      4  C   UNL     1      41.469 184.292 171.823  1.00  0.00     0.047 A 
ATOM      5  C   UNL     1      40.163 184.992 173.730  1.00  0.00     0.001 A 
ATOM      6  C   UNL     1      41.389 184.630 173.173  1.00  0.00     0.004 A 
ENDROOT
BRANCH   1   7
ATOM      7  C   UNL     1      37.834 184.712 170.752  1.00  0.00     0.075 C 
ATOM      8  O   UNL     1      37.830 185.282 169.628  1.00  0.00    -0.545 OA
ATOM      9  O   UNL     1      36.659 184.121 171.201  1.00  0.00    -0.545 OA
ENDBRANCH   1   7
BRANCH   2  10
ATOM     10  O   UNL     1      40.431 183.970 169.667  1.00  0.00    -0.507 OA
ATOM     11  H   UNL     1      40.945 184.547 169.010  1.00  0.00     0.293 HD
ENDBRANCH   2  10
TORSDOF 2
ENDMDL
MODEL 7
REMARK VINA RESULT:    -3.561      2.804      3.846
REMARK INTER + INTRA:          -4.102
REMARK INTER:                  -3.847
REMARK INTRA:                  -0.255
REMARK UNBOUND:                -0.229
REMARK SMILES O=C([O-])c1ccccc1O
REMARK SMILES IDX 4 1 9 2 5 3 8 4 6 5 7 6 2 7 1 8 3 9 10 10
REMARK H PARENT 10 11
REMARK Flexibility Score: inf
ROOT
ATOM      1  C   UNL     1      41.163 184.880 172.865  1.00  0.00     0.039 A 
ATOM      2  C   UNL     1      40.842 183.771 172.046  1.00  0.00     0.124 A 
ATOM      3  C   UNL     1      42.321 184.820 173.665  1.00  0.00     0.014 A 
ATOM      4  C   UNL     1      41.673 182.640 172.043  1.00  0.00     0.047 A 
ATOM      5  C   UNL     1      43.140 183.687 173.652  1.00  0.00     0.001 A 
ATOM      6  C   UNL     1      42.816 182.600 172.842  1.00  0.00     0.004 A 
ENDROOT
BRANCH   1   7
ATOM      7  C   UNL     1      40.312 186.098 172.900  1.00  0.00     0.075 C 
ATOM      8  O   UNL     1      40.835 187.241 172.828  1.00  0.00    -0.545 OA
ATOM      9  O   UNL     1      38.930 186.005 173.010  1.00  0.00    -0.545 OA
ENDBRANCH   1   7
BRANCH   2  10
ATOM     10  O   UNL     1      39.706 183.786 171.238  1.00  0.00    -0.507 OA
ATOM     11  H   UNL     1      39.002 183.059 171.295  1.00  0.00     0.293 HD
ENDBRANCH   2  10
TORSDOF 2
ENDMDL
MODEL 8
REMARK VINA RESULT:    -3.531      1.777      3.532
REMARK INTER + INTRA:          -4.070
REMARK INTER:                  -3.914
REMARK INTRA:                  -0.156
REMARK UNBOUND:                -0.229
REMARK SMILES O=C([O-])c1ccccc1O
REMARK SMILES IDX 4 1 9 2 5 3 8 4 6 5 7 6 2 7 1 8 3 9 10 10
REMARK H PARENT 10 11
REMARK Flexibility Score: inf
ROOT
ATOM      1  C   UNL     1      41.146 183.779 172.394  1.00  0.00     0.039 A 
ATOM      2  C   UNL     1      41.737 182.508 172.584  1.00  0.00     0.124 A 
ATOM      3  C   UNL     1      41.678 184.885 173.087  1.00  0.00     0.014 A 
ATOM      4  C   UNL     1      42.834 182.368 173.448  1.00  0.00     0.047 A 
ATOM      5  C   UNL     1      42.770 184.731 173.944  1.00  0.00     0.001 A 
ATOM      6  C   UNL     1      43.346 183.475 174.125  1.00  0.00     0.004 A 
ENDROOT
BRANCH   1   7
ATOM      7  C   UNL     1      39.983 183.973 171.489  1.00  0.00     0.075 C 
ATOM      8  O   UNL     1      40.147 183.991 170.240  1.00  0.00    -0.545 OA
ATOM      9  O   UNL     1      38.699 184.135 171.993  1.00  0.00    -0.545 OA
ENDBRANCH   1   7
BRANCH   2  10
ATOM     10  O   UNL     1      41.244 181.385 171.920  1.00  0.00    -0.507 OA
ATOM     11  H   UNL     1      41.761 180.939 171.169  1.00  0.00     0.293 HD
ENDBRANCH   2  10
TORSDOF 2
ENDMDL
MODEL 9
REMARK VINA RESULT:    -3.428      2.357      2.943
REMARK INTER + INTRA:          -3.958
REMARK INTER:                  -3.708
REMARK INTRA:                  -0.250
REMARK UNBOUND:                -0.229
REMARK SMILES O=C([O-])c1ccccc1O
REMARK SMILES IDX 4 1 9 2 5 3 8 4 6 5 7 6 2 7 1 8 3 9 10 10
REMARK H PARENT 10 11
REMARK Flexibility Score: inf
ROOT
ATOM      1  C   UNL     1      40.616 184.389 172.717  1.00  0.00     0.039 A 
ATOM      2  C   UNL     1      39.996 184.206 171.458  1.00  0.00     0.124 A 
ATOM      3  C   UNL     1      39.806 184.660 173.838  1.00  0.00     0.014 A 
ATOM      4  C   UNL     1      38.600 184.296 171.345  1.00  0.00     0.047 A 
ATOM      5  C   UNL     1      38.418 184.747 173.711  1.00  0.00     0.001 A 
ATOM      6  C   UNL     1      37.816 184.566 172.466  1.00  0.00     0.004 A 
ENDROOT
BRANCH   1   7
ATOM      7  C   UNL     1      42.090 184.302 172.882  1.00  0.00     0.075 C 
ATOM      8  O   UNL     1      42.692 185.103 173.646  1.00  0.00    -0.545 OA
ATOM      9  O   UNL     1      42.834 183.343 172.206  1.00  0.00    -0.545 OA
ENDBRANCH   1   7
BRANCH   2  10
ATOM     10  O   UNL     1      40.757 183.935 170.320  1.00  0.00    -0.507 OA
ATOM     11  H   UNL     1      41.373 184.630 169.913  1.00  0.00     0.293 HD
ENDBRANCH   2  10
TORSDOF 2
ENDMDL
