MODEL 1
REMARK VINA RESULT:    -6.826      0.000      0.000
REMARK INTER + INTRA:         -10.870
REMARK INTER:                  -9.220
REMARK INTRA:                  -1.650
REMARK UNBOUND:                -1.650
REMARK SMILES CC[C@@H](CC[C@H](C)[C@H]1CC[C@H]2[C@H]3CC(=O)C4=CC(=O)CC[C@@]4(C)[C@H]3CC[C@@]12C)C(C)C
REMARK SMILES IDX 4 1 3 2 2 3 1 4 29 5 30 6 31 7 5 8 6 9 7 10 8 11 9 12 27 13
REMARK SMILES IDX 10 14 11 15 26 16 28 17 12 18 25 19 24 20 13 21 22 22 14 23
REMARK SMILES IDX 16 24 21 25 23 26 15 27 17 28 20 29 18 30 19 31
REMARK H PARENT
REMARK Flexibility Score: inf
ROOT
ATOM      1  C   UNL     1     198.735 211.192 215.823  1.00  0.00     0.004 C 
ENDROOT
BRANCH   1   2
ATOM      2  C   UNL     1     197.319 211.695 215.421  1.00  0.00    -0.009 C 
BRANCH   2   3
ATOM      3  C   UNL     1     197.095 211.536 213.890  1.00  0.00     0.000 C 
ATOM      4  C   UNL     1     198.220 210.783 213.175  1.00  0.00     0.004 C 
ENDBRANCH   2   3
BRANCH   2   5
ATOM      5  C   UNL     1     197.050 213.160 215.915  1.00  0.00    -0.014 C 
ATOM      6  C   UNL     1     196.541 214.097 214.806  1.00  0.00     0.007 C 
ATOM      7  C   UNL     1     198.281 213.772 216.606  1.00  0.00     0.007 C 
ENDBRANCH   2   5
ENDBRANCH   1   2
BRANCH   1   8
ATOM      8  C   UNL     1     198.706 210.091 216.907  1.00  0.00     0.004 C 
BRANCH   8   9
ATOM      9  C   UNL     1     198.103 208.738 216.437  1.00  0.00    -0.011 C 
ATOM     10  C   UNL     1     197.005 208.280 217.422  1.00  0.00     0.008 C 
BRANCH   9  11
ATOM     11  C   UNL     1     199.155 207.596 216.187  1.00  0.00    -0.002 C 
ATOM     12  C   UNL     1     198.799 206.335 216.982  1.00  0.00     0.005 C 
ATOM     13  C   UNL     1     199.434 207.093 214.723  1.00  0.00    -0.026 C 
ATOM     14  C   UNL     1     199.465 205.155 216.293  1.00  0.00     0.005 C 
ATOM     15  C   UNL     1     200.009 205.659 214.949  1.00  0.00    -0.001 C 
ATOM     16  C   UNL     1     198.170 207.065 213.790  1.00  0.00     0.007 C 
ATOM     17  C   UNL     1     200.528 207.953 214.036  1.00  0.00     0.012 C 
ATOM     18  C   UNL     1     199.779 204.678 213.758  1.00  0.00     0.004 C 
ATOM     19  C   UNL     1     197.413 205.735 213.823  1.00  0.00     0.005 C 
ATOM     20  C   UNL     1     198.285 204.593 213.246  1.00  0.00     0.003 C 
ATOM     21  C   UNL     1     200.499 203.334 213.986  1.00  0.00     0.085 C 
ATOM     22  C   UNL     1     197.553 203.170 213.198  1.00  0.00    -0.000 C 
ATOM     23  C   UNL     1     199.969 202.290 213.076  1.00  0.00     0.159 C 
ATOM     24  C   UNL     1     198.542 202.008 213.171  1.00  0.00     0.005 C 
ATOM     25  C   UNL     1     196.581 202.938 214.397  1.00  0.00     0.020 C 
ATOM     26  C   UNL     1     196.734 203.108 211.875  1.00  0.00     0.017 C 
ATOM     27  O   UNL     1     200.733 201.605 212.345  1.00  0.00    -0.295 OA
ATOM     28  C   UNL     1     198.151 200.748 213.425  1.00  0.00     0.055 C 
ATOM     29  C   UNL     1     195.875 201.566 214.352  1.00  0.00     0.081 C 
ATOM     30  C   UNL     1     196.804 200.459 213.940  1.00  0.00     0.156 C 
ATOM     31  O   UNL     1     196.432 199.262 214.061  1.00  0.00    -0.295 OA
ENDBRANCH   9  11
ENDBRANCH   8   9
ENDBRANCH   1   8
TORSDOF 6
ENDMDL
MODEL 2
REMARK VINA RESULT:    -6.301     14.196     18.115
REMARK INTER + INTRA:         -10.161
REMARK INTER:                  -8.901
REMARK INTRA:                  -1.260
REMARK UNBOUND:                -1.650
REMARK SMILES CC[C@@H](CC[C@H](C)[C@H]1CC[C@H]2[C@H]3CC(=O)C4=CC(=O)CC[C@@]4(C)[C@H]3CC[C@@]12C)C(C)C
REMARK SMILES IDX 4 1 3 2 2 3 1 4 29 5 30 6 31 7 5 8 6 9 7 10 8 11 9 12 27 13
REMARK SMILES IDX 10 14 11 15 26 16 28 17 12 18 25 19 24 20 13 21 22 22 14 23
REMARK SMILES IDX 16 24 21 25 23 26 15 27 17 28 20 29 18 30 19 31
REMARK H PARENT
REMARK Flexibility Score: inf
ROOT
ATOM      1  C   UNL     1     215.071 201.061 216.425  1.00  0.00     0.004 C 
ENDROOT
BRANCH   1   2
ATOM      2  C   UNL     1     214.699 199.994 215.356  1.00  0.00    -0.009 C 
BRANCH   2   3
ATOM      3  C   UNL     1     215.146 198.577 215.819  1.00  0.00     0.000 C 
ATOM      4  C   UNL     1     214.624 198.185 217.204  1.00  0.00     0.004 C 
ENDBRANCH   2   3
BRANCH   2   5
ATOM      5  C   UNL     1     215.254 200.361 213.936  1.00  0.00    -0.014 C 
ATOM      6  C   UNL     1     214.267 201.176 213.083  1.00  0.00     0.007 C 
ATOM      7  C   UNL     1     215.725 199.118 213.161  1.00  0.00     0.007 C 
ENDBRANCH   2   5
ENDBRANCH   1   2
BRANCH   1   8
ATOM      8  C   UNL     1     213.987 202.148 216.604  1.00  0.00     0.004 C 
BRANCH   8   9
ATOM      9  C   UNL     1     214.476 203.598 216.338  1.00  0.00    -0.011 C 
ATOM     10  C   UNL     1     215.375 204.072 217.502  1.00  0.00     0.008 C 
BRANCH   9  11
ATOM     11  C   UNL     1     213.335 204.637 216.041  1.00  0.00    -0.002 C 
ATOM     12  C   UNL     1     213.531 205.920 216.858  1.00  0.00     0.005 C 
ATOM     13  C   UNL     1     213.083 205.125 214.567  1.00  0.00    -0.026 C 
ATOM     14  C   UNL     1     212.791 207.037 216.141  1.00  0.00     0.005 C 
ATOM     15  C   UNL     1     212.365 206.497 214.770  1.00  0.00    -0.001 C 
ATOM     16  C   UNL     1     214.383 205.281 213.698  1.00  0.00     0.007 C 
ATOM     17  C   UNL     1     212.110 204.173 213.822  1.00  0.00     0.012 C 
ATOM     18  C   UNL     1     212.559 207.505 213.596  1.00  0.00     0.004 C 
ATOM     19  C   UNL     1     215.008 206.676 213.775  1.00  0.00     0.005 C 
ATOM     20  C   UNL     1     214.062 207.736 213.160  1.00  0.00     0.003 C 
ATOM     21  C   UNL     1     211.706 208.774 213.793  1.00  0.00     0.085 C 
ATOM     22  C   UNL     1     214.658 209.222 213.155  1.00  0.00    -0.000 C 
ATOM     23  C   UNL     1     212.179 209.871 212.916  1.00  0.00     0.159 C 
ATOM     24  C   UNL     1     213.566 210.286 213.083  1.00  0.00     0.005 C 
ATOM     25  C   UNL     1     215.543 209.534 214.403  1.00  0.00     0.020 C 
ATOM     26  C   UNL     1     215.532 209.373 211.875  1.00  0.00     0.017 C 
ATOM     27  O   UNL     1     211.390 210.488 212.150  1.00  0.00    -0.295 OA
ATOM     28  C   UNL     1     213.823 211.575 213.362  1.00  0.00     0.055 C 
ATOM     29  C   UNL     1     216.117 210.966 214.398  1.00  0.00     0.081 C 
ATOM     30  C   UNL     1     215.110 211.985 213.945  1.00  0.00     0.156 C 
ATOM     31  O   UNL     1     215.360 213.210 214.090  1.00  0.00    -0.295 OA
ENDBRANCH   9  11
ENDBRANCH   8   9
ENDBRANCH   1   8
TORSDOF 6
ENDMDL
MODEL 3
REMARK VINA RESULT:    -5.753      3.294      9.213
REMARK INTER + INTRA:          -9.422
REMARK INTER:                  -8.242
REMARK INTRA:                  -1.180
REMARK UNBOUND:                -1.650
REMARK SMILES CC[C@@H](CC[C@H](C)[C@H]1CC[C@H]2[C@H]3CC(=O)C4=CC(=O)CC[C@@]4(C)[C@H]3CC[C@@]12C)C(C)C
REMARK SMILES IDX 4 1 3 2 2 3 1 4 29 5 30 6 31 7 5 8 6 9 7 10 8 11 9 12 27 13
REMARK SMILES IDX 10 14 11 15 26 16 28 17 12 18 25 19 24 20 13 21 22 22 14 23
REMARK SMILES IDX 16 24 21 25 23 26 15 27 17 28 20 29 18 30 19 31
REMARK H PARENT
REMARK Flexibility Score: inf
ROOT
ATOM      1  C   UNL     1     200.038 199.735 213.420  1.00  0.00     0.004 C 
ENDROOT
BRANCH   1   2
ATOM      2  C   UNL     1     200.552 198.341 212.958  1.00  0.00    -0.009 C 
BRANCH   2   3
ATOM      3  C   UNL     1     199.437 197.267 213.115  1.00  0.00     0.000 C 
ATOM      4  C   UNL     1     199.912 195.977 213.790  1.00  0.00     0.004 C 
ENDBRANCH   2   3
BRANCH   2   5
ATOM      5  C   UNL     1     201.882 197.932 213.682  1.00  0.00    -0.014 C 
ATOM      6  C   UNL     1     202.236 198.837 214.875  1.00  0.00     0.007 C 
ATOM      7  C   UNL     1     203.069 197.851 212.706  1.00  0.00     0.007 C 
ENDBRANCH   2   5
ENDBRANCH   1   2
BRANCH   1   8
ATOM      8  C   UNL     1     198.579 200.017 212.997  1.00  0.00     0.004 C 
BRANCH   8   9
ATOM      9  C   UNL     1     197.933 201.249 213.687  1.00  0.00    -0.011 C 
ATOM     10  C   UNL     1     196.488 200.914 214.120  1.00  0.00     0.008 C 
BRANCH   9  11
ATOM     11  C   UNL     1     197.981 202.579 212.849  1.00  0.00    -0.002 C 
ATOM     12  C   UNL     1     196.795 203.488 213.189  1.00  0.00     0.005 C 
ATOM     13  C   UNL     1     199.247 203.509 212.927  1.00  0.00    -0.026 C 
ATOM     14  C   UNL     1     197.185 204.909 212.817  1.00  0.00     0.005 C 
ATOM     15  C   UNL     1     198.685 204.901 212.493  1.00  0.00    -0.001 C 
ATOM     16  C   UNL     1     199.921 203.579 214.344  1.00  0.00     0.007 C 
ATOM     17  C   UNL     1     200.322 203.077 211.895  1.00  0.00     0.012 C 
ATOM     18  C   UNL     1     199.471 206.120 213.068  1.00  0.00     0.004 C 
ATOM     19  C   UNL     1     199.368 204.696 215.232  1.00  0.00     0.005 C 
ATOM     20  C   UNL     1     199.697 206.086 214.633  1.00  0.00     0.003 C 
ATOM     21  C   UNL     1     198.957 207.450 212.483  1.00  0.00     0.085 C 
ATOM     22  C   UNL     1     199.195 207.319 215.524  1.00  0.00    -0.000 C 
ATOM     23  C   UNL     1     199.412 208.599 213.302  1.00  0.00     0.159 C 
ATOM     24  C   UNL     1     199.018 208.594 214.705  1.00  0.00     0.005 C 
ATOM     25  C   UNL     1     197.848 207.037 216.261  1.00  0.00     0.020 C 
ATOM     26  C   UNL     1     200.294 207.605 216.589  1.00  0.00     0.017 C 
ATOM     27  O   UNL     1     200.007 209.581 212.784  1.00  0.00    -0.295 OA
ATOM     28  C   UNL     1     198.335 209.647 215.185  1.00  0.00     0.055 C 
ATOM     29  C   UNL     1     197.364 208.224 217.119  1.00  0.00     0.081 C 
ATOM     30  C   UNL     1     197.556 209.545 216.429  1.00  0.00     0.156 C 
ATOM     31  O   UNL     1     197.021 210.578 216.909  1.00  0.00    -0.295 OA
ENDBRANCH   9  11
ENDBRANCH   8   9
ENDBRANCH   1   8
TORSDOF 6
ENDMDL
MODEL 4
REMARK VINA RESULT:    -5.650     13.262     15.404
REMARK INTER + INTRA:          -9.283
REMARK INTER:                  -7.760
REMARK INTRA:                  -1.523
REMARK UNBOUND:                -1.650
REMARK SMILES CC[C@@H](CC[C@H](C)[C@H]1CC[C@H]2[C@H]3CC(=O)C4=CC(=O)CC[C@@]4(C)[C@H]3CC[C@@]12C)C(C)C
REMARK SMILES IDX 4 1 3 2 2 3 1 4 29 5 30 6 31 7 5 8 6 9 7 10 8 11 9 12 27 13
REMARK SMILES IDX 10 14 11 15 26 16 28 17 12 18 25 19 24 20 13 21 22 22 14 23
REMARK SMILES IDX 16 24 21 25 23 26 15 27 17 28 20 29 18 30 19 31
REMARK H PARENT
REMARK Flexibility Score: inf
ROOT
ATOM      1  C   UNL     1     212.623 212.806 213.620  1.00  0.00     0.004 C 
ENDROOT
BRANCH   1   2
ATOM      2  C   UNL     1     211.672 213.362 212.521  1.00  0.00    -0.009 C 
BRANCH   2   3
ATOM      3  C   UNL     1     211.649 214.917 212.553  1.00  0.00     0.000 C 
ATOM      4  C   UNL     1     212.359 215.522 213.767  1.00  0.00     0.004 C 
ENDBRANCH   2   3
BRANCH   2   5
ATOM      5  C   UNL     1     210.235 212.741 212.614  1.00  0.00    -0.014 C 
ATOM      6  C   UNL     1     209.109 213.756 212.350  1.00  0.00     0.007 C 
ATOM      7  C   UNL     1     210.001 212.025 213.956  1.00  0.00     0.007 C 
ENDBRANCH   2   5
ENDBRANCH   1   2
BRANCH   1   8
ATOM      8  C   UNL     1     214.012 212.402 213.076  1.00  0.00     0.004 C 
BRANCH   8   9
ATOM      9  C   UNL     1     214.629 211.146 213.751  1.00  0.00    -0.011 C 
ATOM     10  C   UNL     1     216.084 211.440 214.180  1.00  0.00     0.008 C 
BRANCH   9  11
ATOM     11  C   UNL     1     214.543 209.827 212.901  1.00  0.00    -0.002 C 
ATOM     12  C   UNL     1     215.688 208.870 213.249  1.00  0.00     0.005 C 
ATOM     13  C   UNL     1     213.241 208.945 212.951  1.00  0.00    -0.026 C 
ATOM     14  C   UNL     1     215.249 207.468 212.859  1.00  0.00     0.005 C 
ATOM     15  C   UNL     1     213.756 207.537 212.513  1.00  0.00    -0.001 C 
ATOM     16  C   UNL     1     212.544 208.890 214.358  1.00  0.00     0.007 C 
ATOM     17  C   UNL     1     212.199 209.428 211.908  1.00  0.00     0.012 C 
ATOM     18  C   UNL     1     212.915 206.344 213.066  1.00  0.00     0.004 C 
ATOM     19  C   UNL     1     213.040 207.744 215.244  1.00  0.00     0.005 C 
ATOM     20  C   UNL     1     212.667 206.373 214.627  1.00  0.00     0.003 C 
ATOM     21  C   UNL     1     213.386 205.000 212.476  1.00  0.00     0.085 C 
ATOM     22  C   UNL     1     213.108 205.115 215.515  1.00  0.00    -0.000 C 
ATOM     23  C   UNL     1     212.875 203.863 213.278  1.00  0.00     0.159 C 
ATOM     24  C   UNL     1     213.248 203.840 214.688  1.00  0.00     0.005 C 
ATOM     25  C   UNL     1     214.454 205.339 216.274  1.00  0.00     0.020 C 
ATOM     26  C   UNL     1     211.983 204.862 216.561  1.00  0.00     0.017 C 
ATOM     27  O   UNL     1     212.250 202.908 212.743  1.00  0.00    -0.295 OA
ATOM     28  C   UNL     1     213.883 202.758 215.168  1.00  0.00     0.055 C 
ATOM     29  C   UNL     1     214.878 204.126 217.129  1.00  0.00     0.081 C 
ATOM     30  C   UNL     1     214.646 202.820 216.423  1.00  0.00     0.156 C 
ATOM     31  O   UNL     1     215.134 201.763 216.902  1.00  0.00    -0.295 OA
ENDBRANCH   9  11
ENDBRANCH   8   9
ENDBRANCH   1   8
TORSDOF 6
ENDMDL
MODEL 5
REMARK VINA RESULT:    -5.281      3.226      9.219
REMARK INTER + INTRA:          -8.784
REMARK INTER:                  -7.368
REMARK INTRA:                  -1.416
REMARK UNBOUND:                -1.650
REMARK SMILES CC[C@@H](CC[C@H](C)[C@H]1CC[C@H]2[C@H]3CC(=O)C4=CC(=O)CC[C@@]4(C)[C@H]3CC[C@@]12C)C(C)C
REMARK SMILES IDX 4 1 3 2 2 3 1 4 29 5 30 6 31 7 5 8 6 9 7 10 8 11 9 12 27 13
REMARK SMILES IDX 10 14 11 15 26 16 28 17 12 18 25 19 24 20 13 21 22 22 14 23
REMARK SMILES IDX 16 24 21 25 23 26 15 27 17 28 20 29 18 30 19 31
REMARK H PARENT
REMARK Flexibility Score: inf
ROOT
ATOM      1  C   UNL     1     200.100 200.129 213.334  1.00  0.00     0.004 C 
ENDROOT
BRANCH   1   2
ATOM      2  C   UNL     1     199.958 198.616 213.002  1.00  0.00    -0.009 C 
BRANCH   2   3
ATOM      3  C   UNL     1     198.506 198.129 213.277  1.00  0.00     0.000 C 
ATOM      4  C   UNL     1     197.563 199.236 213.757  1.00  0.00     0.004 C 
ENDBRANCH   2   3
BRANCH   2   5
ATOM      5  C   UNL     1     201.031 197.745 213.744  1.00  0.00    -0.014 C 
ATOM      6  C   UNL     1     200.506 196.366 214.181  1.00  0.00     0.007 C 
ATOM      7  C   UNL     1     201.645 198.484 214.945  1.00  0.00     0.007 C 
ENDBRANCH   2   5
ENDBRANCH   1   2
BRANCH   1   8
ATOM      8  C   UNL     1     200.390 201.001 212.091  1.00  0.00     0.004 C 
BRANCH   8   9
ATOM      9  C   UNL     1     200.214 202.528 212.319  1.00  0.00    -0.011 C 
ATOM     10  C   UNL     1     201.534 203.263 211.996  1.00  0.00     0.008 C 
BRANCH   9  11
ATOM     11  C   UNL     1     199.673 202.927 213.740  1.00  0.00    -0.002 C 
ATOM     12  C   UNL     1     200.723 203.719 214.527  1.00  0.00     0.005 C 
ATOM     13  C   UNL     1     198.348 203.765 213.867  1.00  0.00    -0.026 C 
ATOM     14  C   UNL     1     199.989 204.532 215.581  1.00  0.00     0.005 C 
ATOM     15  C   UNL     1     198.490 204.433 215.272  1.00  0.00    -0.001 C 
ATOM     16  C   UNL     1     198.141 204.838 212.739  1.00  0.00     0.007 C 
ATOM     17  C   UNL     1     197.103 202.838 213.894  1.00  0.00     0.012 C 
ATOM     18  C   UNL     1     197.714 205.778 215.426  1.00  0.00     0.004 C 
ATOM     19  C   UNL     1     198.731 206.208 213.081  1.00  0.00     0.005 C 
ATOM     20  C   UNL     1     197.990 206.838 214.286  1.00  0.00     0.003 C 
ATOM     21  C   UNL     1     197.776 206.303 216.874  1.00  0.00     0.085 C 
ATOM     22  C   UNL     1     198.512 208.299 214.684  1.00  0.00    -0.000 C 
ATOM     23  C   UNL     1     197.396 207.735 216.934  1.00  0.00     0.159 C 
ATOM     24  C   UNL     1     198.197 208.654 216.134  1.00  0.00     0.005 C 
ATOM     25  C   UNL     1     200.049 208.482 214.473  1.00  0.00     0.020 C 
ATOM     26  C   UNL     1     197.762 209.326 213.786  1.00  0.00     0.017 C 
ATOM     27  O   UNL     1     196.505 208.147 217.723  1.00  0.00    -0.295 OA
ATOM     28  C   UNL     1     198.795 209.688 216.749  1.00  0.00     0.055 C 
ATOM     29  C   UNL     1     200.552 209.889 214.857  1.00  0.00     0.081 C 
ATOM     30  C   UNL     1     199.923 210.395 216.125  1.00  0.00     0.156 C 
ATOM     31  O   UNL     1     200.386 211.428 216.676  1.00  0.00    -0.295 OA
ENDBRANCH   9  11
ENDBRANCH   8   9
ENDBRANCH   1   8
TORSDOF 6
ENDMDL
MODEL 6
REMARK VINA RESULT:    -5.181      3.066      4.994
REMARK INTER + INTRA:          -8.648
REMARK INTER:                  -7.301
REMARK INTRA:                  -1.347
REMARK UNBOUND:                -1.650
REMARK SMILES CC[C@@H](CC[C@H](C)[C@H]1CC[C@H]2[C@H]3CC(=O)C4=CC(=O)CC[C@@]4(C)[C@H]3CC[C@@]12C)C(C)C
REMARK SMILES IDX 4 1 3 2 2 3 1 4 29 5 30 6 31 7 5 8 6 9 7 10 8 11 9 12 27 13
REMARK SMILES IDX 10 14 11 15 26 16 28 17 12 18 25 19 24 20 13 21 22 22 14 23
REMARK SMILES IDX 16 24 21 25 23 26 15 27 17 28 20 29 18 30 19 31
REMARK H PARENT
REMARK Flexibility Score: inf
ROOT
ATOM      1  C   UNL     1     199.035 207.371 214.305  1.00  0.00     0.004 C 
ENDROOT
BRANCH   1   2
ATOM      2  C   UNL     1     198.962 208.472 215.402  1.00  0.00    -0.009 C 
BRANCH   2   3
ATOM      3  C   UNL     1     200.186 209.429 215.299  1.00  0.00     0.000 C 
ATOM      4  C   UNL     1     199.822 210.855 214.879  1.00  0.00     0.004 C 
ENDBRANCH   2   3
BRANCH   2   5
ATOM      5  C   UNL     1     198.797 207.866 216.839  1.00  0.00    -0.014 C 
ATOM      6  C   UNL     1     197.696 208.548 217.670  1.00  0.00     0.007 C 
ATOM      7  C   UNL     1     200.124 207.859 217.619  1.00  0.00     0.007 C 
ENDBRANCH   2   5
ENDBRANCH   1   2
BRANCH   1   8
ATOM      8  C   UNL     1     197.955 206.278 214.467  1.00  0.00     0.004 C 
BRANCH   8   9
ATOM      9  C   UNL     1     198.385 204.868 213.975  1.00  0.00    -0.011 C 
ATOM     10  C   UNL     1     197.548 203.783 214.688  1.00  0.00     0.008 C 
BRANCH   9  11
ATOM     11  C   UNL     1     199.924 204.567 214.092  1.00  0.00    -0.002 C 
ATOM     12  C   UNL     1     200.223 203.693 215.315  1.00  0.00     0.005 C 
ATOM     13  C   UNL     1     200.680 203.876 212.899  1.00  0.00    -0.026 C 
ATOM     14  C   UNL     1     201.547 202.990 215.064  1.00  0.00     0.005 C 
ATOM     15  C   UNL     1     201.923 203.236 213.597  1.00  0.00    -0.001 C 
ATOM     16  C   UNL     1     199.837 202.798 212.127  1.00  0.00     0.007 C 
ATOM     17  C   UNL     1     201.186 204.926 211.875  1.00  0.00     0.012 C 
ATOM     18  C   UNL     1     202.498 201.984 212.865  1.00  0.00     0.004 C 
ATOM     19  C   UNL     1     199.981 201.384 212.695  1.00  0.00     0.005 C 
ATOM     20  C   UNL     1     201.431 200.868 212.519  1.00  0.00     0.003 C 
ATOM     21  C   UNL     1     203.804 201.496 213.522  1.00  0.00     0.085 C 
ATOM     22  C   UNL     1     201.662 199.373 213.045  1.00  0.00    -0.000 C 
ATOM     23  C   UNL     1     204.127 200.113 213.095  1.00  0.00     0.159 C 
ATOM     24  C   UNL     1     203.124 199.094 213.380  1.00  0.00     0.005 C 
ATOM     25  C   UNL     1     200.811 199.026 214.307  1.00  0.00     0.020 C 
ATOM     26  C   UNL     1     201.261 198.404 211.894  1.00  0.00     0.017 C 
ATOM     27  O   UNL     1     205.255 199.818 212.617  1.00  0.00    -0.295 OA
ATOM     28  C   UNL     1     203.486 198.021 214.103  1.00  0.00     0.055 C 
ATOM     29  C   UNL     1     201.033 197.586 214.814  1.00  0.00     0.081 C 
ATOM     30  C   UNL     1     202.481 197.184 214.776  1.00  0.00     0.156 C 
ATOM     31  O   UNL     1     202.844 196.124 215.351  1.00  0.00    -0.295 OA
ENDBRANCH   9  11
ENDBRANCH   8   9
ENDBRANCH   1   8
TORSDOF 6
ENDMDL
MODEL 7
REMARK VINA RESULT:    -5.129      3.557      9.078
REMARK INTER + INTRA:          -8.579
REMARK INTER:                  -7.322
REMARK INTRA:                  -1.257
REMARK UNBOUND:                -1.650
REMARK SMILES CC[C@@H](CC[C@H](C)[C@H]1CC[C@H]2[C@H]3CC(=O)C4=CC(=O)CC[C@@]4(C)[C@H]3CC[C@@]12C)C(C)C
REMARK SMILES IDX 4 1 3 2 2 3 1 4 29 5 30 6 31 7 5 8 6 9 7 10 8 11 9 12 27 13
REMARK SMILES IDX 10 14 11 15 26 16 28 17 12 18 25 19 24 20 13 21 22 22 14 23
REMARK SMILES IDX 16 24 21 25 23 26 15 27 17 28 20 29 18 30 19 31
REMARK H PARENT
REMARK Flexibility Score: inf
ROOT
ATOM      1  C   UNL     1     201.863 200.898 213.768  1.00  0.00     0.004 C 
ENDROOT
BRANCH   1   2
ATOM      2  C   UNL     1     202.898 199.929 213.128  1.00  0.00    -0.009 C 
BRANCH   2   3
ATOM      3  C   UNL     1     202.717 198.488 213.686  1.00  0.00     0.000 C 
ATOM      4  C   UNL     1     202.105 198.440 215.088  1.00  0.00     0.004 C 
ENDBRANCH   2   3
BRANCH   2   5
ATOM      5  C   UNL     1     204.370 200.449 213.284  1.00  0.00    -0.014 C 
ATOM      6  C   UNL     1     204.474 201.775 214.057  1.00  0.00     0.007 C 
ATOM      7  C   UNL     1     205.087 200.568 211.927  1.00  0.00     0.007 C 
ENDBRANCH   2   5
ENDBRANCH   1   2
BRANCH   1   8
ATOM      8  C   UNL     1     200.701 201.264 212.817  1.00  0.00     0.004 C 
BRANCH   8   9
ATOM      9  C   UNL     1     200.292 202.762 212.844  1.00  0.00    -0.011 C 
ATOM     10  C   UNL     1     201.488 203.643 212.421  1.00  0.00     0.008 C 
BRANCH   9  11
ATOM     11  C   UNL     1     199.676 203.255 214.204  1.00  0.00    -0.002 C 
ATOM     12  C   UNL     1     200.691 204.082 215.002  1.00  0.00     0.005 C 
ATOM     13  C   UNL     1     198.358 204.114 214.203  1.00  0.00    -0.026 C 
ATOM     14  C   UNL     1     199.910 204.966 215.960  1.00  0.00     0.005 C 
ATOM     15  C   UNL     1     198.429 204.866 215.570  1.00  0.00    -0.001 C 
ATOM     16  C   UNL     1     198.233 205.117 213.001  1.00  0.00     0.007 C 
ATOM     17  C   UNL     1     197.100 203.205 214.213  1.00  0.00     0.012 C 
ATOM     18  C   UNL     1     197.666 206.226 215.596  1.00  0.00     0.004 C 
ATOM     19  C   UNL     1     198.823 206.499 213.293  1.00  0.00     0.005 C 
ATOM     20  C   UNL     1     198.024 207.211 214.412  1.00  0.00     0.003 C 
ATOM     21  C   UNL     1     197.652 206.839 217.011  1.00  0.00     0.085 C 
ATOM     22  C   UNL     1     198.544 208.688 214.750  1.00  0.00    -0.000 C 
ATOM     23  C   UNL     1     197.291 208.276 216.961  1.00  0.00     0.159 C 
ATOM     24  C   UNL     1     198.151 209.135 216.155  1.00  0.00     0.005 C 
ATOM     25  C   UNL     1     200.092 208.839 214.619  1.00  0.00     0.020 C 
ATOM     26  C   UNL     1     197.862 209.666 213.749  1.00  0.00     0.017 C 
ATOM     27  O   UNL     1     196.362 208.746 217.670  1.00  0.00    -0.295 OA
ATOM     28  C   UNL     1     198.727 210.198 216.740  1.00  0.00     0.055 C 
ATOM     29  C   UNL     1     200.594 210.262 214.946  1.00  0.00     0.081 C 
ATOM     30  C   UNL     1     199.901 210.852 216.141  1.00  0.00     0.156 C 
ATOM     31  O   UNL     1     200.347 211.912 216.654  1.00  0.00    -0.295 OA
ENDBRANCH   9  11
ENDBRANCH   8   9
ENDBRANCH   1   8
TORSDOF 6
ENDMDL
MODEL 8
REMARK VINA RESULT:    -5.104     12.876     14.886
REMARK INTER + INTRA:          -8.545
REMARK INTER:                  -7.471
REMARK INTRA:                  -1.073
REMARK UNBOUND:                -1.650
REMARK SMILES CC[C@@H](CC[C@H](C)[C@H]1CC[C@H]2[C@H]3CC(=O)C4=CC(=O)CC[C@@]4(C)[C@H]3CC[C@@]12C)C(C)C
REMARK SMILES IDX 4 1 3 2 2 3 1 4 29 5 30 6 31 7 5 8 6 9 7 10 8 11 9 12 27 13
REMARK SMILES IDX 10 14 11 15 26 16 28 17 12 18 25 19 24 20 13 21 22 22 14 23
REMARK SMILES IDX 16 24 21 25 23 26 15 27 17 28 20 29 18 30 19 31
REMARK H PARENT
REMARK Flexibility Score: inf
ROOT
ATOM      1  C   UNL     1     210.876 211.858 213.226  1.00  0.00     0.004 C 
ENDROOT
BRANCH   1   2
ATOM      2  C   UNL     1     211.006 213.408 213.222  1.00  0.00    -0.009 C 
BRANCH   2   3
ATOM      3  C   UNL     1     212.234 213.857 214.064  1.00  0.00     0.000 C 
ATOM      4  C   UNL     1     213.125 214.885 213.360  1.00  0.00     0.004 C 
ENDBRANCH   2   3
BRANCH   2   5
ATOM      5  C   UNL     1     209.680 214.114 213.675  1.00  0.00    -0.014 C 
ATOM      6  C   UNL     1     209.751 214.698 215.097  1.00  0.00     0.007 C 
ATOM      7  C   UNL     1     208.458 213.188 213.541  1.00  0.00     0.007 C 
ENDBRANCH   2   5
ENDBRANCH   1   2
BRANCH   1   8
ATOM      8  C   UNL     1     212.093 211.143 212.596  1.00  0.00     0.004 C 
BRANCH   8   9
ATOM      9  C   UNL     1     212.109 209.602 212.792  1.00  0.00    -0.011 C 
ATOM     10  C   UNL     1     210.697 209.026 212.543  1.00  0.00     0.008 C 
BRANCH   9  11
ATOM     11  C   UNL     1     212.686 209.115 214.170  1.00  0.00    -0.002 C 
ATOM     12  C   UNL     1     211.648 208.296 214.946  1.00  0.00     0.005 C 
ATOM     13  C   UNL     1     214.001 208.252 214.209  1.00  0.00    -0.026 C 
ATOM     14  C   UNL     1     212.400 207.415 215.929  1.00  0.00     0.005 C 
ATOM     15  C   UNL     1     213.891 207.509 215.578  1.00  0.00    -0.001 C 
ATOM     16  C   UNL     1     214.154 207.241 213.017  1.00  0.00     0.007 C 
ATOM     17  C   UNL     1     215.261 209.157 214.248  1.00  0.00     0.012 C 
ATOM     18  C   UNL     1     214.648 206.146 215.633  1.00  0.00     0.004 C 
ATOM     19  C   UNL     1     213.552 205.863 213.301  1.00  0.00     0.005 C 
ATOM     20  C   UNL     1     214.319 205.155 214.445  1.00  0.00     0.003 C 
ATOM     21  C   UNL     1     214.622 205.541 217.051  1.00  0.00     0.085 C 
ATOM     22  C   UNL     1     213.785 203.682 214.778  1.00  0.00    -0.000 C 
ATOM     23  C   UNL     1     214.979 204.103 217.019  1.00  0.00     0.159 C 
ATOM     24  C   UNL     1     214.139 203.242 216.195  1.00  0.00     0.005 C 
ATOM     25  C   UNL     1     212.240 203.535 214.606  1.00  0.00     0.020 C 
ATOM     26  C   UNL     1     214.489 202.696 213.801  1.00  0.00     0.017 C 
ATOM     27  O   UNL     1     215.887 203.634 217.755  1.00  0.00    -0.295 OA
ATOM     28  C   UNL     1     213.543 202.184 216.771  1.00  0.00     0.055 C 
ATOM     29  C   UNL     1     211.725 202.116 214.927  1.00  0.00     0.081 C 
ATOM     30  C   UNL     1     212.384 201.530 216.144  1.00  0.00     0.156 C 
ATOM     31  O   UNL     1     211.921 200.475 216.652  1.00  0.00    -0.295 OA
ENDBRANCH   9  11
ENDBRANCH   8   9
ENDBRANCH   1   8
TORSDOF 6
ENDMDL
