MODEL 1
REMARK VINA RESULT:    47.736      0.000      0.000
REMARK INTER + INTRA:          52.198
REMARK INTER:                  51.922
REMARK INTRA:                   0.276
REMARK UNBOUND:                 0.276
REMARK SMILES CC1(C)CC[C@@]2(C(=O)[O-])CC[C@@]3(C)C(=CC[C@@H]4[C@]5(C)CC[C@H](O)C(C)(C)[C@@H]5CC[C@@]43C)[C@H]2C1
REMARK SMILES IDX 6 1 5 2 10 3 32 4 4 5 11 6 14 7 33 8 2 9 12 10 15 11 1 12
REMARK SMILES IDX 3 13 13 14 30 15 16 16 17 17 29 18 31 19 18 20 28 21 27 22
REMARK SMILES IDX 20 23 19 24 24 25 21 26 22 27 25 28 26 29 7 30 8 31 9 32
REMARK SMILES IDX 23 33
REMARK H PARENT 23 34
REMARK Flexibility Score: inf
ROOT
ATOM      1  C   UNL     1      15.511  33.187  40.121  1.00  0.00     0.017 C 
ATOM      2  C   UNL     1      14.963  31.875  39.513  1.00  0.00     0.014 C 
ATOM      3  C   UNL     1      16.358  32.890  41.396  1.00  0.00     0.014 C 
ATOM      4  C   UNL     1      16.362  33.977  39.047  1.00  0.00     0.028 C 
ATOM      5  C   UNL     1      14.104  32.148  38.267  1.00  0.00     0.007 C 
ATOM      6  C   UNL     1      17.746  32.267  41.163  1.00  0.00     0.013 C 
ATOM      7  C   UNL     1      17.835  34.142  39.490  1.00  0.00    -0.064 C 
ATOM      8  C   UNL     1      16.247  33.466  37.579  1.00  0.00     0.015 C 
ATOM      9  C   UNL     1      14.839  32.955  37.142  1.00  0.00    -0.035 C 
ATOM     10  C   UNL     1      18.635  32.931  40.037  1.00  0.00    -0.006 C 
ATOM     11  C   UNL     1      18.245  35.402  39.703  1.00  0.00    -0.027 C 
ATOM     12  C   UNL     1      15.020  32.036  35.910  1.00  0.00     0.011 C 
ATOM     13  C   UNL     1      13.973  34.154  36.691  1.00  0.00     0.011 C 
ATOM     14  C   UNL     1      18.815  31.877  38.894  1.00  0.00     0.017 C 
ATOM     15  C   UNL     1      20.117  33.332  40.579  1.00  0.00    -0.020 C 
ATOM     16  C   UNL     1      19.449  35.789  40.488  1.00  0.00     0.032 C 
ATOM     17  C   UNL     1      20.064  34.676  41.388  1.00  0.00     0.006 C 
ATOM     18  C   UNL     1      21.125  33.562  39.396  1.00  0.00     0.008 C 
ATOM     19  C   UNL     1      20.657  32.146  41.463  1.00  0.00     0.012 C 
ATOM     20  C   UNL     1      21.475  35.118  42.057  1.00  0.00    -0.025 C 
ATOM     21  C   UNL     1      22.338  34.490  39.679  1.00  0.00     0.005 C 
ATOM     22  C   UNL     1      22.725  34.639  41.176  1.00  0.00     0.003 C 
ATOM     23  C   UNL     1      21.507  36.678  42.281  1.00  0.00     0.010 C 
ATOM     24  C   UNL     1      21.554  34.469  43.483  1.00  0.00     0.012 C 
ATOM     25  C   UNL     1      24.107  35.410  41.422  1.00  0.00    -0.006 C 
ATOM     26  C   UNL     1      22.867  37.252  42.671  1.00  0.00     0.033 C 
ATOM     27  C   UNL     1      23.907  36.942  41.590  1.00  0.00     0.120 C 
ATOM     28  C   UNL     1      24.823  34.839  42.684  1.00  0.00     0.014 C 
ATOM     29  C   UNL     1      25.125  35.190  40.267  1.00  0.00     0.014 C 
ENDROOT
BRANCH   1  30
ATOM     30  C   UNL     1      14.303  33.996  40.622  1.00  0.00     0.048 C 
ATOM     31  O   UNL     1      13.127  33.559  40.531  1.00  0.00    -0.550 OA
ATOM     32  O   UNL     1      14.500  35.215  41.261  1.00  0.00    -0.550 OA
ENDBRANCH   1  30
BRANCH  27  33
ATOM     33  O   UNL     1      23.519  37.522  40.367  1.00  0.00    -0.393 OA
ATOM     34  H   UNL     1      22.604  37.885  40.492  1.00  0.00     0.210 HD
ENDBRANCH  27  33
TORSDOF 2
ENDMDL
MODEL 2
REMARK VINA RESULT:    48.734      4.111      7.937
REMARK INTER + INTRA:          53.283
REMARK INTER:                  52.808
REMARK INTRA:                   0.475
REMARK UNBOUND:                 0.276
REMARK SMILES CC1(C)CC[C@@]2(C(=O)[O-])CC[C@@]3(C)C(=CC[C@@H]4[C@]5(C)CC[C@H](O)C(C)(C)[C@@H]5CC[C@@]43C)[C@H]2C1
REMARK SMILES IDX 6 1 5 2 10 3 32 4 4 5 11 6 14 7 33 8 2 9 12 10 15 11 1 12
REMARK SMILES IDX 3 13 13 14 30 15 16 16 17 17 29 18 31 19 18 20 28 21 27 22
REMARK SMILES IDX 20 23 19 24 24 25 21 26 22 27 25 28 26 29 7 30 8 31 9 32
REMARK SMILES IDX 23 33
REMARK H PARENT 23 34
REMARK Flexibility Score: inf
ROOT
ATOM      1  C   UNL     1      19.355  39.433  44.989  1.00  0.00     0.017 C 
ATOM      2  C   UNL     1      19.499  40.972  44.934  1.00  0.00     0.014 C 
ATOM      3  C   UNL     1      18.865  38.878  43.617  1.00  0.00     0.014 C 
ATOM      4  C   UNL     1      20.726  38.768  45.412  1.00  0.00     0.028 C 
ATOM      5  C   UNL     1      19.959  41.543  46.286  1.00  0.00     0.007 C 
ATOM      6  C   UNL     1      19.897  38.869  42.476  1.00  0.00     0.013 C 
ATOM      7  C   UNL     1      21.278  37.837  44.307  1.00  0.00    -0.064 C 
ATOM      8  C   UNL     1      21.816  39.742  45.952  1.00  0.00     0.015 C 
ATOM      9  C   UNL     1      21.300  40.931  46.820  1.00  0.00    -0.035 C 
ATOM     10  C   UNL     1      21.333  38.311  42.830  1.00  0.00    -0.006 C 
ATOM     11  C   UNL     1      21.361  36.536  44.625  1.00  0.00    -0.027 C 
ATOM     12  C   UNL     1      22.383  42.037  46.820  1.00  0.00     0.011 C 
ATOM     13  C   UNL     1      21.128  40.465  48.284  1.00  0.00     0.011 C 
ATOM     14  C   UNL     1      22.345  39.497  42.710  1.00  0.00     0.017 C 
ATOM     15  C   UNL     1      21.811  37.145  41.800  1.00  0.00    -0.020 C 
ATOM     16  C   UNL     1      21.478  35.421  43.647  1.00  0.00     0.032 C 
ATOM     17  C   UNL     1      21.141  35.773  42.167  1.00  0.00     0.006 C 
ATOM     18  C   UNL     1      23.363  36.914  41.865  1.00  0.00     0.008 C 
ATOM     19  C   UNL     1      21.440  37.596  40.337  1.00  0.00     0.012 C 
ATOM     20  C   UNL     1      21.475  34.561  41.141  1.00  0.00    -0.025 C 
ATOM     21  C   UNL     1      23.884  35.515  41.434  1.00  0.00     0.005 C 
ATOM     22  C   UNL     1      22.937  34.713  40.500  1.00  0.00     0.003 C 
ATOM     23  C   UNL     1      21.320  33.173  41.868  1.00  0.00     0.010 C 
ATOM     24  C   UNL     1      20.395  34.583  40.004  1.00  0.00     0.012 C 
ATOM     25  C   UNL     1      23.588  33.384  39.890  1.00  0.00    -0.006 C 
ATOM     26  C   UNL     1      21.845  31.967  41.091  1.00  0.00     0.033 C 
ATOM     27  C   UNL     1      23.335  32.138  40.784  1.00  0.00     0.120 C 
ATOM     28  C   UNL     1      23.028  33.118  38.460  1.00  0.00     0.014 C 
ATOM     29  C   UNL     1      25.125  33.515  39.685  1.00  0.00     0.014 C 
ENDROOT
BRANCH   1  30
ATOM     30  C   UNL     1      18.221  39.117  45.979  1.00  0.00     0.048 C 
ATOM     31  O   UNL     1      17.139  38.595  45.605  1.00  0.00    -0.550 OA
ATOM     32  O   UNL     1      18.404  39.340  47.338  1.00  0.00    -0.550 OA
ENDBRANCH   1  30
BRANCH  27  33
ATOM     33  O   UNL     1      24.066  32.240  41.983  1.00  0.00    -0.393 OA
ATOM     34  H   UNL     1      23.815  31.462  42.546  1.00  0.00     0.210 HD
ENDBRANCH  27  33
TORSDOF 2
ENDMDL
MODEL 3
REMARK VINA RESULT:    49.194      3.018      8.933
REMARK INTER + INTRA:          53.784
REMARK INTER:                  53.169
REMARK INTRA:                   0.614
REMARK UNBOUND:                 0.276
REMARK SMILES CC1(C)CC[C@@]2(C(=O)[O-])CC[C@@]3(C)C(=CC[C@@H]4[C@]5(C)CC[C@H](O)C(C)(C)[C@@H]5CC[C@@]43C)[C@H]2C1
REMARK SMILES IDX 6 1 5 2 10 3 32 4 4 5 11 6 14 7 33 8 2 9 12 10 15 11 1 12
REMARK SMILES IDX 3 13 13 14 30 15 16 16 17 17 29 18 31 19 18 20 28 21 27 22
REMARK SMILES IDX 20 23 19 24 24 25 21 26 22 27 25 28 26 29 7 30 8 31 9 32
REMARK SMILES IDX 23 33
REMARK H PARENT 23 34
REMARK Flexibility Score: inf
ROOT
ATOM      1  C   UNL     1      24.512  39.360  43.194  1.00  0.00     0.017 C 
ATOM      2  C   UNL     1      25.125  39.265  44.611  1.00  0.00     0.014 C 
ATOM      3  C   UNL     1      25.125  38.275  42.257  1.00  0.00     0.014 C 
ATOM      4  C   UNL     1      22.938  39.222  43.266  1.00  0.00     0.028 C 
ATOM      5  C   UNL     1      24.550  40.343  45.546  1.00  0.00     0.007 C 
ATOM      6  C   UNL     1      24.666  36.826  42.499  1.00  0.00     0.013 C 
ATOM      7  C   UNL     1      22.433  37.983  42.490  1.00  0.00    -0.064 C 
ATOM      8  C   UNL     1      22.312  39.312  44.690  1.00  0.00     0.015 C 
ATOM      9  C   UNL     1      22.988  40.321  45.671  1.00  0.00    -0.035 C 
ATOM     10  C   UNL     1      23.112  36.601  42.682  1.00  0.00    -0.006 C 
ATOM     11  C   UNL     1      21.654  38.235  41.426  1.00  0.00    -0.027 C 
ATOM     12  C   UNL     1      22.613  39.915  47.117  1.00  0.00     0.011 C 
ATOM     13  C   UNL     1      22.412  41.736  45.433  1.00  0.00     0.011 C 
ATOM     14  C   UNL     1      22.874  36.113  44.148  1.00  0.00     0.017 C 
ATOM     15  C   UNL     1      22.534  35.457  41.678  1.00  0.00    -0.020 C 
ATOM     16  C   UNL     1      21.378  37.278  40.321  1.00  0.00     0.032 C 
ATOM     17  C   UNL     1      22.322  36.042  40.236  1.00  0.00     0.006 C 
ATOM     18  C   UNL     1      21.135  34.922  42.152  1.00  0.00     0.008 C 
ATOM     19  C   UNL     1      23.546  34.251  41.669  1.00  0.00     0.012 C 
ATOM     20  C   UNL     1      21.839  34.956  39.131  1.00  0.00    -0.025 C 
ATOM     21  C   UNL     1      20.209  34.315  41.062  1.00  0.00     0.005 C 
ATOM     22  C   UNL     1      20.933  33.807  39.785  1.00  0.00     0.003 C 
ATOM     23  C   UNL     1      21.074  35.678  37.957  1.00  0.00     0.010 C 
ATOM     24  C   UNL     1      23.121  34.319  38.492  1.00  0.00     0.012 C 
ATOM     25  C   UNL     1      19.993  32.985  38.783  1.00  0.00    -0.006 C 
ATOM     26  C   UNL     1      20.353  34.750  36.981  1.00  0.00     0.033 C 
ATOM     27  C   UNL     1      19.318  33.899  37.722  1.00  0.00     0.120 C 
ATOM     28  C   UNL     1      20.817  31.875  38.062  1.00  0.00     0.014 C 
ATOM     29  C   UNL     1      18.866  32.210  39.525  1.00  0.00     0.014 C 
ENDROOT
BRANCH   1  30
ATOM     30  C   UNL     1      24.955  40.705  42.595  1.00  0.00     0.048 C 
ATOM     31  O   UNL     1      25.123  40.858  41.357  1.00  0.00    -0.550 OA
ATOM     32  O   UNL     1      25.110  41.814  43.418  1.00  0.00    -0.550 OA
ENDBRANCH   1  30
BRANCH  27  33
ATOM     33  O   UNL     1      18.357  34.728  38.331  1.00  0.00    -0.393 OA
ATOM     34  H   UNL     1      18.518  34.692  39.310  1.00  0.00     0.210 HD
ENDBRANCH  27  33
TORSDOF 2
ENDMDL
