MODEL 1
REMARK VINA RESULT:    -4.682      0.000      0.000
REMARK INTER + INTRA:          -2.964
REMARK INTER:                  -5.777
REMARK INTRA:                   2.813
REMARK UNBOUND:                 2.813
REMARK SMILES C=C1CC[C@H]2[C@H]([C@H]3[C@@H]1CC[C@@H]3C)C2(C)C
REMARK SMILES IDX 3 1 2 2 1 3 8 4 12 5 11 6 10 7 7 8 9 9 4 11 5 12 6 13 13 14
REMARK SMILES IDX 14 16 15 17
REMARK H PARENT
REMARK Flexibility Score: 80.00
ROOT
ATOM      1  C   UNL     1     -50.268 -49.506  23.733  1.00  0.00     0.031 C 
ENDROOT
BRANCH   1   2
ATOM      2  C   UNL     1     -51.136 -48.257  23.879  1.00  0.00    -0.074 C 
ATOM      3  C   UNL     1     -50.613 -47.221  24.565  1.00  0.00     0.008 C 
BRANCH   2   4
ATOM      4  C   UNL     1     -52.602 -48.256  23.352  1.00  0.00     0.018 C 
ATOM      5  C   UNL     1     -54.870 -48.186  20.351  1.00  0.00     0.008 C 
ATOM      6  C   UNL     1     -53.823 -47.575  21.293  1.00  0.00    -0.010 C 
ATOM      7  C   UNL     1     -54.473 -46.959  22.523  1.00  0.00     0.004 C 
ATOM      8  C   UNL     1     -52.812 -48.606  21.836  1.00  0.00     0.003 CG0
ATOM      9  C   UNL     1     -53.365 -46.938  23.552  1.00  0.00     0.008 C 
ATOM     10  G   UNL     1     -51.478 -48.532  21.072  1.00  0.00     0.000 G0
ENDBRANCH   2   4
ENDBRANCH   1   2
BRANCH   1  11
ATOM     11  C   UNL     1     -49.633 -49.632  22.336  1.00  0.00     0.009 C 
BRANCH  11  12
ATOM     12  C   UNL     1     -50.759 -49.901  21.342  1.00  0.00    -0.001 C 
ATOM     13  C   UNL     1     -51.458 -48.544  21.072  1.00  0.00     0.002 CG0
ATOM     14  C   UNL     1     -50.939 -49.399  19.917  1.00  0.00    -0.029 C 
ATOM     15  G   UNL     1     -52.797 -48.595  21.830  1.00  0.00     0.000 G0
ATOM     16  C   UNL     1     -49.669 -48.915  19.205  1.00  0.00     0.011 C 
ATOM     17  C   UNL     1     -51.971 -50.147  19.070  1.00  0.00     0.011 C 
ENDBRANCH  11  12
ENDBRANCH   1  11
TORSDOF 0
ENDMDL
MODEL 2
REMARK VINA RESULT:    -4.523      9.584     12.207
REMARK INTER + INTRA:          -2.767
REMARK INTER:                  -5.642
REMARK INTRA:                   2.875
REMARK UNBOUND:                 2.813
REMARK SMILES C=C1CC[C@H]2[C@H]([C@H]3[C@@H]1CC[C@@H]3C)C2(C)C
REMARK SMILES IDX 3 1 2 2 1 3 8 4 12 5 11 6 10 7 7 8 9 9 4 11 5 12 6 13 13 14
REMARK SMILES IDX 14 16 15 17
REMARK H PARENT
REMARK Flexibility Score: 80.00
ROOT
ATOM      1  C   UNL     1     -43.997 -49.897  26.229  1.00  0.00     0.031 C 
ENDROOT
BRANCH   1   2
ATOM      2  C   UNL     1     -43.253 -48.575  26.045  1.00  0.00    -0.074 C 
ATOM      3  C   UNL     1     -43.871 -47.617  25.324  1.00  0.00     0.008 C 
BRANCH   2   4
ATOM      4  C   UNL     1     -41.799 -48.415  26.578  1.00  0.00     0.018 C 
ATOM      5  C   UNL     1     -39.565 -48.058  29.584  1.00  0.00     0.008 C 
ATOM      6  C   UNL     1     -40.664 -47.575  28.628  1.00  0.00    -0.010 C 
ATOM      7  C   UNL     1     -40.074 -46.917  27.389  1.00  0.00     0.004 C 
ATOM      8  C   UNL     1     -41.562 -48.713  28.100  1.00  0.00     0.003 CG0
ATOM      9  C   UNL     1     -41.174 -47.028  26.356  1.00  0.00     0.008 C 
ATOM     10  G   UNL     1     -42.900 -48.763  28.859  1.00  0.00     0.000 G0
ENDBRANCH   2   4
ENDBRANCH   1   2
BRANCH   1  11
ATOM     11  C   UNL     1     -44.617 -50.044  27.632  1.00  0.00     0.009 C 
BRANCH  11  12
ATOM     12  C   UNL     1     -43.470 -50.185  28.628  1.00  0.00    -0.001 C 
ATOM     13  C   UNL     1     -42.898 -48.765  28.864  1.00  0.00     0.002 CG0
ATOM     14  C   UNL     1     -43.336 -49.636  30.040  1.00  0.00    -0.029 C 
ATOM     15  G   UNL     1     -41.561 -48.709  28.104  1.00  0.00     0.000 G0
ATOM     16  C   UNL     1     -44.644 -49.255  30.744  1.00  0.00     0.011 C 
ATOM     17  C   UNL     1     -42.238 -50.266  30.901  1.00  0.00     0.011 C 
ENDBRANCH  11  12
ENDBRANCH   1  11
TORSDOF 0
ENDMDL
MODEL 3
REMARK VINA RESULT:    -4.483      9.792     12.094
REMARK INTER + INTRA:          -2.718
REMARK INTER:                  -5.543
REMARK INTRA:                   2.825
REMARK UNBOUND:                 2.813
REMARK SMILES C=C1CC[C@H]2[C@H]([C@H]3[C@@H]1CC[C@@H]3C)C2(C)C
REMARK SMILES IDX 3 1 2 2 1 3 8 4 12 5 11 6 10 7 7 8 9 9 4 11 5 12 6 13 13 14
REMARK SMILES IDX 14 16 15 17
REMARK H PARENT
REMARK Flexibility Score: 80.00
ROOT
ATOM      1  C   UNL     1     -40.431 -48.657  27.419  1.00  0.00     0.031 C 
ENDROOT
BRANCH   1   2
ATOM      2  C   UNL     1     -40.440 -48.935  28.921  1.00  0.00    -0.074 C 
ATOM      3  C   UNL     1     -39.475 -48.349  29.661  1.00  0.00     0.008 C 
BRANCH   2   4
ATOM      4  C   UNL     1     -41.457 -49.948  29.525  1.00  0.00     0.018 C 
ATOM      5  C   UNL     1     -45.039 -50.660  30.425  1.00  0.00     0.008 C 
ATOM      6  C   UNL     1     -43.715 -49.899  30.571  1.00  0.00    -0.010 C 
ATOM      7  C   UNL     1     -42.735 -50.652  31.459  1.00  0.00     0.004 C 
ATOM      8  C   UNL     1     -42.976 -49.690  29.232  1.00  0.00     0.003 CG0
ATOM      9  C   UNL     1     -41.381 -50.116  31.050  1.00  0.00     0.008 C 
ATOM     10  G   UNL     1     -43.192 -48.264  28.695  1.00  0.00     0.000 G0
ENDBRANCH   2   4
ENDBRANCH   1   2
BRANCH   1  11
ATOM     11  C   UNL     1     -41.502 -47.633  26.995  1.00  0.00     0.009 C 
BRANCH  11  12
ATOM     12  C   UNL     1     -42.866 -48.290  27.182  1.00  0.00    -0.001 C 
ATOM     13  C   UNL     1     -43.182 -48.255  28.698  1.00  0.00     0.002 CG0
ATOM     14  C   UNL     1     -44.173 -47.694  27.681  1.00  0.00    -0.029 C 
ATOM     15  G   UNL     1     -42.981 -49.693  29.211  1.00  0.00     0.000 G0
ATOM     16  C   UNL     1     -44.296 -46.167  27.593  1.00  0.00     0.011 C 
ATOM     17  C   UNL     1     -45.435 -48.512  27.395  1.00  0.00     0.011 C 
ENDBRANCH  11  12
ENDBRANCH   1  11
TORSDOF 0
ENDMDL
MODEL 4
REMARK VINA RESULT:    -4.467      1.187      3.667
REMARK INTER + INTRA:          -2.698
REMARK INTER:                  -5.508
REMARK INTRA:                   2.809
REMARK UNBOUND:                 2.813
REMARK SMILES C=C1CC[C@H]2[C@H]([C@H]3[C@@H]1CC[C@@H]3C)C2(C)C
REMARK SMILES IDX 3 1 2 2 1 3 8 4 12 5 11 6 10 7 7 8 9 9 4 11 5 12 6 13 13 14
REMARK SMILES IDX 14 16 15 17
REMARK H PARENT
REMARK Flexibility Score: 80.00
ROOT
ATOM      1  C   UNL     1     -49.494 -49.570  21.025  1.00  0.00     0.031 C 
ENDROOT
BRANCH   1   2
ATOM      2  C   UNL     1     -50.998 -49.635  20.761  1.00  0.00    -0.074 C 
ATOM      3  C   UNL     1     -51.470 -50.751  20.169  1.00  0.00     0.008 C 
BRANCH   2   4
ATOM      4  C   UNL     1     -51.900 -48.402  21.063  1.00  0.00     0.018 C 
ATOM      5  C   UNL     1     -53.526 -46.257  23.691  1.00  0.00     0.008 C 
ATOM      6  C   UNL     1     -53.329 -47.571  22.925  1.00  0.00    -0.010 C 
ATOM      7  C   UNL     1     -54.110 -47.576  21.618  1.00  0.00     0.004 C 
ATOM      8  C   UNL     1     -51.862 -47.835  22.526  1.00  0.00     0.003 CG0
ATOM      9  C   UNL     1     -53.395 -48.602  20.767  1.00  0.00     0.008 C 
ATOM     10  G   UNL     1     -51.199 -48.842  23.482  1.00  0.00     0.000 G0
ENDBRANCH   2   4
ENDBRANCH   1   2
BRANCH   1  11
ATOM     11  C   UNL     1     -49.135 -49.831  22.500  1.00  0.00     0.009 C 
BRANCH  11  12
ATOM     12  C   UNL     1     -49.653 -48.651  23.316  1.00  0.00    -0.001 C 
ATOM     13  C   UNL     1     -51.182 -48.850  23.480  1.00  0.00     0.002 CG0
ATOM     14  C   UNL     1     -50.288 -48.628  24.698  1.00  0.00    -0.029 C 
ATOM     15  G   UNL     1     -51.849 -47.838  22.532  1.00  0.00     0.000 G0
ATOM     16  C   UNL     1     -50.008 -49.844  25.590  1.00  0.00     0.011 C 
ATOM     17  C   UNL     1     -50.351 -47.260  25.383  1.00  0.00     0.011 C 
ENDBRANCH  11  12
ENDBRANCH   1  11
TORSDOF 0
ENDMDL
MODEL 5
REMARK VINA RESULT:    -4.400      8.847     11.078
REMARK INTER + INTRA:          -2.615
REMARK INTER:                  -5.441
REMARK INTRA:                   2.826
REMARK UNBOUND:                 2.813
REMARK SMILES C=C1CC[C@H]2[C@H]([C@H]3[C@@H]1CC[C@@H]3C)C2(C)C
REMARK SMILES IDX 3 1 2 2 1 3 8 4 12 5 11 6 10 7 7 8 9 9 4 11 5 12 6 13 13 14
REMARK SMILES IDX 14 16 15 17
REMARK H PARENT
REMARK Flexibility Score: 80.00
ROOT
ATOM      1  C   UNL     1     -44.257 -50.220  28.693  1.00  0.00     0.031 C 
ENDROOT
BRANCH   1   2
ATOM      2  C   UNL     1     -42.768 -49.965  28.921  1.00  0.00    -0.074 C 
ATOM      3  C   UNL     1     -42.037 -50.987  29.413  1.00  0.00     0.008 C 
BRANCH   2   4
ATOM      4  C   UNL     1     -42.174 -48.542  28.700  1.00  0.00     0.018 C 
ATOM      5  C   UNL     1     -41.190 -45.890  26.220  1.00  0.00     0.008 C 
ATOM      6  C   UNL     1     -41.056 -47.271  26.875  1.00  0.00    -0.010 C 
ATOM      7  C   UNL     1     -40.230 -47.204  28.151  1.00  0.00     0.004 C 
ATOM      8  C   UNL     1     -42.408 -47.885  27.294  1.00  0.00     0.003 CG0
ATOM      9  C   UNL     1     -40.659 -48.426  28.931  1.00  0.00     0.008 C 
ATOM     10  G   UNL     1     -42.880 -48.936  26.275  1.00  0.00     0.000 G0
ENDBRANCH   2   4
ENDBRANCH   1   2
BRANCH   1  11
ATOM     11  C   UNL     1     -44.606 -50.433  27.208  1.00  0.00     0.009 C 
BRANCH  11  12
ATOM     12  C   UNL     1     -44.410 -49.100  26.493  1.00  0.00    -0.001 C 
ATOM     13  C   UNL     1     -42.886 -48.926  26.270  1.00  0.00     0.002 CG0
ATOM     14  C   UNL     1     -43.865 -48.814  25.102  1.00  0.00    -0.029 C 
ATOM     15  G   UNL     1     -42.422 -47.872  27.290  1.00  0.00     0.000 G0
ATOM     16  C   UNL     1     -43.904 -49.980  24.108  1.00  0.00     0.011 C 
ATOM     17  C   UNL     1     -44.148 -47.415  24.548  1.00  0.00     0.011 C 
ENDBRANCH  11  12
ENDBRANCH   1  11
TORSDOF 0
ENDMDL
MODEL 6
REMARK VINA RESULT:    -4.377      3.143      5.578
REMARK INTER + INTRA:          -2.587
REMARK INTER:                  -5.409
REMARK INTRA:                   2.822
REMARK UNBOUND:                 2.813
REMARK SMILES C=C1CC[C@H]2[C@H]([C@H]3[C@@H]1CC[C@@H]3C)C2(C)C
REMARK SMILES IDX 3 1 2 2 1 3 8 4 12 5 11 6 10 7 7 8 9 9 4 11 5 12 6 13 13 14
REMARK SMILES IDX 14 16 15 17
REMARK H PARENT
REMARK Flexibility Score: 80.00
ROOT
ATOM      1  C   UNL     1     -48.476 -50.617  16.443  1.00  0.00     0.031 C 
ENDROOT
BRANCH   1   2
ATOM      2  C   UNL     1     -47.952 -49.348  17.115  1.00  0.00    -0.074 C 
ATOM      3  C   UNL     1     -47.580 -48.334  16.309  1.00  0.00     0.008 C 
BRANCH   2   4
ATOM      4  C   UNL     1     -47.758 -49.304  18.660  1.00  0.00     0.018 C 
ATOM      5  C   UNL     1     -49.402 -49.144  22.040  1.00  0.00     0.008 C 
ATOM      6  C   UNL     1     -49.041 -48.570  20.663  1.00  0.00    -0.010 C 
ATOM      7  C   UNL     1     -47.651 -47.949  20.667  1.00  0.00     0.004 C 
ATOM      8  C   UNL     1     -49.011 -49.633  19.545  1.00  0.00     0.003 CG0
ATOM      9  C   UNL     1     -47.238 -47.967  19.212  1.00  0.00     0.008 C 
ATOM     10  G   UNL     1     -50.298 -49.587  18.702  1.00  0.00     0.000 G0
ENDBRANCH   2   4
ENDBRANCH   1   2
BRANCH   1  11
ATOM     11  C   UNL     1     -50.009 -50.744  16.518  1.00  0.00     0.009 C 
BRANCH  11  12
ATOM     12  C   UNL     1     -50.380 -50.978  17.980  1.00  0.00    -0.001 C 
ATOM     13  C   UNL     1     -50.304 -49.604  18.692  1.00  0.00     0.002 CG0
ATOM     14  C   UNL     1     -51.567 -50.459  18.777  1.00  0.00    -0.029 C 
ATOM     15  G   UNL     1     -49.020 -49.631  19.539  1.00  0.00     0.000 G0
ATOM     16  C   UNL     1     -52.780 -49.998  17.960  1.00  0.00     0.011 C 
ATOM     17  C   UNL     1     -51.849 -51.176  20.100  1.00  0.00     0.011 C 
ENDBRANCH  11  12
ENDBRANCH   1  11
TORSDOF 0
ENDMDL
MODEL 7
REMARK VINA RESULT:    -4.243      1.282      4.189
REMARK INTER + INTRA:          -2.422
REMARK INTER:                  -5.338
REMARK INTRA:                   2.917
REMARK UNBOUND:                 2.813
REMARK SMILES C=C1CC[C@H]2[C@H]([C@H]3[C@@H]1CC[C@@H]3C)C2(C)C
REMARK SMILES IDX 3 1 2 2 1 3 8 4 12 5 11 6 10 7 7 8 9 9 4 11 5 12 6 13 13 14
REMARK SMILES IDX 14 16 15 17
REMARK H PARENT
REMARK Flexibility Score: 80.00
ROOT
ATOM      1  C   UNL     1     -53.868 -48.863  22.424  1.00  0.00     0.031 C 
ENDROOT
BRANCH   1   2
ATOM      2  C   UNL     1     -53.766 -49.009  20.907  1.00  0.00    -0.074 C 
ATOM      3  C   UNL     1     -54.734 -48.431  20.167  1.00  0.00     0.008 C 
BRANCH   2   4
ATOM      4  C   UNL     1     -52.649 -49.894  20.279  1.00  0.00     0.018 C 
ATOM      5  C   UNL     1     -48.985 -50.268  19.510  1.00  0.00     0.008 C 
ATOM      6  C   UNL     1     -50.356 -49.596  19.357  1.00  0.00    -0.010 C 
ATOM      7  C   UNL     1     -51.234 -50.342  18.363  1.00  0.00     0.004 C 
ATOM      8  C   UNL     1     -51.168 -49.552  20.668  1.00  0.00     0.003 CG0
ATOM      9  C   UNL     1     -52.642 -49.940  18.743  1.00  0.00     0.008 C 
ATOM     10  G   UNL     1     -51.086 -48.163  21.326  1.00  0.00     0.000 G0
ENDBRANCH   2   4
ENDBRANCH   1   2
BRANCH   1  11
ATOM     11  C   UNL     1     -52.883 -47.823  22.992  1.00  0.00     0.009 C 
BRANCH  11  12
ATOM     12  C   UNL     1     -51.473 -48.378  22.812  1.00  0.00    -0.001 C 
ATOM     13  C   UNL     1     -51.091 -48.171  21.324  1.00  0.00     0.002 CG0
ATOM     14  C   UNL     1     -50.185 -47.659  22.443  1.00  0.00    -0.029 C 
ATOM     15  G   UNL     1     -51.177 -49.558  20.663  1.00  0.00     0.000 G0
ATOM     16  C   UNL     1     -50.161 -46.145  22.686  1.00  0.00     0.011 C 
ATOM     17  C   UNL     1     -48.889 -48.429  22.711  1.00  0.00     0.011 C 
ENDBRANCH  11  12
ENDBRANCH   1  11
TORSDOF 0
ENDMDL
MODEL 8
REMARK VINA RESULT:    -4.208      0.943      3.654
REMARK INTER + INTRA:          -2.379
REMARK INTER:                  -5.180
REMARK INTRA:                   2.801
REMARK UNBOUND:                 2.813
REMARK SMILES C=C1CC[C@H]2[C@H]([C@H]3[C@@H]1CC[C@@H]3C)C2(C)C
REMARK SMILES IDX 3 1 2 2 1 3 8 4 12 5 11 6 10 7 7 8 9 9 4 11 5 12 6 13 13 14
REMARK SMILES IDX 14 16 15 17
REMARK H PARENT
REMARK Flexibility Score: 80.00
ROOT
ATOM      1  C   UNL     1     -52.313 -46.427  23.307  1.00  0.00     0.031 C 
ENDROOT
BRANCH   1   2
ATOM      2  C   UNL     1     -51.361 -47.621  23.356  1.00  0.00    -0.074 C 
ATOM      3  C   UNL     1     -50.987 -48.060  24.576  1.00  0.00     0.008 C 
BRANCH   2   4
ATOM      4  C   UNL     1     -50.773 -48.208  22.039  1.00  0.00     0.018 C 
ATOM      5  C   UNL     1     -51.423 -50.173  18.898  1.00  0.00     0.008 C 
ATOM      6  C   UNL     1     -51.313 -50.021  20.421  1.00  0.00    -0.010 C 
ATOM      7  C   UNL     1     -49.870 -50.141  20.889  1.00  0.00     0.004 C 
ATOM      8  C   UNL     1     -51.798 -48.650  20.937  1.00  0.00     0.003 CG0
ATOM      9  C   UNL     1     -49.856 -49.428  22.223  1.00  0.00     0.008 C 
ATOM     10  G   UNL     1     -53.217 -48.748  21.523  1.00  0.00     0.000 G0
ENDBRANCH   2   4
ENDBRANCH   1   2
BRANCH   1  11
ATOM     11  C   UNL     1     -53.765 -46.833  22.991  1.00  0.00     0.009 C 
BRANCH  11  12
ATOM     12  C   UNL     1     -53.803 -47.318  21.545  1.00  0.00    -0.001 C 
ATOM     13  C   UNL     1     -53.220 -48.754  21.532  1.00  0.00     0.002 CG0
ATOM     14  C   UNL     1     -54.590 -48.460  20.922  1.00  0.00    -0.029 C 
ATOM     15  G   UNL     1     -51.810 -48.639  20.927  1.00  0.00     0.000 G0
ATOM     16  C   UNL     1     -55.820 -48.938  21.702  1.00  0.00     0.011 C 
ATOM     17  C   UNL     1     -54.695 -48.446  19.394  1.00  0.00     0.011 C 
ENDBRANCH  11  12
ENDBRANCH   1  11
TORSDOF 0
ENDMDL
MODEL 9
REMARK VINA RESULT:    -4.114      9.563     11.727
REMARK INTER + INTRA:          -2.263
REMARK INTER:                  -5.095
REMARK INTRA:                   2.833
REMARK UNBOUND:                 2.813
REMARK SMILES C=C1CC[C@H]2[C@H]([C@H]3[C@@H]1CC[C@@H]3C)C2(C)C
REMARK SMILES IDX 3 1 2 2 1 3 8 4 12 5 11 6 10 7 7 8 9 9 4 11 5 12 6 13 13 14
REMARK SMILES IDX 14 16 15 17
REMARK H PARENT
REMARK Flexibility Score: 80.00
ROOT
ATOM      1  C   UNL     1     -43.627 -50.771  30.976  1.00  0.00     0.031 C 
ENDROOT
BRANCH   1   2
ATOM      2  C   UNL     1     -44.543 -49.748  30.307  1.00  0.00    -0.074 C 
ATOM      3  C   UNL     1     -45.370 -49.046  31.109  1.00  0.00     0.008 C 
BRANCH   2   4
ATOM      4  C   UNL     1     -44.583 -49.629  28.755  1.00  0.00     0.018 C 
ATOM      5  C   UNL     1     -42.803 -48.514  25.634  1.00  0.00     0.008 C 
ATOM      6  C   UNL     1     -43.498 -48.263  26.978  1.00  0.00    -0.010 C 
ATOM      7  C   UNL     1     -45.012 -48.228  26.825  1.00  0.00     0.004 C 
ATOM      8  C   UNL     1     -43.219 -49.360  28.027  1.00  0.00     0.003 CG0
ATOM      9  C   UNL     1     -45.530 -48.548  28.209  1.00  0.00     0.008 C 
ATOM     10  G   UNL     1     -42.147 -48.906  29.033  1.00  0.00     0.000 G0
ENDBRANCH   2   4
ENDBRANCH   1   2
BRANCH   1  11
ATOM     11  C   UNL     1     -42.171 -50.281  31.096  1.00  0.00     0.009 C 
BRANCH  11  12
ATOM     12  C   UNL     1     -41.592 -50.212  29.687  1.00  0.00    -0.001 C 
ATOM     13  C   UNL     1     -42.139 -48.917  29.034  1.00  0.00     0.002 CG0
ATOM     14  C   UNL     1     -40.638 -49.196  29.076  1.00  0.00    -0.029 C 
ATOM     15  G   UNL     1     -43.213 -49.366  28.027  1.00  0.00     0.000 G0
ATOM     16  C   UNL     1     -39.801 -48.375  30.064  1.00  0.00     0.011 C 
ATOM     17  C   UNL     1     -39.960 -49.617  27.769  1.00  0.00     0.011 C 
ENDBRANCH  11  12
ENDBRANCH   1  11
TORSDOF 0
ENDMDL
