MODEL 1
REMARK VINA RESULT:    -3.353      0.000      0.000
REMARK INTER + INTRA:          -8.215
REMARK INTER:                  -6.294
REMARK INTRA:                  -1.921
REMARK UNBOUND:                -1.921
REMARK SMILES O=C([O-])CCCCCCCCCCCCCCC(=O)[O-]
REMARK SMILES IDX 10 1 9 2 8 3 7 4 6 5 5 6 4 7 2 8 1 9 3 10 11 11 12 12 13 13
REMARK SMILES IDX 14 14 15 15 16 16 17 17 18 18 19 19 20 20
REMARK H PARENT
REMARK Flexibility Score: inf
ROOT
ATOM      1  C   UNL     1      45.619  33.407  47.376  1.00  0.00     0.000 C 
ENDROOT
BRANCH   1   2
ATOM      2  C   UNL     1      45.319  34.003  48.765  1.00  0.00     0.000 C 
BRANCH   2   3
ATOM      3  C   UNL     1      44.152  33.340  49.521  1.00  0.00     0.000 C 
BRANCH   3   4
ATOM      4  C   UNL     1      43.274  34.355  50.273  1.00  0.00     0.000 C 
BRANCH   4   5
ATOM      5  C   UNL     1      42.631  35.398  49.340  1.00  0.00     0.000 C 
BRANCH   5   6
ATOM      6  C   UNL     1      41.212  35.052  48.842  1.00  0.00     0.006 C 
BRANCH   6   7
ATOM      7  C   UNL     1      40.867  35.612  47.452  1.00  0.00     0.053 C 
BRANCH   7   8
ATOM      8  C   UNL     1      41.615  34.908  46.361  1.00  0.00     0.041 C 
ATOM      9  O   UNL     1      41.213  33.794  45.935  1.00  0.00    -0.550 OA
ATOM     10  O   UNL     1      42.734  35.501  45.790  1.00  0.00    -0.550 OA
ENDBRANCH   7   8
ENDBRANCH   6   7
ENDBRANCH   5   6
ENDBRANCH   4   5
ENDBRANCH   3   4
ENDBRANCH   2   3
ENDBRANCH   1   2
BRANCH   1  11
ATOM     11  C   UNL     1      44.515  32.464  46.878  1.00  0.00     0.000 C 
BRANCH  11  12
ATOM     12  C   UNL     1      45.112  31.194  46.259  1.00  0.00     0.000 C 
BRANCH  12  13
ATOM     13  C   UNL     1      45.909  30.397  47.302  1.00  0.00     0.000 C 
BRANCH  13  14
ATOM     14  C   UNL     1      45.041  29.918  48.475  1.00  0.00     0.000 C 
BRANCH  14  15
ATOM     15  C   UNL     1      45.823  29.827  49.793  1.00  0.00     0.000 C 
BRANCH  15  16
ATOM     16  C   UNL     1      46.956  30.859  49.831  1.00  0.00     0.006 C 
BRANCH  16  17
ATOM     17  C   UNL     1      47.885  30.617  51.024  1.00  0.00     0.053 C 
BRANCH  17  18
ATOM     18  C   UNL     1      48.797  31.787  51.223  1.00  0.00     0.041 C 
ATOM     19  O   UNL     1      48.794  32.739  50.400  1.00  0.00    -0.550 OA
ATOM     20  O   UNL     1      49.614  31.848  52.344  1.00  0.00    -0.550 OA
ENDBRANCH  17  18
ENDBRANCH  16  17
ENDBRANCH  15  16
ENDBRANCH  14  15
ENDBRANCH  13  14
ENDBRANCH  12  13
ENDBRANCH  11  12
ENDBRANCH   1  11
TORSDOF 15
ENDMDL
MODEL 2
REMARK VINA RESULT:    -3.303      2.443      3.829
REMARK INTER + INTRA:          -8.121
REMARK INTER:                  -5.995
REMARK INTRA:                  -2.126
REMARK UNBOUND:                -1.921
REMARK SMILES O=C([O-])CCCCCCCCCCCCCCC(=O)[O-]
REMARK SMILES IDX 10 1 9 2 8 3 7 4 6 5 5 6 4 7 2 8 1 9 3 10 11 11 12 12 13 13
REMARK SMILES IDX 14 14 15 15 16 16 17 17 18 18 19 19 20 20
REMARK H PARENT
REMARK Flexibility Score: inf
ROOT
ATOM      1  C   UNL     1      41.322  34.147  46.296  1.00  0.00     0.000 C 
ENDROOT
BRANCH   1   2
ATOM      2  C   UNL     1      40.654  35.262  47.123  1.00  0.00     0.000 C 
BRANCH   2   3
ATOM      3  C   UNL     1      40.997  35.256  48.625  1.00  0.00     0.000 C 
BRANCH   3   4
ATOM      4  C   UNL     1      42.245  34.419  48.949  1.00  0.00     0.000 C 
BRANCH   4   5
ATOM      5  C   UNL     1      43.035  34.961  50.154  1.00  0.00     0.000 C 
BRANCH   5   6
ATOM      6  C   UNL     1      44.336  35.714  49.805  1.00  0.00     0.006 C 
BRANCH   6   7
ATOM      7  C   UNL     1      44.318  36.428  48.443  1.00  0.00     0.053 C 
BRANCH   7   8
ATOM      8  C   UNL     1      44.335  37.919  48.589  1.00  0.00     0.041 C 
ATOM      9  O   UNL     1      44.200  38.656  47.576  1.00  0.00    -0.550 OA
ATOM     10  O   UNL     1      44.465  38.494  49.846  1.00  0.00    -0.550 OA
ENDBRANCH   7   8
ENDBRANCH   6   7
ENDBRANCH   5   6
ENDBRANCH   4   5
ENDBRANCH   3   4
ENDBRANCH   2   3
ENDBRANCH   1   2
BRANCH   1  11
ATOM     11  C   UNL     1      42.188  34.689  45.151  1.00  0.00     0.000 C 
BRANCH  11  12
ATOM     12  C   UNL     1      43.678  34.455  45.429  1.00  0.00     0.000 C 
BRANCH  12  13
ATOM     13  C   UNL     1      43.918  33.047  45.994  1.00  0.00     0.000 C 
BRANCH  13  14
ATOM     14  C   UNL     1      45.047  33.009  47.034  1.00  0.00     0.000 C 
BRANCH  14  15
ATOM     15  C   UNL     1      44.988  31.761  47.927  1.00  0.00     0.000 C 
BRANCH  15  16
ATOM     16  C   UNL     1      45.285  32.119  49.389  1.00  0.00     0.006 C 
BRANCH  16  17
ATOM     17  C   UNL     1      46.643  31.564  49.829  1.00  0.00     0.053 C 
BRANCH  17  18
ATOM     18  C   UNL     1      46.629  30.068  49.802  1.00  0.00     0.041 C 
ATOM     19  O   UNL     1      45.807  29.429  50.509  1.00  0.00    -0.550 OA
ATOM     20  O   UNL     1      47.492  29.380  48.959  1.00  0.00    -0.550 OA
ENDBRANCH  17  18
ENDBRANCH  16  17
ENDBRANCH  15  16
ENDBRANCH  14  15
ENDBRANCH  13  14
ENDBRANCH  12  13
ENDBRANCH  11  12
ENDBRANCH   1  11
TORSDOF 15
ENDMDL
MODEL 3
REMARK VINA RESULT:    -3.302      2.765      4.361
REMARK INTER + INTRA:          -8.119
REMARK INTER:                  -6.192
REMARK INTRA:                  -1.927
REMARK UNBOUND:                -1.921
REMARK SMILES O=C([O-])CCCCCCCCCCCCCCC(=O)[O-]
REMARK SMILES IDX 10 1 9 2 8 3 7 4 6 5 5 6 4 7 2 8 1 9 3 10 11 11 12 12 13 13
REMARK SMILES IDX 14 14 15 15 16 16 17 17 18 18 19 19 20 20
REMARK H PARENT
REMARK Flexibility Score: inf
ROOT
ATOM      1  C   UNL     1      41.763  34.505  48.808  1.00  0.00     0.000 C 
ENDROOT
BRANCH   1   2
ATOM      2  C   UNL     1      40.963  35.597  48.073  1.00  0.00     0.000 C 
BRANCH   2   3
ATOM      3  C   UNL     1      40.643  35.292  46.598  1.00  0.00     0.000 C 
BRANCH   3   4
ATOM      4  C   UNL     1      41.450  34.105  46.045  1.00  0.00     0.000 C 
BRANCH   4   5
ATOM      5  C   UNL     1      42.598  34.541  45.116  1.00  0.00     0.000 C 
BRANCH   5   6
ATOM      6  C   UNL     1      43.896  34.975  45.829  1.00  0.00     0.006 C 
BRANCH   6   7
ATOM      7  C   UNL     1      44.087  36.497  45.941  1.00  0.00     0.053 C 
BRANCH   7   8
ATOM      8  C   UNL     1      44.403  36.924  47.342  1.00  0.00     0.041 C 
ATOM      9  O   UNL     1      45.370  36.405  47.959  1.00  0.00    -0.550 OA
ATOM     10  O   UNL     1      43.652  37.920  47.951  1.00  0.00    -0.550 OA
ENDBRANCH   7   8
ENDBRANCH   6   7
ENDBRANCH   5   6
ENDBRANCH   4   5
ENDBRANCH   3   4
ENDBRANCH   2   3
ENDBRANCH   1   2
BRANCH   1  11
ATOM     11  C   UNL     1      42.665  35.066  49.916  1.00  0.00     0.000 C 
BRANCH  11  12
ATOM     12  C   UNL     1      43.810  34.098  50.238  1.00  0.00     0.000 C 
BRANCH  12  13
ATOM     13  C   UNL     1      43.947  33.025  49.147  1.00  0.00     0.000 C 
BRANCH  13  14
ATOM     14  C   UNL     1      45.353  32.982  48.530  1.00  0.00     0.000 C 
BRANCH  14  15
ATOM     15  C   UNL     1      46.214  31.843  49.096  1.00  0.00     0.000 C 
BRANCH  15  16
ATOM     16  C   UNL     1      45.342  30.797  49.803  1.00  0.00     0.006 C 
BRANCH  16  17
ATOM     17  C   UNL     1      46.178  29.594  50.250  1.00  0.00     0.053 C 
BRANCH  17  18
ATOM     18  C   UNL     1      45.629  28.331  49.664  1.00  0.00     0.041 C 
ATOM     19  O   UNL     1      46.035  27.212  50.075  1.00  0.00    -0.550 OA
ATOM     20  O   UNL     1      44.632  28.388  48.699  1.00  0.00    -0.550 OA
ENDBRANCH  17  18
ENDBRANCH  16  17
ENDBRANCH  15  16
ENDBRANCH  14  15
ENDBRANCH  13  14
ENDBRANCH  12  13
ENDBRANCH  11  12
ENDBRANCH   1  11
TORSDOF 15
ENDMDL
MODEL 4
REMARK VINA RESULT:    -3.259      2.510      6.606
REMARK INTER + INTRA:          -8.039
REMARK INTER:                  -6.145
REMARK INTRA:                  -1.894
REMARK UNBOUND:                -1.921
REMARK SMILES O=C([O-])CCCCCCCCCCCCCCC(=O)[O-]
REMARK SMILES IDX 10 1 9 2 8 3 7 4 6 5 5 6 4 7 2 8 1 9 3 10 11 11 12 12 13 13
REMARK SMILES IDX 14 14 15 15 16 16 17 17 18 18 19 19 20 20
REMARK H PARENT
REMARK Flexibility Score: inf
ROOT
ATOM      1  C   UNL     1      47.788  33.553  48.637  1.00  0.00     0.000 C 
ENDROOT
BRANCH   1   2
ATOM      2  C   UNL     1      48.380  32.186  49.026  1.00  0.00     0.000 C 
BRANCH   2   3
ATOM      3  C   UNL     1      48.409  31.893  50.538  1.00  0.00     0.000 C 
BRANCH   3   4
ATOM      4  C   UNL     1      47.655  30.606  50.912  1.00  0.00     0.000 C 
BRANCH   4   5
ATOM      5  C   UNL     1      47.935  29.444  49.943  1.00  0.00     0.000 C 
BRANCH   5   6
ATOM      6  C   UNL     1      46.762  28.464  49.731  1.00  0.00     0.006 C 
BRANCH   6   7
ATOM      7  C   UNL     1      45.416  29.135  49.413  1.00  0.00     0.053 C 
BRANCH   7   8
ATOM      8  C   UNL     1      44.744  28.516  48.226  1.00  0.00     0.041 C 
ATOM      9  O   UNL     1      44.950  28.974  47.071  1.00  0.00    -0.550 OA
ATOM     10  O   UNL     1      43.920  27.411  48.391  1.00  0.00    -0.550 OA
ENDBRANCH   7   8
ENDBRANCH   6   7
ENDBRANCH   5   6
ENDBRANCH   4   5
ENDBRANCH   3   4
ENDBRANCH   2   3
ENDBRANCH   1   2
BRANCH   1  11
ATOM     11  C   UNL     1      46.865  33.479  47.412  1.00  0.00     0.000 C 
BRANCH  11  12
ATOM     12  C   UNL     1      45.957  32.245  47.480  1.00  0.00     0.000 C 
BRANCH  12  13
ATOM     13  C   UNL     1      44.538  32.629  47.923  1.00  0.00     0.000 C 
BRANCH  13  14
ATOM     14  C   UNL     1      44.374  32.636  49.450  1.00  0.00     0.000 C 
BRANCH  14  15
ATOM     15  C   UNL     1      43.621  33.873  49.960  1.00  0.00     0.000 C 
BRANCH  15  16
ATOM     16  C   UNL     1      43.127  34.734  48.791  1.00  0.00     0.006 C 
BRANCH  16  17
ATOM     17  C   UNL     1      41.596  34.760  48.733  1.00  0.00     0.053 C 
BRANCH  17  18
ATOM     18  C   UNL     1      41.129  34.863  47.315  1.00  0.00     0.041 C 
ATOM     19  O   UNL     1      41.279  33.894  46.526  1.00  0.00    -0.550 OA
ATOM     20  O   UNL     1      40.482  36.012  46.879  1.00  0.00    -0.550 OA
ENDBRANCH  17  18
ENDBRANCH  16  17
ENDBRANCH  15  16
ENDBRANCH  14  15
ENDBRANCH  13  14
ENDBRANCH  12  13
ENDBRANCH  11  12
ENDBRANCH   1  11
TORSDOF 15
ENDMDL
MODEL 5
REMARK VINA RESULT:    -3.223      3.042      5.013
REMARK INTER + INTRA:          -7.971
REMARK INTER:                  -5.447
REMARK INTRA:                  -2.524
REMARK UNBOUND:                -1.921
REMARK SMILES O=C([O-])CCCCCCCCCCCCCCC(=O)[O-]
REMARK SMILES IDX 10 1 9 2 8 3 7 4 6 5 5 6 4 7 2 8 1 9 3 10 11 11 12 12 13 13
REMARK SMILES IDX 14 14 15 15 16 16 17 17 18 18 19 19 20 20
REMARK H PARENT
REMARK Flexibility Score: inf
ROOT
ATOM      1  C   UNL     1      41.249  34.148  46.132  1.00  0.00     0.000 C 
ENDROOT
BRANCH   1   2
ATOM      2  C   UNL     1      42.294  34.433  45.037  1.00  0.00     0.000 C 
BRANCH   2   3
ATOM      3  C   UNL     1      43.151  35.693  45.263  1.00  0.00     0.000 C 
BRANCH   3   4
ATOM      4  C   UNL     1      44.494  35.386  45.946  1.00  0.00     0.000 C 
BRANCH   4   5
ATOM      5  C   UNL     1      45.001  36.547  46.821  1.00  0.00     0.000 C 
BRANCH   5   6
ATOM      6  C   UNL     1      43.901  37.399  47.489  1.00  0.00     0.006 C 
BRANCH   6   7
ATOM      7  C   UNL     1      44.204  37.812  48.939  1.00  0.00     0.053 C 
BRANCH   7   8
ATOM      8  C   UNL     1      44.195  39.300  49.114  1.00  0.00     0.041 C 
ATOM      9  O   UNL     1      44.985  39.847  49.927  1.00  0.00    -0.550 OA
ATOM     10  O   UNL     1      43.339  40.085  48.353  1.00  0.00    -0.550 OA
ENDBRANCH   7   8
ENDBRANCH   6   7
ENDBRANCH   5   6
ENDBRANCH   4   5
ENDBRANCH   3   4
ENDBRANCH   2   3
ENDBRANCH   1   2
BRANCH   1  11
ATOM     11  C   UNL     1      40.774  35.418  46.851  1.00  0.00     0.000 C 
BRANCH  11  12
ATOM     12  C   UNL     1      41.096  35.358  48.349  1.00  0.00     0.000 C 
BRANCH  12  13
ATOM     13  C   UNL     1      41.993  34.153  48.671  1.00  0.00     0.000 C 
BRANCH  13  14
ATOM     14  C   UNL     1      43.079  34.481  49.706  1.00  0.00     0.000 C 
BRANCH  14  15
ATOM     15  C   UNL     1      44.421  33.803  49.393  1.00  0.00     0.000 C 
BRANCH  15  16
ATOM     16  C   UNL     1      44.239  32.675  48.370  1.00  0.00     0.006 C 
BRANCH  16  17
ATOM     17  C   UNL     1      45.512  31.832  48.246  1.00  0.00     0.053 C 
BRANCH  17  18
ATOM     18  C   UNL     1      45.295  30.469  48.825  1.00  0.00     0.041 C 
ATOM     19  O   UNL     1      44.845  29.540  48.105  1.00  0.00    -0.550 OA
ATOM     20  O   UNL     1      45.635  30.213  50.146  1.00  0.00    -0.550 OA
ENDBRANCH  17  18
ENDBRANCH  16  17
ENDBRANCH  15  16
ENDBRANCH  14  15
ENDBRANCH  13  14
ENDBRANCH  12  13
ENDBRANCH  11  12
ENDBRANCH   1  11
TORSDOF 15
ENDMDL
MODEL 6
REMARK VINA RESULT:    -3.169      2.194      6.095
REMARK INTER + INTRA:          -7.869
REMARK INTER:                  -5.920
REMARK INTRA:                  -1.949
REMARK UNBOUND:                -1.921
REMARK SMILES O=C([O-])CCCCCCCCCCCCCCC(=O)[O-]
REMARK SMILES IDX 10 1 9 2 8 3 7 4 6 5 5 6 4 7 2 8 1 9 3 10 11 11 12 12 13 13
REMARK SMILES IDX 14 14 15 15 16 16 17 17 18 18 19 19 20 20
REMARK H PARENT
REMARK Flexibility Score: inf
ROOT
ATOM      1  C   UNL     1      43.586  34.446  45.542  1.00  0.00     0.000 C 
ENDROOT
BRANCH   1   2
ATOM      2  C   UNL     1      44.339  33.105  45.446  1.00  0.00     0.000 C 
BRANCH   2   3
ATOM      3  C   UNL     1      44.667  32.441  46.797  1.00  0.00     0.000 C 
BRANCH   3   4
ATOM      4  C   UNL     1      45.282  31.041  46.640  1.00  0.00     0.000 C 
BRANCH   4   5
ATOM      5  C   UNL     1      45.216  30.209  47.933  1.00  0.00     0.000 C 
BRANCH   5   6
ATOM      6  C   UNL     1      45.251  31.021  49.244  1.00  0.00     0.006 C 
BRANCH   6   7
ATOM      7  C   UNL     1      46.605  31.004  49.972  1.00  0.00     0.053 C 
BRANCH   7   8
ATOM      8  C   UNL     1      47.059  29.612  50.286  1.00  0.00     0.041 C 
ATOM      9  O   UNL     1      46.545  28.979  51.245  1.00  0.00    -0.550 OA
ATOM     10  O   UNL     1      48.023  29.000  49.496  1.00  0.00    -0.550 OA
ENDBRANCH   7   8
ENDBRANCH   6   7
ENDBRANCH   5   6
ENDBRANCH   4   5
ENDBRANCH   3   4
ENDBRANCH   2   3
ENDBRANCH   1   2
BRANCH   1  11
ATOM     11  C   UNL     1      42.115  34.338  45.118  1.00  0.00     0.000 C 
BRANCH  11  12
ATOM     12  C   UNL     1      41.199  34.189  46.339  1.00  0.00     0.000 C 
BRANCH  12  13
ATOM     13  C   UNL     1      41.044  35.527  47.078  1.00  0.00     0.000 C 
BRANCH  13  14
ATOM     14  C   UNL     1      41.561  35.470  48.523  1.00  0.00     0.000 C 
BRANCH  14  15
ATOM     15  C   UNL     1      42.175  34.108  48.880  1.00  0.00     0.000 C 
BRANCH  15  16
ATOM     16  C   UNL     1      43.462  34.284  49.694  1.00  0.00     0.006 C 
BRANCH  16  17
ATOM     17  C   UNL     1      44.064  35.676  49.480  1.00  0.00     0.053 C 
BRANCH  17  18
ATOM     18  C   UNL     1      45.376  35.574  48.768  1.00  0.00     0.041 C 
ATOM     19  O   UNL     1      45.667  36.391  47.855  1.00  0.00    -0.550 OA
ATOM     20  O   UNL     1      46.298  34.606  49.145  1.00  0.00    -0.550 OA
ENDBRANCH  17  18
ENDBRANCH  16  17
ENDBRANCH  15  16
ENDBRANCH  14  15
ENDBRANCH  13  14
ENDBRANCH  12  13
ENDBRANCH  11  12
ENDBRANCH   1  11
TORSDOF 15
ENDMDL
MODEL 7
REMARK VINA RESULT:    -3.155      2.784      5.727
REMARK INTER + INTRA:          -7.842
REMARK INTER:                  -5.496
REMARK INTRA:                  -2.347
REMARK UNBOUND:                -1.921
REMARK SMILES O=C([O-])CCCCCCCCCCCCCCC(=O)[O-]
REMARK SMILES IDX 10 1 9 2 8 3 7 4 6 5 5 6 4 7 2 8 1 9 3 10 11 11 12 12 13 13
REMARK SMILES IDX 14 14 15 15 16 16 17 17 18 18 19 19 20 20
REMARK H PARENT
REMARK Flexibility Score: inf
ROOT
ATOM      1  C   UNL     1      40.890  35.623  48.045  1.00  0.00     0.000 C 
ENDROOT
BRANCH   1   2
ATOM      2  C   UNL     1      41.773  34.560  48.726  1.00  0.00     0.000 C 
BRANCH   2   3
ATOM      3  C   UNL     1      42.740  35.102  49.796  1.00  0.00     0.000 C 
BRANCH   3   4
ATOM      4  C   UNL     1      43.833  34.091  50.180  1.00  0.00     0.000 C 
BRANCH   4   5
ATOM      5  C   UNL     1      43.853  32.853  49.266  1.00  0.00     0.000 C 
BRANCH   5   6
ATOM      6  C   UNL     1      45.024  31.876  49.501  1.00  0.00     0.006 C 
BRANCH   6   7
ATOM      7  C   UNL     1      45.608  31.257  48.220  1.00  0.00     0.053 C 
BRANCH   7   8
ATOM      8  C   UNL     1      45.208  29.822  48.056  1.00  0.00     0.041 C 
ATOM      9  O   UNL     1      45.081  29.328  46.904  1.00  0.00    -0.550 OA
ATOM     10  O   UNL     1      45.010  29.023  49.174  1.00  0.00    -0.550 OA
ENDBRANCH   7   8
ENDBRANCH   6   7
ENDBRANCH   5   6
ENDBRANCH   4   5
ENDBRANCH   3   4
ENDBRANCH   2   3
ENDBRANCH   1   2
BRANCH   1  11
ATOM     11  C   UNL     1      40.510  35.251  46.605  1.00  0.00     0.000 C 
BRANCH  11  12
ATOM     12  C   UNL     1      41.205  36.173  45.595  1.00  0.00     0.000 C 
BRANCH  12  13
ATOM     13  C   UNL     1      42.102  37.195  46.310  1.00  0.00     0.000 C 
BRANCH  13  14
ATOM     14  C   UNL     1      43.583  37.056  45.927  1.00  0.00     0.000 C 
BRANCH  14  15
ATOM     15  C   UNL     1      43.909  35.690  45.306  1.00  0.00     0.000 C 
BRANCH  15  16
ATOM     16  C   UNL     1      44.628  34.787  46.316  1.00  0.00     0.006 C 
BRANCH  16  17
ATOM     17  C   UNL     1      45.518  35.608  47.254  1.00  0.00     0.053 C 
BRANCH  17  18
ATOM     18  C   UNL     1      46.717  34.811  47.666  1.00  0.00     0.041 C 
ATOM     19  O   UNL     1      47.050  34.748  48.878  1.00  0.00    -0.550 OA
ATOM     20  O   UNL     1      47.437  34.099  46.716  1.00  0.00    -0.550 OA
ENDBRANCH  17  18
ENDBRANCH  16  17
ENDBRANCH  15  16
ENDBRANCH  14  15
ENDBRANCH  13  14
ENDBRANCH  12  13
ENDBRANCH  11  12
ENDBRANCH   1  11
TORSDOF 15
ENDMDL
MODEL 8
REMARK VINA RESULT:    -3.111      1.200      7.258
REMARK INTER + INTRA:          -7.760
REMARK INTER:                  -5.812
REMARK INTRA:                  -1.948
REMARK UNBOUND:                -1.921
REMARK SMILES O=C([O-])CCCCCCCCCCCCCCC(=O)[O-]
REMARK SMILES IDX 10 1 9 2 8 3 7 4 6 5 5 6 4 7 2 8 1 9 3 10 11 11 12 12 13 13
REMARK SMILES IDX 14 14 15 15 16 16 17 17 18 18 19 19 20 20
REMARK H PARENT
REMARK Flexibility Score: inf
ROOT
ATOM      1  C   UNL     1      45.779  29.819  47.574  1.00  0.00     0.000 C 
ENDROOT
BRANCH   1   2
ATOM      2  C   UNL     1      45.030  28.945  48.598  1.00  0.00     0.000 C 
BRANCH   2   3
ATOM      3  C   UNL     1      45.474  29.128  50.062  1.00  0.00     0.000 C 
BRANCH   3   4
ATOM      4  C   UNL     1      47.001  29.062  50.235  1.00  0.00     0.000 C 
BRANCH   4   5
ATOM      5  C   UNL     1      47.581  30.309  50.925  1.00  0.00     0.000 C 
BRANCH   5   6
ATOM      6  C   UNL     1      48.658  31.068  50.122  1.00  0.00     0.006 C 
BRANCH   6   7
ATOM      7  C   UNL     1      48.907  32.511  50.589  1.00  0.00     0.053 C 
BRANCH   7   8
ATOM      8  C   UNL     1      50.026  32.597  51.581  1.00  0.00     0.041 C 
ATOM      9  O   UNL     1      50.543  31.547  52.045  1.00  0.00    -0.550 OA
ATOM     10  O   UNL     1      50.521  33.836  51.965  1.00  0.00    -0.550 OA
ENDBRANCH   7   8
ENDBRANCH   6   7
ENDBRANCH   5   6
ENDBRANCH   4   5
ENDBRANCH   3   4
ENDBRANCH   2   3
ENDBRANCH   1   2
BRANCH   1  11
ATOM     11  C   UNL     1      45.162  31.216  47.415  1.00  0.00     0.000 C 
BRANCH  11  12
ATOM     12  C   UNL     1      46.199  32.311  47.693  1.00  0.00     0.000 C 
BRANCH  12  13
ATOM     13  C   UNL     1      45.730  33.239  48.823  1.00  0.00     0.000 C 
BRANCH  13  14
ATOM     14  C   UNL     1      44.598  32.628  49.662  1.00  0.00     0.000 C 
BRANCH  14  15
ATOM     15  C   UNL     1      43.539  33.661  50.073  1.00  0.00     0.000 C 
BRANCH  15  16
ATOM     16  C   UNL     1      43.191  34.585  48.899  1.00  0.00     0.006 C 
BRANCH  16  17
ATOM     17  C   UNL     1      41.723  34.429  48.490  1.00  0.00     0.053 C 
BRANCH  17  18
ATOM     18  C   UNL     1      41.430  35.250  47.273  1.00  0.00     0.041 C 
ATOM     19  O   UNL     1      40.242  35.407  46.886  1.00  0.00    -0.550 OA
ATOM     20  O   UNL     1      42.464  35.881  46.595  1.00  0.00    -0.550 OA
ENDBRANCH  17  18
ENDBRANCH  16  17
ENDBRANCH  15  16
ENDBRANCH  14  15
ENDBRANCH  13  14
ENDBRANCH  12  13
ENDBRANCH  11  12
ENDBRANCH   1  11
TORSDOF 15
ENDMDL
MODEL 9
REMARK VINA RESULT:    -3.083      2.571      3.613
REMARK INTER + INTRA:          -7.707
REMARK INTER:                  -5.981
REMARK INTRA:                  -1.727
REMARK UNBOUND:                -1.921
REMARK SMILES O=C([O-])CCCCCCCCCCCCCCC(=O)[O-]
REMARK SMILES IDX 10 1 9 2 8 3 7 4 6 5 5 6 4 7 2 8 1 9 3 10 11 11 12 12 13 13
REMARK SMILES IDX 14 14 15 15 16 16 17 17 18 18 19 19 20 20
REMARK H PARENT
REMARK Flexibility Score: inf
ROOT
ATOM      1  C   UNL     1      44.133  32.989  46.649  1.00  0.00     0.000 C 
ENDROOT
BRANCH   1   2
ATOM      2  C   UNL     1      43.576  33.666  45.382  1.00  0.00     0.000 C 
BRANCH   2   3
ATOM      3  C   UNL     1      43.449  35.199  45.463  1.00  0.00     0.000 C 
BRANCH   3   4
ATOM      4  C   UNL     1      42.003  35.689  45.273  1.00  0.00     0.000 C 
BRANCH   4   5
ATOM      5  C   UNL     1      40.989  34.915  46.134  1.00  0.00     0.000 C 
BRANCH   5   6
ATOM      6  C   UNL     1      40.828  35.424  47.582  1.00  0.00     0.006 C 
BRANCH   6   7
ATOM      7  C   UNL     1      41.544  34.573  48.644  1.00  0.00     0.053 C 
BRANCH   7   8
ATOM      8  C   UNL     1      42.599  35.350  49.370  1.00  0.00     0.041 C 
ATOM      9  O   UNL     1      43.206  36.288  48.791  1.00  0.00    -0.550 OA
ATOM     10  O   UNL     1      42.885  35.060  50.698  1.00  0.00    -0.550 OA
ENDBRANCH   7   8
ENDBRANCH   6   7
ENDBRANCH   5   6
ENDBRANCH   4   5
ENDBRANCH   3   4
ENDBRANCH   2   3
ENDBRANCH   1   2
BRANCH   1  11
ATOM     11  C   UNL     1      45.379  33.692  47.205  1.00  0.00     0.000 C 
BRANCH  11  12
ATOM     12  C   UNL     1      45.575  33.370  48.692  1.00  0.00     0.000 C 
BRANCH  12  13
ATOM     13  C   UNL     1      44.622  32.254  49.145  1.00  0.00     0.000 C 
BRANCH  13  14
ATOM     14  C   UNL     1      45.346  30.927  49.412  1.00  0.00     0.000 C 
BRANCH  14  15
ATOM     15  C   UNL     1      46.793  31.126  49.888  1.00  0.00     0.000 C 
BRANCH  15  16
ATOM     16  C   UNL     1      47.213  30.004  50.845  1.00  0.00     0.006 C 
BRANCH  16  17
ATOM     17  C   UNL     1      48.155  29.013  50.154  1.00  0.00     0.053 C 
BRANCH  17  18
ATOM     18  C   UNL     1      47.429  27.747  49.821  1.00  0.00     0.041 C 
ATOM     19  O   UNL     1      48.023  26.816  49.218  1.00  0.00    -0.550 OA
ATOM     20  O   UNL     1      46.109  27.578  50.220  1.00  0.00    -0.550 OA
ENDBRANCH  17  18
ENDBRANCH  16  17
ENDBRANCH  15  16
ENDBRANCH  14  15
ENDBRANCH  13  14
ENDBRANCH  12  13
ENDBRANCH  11  12
ENDBRANCH   1  11
TORSDOF 15
ENDMDL
