MODEL 1
REMARK VINA RESULT:    -5.715      0.000      0.000
REMARK INTER + INTRA:          -5.715
REMARK INTER:                  -5.715
REMARK INTRA:                   0.000
REMARK UNBOUND:                 0.000
REMARK SMILES c1ccc2nc3ccccc3cc2c1
REMARK SMILES IDX 1 1 2 2 3 3 4 4 13 5 14 6 12 7 11 8 10 9 9 10 8 11 7 12 6 13
REMARK SMILES IDX 5 14
REMARK H PARENT
REMARK Flexibility Score: inf
ROOT
ATOM      1  C   UNL     1      -6.249 -15.020   3.954  1.00  0.00     0.001 A 
ATOM      2  C   UNL     1      -7.330 -15.895   4.092  1.00  0.00     0.002 A 
ATOM      3  C   UNL     1      -7.982 -16.394   2.959  1.00  0.00     0.029 A 
ATOM      4  C   UNL     1      -7.552 -16.015   1.681  1.00  0.00     0.071 A 
ATOM      5  C   UNL     1      -6.459 -15.131   1.539  1.00  0.00     0.001 A 
ATOM      6  C   UNL     1      -5.812 -14.636   2.682  1.00  0.00     0.010 A 
ATOM      7  C   UNL     1      -6.041 -14.762   0.254  1.00  0.00     0.020 A 
ATOM      8  C   UNL     1      -6.707 -15.273  -0.868  1.00  0.00     0.001 A 
ATOM      9  C   UNL     1      -6.314 -14.924  -2.169  1.00  0.00     0.010 A 
ATOM     10  C   UNL     1      -6.998 -15.449  -3.270  1.00  0.00     0.001 A 
ATOM     11  C   UNL     1      -8.073 -16.323  -3.081  1.00  0.00     0.002 A 
ATOM     12  C   UNL     1      -8.473 -16.676  -1.788  1.00  0.00     0.029 A 
ATOM     13  C   UNL     1      -7.796 -16.156  -0.679  1.00  0.00     0.071 A 
ATOM     14  N   UNL     1      -8.184 -16.500   0.578  1.00  0.00    -0.248 NA
ENDROOT
TORSDOF 0
ENDMDL
MODEL 2
REMARK VINA RESULT:    -5.697      0.070      4.831
REMARK INTER + INTRA:          -5.697
REMARK INTER:                  -5.697
REMARK INTRA:                   0.000
REMARK UNBOUND:                 0.000
REMARK SMILES c1ccc2nc3ccccc3cc2c1
REMARK SMILES IDX 1 1 2 2 3 3 4 4 13 5 14 6 12 7 11 8 10 9 9 10 8 11 7 12 6 13
REMARK SMILES IDX 5 14
REMARK H PARENT
REMARK Flexibility Score: inf
ROOT
ATOM      1  C   UNL     1      -6.950 -15.454  -3.255  1.00  0.00     0.001 A 
ATOM      2  C   UNL     1      -8.019 -16.337  -3.074  1.00  0.00     0.002 A 
ATOM      3  C   UNL     1      -8.437 -16.679  -1.784  1.00  0.00     0.029 A 
ATOM      4  C   UNL     1      -7.785 -16.139  -0.669  1.00  0.00     0.071 A 
ATOM      5  C   UNL     1      -6.704 -15.246  -0.851  1.00  0.00     0.001 A 
ATOM      6  C   UNL     1      -6.292 -14.908  -2.149  1.00  0.00     0.010 A 
ATOM      7  C   UNL     1      -6.062 -14.713   0.275  1.00  0.00     0.020 A 
ATOM      8  C   UNL     1      -6.498 -15.070   1.558  1.00  0.00     0.001 A 
ATOM      9  C   UNL     1      -5.877 -14.554   2.706  1.00  0.00     0.010 A 
ATOM     10  C   UNL     1      -6.332 -14.928   3.974  1.00  0.00     0.001 A 
ATOM     11  C   UNL     1      -7.406 -15.814   4.105  1.00  0.00     0.002 A 
ATOM     12  C   UNL     1      -8.031 -16.334   2.967  1.00  0.00     0.029 A 
ATOM     13  C   UNL     1      -7.583 -15.966   1.692  1.00  0.00     0.071 A 
ATOM     14  N   UNL     1      -8.192 -16.471   0.585  1.00  0.00    -0.248 NA
ENDROOT
TORSDOF 0
ENDMDL
MODEL 3
REMARK VINA RESULT:    -5.478      0.834      5.277
REMARK INTER + INTRA:          -5.478
REMARK INTER:                  -5.478
REMARK INTRA:                   0.000
REMARK UNBOUND:                 0.000
REMARK SMILES c1ccc2nc3ccccc3cc2c1
REMARK SMILES IDX 1 1 2 2 3 3 4 4 13 5 14 6 12 7 11 8 10 9 9 10 8 11 7 12 6 13
REMARK SMILES IDX 5 14
REMARK H PARENT
REMARK Flexibility Score: inf
ROOT
ATOM      1  C   UNL     1      -8.019 -16.261  -3.250  1.00  0.00     0.001 A 
ATOM      2  C   UNL     1      -6.937 -15.387  -3.401  1.00  0.00     0.002 A 
ATOM      3  C   UNL     1      -6.287 -14.872  -2.275  1.00  0.00     0.029 A 
ATOM      4  C   UNL     1      -6.718 -15.231  -0.992  1.00  0.00     0.071 A 
ATOM      5  C   UNL     1      -7.810 -16.115  -0.838  1.00  0.00     0.001 A 
ATOM      6  C   UNL     1      -8.456 -16.626  -1.973  1.00  0.00     0.010 A 
ATOM      7  C   UNL     1      -8.229 -16.464   0.453  1.00  0.00     0.020 A 
ATOM      8  C   UNL     1      -7.563 -15.937   1.567  1.00  0.00     0.001 A 
ATOM      9  C   UNL     1      -7.957 -16.267   2.873  1.00  0.00     0.010 A 
ATOM     10  C   UNL     1      -7.274 -15.726   3.967  1.00  0.00     0.001 A 
ATOM     11  C   UNL     1      -6.197 -14.857   3.765  1.00  0.00     0.002 A 
ATOM     12  C   UNL     1      -5.797 -14.521   2.468  1.00  0.00     0.029 A 
ATOM     13  C   UNL     1      -6.475 -15.057   1.366  1.00  0.00     0.071 A 
ATOM     14  N   UNL     1      -6.085 -14.732   0.104  1.00  0.00    -0.248 NA
ENDROOT
TORSDOF 0
ENDMDL
MODEL 4
REMARK VINA RESULT:    -5.415      0.822      2.120
REMARK INTER + INTRA:          -5.415
REMARK INTER:                  -5.415
REMARK INTRA:                   0.000
REMARK UNBOUND:                 0.000
REMARK SMILES c1ccc2nc3ccccc3cc2c1
REMARK SMILES IDX 1 1 2 2 3 3 4 4 13 5 14 6 12 7 11 8 10 9 9 10 8 11 7 12 6 13
REMARK SMILES IDX 5 14
REMARK H PARENT
REMARK Flexibility Score: inf
ROOT
ATOM      1  C   UNL     1      -7.356 -15.679   4.083  1.00  0.00     0.001 A 
ATOM      2  C   UNL     1      -6.273 -14.820   3.870  1.00  0.00     0.002 A 
ATOM      3  C   UNL     1      -5.865 -14.511   2.568  1.00  0.00     0.029 A 
ATOM      4  C   UNL     1      -6.540 -15.064   1.473  1.00  0.00     0.071 A 
ATOM      5  C   UNL     1      -7.635 -15.932   1.686  1.00  0.00     0.001 A 
ATOM      6  C   UNL     1      -8.037 -16.236   2.995  1.00  0.00     0.010 A 
ATOM      7  C   UNL     1      -8.300 -16.477   0.579  1.00  0.00     0.020 A 
ATOM      8  C   UNL     1      -7.874 -16.154  -0.716  1.00  0.00     0.001 A 
ATOM      9  C   UNL     1      -8.519 -16.682  -1.846  1.00  0.00     0.010 A 
ATOM     10  C   UNL     1      -8.072 -16.342  -3.127  1.00  0.00     0.001 A 
ATOM     11  C   UNL     1      -6.986 -15.478  -3.288  1.00  0.00     0.002 A 
ATOM     12  C   UNL     1      -6.336 -14.947  -2.169  1.00  0.00     0.029 A 
ATOM     13  C   UNL     1      -6.775 -15.280  -0.882  1.00  0.00     0.071 A 
ATOM     14  N   UNL     1      -6.144 -14.763   0.207  1.00  0.00    -0.248 NA
ENDROOT
TORSDOF 0
ENDMDL
MODEL 5
REMARK VINA RESULT:    -5.250     10.324     11.752
REMARK INTER + INTRA:          -5.250
REMARK INTER:                  -5.250
REMARK INTRA:                   0.000
REMARK UNBOUND:                 0.000
REMARK SMILES c1ccc2nc3ccccc3cc2c1
REMARK SMILES IDX 1 1 2 2 3 3 4 4 13 5 14 6 12 7 11 8 10 9 9 10 8 11 7 12 6 13
REMARK SMILES IDX 5 14
REMARK H PARENT
REMARK Flexibility Score: inf
ROOT
ATOM      1  C   UNL     1      -5.629 -19.883  -9.149  1.00  0.00     0.001 A 
ATOM      2  C   UNL     1      -6.799 -19.177  -8.852  1.00  0.00     0.002 A 
ATOM      3  C   UNL     1      -6.946 -17.851  -9.272  1.00  0.00     0.029 A 
ATOM      4  C   UNL     1      -5.920 -17.226  -9.991  1.00  0.00     0.071 A 
ATOM      5  C   UNL     1      -4.737 -17.939 -10.292  1.00  0.00     0.001 A 
ATOM      6  C   UNL     1      -4.599 -19.268  -9.867  1.00  0.00     0.010 A 
ATOM      7  C   UNL     1      -3.719 -17.299 -11.013  1.00  0.00     0.020 A 
ATOM      8  C   UNL     1      -3.888 -15.971 -11.424  1.00  0.00     0.001 A 
ATOM      9  C   UNL     1      -2.888 -15.301 -12.148  1.00  0.00     0.010 A 
ATOM     10  C   UNL     1      -3.083 -13.975 -12.545  1.00  0.00     0.001 A 
ATOM     11  C   UNL     1      -4.271 -13.310 -12.225  1.00  0.00     0.002 A 
ATOM     12  C   UNL     1      -5.272 -13.968 -11.504  1.00  0.00     0.029 A 
ATOM     13  C   UNL     1      -5.087 -15.296 -11.101  1.00  0.00     0.071 A 
ATOM     14  N   UNL     1      -6.062 -15.937 -10.401  1.00  0.00    -0.248 NA
ENDROOT
TORSDOF 0
ENDMDL
MODEL 6
REMARK VINA RESULT:    -5.238     10.321     12.149
REMARK INTER + INTRA:          -5.238
REMARK INTER:                  -5.238
REMARK INTRA:                   0.000
REMARK UNBOUND:                 0.000
REMARK SMILES c1ccc2nc3ccccc3cc2c1
REMARK SMILES IDX 1 1 2 2 3 3 4 4 13 5 14 6 12 7 11 8 10 9 9 10 8 11 7 12 6 13
REMARK SMILES IDX 5 14
REMARK H PARENT
REMARK Flexibility Score: inf
ROOT
ATOM      1  C   UNL     1      -3.085 -13.952 -12.602  1.00  0.00     0.001 A 
ATOM      2  C   UNL     1      -4.289 -13.295 -12.329  1.00  0.00     0.002 A 
ATOM      3  C   UNL     1      -5.300 -13.946 -11.614  1.00  0.00     0.029 A 
ATOM      4  C   UNL     1      -5.109 -15.260 -11.170  1.00  0.00     0.071 A 
ATOM      5  C   UNL     1      -3.892 -15.926 -11.445  1.00  0.00     0.001 A 
ATOM      6  C   UNL     1      -2.885 -15.265 -12.163  1.00  0.00     0.010 A 
ATOM      7  C   UNL     1      -3.717 -17.241 -10.994  1.00  0.00     0.020 A 
ATOM      8  C   UNL     1      -4.742 -17.874 -10.279  1.00  0.00     0.001 A 
ATOM      9  C   UNL     1      -4.598 -19.190  -9.813  1.00  0.00     0.010 A 
ATOM     10  C   UNL     1      -5.638 -19.798  -9.103  1.00  0.00     0.001 A 
ATOM     11  C   UNL     1      -6.823 -19.099  -8.853  1.00  0.00     0.002 A 
ATOM     12  C   UNL     1      -6.977 -17.787  -9.314  1.00  0.00     0.029 A 
ATOM     13  C   UNL     1      -5.942 -17.170 -10.027  1.00  0.00     0.071 A 
ATOM     14  N   UNL     1      -6.091 -15.894 -10.474  1.00  0.00    -0.248 NA
ENDROOT
TORSDOF 0
ENDMDL
MODEL 7
REMARK VINA RESULT:    -5.233     10.435     11.819
REMARK INTER + INTRA:          -5.233
REMARK INTER:                  -5.233
REMARK INTRA:                   0.000
REMARK UNBOUND:                 0.000
REMARK SMILES c1ccc2nc3ccccc3cc2c1
REMARK SMILES IDX 1 1 2 2 3 3 4 4 13 5 14 6 12 7 11 8 10 9 9 10 8 11 7 12 6 13
REMARK SMILES IDX 5 14
REMARK H PARENT
REMARK Flexibility Score: inf
ROOT
ATOM      1  C   UNL     1      -6.760 -19.212  -8.860  1.00  0.00     0.001 A 
ATOM      2  C   UNL     1      -5.560 -19.867  -9.154  1.00  0.00     0.002 A 
ATOM      3  C   UNL     1      -4.552 -19.204  -9.863  1.00  0.00     0.029 A 
ATOM      4  C   UNL     1      -4.743 -17.881 -10.280  1.00  0.00     0.071 A 
ATOM      5  C   UNL     1      -5.956 -17.217  -9.983  1.00  0.00     0.001 A 
ATOM      6  C   UNL     1      -6.960 -17.890  -9.272  1.00  0.00     0.010 A 
ATOM      7  C   UNL     1      -6.131 -15.893 -10.407  1.00  0.00     0.020 A 
ATOM      8  C   UNL     1      -5.108 -15.249 -11.115  1.00  0.00     0.001 A 
ATOM      9  C   UNL     1      -5.252 -13.923 -11.554  1.00  0.00     0.010 A 
ATOM     10  C   UNL     1      -4.214 -13.304 -12.259  1.00  0.00     0.001 A 
ATOM     11  C   UNL     1      -3.032 -14.001 -12.529  1.00  0.00     0.002 A 
ATOM     12  C   UNL     1      -2.880 -15.322 -12.096  1.00  0.00     0.029 A 
ATOM     13  C   UNL     1      -3.912 -15.951 -11.390  1.00  0.00     0.071 A 
ATOM     14  N   UNL     1      -3.763 -17.235 -10.968  1.00  0.00    -0.248 NA
ENDROOT
TORSDOF 0
ENDMDL
MODEL 8
REMARK VINA RESULT:    -5.222     10.434     12.197
REMARK INTER + INTRA:          -5.222
REMARK INTER:                  -5.222
REMARK INTRA:                   0.000
REMARK UNBOUND:                 0.000
REMARK SMILES c1ccc2nc3ccccc3cc2c1
REMARK SMILES IDX 1 1 2 2 3 3 4 4 13 5 14 6 12 7 11 8 10 9 9 10 8 11 7 12 6 13
REMARK SMILES IDX 5 14
REMARK H PARENT
REMARK Flexibility Score: inf
ROOT
ATOM      1  C   UNL     1      -4.237 -13.273 -12.258  1.00  0.00     0.001 A 
ATOM      2  C   UNL     1      -3.057 -13.964 -12.548  1.00  0.00     0.002 A 
ATOM      3  C   UNL     1      -2.895 -15.288 -12.125  1.00  0.00     0.029 A 
ATOM      4  C   UNL     1      -3.916 -15.924 -11.409  1.00  0.00     0.071 A 
ATOM      5  C   UNL     1      -5.110 -15.227 -11.114  1.00  0.00     0.001 A 
ATOM      6  C   UNL     1      -5.263 -13.899 -11.542  1.00  0.00     0.010 A 
ATOM      7  C   UNL     1      -6.122 -15.877 -10.397  1.00  0.00     0.020 A 
ATOM      8  C   UNL     1      -5.939 -17.204  -9.983  1.00  0.00     0.001 A 
ATOM      9  C   UNL     1      -6.933 -17.884  -9.263  1.00  0.00     0.010 A 
ATOM     10  C   UNL     1      -6.723 -19.208  -8.863  1.00  0.00     0.001 A 
ATOM     11  C   UNL     1      -5.526 -19.858  -9.178  1.00  0.00     0.002 A 
ATOM     12  C   UNL     1      -4.529 -19.188  -9.894  1.00  0.00     0.029 A 
ATOM     13  C   UNL     1      -4.729 -17.863 -10.300  1.00  0.00     0.071 A 
ATOM     14  N   UNL     1      -3.760 -17.212 -10.998  1.00  0.00    -0.248 NA
ENDROOT
TORSDOF 0
ENDMDL
MODEL 9
REMARK VINA RESULT:    -5.053      4.280      6.286
REMARK INTER + INTRA:          -5.053
REMARK INTER:                  -5.053
REMARK INTRA:                   0.000
REMARK UNBOUND:                 0.000
REMARK SMILES c1ccc2nc3ccccc3cc2c1
REMARK SMILES IDX 1 1 2 2 3 3 4 4 13 5 14 6 12 7 11 8 10 9 9 10 8 11 7 12 6 13
REMARK SMILES IDX 5 14
REMARK H PARENT
REMARK Flexibility Score: inf
ROOT
ATOM      1  C   UNL     1      -5.740 -22.597  -3.250  1.00  0.00     0.001 A 
ATOM      2  C   UNL     1      -4.385 -22.263  -3.152  1.00  0.00     0.002 A 
ATOM      3  C   UNL     1      -4.004 -20.950  -2.854  1.00  0.00     0.029 A 
ATOM      4  C   UNL     1      -4.979 -19.966  -2.653  1.00  0.00     0.071 A 
ATOM      5  C   UNL     1      -6.349 -20.302  -2.751  1.00  0.00     0.001 A 
ATOM      6  C   UNL     1      -6.721 -21.621  -3.050  1.00  0.00     0.010 A 
ATOM      7  C   UNL     1      -7.313 -19.306  -2.547  1.00  0.00     0.020 A 
ATOM      8  C   UNL     1      -6.908 -17.998  -2.249  1.00  0.00     0.001 A 
ATOM      9  C   UNL     1      -7.848 -16.977  -2.038  1.00  0.00     0.010 A 
ATOM     10  C   UNL     1      -7.416 -15.680  -1.743  1.00  0.00     0.001 A 
ATOM     11  C   UNL     1      -6.050 -15.395  -1.655  1.00  0.00     0.002 A 
ATOM     12  C   UNL     1      -5.106 -16.405  -1.864  1.00  0.00     0.029 A 
ATOM     13  C   UNL     1      -5.528 -17.707  -2.160  1.00  0.00     0.071 A 
ATOM     14  N   UNL     1      -4.609 -18.690  -2.362  1.00  0.00    -0.248 NA
ENDROOT
TORSDOF 0
ENDMDL
