MODEL 1
REMARK VINA RESULT:    -6.148      0.000      0.000
REMARK INTER + INTRA:          -6.148
REMARK INTER:                  -6.148
REMARK INTRA:                   0.000
REMARK UNBOUND:                 0.000
REMARK SMILES C[C@@H]1CCC=C2CC[C@@H]3[C@H](C3(C)C)[C@]21C
REMARK SMILES IDX 1 1 2 2 3 3 4 4 5 5 6 6 14 7 10 8 9 9 11 10 12 11 13 12 8 13
REMARK SMILES IDX 7 14 15 15
REMARK H PARENT
REMARK Flexibility Score: inf
ROOT
ATOM      1  C   UNL     1     107.507 109.754 129.617  1.00  0.00     0.008 C 
ATOM      2  C   UNL     1     107.008 110.559 128.402  1.00  0.00    -0.004 C 
ATOM      3  C   UNL     1     105.789 111.433 128.803  1.00  0.00     0.008 C 
ATOM      4  C   UNL     1     104.891 111.878 127.626  1.00  0.00     0.027 C 
ATOM      5  C   UNL     1     105.501 111.672 126.266  1.00  0.00    -0.027 C 
ATOM      6  C   UNL     1     106.330 110.645 125.995  1.00  0.00    -0.068 C 
ATOM      7  C   UNL     1     106.742 109.678 127.131  1.00  0.00    -0.005 C 
ATOM      8  C   UNL     1     108.094 109.030 126.708  1.00  0.00     0.009 C 
ATOM      9  C   UNL     1     107.822 108.374 125.313  1.00  0.00    -0.000 C 
ATOM     10  C   UNL     1     108.681 107.670 126.341  1.00  0.00    -0.028 C 
ATOM     11  C   UNL     1     110.186 107.631 126.048  1.00  0.00     0.012 C 
ATOM     12  C   UNL     1     108.083 106.454 127.060  1.00  0.00     0.012 C 
ATOM     13  C   UNL     1     108.055 109.536 124.362  1.00  0.00     0.009 C 
ATOM     14  C   UNL     1     106.902 110.554 124.564  1.00  0.00     0.031 C 
ATOM     15  C   UNL     1     105.612 108.649 127.417  1.00  0.00     0.017 C 
ENDROOT
TORSDOF 0
ENDMDL
MODEL 2
REMARK VINA RESULT:    -6.121      4.050      5.724
REMARK INTER + INTRA:          -6.121
REMARK INTER:                  -6.121
REMARK INTRA:                   0.000
REMARK UNBOUND:                 0.000
REMARK SMILES C[C@@H]1CCC=C2CC[C@@H]3[C@H](C3(C)C)[C@]21C
REMARK SMILES IDX 1 1 2 2 3 3 4 4 5 5 6 6 14 7 10 8 9 9 11 10 12 11 13 12 8 13
REMARK SMILES IDX 7 14 15 15
REMARK H PARENT
REMARK Flexibility Score: inf
ROOT
ATOM      1  C   UNL     1     102.632 107.505 129.611  1.00  0.00     0.008 C 
ATOM      2  C   UNL     1     101.853 106.987 128.387  1.00  0.00    -0.004 C 
ATOM      3  C   UNL     1     100.973 105.772 128.787  1.00  0.00     0.008 C 
ATOM      4  C   UNL     1     100.554 104.856 127.614  1.00  0.00     0.027 C 
ATOM      5  C   UNL     1     100.789 105.447 126.250  1.00  0.00    -0.027 C 
ATOM      6  C   UNL     1     101.819 106.274 125.989  1.00  0.00    -0.068 C 
ATOM      7  C   UNL     1     102.761 106.704 127.139  1.00  0.00    -0.005 C 
ATOM      8  C   UNL     1     103.416 108.051 126.710  1.00  0.00     0.009 C 
ATOM      9  C   UNL     1     104.102 107.761 125.333  1.00  0.00    -0.000 C 
ATOM     10  C   UNL     1     104.782 108.636 126.363  1.00  0.00    -0.028 C 
ATOM     11  C   UNL     1     104.825 110.137 126.049  1.00  0.00     0.012 C 
ATOM     12  C   UNL     1     105.984 108.050 127.116  1.00  0.00     0.012 C 
ATOM     13  C   UNL     1     102.959 107.977 124.355  1.00  0.00     0.009 C 
ATOM     14  C   UNL     1     101.939 106.825 124.552  1.00  0.00     0.031 C 
ATOM     15  C   UNL     1     103.786 105.581 127.463  1.00  0.00     0.017 C 
ENDROOT
TORSDOF 0
ENDMDL
MODEL 3
REMARK VINA RESULT:    -6.097      4.061      5.731
REMARK INTER + INTRA:          -6.097
REMARK INTER:                  -6.097
REMARK INTRA:                   0.000
REMARK UNBOUND:                 0.000
REMARK SMILES C[C@@H]1CCC=C2CC[C@@H]3[C@H](C3(C)C)[C@]21C
REMARK SMILES IDX 1 1 2 2 3 3 4 4 5 5 6 6 14 7 10 8 9 9 11 10 12 11 13 12 8 13
REMARK SMILES IDX 7 14 15 15
REMARK H PARENT
REMARK Flexibility Score: inf
ROOT
ATOM      1  C   UNL     1     109.760 104.892 129.585  1.00  0.00     0.008 C 
ATOM      2  C   UNL     1     110.595 105.416 128.401  1.00  0.00    -0.004 C 
ATOM      3  C   UNL     1     111.454 106.631 128.846  1.00  0.00     0.008 C 
ATOM      4  C   UNL     1     111.926 107.551 127.698  1.00  0.00     0.027 C 
ATOM      5  C   UNL     1     111.757 106.964 126.322  1.00  0.00    -0.027 C 
ATOM      6  C   UNL     1     110.741 106.137 126.009  1.00  0.00    -0.068 C 
ATOM      7  C   UNL     1     109.747 105.702 127.112  1.00  0.00    -0.005 C 
ATOM      8  C   UNL     1     109.115 104.356 126.648  1.00  0.00     0.009 C 
ATOM      9  C   UNL     1     108.494 104.651 125.241  1.00  0.00    -0.000 C 
ATOM     10  C   UNL     1     107.767 103.771 126.235  1.00  0.00    -0.028 C 
ATOM     11  C   UNL     1     107.741 102.271 125.914  1.00  0.00     0.012 C 
ATOM     12  C   UNL     1     106.530 104.352 126.933  1.00  0.00     0.012 C 
ATOM     13  C   UNL     1     109.682 104.439 124.317  1.00  0.00     0.009 C 
ATOM     14  C   UNL     1     110.690 105.591 124.566  1.00  0.00     0.031 C 
ATOM     15  C   UNL     1     108.706 106.823 127.392  1.00  0.00     0.017 C 
ENDROOT
TORSDOF 0
ENDMDL
MODEL 4
REMARK VINA RESULT:    -6.068      5.439      8.036
REMARK INTER + INTRA:          -6.068
REMARK INTER:                  -6.068
REMARK INTRA:                   0.000
REMARK UNBOUND:                 0.000
REMARK SMILES C[C@@H]1CCC=C2CC[C@@H]3[C@H](C3(C)C)[C@]21C
REMARK SMILES IDX 1 1 2 2 3 3 4 4 5 5 6 6 14 7 10 8 9 9 11 10 12 11 13 12 8 13
REMARK SMILES IDX 7 14 15 15
REMARK H PARENT
REMARK Flexibility Score: inf
ROOT
ATOM      1  C   UNL     1     105.212 101.956 129.596  1.00  0.00     0.008 C 
ATOM      2  C   UNL     1     105.441 101.634 128.108  1.00  0.00    -0.004 C 
ATOM      3  C   UNL     1     106.721 100.770 127.938  1.00  0.00     0.008 C 
ATOM      4  C   UNL     1     107.347 100.804 126.525  1.00  0.00     0.027 C 
ATOM      5  C   UNL     1     106.459 101.400 125.466  1.00  0.00    -0.027 C 
ATOM      6  C   UNL     1     105.589 102.393 125.728  1.00  0.00    -0.068 C 
ATOM      7  C   UNL     1     105.427 102.900 127.182  1.00  0.00    -0.005 C 
ATOM      8  C   UNL     1     104.014 103.548 127.282  1.00  0.00     0.009 C 
ATOM      9  C   UNL     1     103.979 104.645 126.164  1.00  0.00    -0.000 C 
ATOM     10  C   UNL     1     103.358 104.906 127.520  1.00  0.00    -0.028 C 
ATOM     11  C   UNL     1     101.825 104.927 127.565  1.00  0.00     0.012 C 
ATOM     12  C   UNL     1     104.093 105.859 128.471  1.00  0.00     0.012 C 
ATOM     13  C   UNL     1     103.552 103.845 124.945  1.00  0.00     0.009 C 
ATOM     14  C   UNL     1     104.724 102.906 124.557  1.00  0.00     0.031 C 
ATOM     15  C   UNL     1     106.589 103.860 127.565  1.00  0.00     0.017 C 
ENDROOT
TORSDOF 0
ENDMDL
MODEL 5
REMARK VINA RESULT:    -5.919      1.304      4.553
REMARK INTER + INTRA:          -5.919
REMARK INTER:                  -5.919
REMARK INTRA:                   0.000
REMARK UNBOUND:                 0.000
REMARK SMILES C[C@@H]1CCC=C2CC[C@@H]3[C@H](C3(C)C)[C@]21C
REMARK SMILES IDX 1 1 2 2 3 3 4 4 5 5 6 6 14 7 10 8 9 9 11 10 12 11 13 12 8 13
REMARK SMILES IDX 7 14 15 15
REMARK H PARENT
REMARK Flexibility Score: inf
ROOT
ATOM      1  C   UNL     1     106.995 111.490 124.737  1.00  0.00     0.008 C 
ATOM      2  C   UNL     1     107.488 110.096 125.167  1.00  0.00    -0.004 C 
ATOM      3  C   UNL     1     107.379 109.100 123.980  1.00  0.00     0.008 C 
ATOM      4  C   UNL     1     107.343 107.608 124.383  1.00  0.00     0.027 C 
ATOM      5  C   UNL     1     107.736 107.340 125.811  1.00  0.00    -0.027 C 
ATOM      6  C   UNL     1     107.471 108.206 126.808  1.00  0.00    -0.068 C 
ATOM      7  C   UNL     1     106.809 109.566 126.479  1.00  0.00    -0.005 C 
ATOM      8  C   UNL     1     107.178 110.543 127.635  1.00  0.00     0.009 C 
ATOM      9  C   UNL     1     106.688 109.840 128.945  1.00  0.00    -0.000 C 
ATOM     10  C   UNL     1     106.519 111.332 128.762  1.00  0.00    -0.028 C 
ATOM     11  C   UNL     1     107.441 112.223 129.604  1.00  0.00     0.012 C 
ATOM     12  C   UNL     1     105.106 111.862 128.485  1.00  0.00     0.012 C 
ATOM     13  C   UNL     1     107.869 108.947 129.290  1.00  0.00     0.009 C 
ATOM     14  C   UNL     1     107.940 107.820 128.227  1.00  0.00     0.031 C 
ATOM     15  C   UNL     1     105.278 109.398 126.261  1.00  0.00     0.017 C 
ENDROOT
TORSDOF 0
ENDMDL
MODEL 6
REMARK VINA RESULT:    -5.913      4.141      6.662
REMARK INTER + INTRA:          -5.913
REMARK INTER:                  -5.913
REMARK INTRA:                   0.000
REMARK UNBOUND:                 0.000
REMARK SMILES C[C@@H]1CCC=C2CC[C@@H]3[C@H](C3(C)C)[C@]21C
REMARK SMILES IDX 1 1 2 2 3 3 4 4 5 5 6 6 14 7 10 8 9 9 11 10 12 11 13 12 8 13
REMARK SMILES IDX 7 14 15 15
REMARK H PARENT
REMARK Flexibility Score: inf
ROOT
ATOM      1  C   UNL     1     101.009 106.902 124.817  1.00  0.00     0.008 C 
ATOM      2  C   UNL     1     102.410 107.381 125.240  1.00  0.00    -0.004 C 
ATOM      3  C   UNL     1     103.415 107.200 124.070  1.00  0.00     0.008 C 
ATOM      4  C   UNL     1     104.902 107.148 124.490  1.00  0.00     0.027 C 
ATOM      5  C   UNL     1     105.165 107.594 125.902  1.00  0.00    -0.027 C 
ATOM      6  C   UNL     1     104.283 107.391 126.900  1.00  0.00    -0.068 C 
ATOM      7  C   UNL     1     102.911 106.747 126.585  1.00  0.00    -0.005 C 
ATOM      8  C   UNL     1     101.933 107.187 127.714  1.00  0.00     0.009 C 
ATOM      9  C   UNL     1     102.612 106.737 129.052  1.00  0.00    -0.000 C 
ATOM     10  C   UNL     1     101.117 106.593 128.860  1.00  0.00    -0.028 C 
ATOM     11  C   UNL     1     100.240 107.570 129.653  1.00  0.00     0.012 C 
ATOM     12  C   UNL     1     100.558 105.182 128.637  1.00  0.00     0.012 C 
ATOM     13  C   UNL     1     103.528 107.911 129.356  1.00  0.00     0.009 C 
ATOM     14  C   UNL     1     104.666 107.912 128.302  1.00  0.00     0.031 C 
ATOM     15  C   UNL     1     103.047 105.205 126.434  1.00  0.00     0.017 C 
ENDROOT
TORSDOF 0
ENDMDL
MODEL 7
REMARK VINA RESULT:    -5.893      2.004      3.664
REMARK INTER + INTRA:          -5.893
REMARK INTER:                  -5.893
REMARK INTRA:                   0.000
REMARK UNBOUND:                 0.000
REMARK SMILES C[C@@H]1CCC=C2CC[C@@H]3[C@H](C3(C)C)[C@]21C
REMARK SMILES IDX 1 1 2 2 3 3 4 4 5 5 6 6 14 7 10 8 9 9 11 10 12 11 13 12 8 13
REMARK SMILES IDX 7 14 15 15
REMARK H PARENT
REMARK Flexibility Score: inf
ROOT
ATOM      1  C   UNL     1     103.816 107.877 129.223  1.00  0.00     0.008 C 
ATOM      2  C   UNL     1     103.738 108.325 127.752  1.00  0.00    -0.004 C 
ATOM      3  C   UNL     1     102.904 107.308 126.926  1.00  0.00     0.008 C 
ATOM      4  C   UNL     1     103.163 107.339 125.402  1.00  0.00     0.027 C 
ATOM      5  C   UNL     1     103.929 108.544 124.926  1.00  0.00    -0.027 C 
ATOM      6  C   UNL     1     104.873 109.143 125.677  1.00  0.00    -0.068 C 
ATOM      7  C   UNL     1     105.138 108.634 127.115  1.00  0.00    -0.005 C 
ATOM      8  C   UNL     1     105.771 109.818 127.906  1.00  0.00     0.009 C 
ATOM      9  C   UNL     1     107.035 110.240 127.082  1.00  0.00    -0.000 C 
ATOM     10  C   UNL     1     107.077 110.206 128.595  1.00  0.00    -0.028 C 
ATOM     11  C   UNL     1     107.100 111.569 129.298  1.00  0.00     0.012 C 
ATOM     12  C   UNL     1     107.858 109.067 129.262  1.00  0.00     0.012 C 
ATOM     13  C   UNL     1     106.446 111.203 126.065  1.00  0.00     0.009 C 
ATOM     14  C   UNL     1     105.575 110.381 125.080  1.00  0.00     0.031 C 
ATOM     15  C   UNL     1     106.015 107.350 127.094  1.00  0.00     0.017 C 
ENDROOT
TORSDOF 0
ENDMDL
MODEL 8
REMARK VINA RESULT:    -5.874      4.466      7.060
REMARK INTER + INTRA:          -5.874
REMARK INTER:                  -5.874
REMARK INTRA:                   0.000
REMARK UNBOUND:                 0.000
REMARK SMILES C[C@@H]1CCC=C2CC[C@@H]3[C@H](C3(C)C)[C@]21C
REMARK SMILES IDX 1 1 2 2 3 3 4 4 5 5 6 6 14 7 10 8 9 9 11 10 12 11 13 12 8 13
REMARK SMILES IDX 7 14 15 15
REMARK H PARENT
REMARK Flexibility Score: inf
ROOT
ATOM      1  C   UNL     1     104.572 103.815 129.216  1.00  0.00     0.008 C 
ATOM      2  C   UNL     1     104.131 103.756 127.741  1.00  0.00    -0.004 C 
ATOM      3  C   UNL     1     105.133 102.903 126.916  1.00  0.00     0.008 C 
ATOM      4  C   UNL     1     105.117 103.172 125.394  1.00  0.00     0.027 C 
ATOM      5  C   UNL     1     103.934 103.969 124.915  1.00  0.00    -0.027 C 
ATOM      6  C   UNL     1     103.353 104.923 125.669  1.00  0.00    -0.068 C 
ATOM      7  C   UNL     1     103.859 105.167 127.111  1.00  0.00    -0.005 C 
ATOM      8  C   UNL     1     102.687 105.824 127.898  1.00  0.00     0.009 C 
ATOM      9  C   UNL     1     102.300 107.102 127.080  1.00  0.00    -0.000 C 
ATOM     10  C   UNL     1     102.325 107.134 128.593  1.00  0.00    -0.028 C 
ATOM     11  C   UNL     1     100.959 107.186 129.288  1.00  0.00     0.012 C 
ATOM     12  C   UNL     1     103.479 107.884 129.272  1.00  0.00     0.012 C 
ATOM     13  C   UNL     1     101.329 106.542 126.053  1.00  0.00     0.009 C 
ATOM     14  C   UNL     1     102.136 105.657 125.068  1.00  0.00     0.031 C 
ATOM     15  C   UNL     1     105.164 106.013 127.103  1.00  0.00     0.017 C 
ENDROOT
TORSDOF 0
ENDMDL
MODEL 9
REMARK VINA RESULT:    -5.843      4.110      6.562
REMARK INTER + INTRA:          -5.843
REMARK INTER:                  -5.843
REMARK INTRA:                   0.000
REMARK UNBOUND:                 0.000
REMARK SMILES C[C@@H]1CCC=C2CC[C@@H]3[C@H](C3(C)C)[C@]21C
REMARK SMILES IDX 1 1 2 2 3 3 4 4 5 5 6 6 14 7 10 8 9 9 11 10 12 11 13 12 8 13
REMARK SMILES IDX 7 14 15 15
REMARK H PARENT
REMARK Flexibility Score: inf
ROOT
ATOM      1  C   UNL     1     110.776 105.563 124.337  1.00  0.00     0.008 C 
ATOM      2  C   UNL     1     109.761 104.534 124.869  1.00  0.00    -0.004 C 
ATOM      3  C   UNL     1     108.832 104.053 123.721  1.00  0.00     0.008 C 
ATOM      4  C   UNL     1     107.488 103.444 124.182  1.00  0.00     0.027 C 
ATOM      5  C   UNL     1     107.423 103.122 125.651  1.00  0.00    -0.027 C 
ATOM      6  C   UNL     1     108.066 103.855 126.580  1.00  0.00    -0.068 C 
ATOM      7  C   UNL     1     108.972 105.027 126.133  1.00  0.00    -0.005 C 
ATOM      8  C   UNL     1     110.002 105.266 127.276  1.00  0.00     0.009 C 
ATOM      9  C   UNL     1     109.146 105.513 128.564  1.00  0.00    -0.000 C 
ATOM     10  C   UNL     1     110.395 106.326 128.302  1.00  0.00    -0.028 C 
ATOM     11  C   UNL     1     111.605 106.006 129.188  1.00  0.00     0.012 C 
ATOM     12  C   UNL     1     110.218 107.788 127.871  1.00  0.00     0.012 C 
ATOM     13  C   UNL     1     108.893 104.097 129.055  1.00  0.00     0.009 C 
ATOM     14  C   UNL     1     107.931 103.409 128.052  1.00  0.00     0.031 C 
ATOM     15  C   UNL     1     108.120 106.280 125.780  1.00  0.00     0.017 C 
ENDROOT
TORSDOF 0
ENDMDL
