MODEL 1
REMARK VINA RESULT:    -2.136      0.000      0.000
REMARK INTER + INTRA:          -3.111
REMARK INTER:                  -3.260
REMARK INTRA:                   0.148
REMARK UNBOUND:                 0.148
REMARK SMILES OC[C@H]1O[C@](CO)(O[C@@H]2O[C@H](CO)[C@@H](O)[C@H](O)[C@H]2O)[C@@H](O)[C@@H]1O
REMARK SMILES IDX 8 1 9 2 11 3 14 4 10 5 16 6 18 7 12 8 13 9 15 11 17 13 19 15
REMARK SMILES IDX 5 17 20 18 4 19 22 20 3 21 6 22 7 23 21 25 23 27 2 29 1 30
REMARK H PARENT 13 10 15 12 17 14 19 16 7 24 21 26 23 28 1 31
REMARK Flexibility Score: inf
ROOT
ATOM      1  O   UNL     1     -17.373  12.214 -12.311  1.00  0.00    -0.313 OA
ENDROOT
BRANCH   1   2
ATOM      2  C   UNL     1     -18.716  11.824 -12.557  1.00  0.00     0.285 C 
ATOM      3  C   UNL     1     -20.749  12.586 -13.414  1.00  0.00     0.178 C 
ATOM      4  C   UNL     1     -21.547  12.181 -12.150  1.00  0.00     0.177 C 
ATOM      5  O   UNL     1     -19.422  12.943 -13.065  1.00  0.00    -0.341 OA
ATOM      6  C   UNL     1     -20.824  11.029 -11.432  1.00  0.00     0.179 C 
ATOM      7  C   UNL     1     -19.343  11.378 -11.221  1.00  0.00     0.202 C 
BRANCH   3   8
ATOM      8  C   UNL     1     -21.394  13.774 -14.139  1.00  0.00     0.191 C 
BRANCH   8   9
ATOM      9  O   UNL     1     -22.627  14.095 -13.555  1.00  0.00    -0.394 OA
ATOM     10  H   UNL     1     -22.789  15.051 -13.763  1.00  0.00     0.210 HD
ENDBRANCH   8   9
ENDBRANCH   3   8
BRANCH   4  11
ATOM     11  O   UNL     1     -22.839  11.758 -12.508  1.00  0.00    -0.387 OA
ATOM     12  H   UNL     1     -23.100  11.045 -11.868  1.00  0.00     0.211 HD
ENDBRANCH   4  11
BRANCH   6  13
ATOM     13  O   UNL     1     -21.422  10.788 -10.185  1.00  0.00    -0.387 OA
ATOM     14  H   UNL     1     -21.158   9.871  -9.910  1.00  0.00     0.211 HD
ENDBRANCH   6  13
BRANCH   7  15
ATOM     15  O   UNL     1     -18.670  10.251 -10.724  1.00  0.00    -0.385 OA
ATOM     16  H   UNL     1     -18.698   9.560 -11.436  1.00  0.00     0.211 HD
ENDBRANCH   7  15
ENDBRANCH   1   2
BRANCH   1  17
ATOM     17  C   UNL     1     -16.641  12.591 -13.476  1.00  0.00     0.224 C 
ATOM     18  C   UNL     1     -17.570  12.682 -14.713  1.00  0.00     0.208 C 
ATOM     19  O   UNL     1     -15.709  11.554 -13.723  1.00  0.00    -0.337 OA
ATOM     20  C   UNL     1     -16.761  12.030 -15.801  1.00  0.00     0.180 C 
ATOM     21  C   UNL     1     -15.928  11.034 -15.015  1.00  0.00     0.179 C 
BRANCH  17  22
ATOM     22  C   UNL     1     -15.808  13.885 -13.252  1.00  0.00     0.225 C 
BRANCH  22  23
ATOM     23  O   UNL     1     -15.347  13.954 -11.929  1.00  0.00    -0.391 OA
ATOM     24  H   UNL     1     -14.826  14.796 -11.848  1.00  0.00     0.210 HD
ENDBRANCH  22  23
ENDBRANCH  17  22
BRANCH  18  25
ATOM     25  O   UNL     1     -17.896  14.006 -15.056  1.00  0.00    -0.385 OA
ATOM     26  H   UNL     1     -17.846  14.536 -14.217  1.00  0.00     0.211 HD
ENDBRANCH  18  25
BRANCH  20  27
ATOM     27  O   UNL     1     -17.583  11.372 -16.730  1.00  0.00    -0.387 OA
ATOM     28  H   UNL     1     -18.409  11.116 -16.242  1.00  0.00     0.211 HD
ENDBRANCH  20  27
BRANCH  21  29
ATOM     29  C   UNL     1     -14.578  10.744 -15.687  1.00  0.00     0.191 C 
BRANCH  29  30
ATOM     30  O   UNL     1     -14.206   9.406 -15.502  1.00  0.00    -0.394 OA
ATOM     31  H   UNL     1     -14.204   9.243 -14.523  1.00  0.00     0.210 HD
ENDBRANCH  29  30
ENDBRANCH  21  29
ENDBRANCH   1  17
TORSDOF 13
ENDMDL
MODEL 2
REMARK VINA RESULT:    -1.678     15.175     18.900
REMARK INTER + INTRA:          -2.412
REMARK INTER:                  -2.372
REMARK INTRA:                  -0.040
REMARK UNBOUND:                 0.148
REMARK SMILES OC[C@H]1O[C@](CO)(O[C@@H]2O[C@H](CO)[C@@H](O)[C@H](O)[C@H]2O)[C@@H](O)[C@@H]1O
REMARK SMILES IDX 8 1 9 2 11 3 14 4 10 5 16 6 18 7 12 8 13 9 15 11 17 13 19 15
REMARK SMILES IDX 5 17 20 18 4 19 22 20 3 21 6 22 7 23 21 25 23 27 2 29 1 30
REMARK H PARENT 13 10 15 12 17 14 19 16 7 24 21 26 23 28 1 31
REMARK Flexibility Score: inf
ROOT
ATOM      1  O   UNL     1     -11.959  -3.064 -22.243  1.00  0.00    -0.313 OA
ENDROOT
BRANCH   1   2
ATOM      2  C   UNL     1     -13.250  -3.009 -22.832  1.00  0.00     0.285 C 
ATOM      3  C   UNL     1     -15.173  -4.273 -23.228  1.00  0.00     0.178 C 
ATOM      4  C   UNL     1     -15.177  -3.972 -24.747  1.00  0.00     0.177 C 
ATOM      5  O   UNL     1     -13.843  -4.292 -22.735  1.00  0.00    -0.341 OA
ATOM      6  C   UNL     1     -14.459  -2.637 -25.010  1.00  0.00     0.179 C 
ATOM      7  C   UNL     1     -13.088  -2.624 -24.317  1.00  0.00     0.202 C 
BRANCH   3   8
ATOM      8  C   UNL     1     -15.825  -5.624 -22.912  1.00  0.00     0.191 C 
BRANCH   8   9
ATOM      9  O   UNL     1     -16.488  -6.125 -24.041  1.00  0.00    -0.394 OA
ATOM     10  H   UNL     1     -17.393  -6.390 -23.733  1.00  0.00     0.210 HD
ENDBRANCH   8   9
ENDBRANCH   3   8
BRANCH   4  11
ATOM     11  O   UNL     1     -16.499  -3.880 -25.219  1.00  0.00    -0.387 OA
ATOM     12  H   UNL     1     -16.735  -2.917 -25.240  1.00  0.00     0.211 HD
ENDBRANCH   4  11
BRANCH   6  13
ATOM     13  O   UNL     1     -14.278  -2.451 -26.390  1.00  0.00    -0.387 OA
ATOM     14  H   UNL     1     -14.511  -1.507 -26.587  1.00  0.00     0.211 HD
ENDBRANCH   6  13
BRANCH   7  15
ATOM     15  O   UNL     1     -12.529  -1.341 -24.425  1.00  0.00    -0.385 OA
ATOM     16  H   UNL     1     -13.278  -0.693 -24.362  1.00  0.00     0.211 HD
ENDBRANCH   7  15
ENDBRANCH   1   2
BRANCH   1  17
ATOM     17  C   UNL     1     -11.959  -3.265 -20.831  1.00  0.00     0.224 C 
ATOM     18  C   UNL     1     -13.377  -3.628 -20.319  1.00  0.00     0.208 C 
ATOM     19  O   UNL     1     -11.603  -2.027 -20.244  1.00  0.00    -0.337 OA
ATOM     20  C   UNL     1     -13.508  -2.816 -19.061  1.00  0.00     0.180 C 
ATOM     21  C   UNL     1     -12.632  -1.615 -19.372  1.00  0.00     0.179 C 
BRANCH  17  22
ATOM     22  C   UNL     1     -10.877  -4.289 -20.384  1.00  0.00     0.225 C 
BRANCH  22  23
ATOM     23  O   UNL     1     -10.477  -5.090 -21.464  1.00  0.00    -0.391 OA
ATOM     24  H   UNL     1      -9.485  -5.126 -21.445  1.00  0.00     0.210 HD
ENDBRANCH  22  23
ENDBRANCH  17  22
BRANCH  18  25
ATOM     25  O   UNL     1     -13.525  -5.000 -20.048  1.00  0.00    -0.385 OA
ATOM     26  H   UNL     1     -14.406  -5.269 -20.418  1.00  0.00     0.211 HD
ENDBRANCH  18  25
BRANCH  20  27
ATOM     27  O   UNL     1     -14.837  -2.420 -18.840  1.00  0.00    -0.387 OA
ATOM     28  H   UNL     1     -14.902  -2.178 -17.880  1.00  0.00     0.211 HD
ENDBRANCH  20  27
BRANCH  21  29
ATOM     29  C   UNL     1     -12.017  -0.999 -18.108  1.00  0.00     0.191 C 
BRANCH  29  30
ATOM     30  O   UNL     1     -11.980   0.399 -18.202  1.00  0.00    -0.394 OA
ATOM     31  H   UNL     1     -11.033   0.649 -18.359  1.00  0.00     0.210 HD
ENDBRANCH  29  30
ENDBRANCH  21  29
ENDBRANCH   1  17
TORSDOF 13
ENDMDL
MODEL 3
REMARK VINA RESULT:     0.802      1.418      6.173
REMARK INTER + INTRA:           1.372
REMARK INTER:                   1.466
REMARK INTRA:                  -0.094
REMARK UNBOUND:                 0.148
REMARK SMILES OC[C@H]1O[C@](CO)(O[C@@H]2O[C@H](CO)[C@@H](O)[C@H](O)[C@H]2O)[C@@H](O)[C@@H]1O
REMARK SMILES IDX 8 1 9 2 11 3 14 4 10 5 16 6 18 7 12 8 13 9 15 11 17 13 19 15
REMARK SMILES IDX 5 17 20 18 4 19 22 20 3 21 6 22 7 23 21 25 23 27 2 29 1 30
REMARK H PARENT 13 10 15 12 17 14 19 16 7 24 21 26 23 28 1 31
REMARK Flexibility Score: inf
ROOT
ATOM      1  O   UNL     1     -19.202  12.444 -14.702  1.00  0.00    -0.313 OA
ENDROOT
BRANCH   1   2
ATOM      2  C   UNL     1     -17.989  11.717 -14.576  1.00  0.00     0.285 C 
ATOM      3  C   UNL     1     -15.802  11.869 -13.771  1.00  0.00     0.178 C 
ATOM      4  C   UNL     1     -15.172  11.423 -15.115  1.00  0.00     0.177 C 
ATOM      5  O   UNL     1     -17.012  12.571 -14.005  1.00  0.00    -0.341 OA
ATOM      6  C   UNL     1     -16.181  10.564 -15.896  1.00  0.00     0.179 C 
ATOM      7  C   UNL     1     -17.537  11.281 -15.984  1.00  0.00     0.202 C 
BRANCH   3   8
ATOM      8  C   UNL     1     -14.861  12.780 -12.975  1.00  0.00     0.191 C 
BRANCH   8   9
ATOM      9  O   UNL     1     -15.594  13.724 -12.244  1.00  0.00    -0.394 OA
ATOM     10  H   UNL     1     -15.118  14.587 -12.352  1.00  0.00     0.210 HD
ENDBRANCH   8   9
ENDBRANCH   3   8
BRANCH   4  11
ATOM     11  O   UNL     1     -14.013  10.664 -14.877  1.00  0.00    -0.387 OA
ATOM     12  H   UNL     1     -13.294  11.300 -14.623  1.00  0.00     0.211 HD
ENDBRANCH   4  11
BRANCH   6  13
ATOM     13  O   UNL     1     -15.704  10.322 -17.194  1.00  0.00    -0.387 OA
ATOM     14  H   UNL     1     -14.713  10.357 -17.149  1.00  0.00     0.211 HD
ENDBRANCH   6  13
BRANCH   7  15
ATOM     15  O   UNL     1     -18.483  10.409 -16.546  1.00  0.00    -0.385 OA
ATOM     16  H   UNL     1     -18.943   9.956 -15.793  1.00  0.00     0.211 HD
ENDBRANCH   7  15
ENDBRANCH   1   2
BRANCH   1  17
ATOM     17  C   UNL     1     -19.813  12.799 -13.463  1.00  0.00     0.224 C 
ATOM     18  C   UNL     1     -19.753  11.624 -12.454  1.00  0.00     0.208 C 
ATOM     19  O   UNL     1     -21.179  13.048 -13.741  1.00  0.00    -0.337 OA
ATOM     20  C   UNL     1     -21.121  11.635 -11.829  1.00  0.00     0.180 C 
ATOM     21  C   UNL     1     -21.975  12.186 -12.957  1.00  0.00     0.179 C 
BRANCH  17  22
ATOM     22  C   UNL     1     -19.237  14.121 -12.883  1.00  0.00     0.225 C 
BRANCH  22  23
ATOM     23  O   UNL     1     -18.331  13.853 -11.846  1.00  0.00    -0.391 OA
ATOM     24  H   UNL     1     -18.068  14.729 -11.458  1.00  0.00     0.210 HD
ENDBRANCH  22  23
ENDBRANCH  17  22
BRANCH  18  25
ATOM     25  O   UNL     1     -18.755  11.793 -11.478  1.00  0.00    -0.385 OA
ATOM     26  H   UNL     1     -18.007  12.276 -11.918  1.00  0.00     0.211 HD
ENDBRANCH  18  25
BRANCH  20  27
ATOM     27  O   UNL     1     -21.535  10.341 -11.474  1.00  0.00    -0.387 OA
ATOM     28  H   UNL     1     -21.381   9.768 -12.270  1.00  0.00     0.211 HD
ENDBRANCH  20  27
BRANCH  21  29
ATOM     29  C   UNL     1     -23.203  12.948 -12.441  1.00  0.00     0.191 C 
BRANCH  29  30
ATOM     30  O   UNL     1     -23.420  14.111 -13.193  1.00  0.00    -0.394 OA
ATOM     31  H   UNL     1     -23.372  14.873 -12.559  1.00  0.00     0.210 HD
ENDBRANCH  29  30
ENDBRANCH  21  29
ENDBRANCH   1  17
TORSDOF 13
ENDMDL
