MODEL 1
REMARK VINA RESULT:    -7.788      0.000      0.000
REMARK INTER + INTRA:         -12.271
REMARK INTER:                 -10.747
REMARK INTRA:                  -1.524
REMARK UNBOUND:                -1.524
REMARK SMILES C=C(CC[C@@H](C(=O)[O-])[C@@H]1CC[C@@]2(C)C3=C(CC[C@@]12C)[C@]1(C)CC[C@@H](O)C(C)(C)[C@H]1CC3)C(C)C
REMARK SMILES IDX 4 1 5 2 6 3 7 4 8 5 9 6 10 7 18 8 11 9 12 10 17 11 19 12
REMARK SMILES IDX 13 13 14 14 16 15 15 16 31 17 20 18 30 19 29 20 22 21 21 22
REMARK SMILES IDX 26 23 23 24 24 25 27 26 28 27 25 28 3 30 2 31 1 32 32 33
REMARK SMILES IDX 33 34 34 35
REMARK H PARENT 25 29
REMARK Flexibility Score: inf
ROOT
ATOM      1  C   UNL     1      15.449 122.830  14.814  1.00  0.00     0.014 C 
ENDROOT
BRANCH   1   2
ATOM      2  C   UNL     1      16.180 122.895  16.191  1.00  0.00     0.039 C 
BRANCH   2   3
ATOM      3  C   UNL     1      16.190 124.286  16.787  1.00  0.00     0.045 C 
ATOM      4  O   UNL     1      17.247 124.967  16.767  1.00  0.00    -0.550 OA
ATOM      5  O   UNL     1      15.052 124.829  17.369  1.00  0.00    -0.550 OA
ENDBRANCH   2   3
BRANCH   2   6
ATOM      6  C   UNL     1      15.771 121.804  17.243  1.00  0.00     0.004 C 
ATOM      7  C   UNL     1      16.302 122.052  18.642  1.00  0.00     0.006 C 
ATOM      8  C   UNL     1      16.011 120.283  16.985  1.00  0.00    -0.020 C 
ATOM      9  C   UNL     1      15.839 120.839  19.428  1.00  0.00     0.012 C 
ATOM     10  C   UNL     1      15.844 119.622  18.451  1.00  0.00    -0.006 C 
ATOM     11  C   UNL     1      14.971 119.757  15.949  1.00  0.00     0.012 C 
ATOM     12  C   UNL     1      17.426 120.032  16.390  1.00  0.00     0.012 C 
ATOM     13  C   UNL     1      17.012 118.676  18.856  1.00  0.00     0.017 C 
ATOM     14  C   UNL     1      14.533 118.804  18.635  1.00  0.00    -0.064 C 
ATOM     15  C   UNL     1      14.588 118.322  16.239  1.00  0.00     0.032 C 
ATOM     16  C   UNL     1      13.871 118.293  17.563  1.00  0.00    -0.064 C 
ATOM     17  C   UNL     1      14.160 118.316  20.036  1.00  0.00     0.032 C 
ATOM     18  C   UNL     1      12.475 117.646  17.709  1.00  0.00    -0.008 C 
ATOM     19  C   UNL     1      12.679 117.969  20.255  1.00  0.00     0.009 C 
ATOM     20  C   UNL     1      11.804 118.227  19.013  1.00  0.00     0.007 C 
ATOM     21  C   UNL     1      11.579 118.027  16.495  1.00  0.00     0.014 C 
ATOM     22  C   UNL     1      12.699 116.115  17.727  1.00  0.00     0.016 C 
ATOM     23  C   UNL     1      10.268 117.904  19.223  1.00  0.00    -0.006 C 
ATOM     24  C   UNL     1      10.104 117.658  16.673  1.00  0.00     0.033 C 
ATOM     25  C   UNL     1       9.501 118.306  17.922  1.00  0.00     0.120 C 
ATOM     26  C   UNL     1       9.988 116.409  19.596  1.00  0.00     0.014 C 
ATOM     27  C   UNL     1       9.710 118.797  20.366  1.00  0.00     0.014 C 
BRANCH  25  28
ATOM     28  O   UNL     1       8.141 117.950  17.995  1.00  0.00    -0.393 OA
ATOM     29  H   UNL     1       7.992 117.508  18.875  1.00  0.00     0.210 HD
ENDBRANCH  25  28
ENDBRANCH   2   6
ENDBRANCH   1   2
BRANCH   1  30
ATOM     30  C   UNL     1      16.386 123.198  13.652  1.00  0.00     0.031 C 
BRANCH  30  31
ATOM     31  C   UNL     1      17.480 122.166  13.469  1.00  0.00    -0.075 C 
ATOM     32  C   UNL     1      17.170 120.993  12.885  1.00  0.00     0.008 C 
BRANCH  31  33
ATOM     33  C   UNL     1      18.925 122.404  13.911  1.00  0.00     0.008 C 
ATOM     34  C   UNL     1      19.305 123.880  14.089  1.00  0.00     0.012 C 
ATOM     35  C   UNL     1      19.908 121.720  12.952  1.00  0.00     0.012 C 
ENDBRANCH  31  33
ENDBRANCH  30  31
ENDBRANCH   1  30
TORSDOF 7
ENDMDL
MODEL 2
REMARK VINA RESULT:    -7.664      0.951      1.544
REMARK INTER + INTRA:         -12.100
REMARK INTER:                 -10.356
REMARK INTRA:                  -1.744
REMARK UNBOUND:                -1.524
REMARK SMILES C=C(CC[C@@H](C(=O)[O-])[C@@H]1CC[C@@]2(C)C3=C(CC[C@@]12C)[C@]1(C)CC[C@@H](O)C(C)(C)[C@H]1CC3)C(C)C
REMARK SMILES IDX 4 1 5 2 6 3 7 4 8 5 9 6 10 7 18 8 11 9 12 10 17 11 19 12
REMARK SMILES IDX 13 13 14 14 16 15 15 16 31 17 20 18 30 19 29 20 22 21 21 22
REMARK SMILES IDX 26 23 23 24 24 25 27 26 28 27 25 28 3 30 2 31 1 32 32 33
REMARK SMILES IDX 33 34 34 35
REMARK H PARENT 25 29
REMARK Flexibility Score: inf
ROOT
ATOM      1  C   UNL     1      15.320 123.907  16.497  1.00  0.00     0.014 C 
ENDROOT
BRANCH   1   2
ATOM      2  C   UNL     1      16.368 123.371  17.522  1.00  0.00     0.039 C 
BRANCH   2   3
ATOM      3  C   UNL     1      16.887 124.447  18.450  1.00  0.00     0.045 C 
ATOM      4  O   UNL     1      16.076 125.202  19.047  1.00  0.00    -0.550 OA
ATOM      5  O   UNL     1      18.248 124.629  18.654  1.00  0.00    -0.550 OA
ENDBRANCH   2   3
BRANCH   2   6
ATOM      6  C   UNL     1      15.971 122.064  18.296  1.00  0.00     0.004 C 
ATOM      7  C   UNL     1      16.431 122.027  19.741  1.00  0.00     0.006 C 
ATOM      8  C   UNL     1      16.298 120.644  17.733  1.00  0.00    -0.020 C 
ATOM      9  C   UNL     1      15.997 120.657  20.226  1.00  0.00     0.012 C 
ATOM     10  C   UNL     1      16.104 119.678  19.015  1.00  0.00    -0.006 C 
ATOM     11  C   UNL     1      15.329 120.312  16.557  1.00  0.00     0.012 C 
ATOM     12  C   UNL     1      17.748 120.585  17.172  1.00  0.00     0.012 C 
ATOM     13  C   UNL     1      17.300 118.716  19.269  1.00  0.00     0.017 C 
ATOM     14  C   UNL     1      14.829 118.788  18.954  1.00  0.00    -0.064 C 
ATOM     15  C   UNL     1      15.008 118.833  16.516  1.00  0.00     0.032 C 
ATOM     16  C   UNL     1      14.238 118.493  17.766  1.00  0.00    -0.064 C 
ATOM     17  C   UNL     1      14.423 117.997  20.198  1.00  0.00     0.032 C 
ATOM     18  C   UNL     1      12.873 117.774  17.699  1.00  0.00    -0.008 C 
ATOM     19  C   UNL     1      12.954 117.551  20.262  1.00  0.00     0.009 C 
ATOM     20  C   UNL     1      12.119 118.034  19.060  1.00  0.00     0.007 C 
ATOM     21  C   UNL     1      12.010 118.369  16.549  1.00  0.00     0.014 C 
ATOM     22  C   UNL     1      13.172 116.284  17.403  1.00  0.00     0.016 C 
ATOM     23  C   UNL     1      10.594 117.612  19.118  1.00  0.00    -0.006 C 
ATOM     24  C   UNL     1      10.549 117.911  16.569  1.00  0.00     0.033 C 
ATOM     25  C   UNL     1       9.862 118.251  17.894  1.00  0.00     0.120 C 
ATOM     26  C   UNL     1      10.374 116.061  19.149  1.00  0.00     0.014 C 
ATOM     27  C   UNL     1       9.944 118.215  20.394  1.00  0.00     0.014 C 
BRANCH  25  28
ATOM     28  O   UNL     1       8.520 117.834  17.820  1.00  0.00    -0.393 OA
ATOM     29  H   UNL     1       8.198 117.691  18.752  1.00  0.00     0.210 HD
ENDBRANCH  25  28
ENDBRANCH   2   6
ENDBRANCH   1   2
BRANCH   1  30
ATOM     30  C   UNL     1      15.981 124.332  15.175  1.00  0.00     0.031 C 
BRANCH  30  31
ATOM     31  C   UNL     1      15.810 123.276  14.102  1.00  0.00    -0.075 C 
ATOM     32  C   UNL     1      14.565 122.872  13.784  1.00  0.00     0.008 C 
BRANCH  31  33
ATOM     33  C   UNL     1      16.992 122.656  13.354  1.00  0.00     0.008 C 
ATOM     34  C   UNL     1      16.941 121.127  13.233  1.00  0.00     0.012 C 
ATOM     35  C   UNL     1      18.323 123.089  13.983  1.00  0.00     0.012 C 
ENDBRANCH  31  33
ENDBRANCH  30  31
ENDBRANCH   1  30
TORSDOF 7
ENDMDL
MODEL 3
REMARK VINA RESULT:    -7.264      5.938      8.343
REMARK INTER + INTRA:         -11.548
REMARK INTER:                  -8.800
REMARK INTRA:                  -2.748
REMARK UNBOUND:                -1.524
REMARK SMILES C=C(CC[C@@H](C(=O)[O-])[C@@H]1CC[C@@]2(C)C3=C(CC[C@@]12C)[C@]1(C)CC[C@@H](O)C(C)(C)[C@H]1CC3)C(C)C
REMARK SMILES IDX 4 1 5 2 6 3 7 4 8 5 9 6 10 7 18 8 11 9 12 10 17 11 19 12
REMARK SMILES IDX 13 13 14 14 16 15 15 16 31 17 20 18 30 19 29 20 22 21 21 22
REMARK SMILES IDX 26 23 23 24 24 25 27 26 28 27 25 28 3 30 2 31 1 32 32 33
REMARK SMILES IDX 33 34 34 35
REMARK H PARENT 25 29
REMARK Flexibility Score: inf
ROOT
ATOM      1  C   UNL     1       9.258 119.168  18.878  1.00  0.00     0.014 C 
ENDROOT
BRANCH   1   2
ATOM      2  C   UNL     1       9.106 119.298  20.426  1.00  0.00     0.039 C 
BRANCH   2   3
ATOM      3  C   UNL     1       7.756 119.840  20.841  1.00  0.00     0.045 C 
ATOM      4  O   UNL     1       6.726 119.511  20.198  1.00  0.00    -0.550 OA
ATOM      5  O   UNL     1       7.627 120.706  21.919  1.00  0.00    -0.550 OA
ENDBRANCH   2   3
BRANCH   2   6
ATOM      6  C   UNL     1       9.523 118.040  21.269  1.00  0.00     0.004 C 
ATOM      7  C   UNL     1       8.393 117.417  22.065  1.00  0.00     0.006 C 
ATOM      8  C   UNL     1      10.736 118.075  22.252  1.00  0.00    -0.020 C 
ATOM      9  C   UNL     1       9.065 116.294  22.833  1.00  0.00     0.012 C 
ATOM     10  C   UNL     1      10.516 116.762  23.168  1.00  0.00    -0.006 C 
ATOM     11  C   UNL     1      12.068 118.046  21.440  1.00  0.00     0.012 C 
ATOM     12  C   UNL     1      10.736 119.382  23.095  1.00  0.00     0.012 C 
ATOM     13  C   UNL     1      10.600 117.036  24.698  1.00  0.00     0.017 C 
ATOM     14  C   UNL     1      11.514 115.606  22.873  1.00  0.00    -0.064 C 
ATOM     15  C   UNL     1      13.146 117.292  22.189  1.00  0.00     0.032 C 
ATOM     16  C   UNL     1      12.717 115.851  22.290  1.00  0.00    -0.064 C 
ATOM     17  C   UNL     1      11.271 114.240  23.519  1.00  0.00     0.032 C 
ATOM     18  C   UNL     1      13.637 114.703  21.819  1.00  0.00    -0.008 C 
ATOM     19  C   UNL     1      11.952 113.043  22.838  1.00  0.00     0.009 C 
ATOM     20  C   UNL     1      12.736 113.431  21.569  1.00  0.00     0.007 C 
ATOM     21  C   UNL     1      14.319 115.081  20.473  1.00  0.00     0.014 C 
ATOM     22  C   UNL     1      14.715 114.523  22.914  1.00  0.00     0.016 C 
ATOM     23  C   UNL     1      13.424 112.209  20.833  1.00  0.00    -0.006 C 
ATOM     24  C   UNL     1      15.038 113.913  19.792  1.00  0.00     0.033 C 
ATOM     25  C   UNL     1      14.092 112.740  19.523  1.00  0.00     0.120 C 
ATOM     26  C   UNL     1      14.468 111.450  21.721  1.00  0.00     0.014 C 
ATOM     27  C   UNL     1      12.332 111.193  20.399  1.00  0.00     0.014 C 
BRANCH  25  28
ATOM     28  O   UNL     1      14.815 111.727  18.865  1.00  0.00    -0.393 OA
ATOM     29  H   UNL     1      14.980 110.999  19.525  1.00  0.00     0.210 HD
ENDBRANCH  25  28
ENDBRANCH   2   6
ENDBRANCH   1   2
BRANCH   1  30
ATOM     30  C   UNL     1       9.126 117.709  18.412  1.00  0.00     0.031 C 
BRANCH  30  31
ATOM     31  C   UNL     1      10.285 117.298  17.527  1.00  0.00    -0.075 C 
ATOM     32  C   UNL     1      10.498 117.978  16.384  1.00  0.00     0.008 C 
BRANCH  31  33
ATOM     33  C   UNL     1      11.232 116.151  17.883  1.00  0.00     0.008 C 
ATOM     34  C   UNL     1      10.846 115.371  19.147  1.00  0.00     0.012 C 
ATOM     35  C   UNL     1      12.678 116.652  17.995  1.00  0.00     0.012 C 
ENDBRANCH  31  33
ENDBRANCH  30  31
ENDBRANCH   1  30
TORSDOF 7
ENDMDL
MODEL 4
REMARK VINA RESULT:    -7.218      6.463      8.843
REMARK INTER + INTRA:         -11.485
REMARK INTER:                  -8.787
REMARK INTRA:                  -2.698
REMARK UNBOUND:                -1.524
REMARK SMILES C=C(CC[C@@H](C(=O)[O-])[C@@H]1CC[C@@]2(C)C3=C(CC[C@@]12C)[C@]1(C)CC[C@@H](O)C(C)(C)[C@H]1CC3)C(C)C
REMARK SMILES IDX 4 1 5 2 6 3 7 4 8 5 9 6 10 7 18 8 11 9 12 10 17 11 19 12
REMARK SMILES IDX 13 13 14 14 16 15 15 16 31 17 20 18 30 19 29 20 22 21 21 22
REMARK SMILES IDX 26 23 23 24 24 25 27 26 28 27 25 28 3 30 2 31 1 32 32 33
REMARK SMILES IDX 33 34 34 35
REMARK H PARENT 25 29
REMARK Flexibility Score: inf
ROOT
ATOM      1  C   UNL     1      12.370 111.541  19.959  1.00  0.00     0.014 C 
ENDROOT
BRANCH   1   2
ATOM      2  C   UNL     1      13.346 112.076  21.054  1.00  0.00     0.039 C 
BRANCH   2   3
ATOM      3  C   UNL     1      14.749 111.530  20.909  1.00  0.00     0.045 C 
ATOM      4  O   UNL     1      15.409 111.224  21.935  1.00  0.00    -0.550 OA
ATOM      5  O   UNL     1      15.335 111.366  19.661  1.00  0.00    -0.550 OA
ENDBRANCH   2   3
BRANCH   2   6
ATOM      6  C   UNL     1      13.337 113.629  21.288  1.00  0.00     0.004 C 
ATOM      7  C   UNL     1      14.600 114.338  20.837  1.00  0.00     0.006 C 
ATOM      8  C   UNL     1      13.003 114.247  22.683  1.00  0.00    -0.020 C 
ATOM      9  C   UNL     1      14.368 115.783  21.239  1.00  0.00     0.012 C 
ATOM     10  C   UNL     1      13.524 115.772  22.552  1.00  0.00    -0.006 C 
ATOM     11  C   UNL     1      11.470 114.139  22.950  1.00  0.00     0.012 C 
ATOM     12  C   UNL     1      13.729 113.479  23.824  1.00  0.00     0.012 C 
ATOM     13  C   UNL     1      14.438 116.232  23.725  1.00  0.00     0.017 C 
ATOM     14  C   UNL     1      12.385 116.826  22.444  1.00  0.00    -0.064 C 
ATOM     15  C   UNL     1      10.972 115.321  23.753  1.00  0.00     0.032 C 
ATOM     16  C   UNL     1      11.135 116.557  22.906  1.00  0.00    -0.064 C 
ATOM     17  C   UNL     1      12.749 118.271  22.098  1.00  0.00     0.032 C 
ATOM     18  C   UNL     1       9.951 117.511  22.638  1.00  0.00    -0.008 C 
ATOM     19  C   UNL     1      11.613 119.134  21.527  1.00  0.00     0.009 C 
ATOM     20  C   UNL     1      10.292 118.360  21.352  1.00  0.00     0.007 C 
ATOM     21  C   UNL     1       8.659 116.694  22.347  1.00  0.00     0.014 C 
ATOM     22  C   UNL     1       9.756 118.346  23.927  1.00  0.00     0.016 C 
ATOM     23  C   UNL     1       9.113 119.220  20.738  1.00  0.00    -0.006 C 
ATOM     24  C   UNL     1       7.499 117.537  21.811  1.00  0.00     0.033 C 
ATOM     25  C   UNL     1       7.879 118.283  20.530  1.00  0.00     0.120 C 
ATOM     26  C   UNL     1       8.725 120.464  21.608  1.00  0.00     0.014 C 
ATOM     27  C   UNL     1       9.531 119.730  19.330  1.00  0.00     0.014 C 
BRANCH  25  28
ATOM     28  O   UNL     1       6.755 119.001  20.082  1.00  0.00    -0.393 OA
ATOM     29  H   UNL     1       5.971 118.693  20.614  1.00  0.00     0.210 HD
ENDBRANCH  25  28
ENDBRANCH   2   6
ENDBRANCH   1   2
BRANCH   1  30
ATOM     30  C   UNL     1      11.290 112.576  19.601  1.00  0.00     0.031 C 
BRANCH  30  31
ATOM     31  C   UNL     1      11.532 113.184  18.235  1.00  0.00    -0.075 C 
ATOM     32  C   UNL     1      11.667 112.362  17.177  1.00  0.00     0.008 C 
BRANCH  31  33
ATOM     33  C   UNL     1      11.618 114.694  18.003  1.00  0.00     0.008 C 
ATOM     34  C   UNL     1      13.034 115.218  17.727  1.00  0.00     0.012 C 
ATOM     35  C   UNL     1      10.992 115.462  19.175  1.00  0.00     0.012 C 
ENDBRANCH  31  33
ENDBRANCH  30  31
ENDBRANCH   1  30
TORSDOF 7
ENDMDL
MODEL 5
REMARK VINA RESULT:    -7.086      6.191      9.992
REMARK INTER + INTRA:         -11.303
REMARK INTER:                  -8.187
REMARK INTRA:                  -3.116
REMARK UNBOUND:                -1.524
REMARK SMILES C=C(CC[C@@H](C(=O)[O-])[C@@H]1CC[C@@]2(C)C3=C(CC[C@@]12C)[C@]1(C)CC[C@@H](O)C(C)(C)[C@H]1CC3)C(C)C
REMARK SMILES IDX 4 1 5 2 6 3 7 4 8 5 9 6 10 7 18 8 11 9 12 10 17 11 19 12
REMARK SMILES IDX 13 13 14 14 16 15 15 16 31 17 20 18 30 19 29 20 22 21 21 22
REMARK SMILES IDX 26 23 23 24 24 25 27 26 28 27 25 28 3 30 2 31 1 32 32 33
REMARK SMILES IDX 33 34 34 35
REMARK H PARENT 25 29
REMARK Flexibility Score: inf
ROOT
ATOM      1  C   UNL     1      13.759 111.145  22.902  1.00  0.00     0.014 C 
ENDROOT
BRANCH   1   2
ATOM      2  C   UNL     1      13.912 111.201  21.350  1.00  0.00     0.039 C 
BRANCH   2   3
ATOM      3  C   UNL     1      13.853 109.835  20.703  1.00  0.00     0.045 C 
ATOM      4  O   UNL     1      13.164 108.924  21.229  1.00  0.00    -0.550 OA
ATOM      5  O   UNL     1      14.553 109.558  19.536  1.00  0.00    -0.550 OA
ENDBRANCH   2   3
BRANCH   2   6
ATOM      6  C   UNL     1      13.011 112.249  20.604  1.00  0.00     0.004 C 
ATOM      7  C   UNL     1      12.019 111.641  19.631  1.00  0.00     0.006 C 
ATOM      8  C   UNL     1      13.625 113.468  19.845  1.00  0.00    -0.020 C 
ATOM      9  C   UNL     1      11.343 112.846  19.001  1.00  0.00     0.012 C 
ATOM     10  C   UNL     1      12.406 113.985  18.917  1.00  0.00    -0.006 C 
ATOM     11  C   UNL     1      14.112 114.534  20.874  1.00  0.00     0.012 C 
ATOM     12  C   UNL     1      14.859 113.039  19.001  1.00  0.00     0.012 C 
ATOM     13  C   UNL     1      12.790 114.186  17.422  1.00  0.00     0.017 C 
ATOM     14  C   UNL     1      11.769 115.323  19.391  1.00  0.00    -0.064 C 
ATOM     15  C   UNL     1      13.941 115.936  20.331  1.00  0.00     0.032 C 
ATOM     16  C   UNL     1      12.465 116.193  20.171  1.00  0.00    -0.064 C 
ATOM     17  C   UNL     1      10.476 115.799  18.727  1.00  0.00     0.032 C 
ATOM     18  C   UNL     1      11.790 117.429  20.805  1.00  0.00    -0.008 C 
ATOM     19  C   UNL     1       9.642 116.812  19.527  1.00  0.00     0.009 C 
ATOM     20  C   UNL     1      10.243 117.138  20.908  1.00  0.00     0.007 C 
ATOM     21  C   UNL     1      12.334 117.656  22.245  1.00  0.00     0.014 C 
ATOM     22  C   UNL     1      12.160 118.639  19.914  1.00  0.00     0.016 C 
ATOM     23  C   UNL     1       9.386 118.158  21.764  1.00  0.00    -0.006 C 
ATOM     24  C   UNL     1      11.543 118.689  23.051  1.00  0.00     0.033 C 
ATOM     25  C   UNL     1      10.063 118.313  23.164  1.00  0.00     0.120 C 
ATOM     26  C   UNL     1       9.204 119.554  21.077  1.00  0.00     0.014 C 
ATOM     27  C   UNL     1       7.974 117.558  22.013  1.00  0.00     0.014 C 
BRANCH  25  28
ATOM     28  O   UNL     1       9.414 119.286  23.946  1.00  0.00    -0.393 OA
ATOM     29  H   UNL     1       9.933 120.133  23.863  1.00  0.00     0.210 HD
ENDBRANCH  25  28
ENDBRANCH   2   6
ENDBRANCH   1   2
BRANCH   1  30
ATOM     30  C   UNL     1      12.440 111.785  23.369  1.00  0.00     0.031 C 
BRANCH  30  31
ATOM     31  C   UNL     1      12.685 113.053  24.160  1.00  0.00    -0.075 C 
ATOM     32  C   UNL     1      13.516 113.004  25.219  1.00  0.00     0.008 C 
BRANCH  31  33
ATOM     33  C   UNL     1      12.037 114.392  23.801  1.00  0.00     0.008 C 
ATOM     34  C   UNL     1      11.617 115.242  25.007  1.00  0.00     0.012 C 
ATOM     35  C   UNL     1      10.843 114.184  22.861  1.00  0.00     0.012 C 
ENDBRANCH  31  33
ENDBRANCH  30  31
ENDBRANCH   1  30
TORSDOF 7
ENDMDL
MODEL 6
REMARK VINA RESULT:    -7.056      4.121      7.251
REMARK INTER + INTRA:         -11.262
REMARK INTER:                  -8.574
REMARK INTRA:                  -2.688
REMARK UNBOUND:                -1.524
REMARK SMILES C=C(CC[C@@H](C(=O)[O-])[C@@H]1CC[C@@]2(C)C3=C(CC[C@@]12C)[C@]1(C)CC[C@@H](O)C(C)(C)[C@H]1CC3)C(C)C
REMARK SMILES IDX 4 1 5 2 6 3 7 4 8 5 9 6 10 7 18 8 11 9 12 10 17 11 19 12
REMARK SMILES IDX 13 13 14 14 16 15 15 16 31 17 20 18 30 19 29 20 22 21 21 22
REMARK SMILES IDX 26 23 23 24 24 25 27 26 28 27 25 28 3 30 2 31 1 32 32 33
REMARK SMILES IDX 33 34 34 35
REMARK H PARENT 25 29
REMARK Flexibility Score: inf
ROOT
ATOM      1  C   UNL     1      20.256 121.876  12.883  1.00  0.00     0.014 C 
ENDROOT
BRANCH   1   2
ATOM      2  C   UNL     1      18.930 121.078  13.087  1.00  0.00     0.039 C 
BRANCH   2   3
ATOM      3  C   UNL     1      19.039 119.634  12.650  1.00  0.00     0.045 C 
ATOM      4  O   UNL     1      20.122 119.013  12.809  1.00  0.00    -0.550 OA
ATOM      5  O   UNL     1      17.967 118.973  12.066  1.00  0.00    -0.550 OA
ENDBRANCH   2   3
BRANCH   2   6
ATOM      6  C   UNL     1      18.247 121.221  14.493  1.00  0.00     0.004 C 
ATOM      7  C   UNL     1      18.344 119.983  15.365  1.00  0.00     0.006 C 
ATOM      8  C   UNL     1      16.769 121.704  14.644  1.00  0.00    -0.020 C 
ATOM      9  C   UNL     1      17.555 120.351  16.608  1.00  0.00     0.012 C 
ATOM     10  C   UNL     1      16.391 121.290  16.160  1.00  0.00    -0.006 C 
ATOM     11  C   UNL     1      16.693 123.241  14.387  1.00  0.00     0.012 C 
ATOM     12  C   UNL     1      15.844 121.012  13.602  1.00  0.00     0.012 C 
ATOM     13  C   UNL     1      15.053 120.504  16.287  1.00  0.00     0.017 C 
ATOM     14  C   UNL     1      16.289 122.493  17.142  1.00  0.00    -0.064 C 
ATOM     15  C   UNL     1      15.627 123.886  15.245  1.00  0.00     0.032 C 
ATOM     16  C   UNL     1      16.048 123.751  16.685  1.00  0.00    -0.064 C 
ATOM     17  C   UNL     1      16.153 122.212  18.639  1.00  0.00     0.032 C 
ATOM     18  C   UNL     1      16.132 124.979  17.618  1.00  0.00    -0.008 C 
ATOM     19  C   UNL     1      16.547 123.362  19.579  1.00  0.00     0.009 C 
ATOM     20  C   UNL     1      17.069 124.605  18.832  1.00  0.00     0.007 C 
ATOM     21  C   UNL     1      16.774 126.180  16.866  1.00  0.00     0.014 C 
ATOM     22  C   UNL     1      14.678 125.333  18.013  1.00  0.00     0.016 C 
ATOM     23  C   UNL     1      17.509 125.795  19.779  1.00  0.00    -0.006 C 
ATOM     24  C   UNL     1      17.142 127.356  17.775  1.00  0.00     0.033 C 
ATOM     25  C   UNL     1      18.102 126.935  18.891  1.00  0.00     0.120 C 
ATOM     26  C   UNL     1      16.349 126.338  20.681  1.00  0.00     0.014 C 
ATOM     27  C   UNL     1      18.655 125.310  20.710  1.00  0.00     0.014 C 
BRANCH  25  28
ATOM     28  O   UNL     1      18.421 128.073  19.656  1.00  0.00    -0.393 OA
ATOM     29  H   UNL     1      19.412 128.177  19.642  1.00  0.00     0.210 HD
ENDBRANCH  25  28
ENDBRANCH   2   6
ENDBRANCH   1   2
BRANCH   1  30
ATOM     30  C   UNL     1      20.832 122.376  14.219  1.00  0.00     0.031 C 
BRANCH  30  31
ATOM     31  C   UNL     1      21.060 123.873  14.202  1.00  0.00    -0.075 C 
ATOM     32  C   UNL     1      21.842 124.398  13.239  1.00  0.00     0.008 C 
BRANCH  31  33
ATOM     33  C   UNL     1      20.429 124.818  15.228  1.00  0.00     0.008 C 
ATOM     34  C   UNL     1      19.739 124.116  16.404  1.00  0.00     0.012 C 
ATOM     35  C   UNL     1      19.455 125.788  14.548  1.00  0.00     0.012 C 
ENDBRANCH  31  33
ENDBRANCH  30  31
ENDBRANCH   1  30
TORSDOF 7
ENDMDL
MODEL 7
REMARK VINA RESULT:    -7.017      5.228      8.960
REMARK INTER + INTRA:         -11.207
REMARK INTER:                  -8.361
REMARK INTRA:                  -2.847
REMARK UNBOUND:                -1.524
REMARK SMILES C=C(CC[C@@H](C(=O)[O-])[C@@H]1CC[C@@]2(C)C3=C(CC[C@@]12C)[C@]1(C)CC[C@@H](O)C(C)(C)[C@H]1CC3)C(C)C
REMARK SMILES IDX 4 1 5 2 6 3 7 4 8 5 9 6 10 7 18 8 11 9 12 10 17 11 19 12
REMARK SMILES IDX 13 13 14 14 16 15 15 16 31 17 20 18 30 19 29 20 22 21 21 22
REMARK SMILES IDX 26 23 23 24 24 25 27 26 28 27 25 28 3 30 2 31 1 32 32 33
REMARK SMILES IDX 33 34 34 35
REMARK H PARENT 25 29
REMARK Flexibility Score: inf
ROOT
ATOM      1  C   UNL     1       7.869 117.625  22.280  1.00  0.00     0.014 C 
ENDROOT
BRANCH   1   2
ATOM      2  C   UNL     1       8.738 118.455  21.285  1.00  0.00     0.039 C 
BRANCH   2   3
ATOM      3  C   UNL     1       8.644 119.946  21.523  1.00  0.00     0.045 C 
ATOM      4  O   UNL     1       8.668 120.738  20.546  1.00  0.00    -0.550 OA
ATOM      5  O   UNL     1       8.538 120.467  22.806  1.00  0.00    -0.550 OA
ENDBRANCH   2   3
BRANCH   2   6
ATOM      6  C   UNL     1      10.223 117.979  21.100  1.00  0.00     0.004 C 
ATOM      7  C   UNL     1      11.262 118.942  21.641  1.00  0.00     0.006 C 
ATOM      8  C   UNL     1      10.775 117.531  19.709  1.00  0.00    -0.020 C 
ATOM      9  C   UNL     1      12.584 118.295  21.274  1.00  0.00     0.012 C 
ATOM     10  C   UNL     1      12.378 117.552  19.917  1.00  0.00    -0.006 C 
ATOM     11  C   UNL     1      10.216 116.119  19.354  1.00  0.00     0.012 C 
ATOM     12  C   UNL     1      10.320 118.506  18.586  1.00  0.00     0.012 C 
ATOM     13  C   UNL     1      13.150 118.329  18.812  1.00  0.00     0.017 C 
ATOM     14  C   UNL     1      13.027 116.139  19.996  1.00  0.00    -0.064 C 
ATOM     15  C   UNL     1      11.225 115.315  18.564  1.00  0.00     0.032 C 
ATOM     16  C   UNL     1      12.410 115.054  19.457  1.00  0.00    -0.064 C 
ATOM     17  C   UNL     1      14.496 116.027  20.406  1.00  0.00     0.032 C 
ATOM     18  C   UNL     1      12.943 113.623  19.689  1.00  0.00    -0.008 C 
ATOM     19  C   UNL     1      14.942 114.657  20.941  1.00  0.00     0.009 C 
ATOM     20  C   UNL     1      13.794 113.631  21.018  1.00  0.00     0.007 C 
ATOM     21  C   UNL     1      11.757 112.635  19.883  1.00  0.00     0.014 C 
ATOM     22  C   UNL     1      13.738 113.237  18.419  1.00  0.00     0.016 C 
ATOM     23  C   UNL     1      14.222 112.220  21.594  1.00  0.00    -0.006 C 
ATOM     24  C   UNL     1      12.179 111.250  20.380  1.00  0.00     0.033 C 
ATOM     25  C   UNL     1      12.944 111.327  21.704  1.00  0.00     0.120 C 
ATOM     26  C   UNL     1      15.328 111.506  20.744  1.00  0.00     0.014 C 
ATOM     27  C   UNL     1      14.768 112.401  23.038  1.00  0.00     0.014 C 
BRANCH  25  28
ATOM     28  O   UNL     1      13.262 110.018  22.112  1.00  0.00    -0.393 OA
ATOM     29  H   UNL     1      14.089 109.745  21.627  1.00  0.00     0.210 HD
ENDBRANCH  25  28
ENDBRANCH   2   6
ENDBRANCH   1   2
BRANCH   1  30
ATOM     30  C   UNL     1       8.526 116.278  22.624  1.00  0.00     0.031 C 
BRANCH  30  31
ATOM     31  C   UNL     1       9.346 116.366  23.895  1.00  0.00    -0.075 C 
ATOM     32  C   UNL     1       8.914 117.165  24.889  1.00  0.00     0.008 C 
BRANCH  31  33
ATOM     33  C   UNL     1      10.640 115.576  24.101  1.00  0.00     0.008 C 
ATOM     34  C   UNL     1      11.877 116.439  24.387  1.00  0.00     0.012 C 
ATOM     35  C   UNL     1      10.910 114.649  22.909  1.00  0.00     0.012 C 
ENDBRANCH  31  33
ENDBRANCH  30  31
ENDBRANCH   1  30
TORSDOF 7
ENDMDL
MODEL 8
REMARK VINA RESULT:    -7.009      6.255      9.398
REMARK INTER + INTRA:         -11.197
REMARK INTER:                 -10.609
REMARK INTRA:                  -0.588
REMARK UNBOUND:                -1.524
REMARK SMILES C=C(CC[C@@H](C(=O)[O-])[C@@H]1CC[C@@]2(C)C3=C(CC[C@@]12C)[C@]1(C)CC[C@@H](O)C(C)(C)[C@H]1CC3)C(C)C
REMARK SMILES IDX 4 1 5 2 6 3 7 4 8 5 9 6 10 7 18 8 11 9 12 10 17 11 19 12
REMARK SMILES IDX 13 13 14 14 16 15 15 16 31 17 20 18 30 19 29 20 22 21 21 22
REMARK SMILES IDX 26 23 23 24 24 25 27 26 28 27 25 28 3 30 2 31 1 32 32 33
REMARK SMILES IDX 33 34 34 35
REMARK H PARENT 25 29
REMARK Flexibility Score: inf
ROOT
ATOM      1  C   UNL     1      14.039 110.200  20.319  1.00  0.00     0.014 C 
ENDROOT
BRANCH   1   2
ATOM      2  C   UNL     1      12.709 110.954  20.632  1.00  0.00     0.039 C 
BRANCH   2   3
ATOM      3  C   UNL     1      12.511 111.210  22.110  1.00  0.00     0.045 C 
ATOM      4  O   UNL     1      11.470 111.792  22.510  1.00  0.00    -0.550 OA
ATOM      5  O   UNL     1      13.463 110.821  23.043  1.00  0.00    -0.550 OA
ENDBRANCH   2   3
BRANCH   2   6
ATOM      6  C   UNL     1      12.420 112.233  19.768  1.00  0.00     0.004 C 
ATOM      7  C   UNL     1      12.310 111.971  18.278  1.00  0.00     0.006 C 
ATOM      8  C   UNL     1      13.296 113.520  19.886  1.00  0.00    -0.020 C 
ATOM      9  C   UNL     1      12.111 113.351  17.679  1.00  0.00     0.012 C 
ATOM     10  C   UNL     1      12.911 114.360  18.560  1.00  0.00    -0.006 C 
ATOM     11  C   UNL     1      12.953 114.267  21.212  1.00  0.00     0.012 C 
ATOM     12  C   UNL     1      14.810 113.165  19.932  1.00  0.00     0.012 C 
ATOM     13  C   UNL     1      14.141 114.853  17.743  1.00  0.00     0.017 C 
ATOM     14  C   UNL     1      12.035 115.617  18.835  1.00  0.00    -0.064 C 
ATOM     15  C   UNL     1      13.076 115.766  21.041  1.00  0.00     0.032 C 
ATOM     16  C   UNL     1      12.022 116.208  20.059  1.00  0.00    -0.064 C 
ATOM     17  C   UNL     1      11.428 116.365  17.647  1.00  0.00     0.032 C 
ATOM     18  C   UNL     1      11.022 117.332  20.404  1.00  0.00    -0.008 C 
ATOM     19  C   UNL     1      10.213 117.253  17.960  1.00  0.00     0.009 C 
ATOM     20  C   UNL     1       9.781 117.192  19.438  1.00  0.00     0.007 C 
ATOM     21  C   UNL     1      10.515 117.169  21.865  1.00  0.00     0.014 C 
ATOM     22  C   UNL     1      11.794 118.667  20.269  1.00  0.00     0.016 C 
ATOM     23  C   UNL     1       8.514 118.077  19.780  1.00  0.00    -0.006 C 
ATOM     24  C   UNL     1       9.328 118.070  22.215  1.00  0.00     0.033 C 
ATOM     25  C   UNL     1       8.139 117.837  21.279  1.00  0.00     0.120 C 
ATOM     26  C   UNL     1       8.720 119.603  19.496  1.00  0.00     0.014 C 
ATOM     27  C   UNL     1       7.305 117.589  18.933  1.00  0.00     0.014 C 
BRANCH  25  28
ATOM     28  O   UNL     1       7.081 118.672  21.686  1.00  0.00    -0.393 OA
ATOM     29  H   UNL     1       7.214 118.874  22.653  1.00  0.00     0.210 HD
ENDBRANCH  25  28
ENDBRANCH   2   6
ENDBRANCH   1   2
BRANCH   1  30
ATOM     30  C   UNL     1      13.871 109.205  19.158  1.00  0.00     0.031 C 
BRANCH  30  31
ATOM     31  C   UNL     1      15.109 109.150  18.287  1.00  0.00    -0.075 C 
ATOM     32  C   UNL     1      16.004 108.166  18.498  1.00  0.00     0.008 C 
BRANCH  31  33
ATOM     33  C   UNL     1      15.382 110.160  17.171  1.00  0.00     0.008 C 
ATOM     34  C   UNL     1      15.753 109.535  15.820  1.00  0.00     0.012 C 
ATOM     35  C   UNL     1      16.458 111.167  17.597  1.00  0.00     0.012 C 
ENDBRANCH  31  33
ENDBRANCH  30  31
ENDBRANCH   1  30
TORSDOF 7
ENDMDL
MODEL 9
REMARK VINA RESULT:    -6.989      5.693      9.407
REMARK INTER + INTRA:         -11.169
REMARK INTER:                  -8.230
REMARK INTRA:                  -2.939
REMARK UNBOUND:                -1.524
REMARK SMILES C=C(CC[C@@H](C(=O)[O-])[C@@H]1CC[C@@]2(C)C3=C(CC[C@@]12C)[C@]1(C)CC[C@@H](O)C(C)(C)[C@H]1CC3)C(C)C
REMARK SMILES IDX 4 1 5 2 6 3 7 4 8 5 9 6 10 7 18 8 11 9 12 10 17 11 19 12
REMARK SMILES IDX 13 13 14 14 16 15 15 16 31 17 20 18 30 19 29 20 22 21 21 22
REMARK SMILES IDX 26 23 23 24 24 25 27 26 28 27 25 28 3 30 2 31 1 32 32 33
REMARK SMILES IDX 33 34 34 35
REMARK H PARENT 25 29
REMARK Flexibility Score: inf
ROOT
ATOM      1  C   UNL     1      10.150 115.596  23.038  1.00  0.00     0.014 C 
ENDROOT
BRANCH   1   2
ATOM      2  C   UNL     1      10.297 116.418  21.720  1.00  0.00     0.039 C 
BRANCH   2   3
ATOM      3  C   UNL     1      10.104 117.904  21.928  1.00  0.00     0.045 C 
ATOM      4  O   UNL     1       9.508 118.585  21.054  1.00  0.00    -0.550 OA
ATOM      5  O   UNL     1      10.580 118.541  23.066  1.00  0.00    -0.550 OA
ENDBRANCH   2   3
BRANCH   2   6
ATOM      6  C   UNL     1      11.563 116.103  20.847  1.00  0.00     0.004 C 
ATOM      7  C   UNL     1      12.600 117.211  20.824  1.00  0.00     0.006 C 
ATOM      8  C   UNL     1      11.442 115.634  19.362  1.00  0.00    -0.020 C 
ATOM      9  C   UNL     1      13.660 116.696  19.868  1.00  0.00     0.012 C 
ATOM     10  C   UNL     1      12.933 115.850  18.777  1.00  0.00    -0.006 C 
ATOM     11  C   UNL     1      10.971 114.148  19.320  1.00  0.00     0.012 C 
ATOM     12  C   UNL     1      10.386 116.478  18.593  1.00  0.00     0.012 C 
ATOM     13  C   UNL     1      12.979 116.639  17.436  1.00  0.00     0.017 C 
ATOM     14  C   UNL     1      13.720 114.529  18.537  1.00  0.00    -0.064 C 
ATOM     15  C   UNL     1      11.579 113.416  18.143  1.00  0.00     0.032 C 
ATOM     16  C   UNL     1      13.069 113.349  18.360  1.00  0.00    -0.064 C 
ATOM     17  C   UNL     1      15.208 114.611  18.193  1.00  0.00     0.032 C 
ATOM     18  C   UNL     1      13.830 112.006  18.310  1.00  0.00    -0.008 C 
ATOM     19  C   UNL     1      16.029 113.337  18.451  1.00  0.00     0.009 C 
ATOM     20  C   UNL     1      15.200 112.195  19.069  1.00  0.00     0.007 C 
ATOM     21  C   UNL     1      13.018 110.903  19.049  1.00  0.00     0.014 C 
ATOM     22  C   UNL     1      13.968 111.632  16.815  1.00  0.00     0.016 C 
ATOM     23  C   UNL     1      16.030 110.881  19.371  1.00  0.00    -0.006 C 
ATOM     24  C   UNL     1      13.802 109.609  19.285  1.00  0.00     0.033 C 
ATOM     25  C   UNL     1      15.086 109.857  20.080  1.00  0.00     0.120 C 
ATOM     26  C   UNL     1      16.682 110.245  18.096  1.00  0.00     0.014 C 
ATOM     27  C   UNL     1      17.167 111.213  20.377  1.00  0.00     0.014 C 
BRANCH  25  28
ATOM     28  O   UNL     1      15.727 108.621  20.287  1.00  0.00    -0.393 OA
ATOM     29  H   UNL     1      15.631 108.089  19.450  1.00  0.00     0.210 HD
ENDBRANCH  25  28
ENDBRANCH   2   6
ENDBRANCH   1   2
BRANCH   1  30
ATOM     30  C   UNL     1      10.871 114.241  22.949  1.00  0.00     0.031 C 
BRANCH  30  31
ATOM     31  C   UNL     1      12.296 114.334  23.455  1.00  0.00    -0.075 C 
ATOM     32  C   UNL     1      12.589 115.248  24.400  1.00  0.00     0.008 C 
BRANCH  31  33
ATOM     33  C   UNL     1      13.417 113.426  22.945  1.00  0.00     0.008 C 
ATOM     34  C   UNL     1      14.524 114.150  22.169  1.00  0.00     0.012 C 
ATOM     35  C   UNL     1      12.847 112.278  22.101  1.00  0.00     0.012 C 
ENDBRANCH  31  33
ENDBRANCH  30  31
ENDBRANCH   1  30
TORSDOF 7
ENDMDL
