MODEL 1
REMARK VINA RESULT:    -5.105      0.000      0.000
REMARK INTER + INTRA:         -13.708
REMARK INTER:                 -11.670
REMARK INTRA:                  -2.039
REMARK UNBOUND:                -2.039
REMARK SMILES CCCCCCCCCCCCCCCCCCCCCCCC(=O)[O-]
REMARK SMILES IDX 13 1 14 2 15 3 16 4 17 5 18 6 19 7 20 8 21 9 22 10 23 11
REMARK SMILES IDX 24 12 25 13 26 14 12 15 11 16 10 17 9 18 8 19 7 20 6 21 5 22
REMARK SMILES IDX 4 23 3 24 2 25 1 26
REMARK H PARENT
REMARK Flexibility Score: inf
ROOT
ATOM      1  C   UNL     1      22.359  11.851  49.565  1.00  0.00     0.000 C 
ENDROOT
BRANCH   1   2
ATOM      2  C   UNL     1      22.805  13.045  48.701  1.00  0.00     0.000 C 
BRANCH   2   3
ATOM      3  C   UNL     1      23.902  12.727  47.669  1.00  0.00     0.000 C 
BRANCH   3   4
ATOM      4  C   UNL     1      24.994  13.806  47.600  1.00  0.00     0.000 C 
BRANCH   4   5
ATOM      5  C   UNL     1      26.359  13.223  47.995  1.00  0.00     0.000 C 
BRANCH   5   6
ATOM      6  C   UNL     1      27.411  14.315  48.281  1.00  0.00     0.000 C 
BRANCH   6   7
ATOM      7  C   UNL     1      27.720  14.501  49.776  1.00  0.00     0.000 C 
BRANCH   7   8
ATOM      8  C   UNL     1      26.915  15.639  50.420  1.00  0.00     0.000 C 
BRANCH   8   9
ATOM      9  C   UNL     1      26.282  15.228  51.761  1.00  0.00     0.000 C 
BRANCH   9  10
ATOM     10  C   UNL     1      25.593  13.853  51.691  1.00  0.00     0.006 C 
BRANCH  10  11
ATOM     11  C   UNL     1      24.448  13.728  52.705  1.00  0.00     0.053 C 
BRANCH  11  12
ATOM     12  C   UNL     1      24.957  13.640  54.111  1.00  0.00     0.041 C 
ATOM     13  O   UNL     1      25.699  12.684  54.458  1.00  0.00    -0.550 OA
ATOM     14  O   UNL     1      24.583  14.598  55.048  1.00  0.00    -0.550 OA
ENDBRANCH  11  12
ENDBRANCH  10  11
ENDBRANCH   9  10
ENDBRANCH   8   9
ENDBRANCH   7   8
ENDBRANCH   6   7
ENDBRANCH   5   6
ENDBRANCH   4   5
ENDBRANCH   3   4
ENDBRANCH   2   3
ENDBRANCH   1   2
BRANCH   1  15
ATOM     15  C   UNL     1      21.074  11.178  49.048  1.00  0.00     0.000 C 
BRANCH  15  16
ATOM     16  C   UNL     1      20.689   9.934  49.872  1.00  0.00     0.000 C 
BRANCH  16  17
ATOM     17  C   UNL     1      19.385   9.247  49.413  1.00  0.00     0.000 C 
BRANCH  17  18
ATOM     18  C   UNL     1      18.081   9.907  49.913  1.00  0.00    -0.000 C 
BRANCH  18  19
ATOM     19  C   UNL     1      16.860   8.973  49.990  1.00  0.00    -0.000 C 
BRANCH  19  20
ATOM     20  C   UNL     1      17.252   7.507  50.244  1.00  0.00    -0.000 C 
BRANCH  20  21
ATOM     21  C   UNL     1      16.159   6.524  49.791  1.00  0.00    -0.000 C 
BRANCH  21  22
ATOM     22  C   UNL     1      14.845   7.237  49.428  1.00  0.00    -0.000 C 
BRANCH  22  23
ATOM     23  C   UNL     1      14.511   7.105  47.925  1.00  0.00    -0.000 C 
BRANCH  23  24
ATOM     24  C   UNL     1      14.882   8.348  47.098  1.00  0.00    -0.000 C 
BRANCH  24  25
ATOM     25  C   UNL     1      15.861   8.035  45.958  1.00  0.00    -0.003 C 
ATOM     26  C   UNL     1      17.060   7.242  46.464  1.00  0.00     0.004 C 
ENDBRANCH  24  25
ENDBRANCH  23  24
ENDBRANCH  22  23
ENDBRANCH  21  22
ENDBRANCH  20  21
ENDBRANCH  19  20
ENDBRANCH  18  19
ENDBRANCH  17  18
ENDBRANCH  16  17
ENDBRANCH  15  16
ENDBRANCH   1  15
TORSDOF 22
ENDMDL
MODEL 2
REMARK VINA RESULT:    -5.072     10.345     14.676
REMARK INTER + INTRA:         -13.634
REMARK INTER:                 -10.970
REMARK INTRA:                  -2.664
REMARK UNBOUND:                -2.039
REMARK SMILES CCCCCCCCCCCCCCCCCCCCCCCC(=O)[O-]
REMARK SMILES IDX 13 1 14 2 15 3 16 4 17 5 18 6 19 7 20 8 21 9 22 10 23 11
REMARK SMILES IDX 24 12 25 13 26 14 12 15 11 16 10 17 9 18 8 19 7 20 6 21 5 22
REMARK SMILES IDX 4 23 3 24 2 25 1 26
REMARK H PARENT
REMARK Flexibility Score: inf
ROOT
ATOM      1  C   UNL     1      22.492   0.628  48.250  1.00  0.00     0.000 C 
ENDROOT
BRANCH   1   2
ATOM      2  C   UNL     1      21.172   0.992  47.546  1.00  0.00     0.000 C 
BRANCH   2   3
ATOM      3  C   UNL     1      19.896   0.637  48.330  1.00  0.00     0.000 C 
BRANCH   3   4
ATOM      4  C   UNL     1      18.823  -0.036  47.461  1.00  0.00     0.000 C 
BRANCH   4   5
ATOM      5  C   UNL     1      19.447  -1.115  46.564  1.00  0.00     0.000 C 
BRANCH   5   6
ATOM      6  C   UNL     1      18.624  -2.420  46.542  1.00  0.00     0.000 C 
BRANCH   6   7
ATOM      7  C   UNL     1      17.653  -2.560  47.727  1.00  0.00     0.000 C 
BRANCH   7   8
ATOM      8  C   UNL     1      16.226  -2.929  47.295  1.00  0.00     0.000 C 
BRANCH   8   9
ATOM      9  C   UNL     1      15.396  -1.698  46.891  1.00  0.00     0.000 C 
BRANCH   9  10
ATOM     10  C   UNL     1      15.255  -0.679  48.037  1.00  0.00     0.006 C 
BRANCH  10  11
ATOM     11  C   UNL     1      15.232   0.767  47.524  1.00  0.00     0.053 C 
BRANCH  11  12
ATOM     12  C   UNL     1      13.863   1.174  47.070  1.00  0.00     0.041 C 
ATOM     13  O   UNL     1      13.646   1.422  45.854  1.00  0.00    -0.550 OA
ATOM     14  O   UNL     1      12.835   1.314  47.996  1.00  0.00    -0.550 OA
ENDBRANCH  11  12
ENDBRANCH  10  11
ENDBRANCH   9  10
ENDBRANCH   8   9
ENDBRANCH   7   8
ENDBRANCH   6   7
ENDBRANCH   5   6
ENDBRANCH   4   5
ENDBRANCH   3   4
ENDBRANCH   2   3
ENDBRANCH   1   2
BRANCH   1  15
ATOM     15  C   UNL     1      23.203  -0.580  47.614  1.00  0.00     0.000 C 
BRANCH  15  16
ATOM     16  C   UNL     1      24.494  -0.964  48.362  1.00  0.00     0.000 C 
BRANCH  16  17
ATOM     17  C   UNL     1      25.304   0.241  48.888  1.00  0.00     0.000 C 
BRANCH  17  18
ATOM     18  C   UNL     1      26.428   0.739  47.953  1.00  0.00    -0.000 C 
BRANCH  18  19
ATOM     19  C   UNL     1      26.437   2.255  47.687  1.00  0.00    -0.000 C 
BRANCH  19  20
ATOM     20  C   UNL     1      25.047   2.893  47.852  1.00  0.00    -0.000 C 
BRANCH  20  21
ATOM     21  C   UNL     1      24.741   3.919  46.749  1.00  0.00    -0.000 C 
BRANCH  21  22
ATOM     22  C   UNL     1      23.477   3.558  45.947  1.00  0.00    -0.000 C 
BRANCH  22  23
ATOM     23  C   UNL     1      23.692   2.313  45.058  1.00  0.00    -0.000 C 
BRANCH  23  24
ATOM     24  C   UNL     1      23.343   2.544  43.578  1.00  0.00    -0.000 C 
BRANCH  24  25
ATOM     25  C   UNL     1      23.520   4.006  43.146  1.00  0.00    -0.003 C 
ATOM     26  C   UNL     1      24.027   4.099  41.711  1.00  0.00     0.004 C 
ENDBRANCH  24  25
ENDBRANCH  23  24
ENDBRANCH  22  23
ENDBRANCH  21  22
ENDBRANCH  20  21
ENDBRANCH  19  20
ENDBRANCH  18  19
ENDBRANCH  17  18
ENDBRANCH  16  17
ENDBRANCH  15  16
ENDBRANCH   1  15
TORSDOF 22
ENDMDL
MODEL 3
REMARK VINA RESULT:    -5.006     11.641     16.152
REMARK INTER + INTRA:         -13.482
REMARK INTER:                 -10.290
REMARK INTRA:                  -3.192
REMARK UNBOUND:                -2.039
REMARK SMILES CCCCCCCCCCCCCCCCCCCCCCCC(=O)[O-]
REMARK SMILES IDX 13 1 14 2 15 3 16 4 17 5 18 6 19 7 20 8 21 9 22 10 23 11
REMARK SMILES IDX 24 12 25 13 26 14 12 15 11 16 10 17 9 18 8 19 7 20 6 21 5 22
REMARK SMILES IDX 4 23 3 24 2 25 1 26
REMARK H PARENT
REMARK Flexibility Score: inf
ROOT
ATOM      1  C   UNL     1      17.089   0.067  46.880  1.00  0.00     0.000 C 
ENDROOT
BRANCH   1   2
ATOM      2  C   UNL     1      15.989   0.389  47.908  1.00  0.00     0.000 C 
BRANCH   2   3
ATOM      3  C   UNL     1      14.915  -0.701  48.075  1.00  0.00     0.000 C 
BRANCH   3   4
ATOM      4  C   UNL     1      15.484  -2.125  47.991  1.00  0.00     0.000 C 
BRANCH   4   5
ATOM      5  C   UNL     1      14.693  -2.969  46.981  1.00  0.00     0.000 C 
BRANCH   5   6
ATOM      6  C   UNL     1      15.152  -2.739  45.525  1.00  0.00     0.000 C 
BRANCH   6   7
ATOM      7  C   UNL     1      14.066  -2.131  44.622  1.00  0.00     0.000 C 
BRANCH   7   8
ATOM      8  C   UNL     1      12.666  -2.169  45.255  1.00  0.00     0.000 C 
BRANCH   8   9
ATOM      9  C   UNL     1      12.109  -0.763  45.535  1.00  0.00     0.000 C 
BRANCH   9  10
ATOM     10  C   UNL     1      13.075   0.353  45.098  1.00  0.00     0.006 C 
BRANCH  10  11
ATOM     11  C   UNL     1      12.482   1.751  45.321  1.00  0.00     0.053 C 
BRANCH  11  12
ATOM     12  C   UNL     1      11.616   2.178  44.175  1.00  0.00     0.041 C 
ATOM     13  O   UNL     1      12.093   2.244  43.010  1.00  0.00    -0.550 OA
ATOM     14  O   UNL     1      10.291   2.534  44.399  1.00  0.00    -0.550 OA
ENDBRANCH  11  12
ENDBRANCH  10  11
ENDBRANCH   9  10
ENDBRANCH   8   9
ENDBRANCH   7   8
ENDBRANCH   6   7
ENDBRANCH   5   6
ENDBRANCH   4   5
ENDBRANCH   3   4
ENDBRANCH   2   3
ENDBRANCH   1   2
BRANCH   1  15
ATOM     15  C   UNL     1      18.443  -0.268  47.531  1.00  0.00     0.000 C 
BRANCH  15  16
ATOM     16  C   UNL     1      19.365  -1.070  46.591  1.00  0.00     0.000 C 
BRANCH  16  17
ATOM     17  C   UNL     1      18.620  -1.849  45.485  1.00  0.00     0.000 C 
BRANCH  17  18
ATOM     18  C   UNL     1      18.933  -1.404  44.040  1.00  0.00    -0.000 C 
BRANCH  18  19
ATOM     19  C   UNL     1      19.668  -0.057  43.913  1.00  0.00    -0.000 C 
BRANCH  19  20
ATOM     20  C   UNL     1      21.129  -0.221  43.459  1.00  0.00    -0.000 C 
BRANCH  20  21
ATOM     21  C   UNL     1      22.128   0.270  44.521  1.00  0.00    -0.000 C 
BRANCH  21  22
ATOM     22  C   UNL     1      22.296   1.799  44.504  1.00  0.00    -0.000 C 
BRANCH  22  23
ATOM     23  C   UNL     1      22.355   2.392  45.929  1.00  0.00    -0.000 C 
BRANCH  23  24
ATOM     24  C   UNL     1      21.677   1.510  46.992  1.00  0.00    -0.000 C 
BRANCH  24  25
ATOM     25  C   UNL     1      22.634   1.088  48.115  1.00  0.00    -0.003 C 
ATOM     26  C   UNL     1      24.031   1.656  47.890  1.00  0.00     0.004 C 
ENDBRANCH  24  25
ENDBRANCH  23  24
ENDBRANCH  22  23
ENDBRANCH  21  22
ENDBRANCH  20  21
ENDBRANCH  19  20
ENDBRANCH  18  19
ENDBRANCH  17  18
ENDBRANCH  16  17
ENDBRANCH  15  16
ENDBRANCH   1  15
TORSDOF 22
ENDMDL
MODEL 4
REMARK VINA RESULT:    -5.003      0.872      2.106
REMARK INTER + INTRA:         -13.476
REMARK INTER:                 -11.918
REMARK INTRA:                  -1.558
REMARK UNBOUND:                -2.039
REMARK SMILES CCCCCCCCCCCCCCCCCCCCCCCC(=O)[O-]
REMARK SMILES IDX 13 1 14 2 15 3 16 4 17 5 18 6 19 7 20 8 21 9 22 10 23 11
REMARK SMILES IDX 24 12 25 13 26 14 12 15 11 16 10 17 9 18 8 19 7 20 6 21 5 22
REMARK SMILES IDX 4 23 3 24 2 25 1 26
REMARK H PARENT
REMARK Flexibility Score: inf
ROOT
ATOM      1  C   UNL     1      24.325  12.541  48.492  1.00  0.00     0.000 C 
ENDROOT
BRANCH   1   2
ATOM      2  C   UNL     1      24.775  12.798  47.042  1.00  0.00     0.000 C 
BRANCH   2   3
ATOM      3  C   UNL     1      25.486  14.144  46.810  1.00  0.00     0.000 C 
BRANCH   3   4
ATOM      4  C   UNL     1      26.876  14.211  47.460  1.00  0.00     0.000 C 
BRANCH   4   5
ATOM      5  C   UNL     1      27.497  15.603  47.272  1.00  0.00     0.000 C 
BRANCH   5   6
ATOM      6  C   UNL     1      27.532  16.421  48.580  1.00  0.00     0.000 C 
BRANCH   6   7
ATOM      7  C   UNL     1      27.700  15.561  49.844  1.00  0.00     0.000 C 
BRANCH   7   8
ATOM      8  C   UNL     1      27.031  16.176  51.083  1.00  0.00     0.000 C 
BRANCH   8   9
ATOM      9  C   UNL     1      26.487  15.109  52.048  1.00  0.00     0.000 C 
BRANCH   9  10
ATOM     10  C   UNL     1      25.399  14.230  51.404  1.00  0.00     0.006 C 
BRANCH  10  11
ATOM     11  C   UNL     1      24.379  13.726  52.434  1.00  0.00     0.053 C 
BRANCH  11  12
ATOM     12  C   UNL     1      24.987  13.579  53.795  1.00  0.00     0.041 C 
ATOM     13  O   UNL     1      24.689  14.387  54.714  1.00  0.00    -0.550 OA
ATOM     14  O   UNL     1      25.911  12.568  54.039  1.00  0.00    -0.550 OA
ENDBRANCH  11  12
ENDBRANCH  10  11
ENDBRANCH   9  10
ENDBRANCH   8   9
ENDBRANCH   7   8
ENDBRANCH   6   7
ENDBRANCH   5   6
ENDBRANCH   4   5
ENDBRANCH   3   4
ENDBRANCH   2   3
ENDBRANCH   1   2
BRANCH   1  15
ATOM     15  C   UNL     1      22.849  12.904  48.738  1.00  0.00     0.000 C 
BRANCH  15  16
ATOM     16  C   UNL     1      22.144  11.896  49.668  1.00  0.00     0.000 C 
BRANCH  16  17
ATOM     17  C   UNL     1      21.001  11.105  48.995  1.00  0.00     0.000 C 
BRANCH  17  18
ATOM     18  C   UNL     1      20.390   9.974  49.851  1.00  0.00    -0.000 C 
BRANCH  18  19
ATOM     19  C   UNL     1      19.057  10.319  50.539  1.00  0.00    -0.000 C 
BRANCH  19  20
ATOM     20  C   UNL     1      17.841   9.725  49.808  1.00  0.00    -0.000 C 
BRANCH  20  21
ATOM     21  C   UNL     1      17.299   8.466  50.505  1.00  0.00    -0.000 C 
BRANCH  21  22
ATOM     22  C   UNL     1      17.151   7.278  49.538  1.00  0.00    -0.000 C 
BRANCH  22  23
ATOM     23  C   UNL     1      15.804   6.544  49.724  1.00  0.00    -0.000 C 
BRANCH  23  24
ATOM     24  C   UNL     1      14.722   6.974  48.719  1.00  0.00    -0.000 C 
BRANCH  24  25
ATOM     25  C   UNL     1      15.303   7.672  47.481  1.00  0.00    -0.003 C 
ATOM     26  C   UNL     1      14.196   8.207  46.580  1.00  0.00     0.004 C 
ENDBRANCH  24  25
ENDBRANCH  23  24
ENDBRANCH  22  23
ENDBRANCH  21  22
ENDBRANCH  20  21
ENDBRANCH  19  20
ENDBRANCH  18  19
ENDBRANCH  17  18
ENDBRANCH  16  17
ENDBRANCH  15  16
ENDBRANCH   1  15
TORSDOF 22
ENDMDL
MODEL 5
REMARK VINA RESULT:    -4.966     10.729     15.319
REMARK INTER + INTRA:         -13.390
REMARK INTER:                 -11.105
REMARK INTRA:                  -2.286
REMARK UNBOUND:                -2.039
REMARK SMILES CCCCCCCCCCCCCCCCCCCCCCCC(=O)[O-]
REMARK SMILES IDX 13 1 14 2 15 3 16 4 17 5 18 6 19 7 20 8 21 9 22 10 23 11
REMARK SMILES IDX 24 12 25 13 26 14 12 15 11 16 10 17 9 18 8 19 7 20 6 21 5 22
REMARK SMILES IDX 4 23 3 24 2 25 1 26
REMARK H PARENT
REMARK Flexibility Score: inf
ROOT
ATOM      1  C   UNL     1      21.572   0.863  48.082  1.00  0.00     0.000 C 
ENDROOT
BRANCH   1   2
ATOM      2  C   UNL     1      20.060   0.621  48.245  1.00  0.00     0.000 C 
BRANCH   2   3
ATOM      3  C   UNL     1      19.415  -0.233  47.138  1.00  0.00     0.000 C 
BRANCH   3   4
ATOM      4  C   UNL     1      18.160  -0.982  47.610  1.00  0.00     0.000 C 
BRANCH   4   5
ATOM      5  C   UNL     1      17.100  -1.020  46.499  1.00  0.00     0.000 C 
BRANCH   5   6
ATOM      6  C   UNL     1      15.719  -0.522  46.976  1.00  0.00     0.000 C 
BRANCH   6   7
ATOM      7  C   UNL     1      15.792   0.500  48.123  1.00  0.00     0.000 C 
BRANCH   7   8
ATOM      8  C   UNL     1      14.697   1.574  48.043  1.00  0.00     0.000 C 
BRANCH   8   9
ATOM      9  C   UNL     1      13.384   1.034  47.451  1.00  0.00     0.000 C 
BRANCH   9  10
ATOM     10  C   UNL     1      12.958   1.784  46.177  1.00  0.00     0.006 C 
BRANCH  10  11
ATOM     11  C   UNL     1      12.755   0.835  44.988  1.00  0.00     0.053 C 
BRANCH  11  12
ATOM     12  C   UNL     1      12.163   1.541  43.806  1.00  0.00     0.041 C 
ATOM     13  O   UNL     1      12.721   1.467  42.679  1.00  0.00    -0.550 OA
ATOM     14  O   UNL     1      11.014   2.308  43.958  1.00  0.00    -0.550 OA
ENDBRANCH  11  12
ENDBRANCH  10  11
ENDBRANCH   9  10
ENDBRANCH   8   9
ENDBRANCH   7   8
ENDBRANCH   6   7
ENDBRANCH   5   6
ENDBRANCH   4   5
ENDBRANCH   3   4
ENDBRANCH   2   3
ENDBRANCH   1   2
BRANCH   1  15
ATOM     15  C   UNL     1      22.213  -0.028  47.002  1.00  0.00     0.000 C 
BRANCH  15  16
ATOM     16  C   UNL     1      23.059   0.780  45.999  1.00  0.00     0.000 C 
BRANCH  16  17
ATOM     17  C   UNL     1      22.426   2.123  45.573  1.00  0.00     0.000 C 
BRANCH  17  18
ATOM     18  C   UNL     1      23.351   3.354  45.690  1.00  0.00    -0.000 C 
BRANCH  18  19
ATOM     19  C   UNL     1      24.189   3.425  46.980  1.00  0.00    -0.000 C 
BRANCH  19  20
ATOM     20  C   UNL     1      25.700   3.505  46.701  1.00  0.00    -0.000 C 
BRANCH  20  21
ATOM     21  C   UNL     1      26.350   2.114  46.609  1.00  0.00    -0.000 C 
BRANCH  21  22
ATOM     22  C   UNL     1      26.925   1.647  47.958  1.00  0.00    -0.000 C 
BRANCH  22  23
ATOM     23  C   UNL     1      26.532   0.188  48.281  1.00  0.00    -0.000 C 
BRANCH  23  24
ATOM     24  C   UNL     1      25.173   0.058  48.991  1.00  0.00    -0.000 C 
BRANCH  24  25
ATOM     25  C   UNL     1      25.092  -1.176  49.901  1.00  0.00    -0.003 C 
ATOM     26  C   UNL     1      25.092  -2.463  49.086  1.00  0.00     0.004 C 
ENDBRANCH  24  25
ENDBRANCH  23  24
ENDBRANCH  22  23
ENDBRANCH  21  22
ENDBRANCH  20  21
ENDBRANCH  19  20
ENDBRANCH  18  19
ENDBRANCH  17  18
ENDBRANCH  16  17
ENDBRANCH  15  16
ENDBRANCH   1  15
TORSDOF 22
ENDMDL
MODEL 6
REMARK VINA RESULT:    -4.927     12.058     16.472
REMARK INTER + INTRA:         -13.303
REMARK INTER:                 -10.872
REMARK INTRA:                  -2.431
REMARK UNBOUND:                -2.039
REMARK SMILES CCCCCCCCCCCCCCCCCCCCCCCC(=O)[O-]
REMARK SMILES IDX 13 1 14 2 15 3 16 4 17 5 18 6 19 7 20 8 21 9 22 10 23 11
REMARK SMILES IDX 24 12 25 13 26 14 12 15 11 16 10 17 9 18 8 19 7 20 6 21 5 22
REMARK SMILES IDX 4 23 3 24 2 25 1 26
REMARK H PARENT
REMARK Flexibility Score: inf
ROOT
ATOM      1  C   UNL     1      16.601   0.629  47.682  1.00  0.00     0.000 C 
ENDROOT
BRANCH   1   2
ATOM      2  C   UNL     1      15.410   1.500  48.122  1.00  0.00     0.000 C 
BRANCH   2   3
ATOM      3  C   UNL     1      14.123   0.723  48.453  1.00  0.00     0.000 C 
BRANCH   3   4
ATOM      4  C   UNL     1      12.916   1.173  47.617  1.00  0.00     0.000 C 
BRANCH   4   5
ATOM      5  C   UNL     1      13.262   1.177  46.120  1.00  0.00     0.000 C 
BRANCH   5   6
ATOM      6  C   UNL     1      12.102   1.693  45.243  1.00  0.00     0.000 C 
BRANCH   6   7
ATOM      7  C   UNL     1      12.440   1.756  43.744  1.00  0.00     0.000 C 
BRANCH   7   8
ATOM      8  C   UNL     1      12.277   0.404  43.032  1.00  0.00     0.000 C 
BRANCH   8   9
ATOM      9  C   UNL     1      11.083  -0.404  43.569  1.00  0.00     0.000 C 
BRANCH   9  10
ATOM     10  C   UNL     1      11.484  -1.818  44.024  1.00  0.00     0.006 C 
BRANCH  10  11
ATOM     11  C   UNL     1      12.954  -2.131  43.711  1.00  0.00     0.053 C 
BRANCH  11  12
ATOM     12  C   UNL     1      13.704  -2.561  44.934  1.00  0.00     0.041 C 
ATOM     13  O   UNL     1      13.202  -2.395  46.078  1.00  0.00    -0.550 OA
ATOM     14  O   UNL     1      14.974  -3.115  44.813  1.00  0.00    -0.550 OA
ENDBRANCH  11  12
ENDBRANCH  10  11
ENDBRANCH   9  10
ENDBRANCH   8   9
ENDBRANCH   7   8
ENDBRANCH   6   7
ENDBRANCH   5   6
ENDBRANCH   4   5
ENDBRANCH   3   4
ENDBRANCH   2   3
ENDBRANCH   1   2
BRANCH   1  15
ATOM     15  C   UNL     1      16.171  -0.714  47.063  1.00  0.00     0.000 C 
BRANCH  15  16
ATOM     16  C   UNL     1      16.857  -1.918  47.738  1.00  0.00     0.000 C 
BRANCH  16  17
ATOM     17  C   UNL     1      18.373  -2.021  47.461  1.00  0.00     0.000 C 
BRANCH  17  18
ATOM     18  C   UNL     1      18.783  -1.881  45.978  1.00  0.00    -0.000 C 
BRANCH  18  19
ATOM     19  C   UNL     1      19.545  -0.590  45.627  1.00  0.00    -0.000 C 
BRANCH  19  20
ATOM     20  C   UNL     1      21.058  -0.822  45.467  1.00  0.00    -0.000 C 
BRANCH  20  21
ATOM     21  C   UNL     1      21.797  -0.804  46.815  1.00  0.00    -0.000 C 
BRANCH  21  22
ATOM     22  C   UNL     1      21.293   0.314  47.745  1.00  0.00    -0.000 C 
BRANCH  22  23
ATOM     23  C   UNL     1      22.455   1.143  48.337  1.00  0.00    -0.000 C 
BRANCH  23  24
ATOM     24  C   UNL     1      23.848   0.627  47.937  1.00  0.00    -0.000 C 
BRANCH  24  25
ATOM     25  C   UNL     1      24.757   0.367  49.146  1.00  0.00    -0.003 C 
ATOM     26  C   UNL     1      24.741  -1.106  49.540  1.00  0.00     0.004 C 
ENDBRANCH  24  25
ENDBRANCH  23  24
ENDBRANCH  22  23
ENDBRANCH  21  22
ENDBRANCH  20  21
ENDBRANCH  19  20
ENDBRANCH  18  19
ENDBRANCH  17  18
ENDBRANCH  16  17
ENDBRANCH  15  16
ENDBRANCH   1  15
TORSDOF 22
ENDMDL
MODEL 7
REMARK VINA RESULT:    -4.926     11.121     15.944
REMARK INTER + INTRA:         -13.301
REMARK INTER:                 -10.812
REMARK INTRA:                  -2.489
REMARK UNBOUND:                -2.039
REMARK SMILES CCCCCCCCCCCCCCCCCCCCCCCC(=O)[O-]
REMARK SMILES IDX 13 1 14 2 15 3 16 4 17 5 18 6 19 7 20 8 21 9 22 10 23 11
REMARK SMILES IDX 24 12 25 13 26 14 12 15 11 16 10 17 9 18 8 19 7 20 6 21 5 22
REMARK SMILES IDX 4 23 3 24 2 25 1 26
REMARK H PARENT
REMARK Flexibility Score: inf
ROOT
ATOM      1  C   UNL     1      19.636  -0.780  45.927  1.00  0.00     0.000 C 
ENDROOT
BRANCH   1   2
ATOM      2  C   UNL     1      18.693  -1.802  46.588  1.00  0.00     0.000 C 
BRANCH   2   3
ATOM      3  C   UNL     1      17.615  -1.195  47.504  1.00  0.00     0.000 C 
BRANCH   3   4
ATOM      4  C   UNL     1      17.275   0.261  47.152  1.00  0.00     0.000 C 
BRANCH   4   5
ATOM      5  C   UNL     1      15.996   0.711  47.874  1.00  0.00     0.000 C 
BRANCH   5   6
ATOM      6  C   UNL     1      14.931  -0.404  47.948  1.00  0.00     0.000 C 
BRANCH   6   7
ATOM      7  C   UNL     1      13.951  -0.405  46.764  1.00  0.00     0.000 C 
BRANCH   7   8
ATOM      8  C   UNL     1      12.890   0.703  46.860  1.00  0.00     0.000 C 
BRANCH   8   9
ATOM      9  C   UNL     1      12.942   1.673  45.667  1.00  0.00     0.000 C 
BRANCH   9  10
ATOM     10  C   UNL     1      11.676   1.603  44.794  1.00  0.00     0.006 C 
BRANCH  10  11
ATOM     11  C   UNL     1      11.819   0.591  43.650  1.00  0.00     0.053 C 
BRANCH  11  12
ATOM     12  C   UNL     1      10.939  -0.605  43.851  1.00  0.00     0.041 C 
ATOM     13  O   UNL     1       9.760  -0.607  43.406  1.00  0.00    -0.550 OA
ATOM     14  O   UNL     1      11.410  -1.704  44.560  1.00  0.00    -0.550 OA
ENDBRANCH  11  12
ENDBRANCH  10  11
ENDBRANCH   9  10
ENDBRANCH   8   9
ENDBRANCH   7   8
ENDBRANCH   6   7
ENDBRANCH   5   6
ENDBRANCH   4   5
ENDBRANCH   3   4
ENDBRANCH   2   3
ENDBRANCH   1   2
BRANCH   1  15
ATOM     15  C   UNL     1      20.915  -0.523  46.745  1.00  0.00     0.000 C 
BRANCH  15  16
ATOM     16  C   UNL     1      20.830   0.772  47.577  1.00  0.00     0.000 C 
BRANCH  16  17
ATOM     17  C   UNL     1      22.062   1.033  48.471  1.00  0.00     0.000 C 
BRANCH  17  18
ATOM     18  C   UNL     1      23.310   0.187  48.136  1.00  0.00    -0.000 C 
BRANCH  18  19
ATOM     19  C   UNL     1      24.486   0.336  49.119  1.00  0.00    -0.000 C 
BRANCH  19  20
ATOM     20  C   UNL     1      25.830  -0.091  48.503  1.00  0.00    -0.000 C 
BRANCH  20  21
ATOM     21  C   UNL     1      26.252   0.820  47.338  1.00  0.00    -0.000 C 
BRANCH  21  22
ATOM     22  C   UNL     1      26.400   2.290  47.767  1.00  0.00    -0.000 C 
BRANCH  22  23
ATOM     23  C   UNL     1      25.837   3.263  46.707  1.00  0.00    -0.000 C 
BRANCH  23  24
ATOM     24  C   UNL     1      24.343   3.580  46.891  1.00  0.00    -0.000 C 
BRANCH  24  25
ATOM     25  C   UNL     1      23.548   3.483  45.581  1.00  0.00    -0.003 C 
ATOM     26  C   UNL     1      23.634   2.082  44.987  1.00  0.00     0.004 C 
ENDBRANCH  24  25
ENDBRANCH  23  24
ENDBRANCH  22  23
ENDBRANCH  21  22
ENDBRANCH  20  21
ENDBRANCH  19  20
ENDBRANCH  18  19
ENDBRANCH  17  18
ENDBRANCH  16  17
ENDBRANCH  15  16
ENDBRANCH   1  15
TORSDOF 22
ENDMDL
MODEL 8
REMARK VINA RESULT:    -4.923     10.014     14.231
REMARK INTER + INTRA:         -13.294
REMARK INTER:                 -10.519
REMARK INTRA:                  -2.775
REMARK UNBOUND:                -2.039
REMARK SMILES CCCCCCCCCCCCCCCCCCCCCCCC(=O)[O-]
REMARK SMILES IDX 13 1 14 2 15 3 16 4 17 5 18 6 19 7 20 8 21 9 22 10 23 11
REMARK SMILES IDX 24 12 25 13 26 14 12 15 11 16 10 17 9 18 8 19 7 20 6 21 5 22
REMARK SMILES IDX 4 23 3 24 2 25 1 26
REMARK H PARENT
REMARK Flexibility Score: inf
ROOT
ATOM      1  C   UNL     1      24.064   1.785  44.011  1.00  0.00     0.000 C 
ENDROOT
BRANCH   1   2
ATOM      2  C   UNL     1      23.558   1.064  45.273  1.00  0.00     0.000 C 
BRANCH   2   3
ATOM      3  C   UNL     1      22.100   1.374  45.660  1.00  0.00     0.000 C 
BRANCH   3   4
ATOM      4  C   UNL     1      21.935   1.745  47.140  1.00  0.00     0.000 C 
BRANCH   4   5
ATOM      5  C   UNL     1      20.989   0.762  47.846  1.00  0.00     0.000 C 
BRANCH   5   6
ATOM      6  C   UNL     1      20.216  -0.134  46.856  1.00  0.00     0.000 C 
BRANCH   6   7
ATOM      7  C   UNL     1      18.955  -0.776  47.457  1.00  0.00     0.000 C 
BRANCH   7   8
ATOM      8  C   UNL     1      17.777  -0.828  46.471  1.00  0.00     0.000 C 
BRANCH   8   9
ATOM      9  C   UNL     1      16.540  -1.520  47.068  1.00  0.00     0.000 C 
BRANCH   9  10
ATOM     10  C   UNL     1      15.660  -0.556  47.884  1.00  0.00     0.006 C 
BRANCH  10  11
ATOM     11  C   UNL     1      15.690   0.872  47.320  1.00  0.00     0.053 C 
BRANCH  11  12
ATOM     12  C   UNL     1      14.311   1.433  47.154  1.00  0.00     0.041 C 
ATOM     13  O   UNL     1      13.736   2.000  48.122  1.00  0.00    -0.550 OA
ATOM     14  O   UNL     1      13.646   1.301  45.939  1.00  0.00    -0.550 OA
ENDBRANCH  11  12
ENDBRANCH  10  11
ENDBRANCH   9  10
ENDBRANCH   8   9
ENDBRANCH   7   8
ENDBRANCH   6   7
ENDBRANCH   5   6
ENDBRANCH   4   5
ENDBRANCH   3   4
ENDBRANCH   2   3
ENDBRANCH   1   2
BRANCH   1  15
ATOM     15  C   UNL     1      23.396   3.154  43.789  1.00  0.00     0.000 C 
BRANCH  15  16
ATOM     16  C   UNL     1      24.310   4.327  44.193  1.00  0.00     0.000 C 
BRANCH  16  17
ATOM     17  C   UNL     1      24.209   4.726  45.682  1.00  0.00     0.000 C 
BRANCH  17  18
ATOM     18  C   UNL     1      25.447   4.384  46.541  1.00  0.00    -0.000 C 
BRANCH  18  19
ATOM     19  C   UNL     1      25.255   3.223  47.534  1.00  0.00    -0.000 C 
BRANCH  19  20
ATOM     20  C   UNL     1      26.492   2.313  47.627  1.00  0.00    -0.000 C 
BRANCH  20  21
ATOM     21  C   UNL     1      26.139   0.897  48.112  1.00  0.00    -0.000 C 
BRANCH  21  22
ATOM     22  C   UNL     1      24.856   0.871  48.962  1.00  0.00    -0.000 C 
BRANCH  22  23
ATOM     23  C   UNL     1      24.227  -0.538  49.019  1.00  0.00    -0.000 C 
BRANCH  23  24
ATOM     24  C   UNL     1      25.066  -1.558  49.808  1.00  0.00    -0.000 C 
BRANCH  24  25
ATOM     25  C   UNL     1      25.335  -2.846  49.019  1.00  0.00    -0.003 C 
ATOM     26  C   UNL     1      24.935  -2.690  47.556  1.00  0.00     0.004 C 
ENDBRANCH  24  25
ENDBRANCH  23  24
ENDBRANCH  22  23
ENDBRANCH  21  22
ENDBRANCH  20  21
ENDBRANCH  19  20
ENDBRANCH  18  19
ENDBRANCH  17  18
ENDBRANCH  16  17
ENDBRANCH  15  16
ENDBRANCH   1  15
TORSDOF 22
ENDMDL
MODEL 9
REMARK VINA RESULT:    -4.923     12.129     16.533
REMARK INTER + INTRA:         -13.293
REMARK INTER:                 -10.172
REMARK INTRA:                  -3.121
REMARK UNBOUND:                -2.039
REMARK SMILES CCCCCCCCCCCCCCCCCCCCCCCC(=O)[O-]
REMARK SMILES IDX 13 1 14 2 15 3 16 4 17 5 18 6 19 7 20 8 21 9 22 10 23 11
REMARK SMILES IDX 24 12 25 13 26 14 12 15 11 16 10 17 9 18 8 19 7 20 6 21 5 22
REMARK SMILES IDX 4 23 3 24 2 25 1 26
REMARK H PARENT
REMARK Flexibility Score: inf
ROOT
ATOM      1  C   UNL     1      18.086  -1.644  47.732  1.00  0.00     0.000 C 
ENDROOT
BRANCH   1   2
ATOM      2  C   UNL     1      17.782  -0.209  47.263  1.00  0.00     0.000 C 
BRANCH   2   3
ATOM      3  C   UNL     1      16.450   0.374  47.771  1.00  0.00     0.000 C 
BRANCH   3   4
ATOM      4  C   UNL     1      15.345  -0.683  47.909  1.00  0.00     0.000 C 
BRANCH   4   5
ATOM      5  C   UNL     1      14.448  -0.698  46.661  1.00  0.00     0.000 C 
BRANCH   5   6
ATOM      6  C   UNL     1      14.210  -2.123  46.117  1.00  0.00     0.000 C 
BRANCH   6   7
ATOM      7  C   UNL     1      14.150  -2.197  44.582  1.00  0.00     0.000 C 
BRANCH   7   8
ATOM      8  C   UNL     1      12.749  -2.536  44.051  1.00  0.00     0.000 C 
BRANCH   8   9
ATOM      9  C   UNL     1      11.771  -1.354  44.174  1.00  0.00     0.000 C 
BRANCH   9  10
ATOM     10  C   UNL     1      11.860  -0.387  42.980  1.00  0.00     0.006 C 
BRANCH  10  11
ATOM     11  C   UNL     1      12.611   0.904  43.337  1.00  0.00     0.053 C 
BRANCH  11  12
ATOM     12  C   UNL     1      11.894   1.691  44.391  1.00  0.00     0.041 C 
ATOM     13  O   UNL     1      10.695   2.035  44.220  1.00  0.00    -0.550 OA
ATOM     14  O   UNL     1      12.563   2.073  45.549  1.00  0.00    -0.550 OA
ENDBRANCH  11  12
ENDBRANCH  10  11
ENDBRANCH   9  10
ENDBRANCH   8   9
ENDBRANCH   7   8
ENDBRANCH   6   7
ENDBRANCH   5   6
ENDBRANCH   4   5
ENDBRANCH   3   4
ENDBRANCH   2   3
ENDBRANCH   1   2
BRANCH   1  15
ATOM     15  C   UNL     1      18.164  -2.653  46.572  1.00  0.00     0.000 C 
BRANCH  15  16
ATOM     16  C   UNL     1      17.788  -2.022  45.217  1.00  0.00     0.000 C 
BRANCH  16  17
ATOM     17  C   UNL     1      18.582  -2.579  44.016  1.00  0.00     0.000 C 
BRANCH  17  18
ATOM     18  C   UNL     1      19.363  -1.526  43.197  1.00  0.00    -0.000 C 
BRANCH  18  19
ATOM     19  C   UNL     1      19.485  -0.141  43.856  1.00  0.00    -0.000 C 
BRANCH  19  20
ATOM     20  C   UNL     1      20.922   0.178  44.303  1.00  0.00    -0.000 C 
BRANCH  20  21
ATOM     21  C   UNL     1      21.080   0.137  45.832  1.00  0.00    -0.000 C 
BRANCH  21  22
ATOM     22  C   UNL     1      21.738  -1.167  46.318  1.00  0.00    -0.000 C 
BRANCH  22  23
ATOM     23  C   UNL     1      23.007  -0.899  47.157  1.00  0.00    -0.000 C 
BRANCH  23  24
ATOM     24  C   UNL     1      22.852   0.263  48.155  1.00  0.00    -0.000 C 
BRANCH  24  25
ATOM     25  C   UNL     1      24.167   0.617  48.864  1.00  0.00    -0.003 C 
ATOM     26  C   UNL     1      24.823  -0.623  49.460  1.00  0.00     0.004 C 
ENDBRANCH  24  25
ENDBRANCH  23  24
ENDBRANCH  22  23
ENDBRANCH  21  22
ENDBRANCH  20  21
ENDBRANCH  19  20
ENDBRANCH  18  19
ENDBRANCH  17  18
ENDBRANCH  16  17
ENDBRANCH  15  16
ENDBRANCH   1  15
TORSDOF 22
ENDMDL
