MODEL 1
REMARK VINA RESULT:    -3.843      0.000      0.000
REMARK INTER + INTRA:          -8.566
REMARK INTER:                  -6.764
REMARK INTRA:                  -1.803
REMARK UNBOUND:                -1.803
REMARK SMILES CCCCCCCCCCCCCCC(=O)[O-]
REMARK SMILES IDX 9 1 10 2 11 3 12 4 13 5 14 6 15 7 16 8 17 9 8 10 7 11 6 12
REMARK SMILES IDX 5 13 4 14 3 15 2 16 1 17
REMARK H PARENT
REMARK Flexibility Score: inf
ROOT
ATOM      1  C   UNL     1      27.731 -18.327  24.116  1.00  0.00     0.000 C 
ENDROOT
BRANCH   1   2
ATOM      2  C   UNL     1      26.491 -17.836  24.886  1.00  0.00     0.000 C 
BRANCH   2   3
ATOM      3  C   UNL     1      26.658 -16.385  25.387  1.00  0.00     0.000 C 
BRANCH   3   4
ATOM      4  C   UNL     1      25.430 -15.847  26.143  1.00  0.00     0.000 C 
BRANCH   4   5
ATOM      5  C   UNL     1      24.499 -16.964  26.644  1.00  0.00     0.006 C 
BRANCH   5   6
ATOM      6  C   UNL     1      23.043 -16.744  26.207  1.00  0.00     0.053 C 
BRANCH   6   7
ATOM      7  C   UNL     1      22.547 -15.384  26.592  1.00  0.00     0.041 C 
ATOM      8  O   UNL     1      22.384 -15.090  27.806  1.00  0.00    -0.550 OA
ATOM      9  O   UNL     1      22.229 -14.456  25.609  1.00  0.00    -0.550 OA
ENDBRANCH   6   7
ENDBRANCH   5   6
ENDBRANCH   4   5
ENDBRANCH   3   4
ENDBRANCH   2   3
ENDBRANCH   1   2
BRANCH   1  10
ATOM     10  C   UNL     1      28.680 -19.162  24.991  1.00  0.00     0.000 C 
BRANCH  10  11
ATOM     11  C   UNL     1      30.129 -18.644  24.947  1.00  0.00    -0.000 C 
BRANCH  11  12
ATOM     12  C   UNL     1      30.779 -18.570  26.340  1.00  0.00    -0.000 C 
BRANCH  12  13
ATOM     13  C   UNL     1      30.643 -19.844  27.198  1.00  0.00    -0.000 C 
BRANCH  13  14
ATOM     14  C   UNL     1      29.699 -19.665  28.395  1.00  0.00    -0.000 C 
BRANCH  14  15
ATOM     15  C   UNL     1      29.359 -18.183  28.613  1.00  0.00    -0.000 C 
BRANCH  15  16
ATOM     16  C   UNL     1      27.845 -17.916  28.605  1.00  0.00    -0.003 C 
ATOM     17  C   UNL     1      27.021 -19.175  28.332  1.00  0.00     0.004 C 
ENDBRANCH  15  16
ENDBRANCH  14  15
ENDBRANCH  13  14
ENDBRANCH  12  13
ENDBRANCH  11  12
ENDBRANCH  10  11
ENDBRANCH   1  10
TORSDOF 13
ENDMDL
MODEL 2
REMARK VINA RESULT:    -3.820      1.104      1.671
REMARK INTER + INTRA:          -8.525
REMARK INTER:                  -6.350
REMARK INTRA:                  -2.175
REMARK UNBOUND:                -1.803
REMARK SMILES CCCCCCCCCCCCCCC(=O)[O-]
REMARK SMILES IDX 9 1 10 2 11 3 12 4 13 5 14 6 15 7 16 8 17 9 8 10 7 11 6 12
REMARK SMILES IDX 5 13 4 14 3 15 2 16 1 17
REMARK H PARENT
REMARK Flexibility Score: inf
ROOT
ATOM      1  C   UNL     1      28.221 -18.772  24.485  1.00  0.00     0.000 C 
ENDROOT
BRANCH   1   2
ATOM      2  C   UNL     1      26.902 -19.074  25.219  1.00  0.00     0.000 C 
BRANCH   2   3
ATOM      3  C   UNL     1      25.935 -17.870  25.189  1.00  0.00     0.000 C 
BRANCH   3   4
ATOM      4  C   UNL     1      26.646 -16.506  25.186  1.00  0.00     0.000 C 
BRANCH   4   5
ATOM      5  C   UNL     1      25.893 -15.435  25.993  1.00  0.00     0.006 C 
BRANCH   5   6
ATOM      6  C   UNL     1      24.464 -15.875  26.344  1.00  0.00     0.053 C 
BRANCH   6   7
ATOM      7  C   UNL     1      23.668 -14.753  26.940  1.00  0.00     0.041 C 
ATOM      8  O   UNL     1      22.514 -14.970  27.395  1.00  0.00    -0.550 OA
ATOM      9  O   UNL     1      24.186 -13.465  26.956  1.00  0.00    -0.550 OA
ENDBRANCH   6   7
ENDBRANCH   5   6
ENDBRANCH   4   5
ENDBRANCH   3   4
ENDBRANCH   2   3
ENDBRANCH   1   2
BRANCH   1  10
ATOM     10  C   UNL     1      29.450 -18.885  25.401  1.00  0.00     0.000 C 
BRANCH  10  11
ATOM     11  C   UNL     1      29.393 -20.125  26.311  1.00  0.00    -0.000 C 
BRANCH  11  12
ATOM     12  C   UNL     1      30.035 -19.883  27.690  1.00  0.00    -0.000 C 
BRANCH  12  13
ATOM     13  C   UNL     1      29.951 -18.434  28.208  1.00  0.00    -0.000 C 
BRANCH  13  14
ATOM     14  C   UNL     1      28.831 -18.227  29.238  1.00  0.00    -0.000 C 
BRANCH  14  15
ATOM     15  C   UNL     1      27.653 -17.457  28.622  1.00  0.00    -0.000 C 
BRANCH  15  16
ATOM     16  C   UNL     1      26.308 -18.176  28.822  1.00  0.00    -0.003 C 
ATOM     17  C   UNL     1      26.451 -19.698  28.886  1.00  0.00     0.004 C 
ENDBRANCH  15  16
ENDBRANCH  14  15
ENDBRANCH  13  14
ENDBRANCH  12  13
ENDBRANCH  11  12
ENDBRANCH  10  11
ENDBRANCH   1  10
TORSDOF 13
ENDMDL
MODEL 3
REMARK VINA RESULT:    -3.716      2.632      5.426
REMARK INTER + INTRA:          -8.343
REMARK INTER:                  -6.937
REMARK INTRA:                  -1.406
REMARK UNBOUND:                -1.803
REMARK SMILES CCCCCCCCCCCCCCC(=O)[O-]
REMARK SMILES IDX 9 1 10 2 11 3 12 4 13 5 14 6 15 7 16 8 17 9 8 10 7 11 6 12
REMARK SMILES IDX 5 13 4 14 3 15 2 16 1 17
REMARK H PARENT
REMARK Flexibility Score: inf
ROOT
ATOM      1  C   UNL     1      29.646 -18.455  25.441  1.00  0.00     0.000 C 
ENDROOT
BRANCH   1   2
ATOM      2  C   UNL     1      29.577 -19.391  26.661  1.00  0.00     0.000 C 
BRANCH   2   3
ATOM      3  C   UNL     1      29.329 -18.615  27.972  1.00  0.00     0.000 C 
BRANCH   3   4
ATOM      4  C   UNL     1      27.842 -18.510  28.357  1.00  0.00     0.000 C 
BRANCH   4   5
ATOM      5  C   UNL     1      27.524 -17.253  29.184  1.00  0.00     0.006 C 
BRANCH   5   6
ATOM      6  C   UNL     1      28.732 -16.780  30.006  1.00  0.00     0.053 C 
BRANCH   6   7
ATOM      7  C   UNL     1      28.379 -15.633  30.903  1.00  0.00     0.041 C 
ATOM      8  O   UNL     1      28.468 -14.450  30.481  1.00  0.00    -0.550 OA
ATOM      9  O   UNL     1      27.991 -15.870  32.215  1.00  0.00    -0.550 OA
ENDBRANCH   6   7
ENDBRANCH   5   6
ENDBRANCH   4   5
ENDBRANCH   3   4
ENDBRANCH   2   3
ENDBRANCH   1   2
BRANCH   1  10
ATOM     10  C   UNL     1      28.659 -18.852  24.331  1.00  0.00     0.000 C 
BRANCH  10  11
ATOM     11  C   UNL     1      27.197 -18.840  24.811  1.00  0.00    -0.000 C 
BRANCH  11  12
ATOM     12  C   UNL     1      26.459 -17.539  24.443  1.00  0.00    -0.000 C 
BRANCH  12  13
ATOM     13  C   UNL     1      26.657 -16.370  25.428  1.00  0.00    -0.000 C 
BRANCH  13  14
ATOM     14  C   UNL     1      25.381 -16.011  26.201  1.00  0.00    -0.000 C 
BRANCH  14  15
ATOM     15  C   UNL     1      24.296 -17.079  25.999  1.00  0.00    -0.000 C 
BRANCH  15  16
ATOM     16  C   UNL     1      22.913 -16.617  26.487  1.00  0.00    -0.003 C 
ATOM     17  C   UNL     1      22.633 -15.146  26.173  1.00  0.00     0.004 C 
ENDBRANCH  15  16
ENDBRANCH  14  15
ENDBRANCH  13  14
ENDBRANCH  12  13
ENDBRANCH  11  12
ENDBRANCH  10  11
ENDBRANCH   1  10
TORSDOF 13
ENDMDL
MODEL 4
REMARK VINA RESULT:    -3.679      2.591      5.663
REMARK INTER + INTRA:          -8.278
REMARK INTER:                  -6.689
REMARK INTRA:                  -1.589
REMARK UNBOUND:                -1.803
REMARK SMILES CCCCCCCCCCCCCCC(=O)[O-]
REMARK SMILES IDX 9 1 10 2 11 3 12 4 13 5 14 6 15 7 16 8 17 9 8 10 7 11 6 12
REMARK SMILES IDX 5 13 4 14 3 15 2 16 1 17
REMARK H PARENT
REMARK Flexibility Score: inf
ROOT
ATOM      1  C   UNL     1      27.741 -19.759  25.009  1.00  0.00     0.000 C 
ENDROOT
BRANCH   1   2
ATOM      2  C   UNL     1      28.911 -18.952  24.416  1.00  0.00     0.000 C 
BRANCH   2   3
ATOM      3  C   UNL     1      30.186 -19.062  25.281  1.00  0.00     0.000 C 
BRANCH   3   4
ATOM      4  C   UNL     1      29.925 -19.594  26.702  1.00  0.00     0.000 C 
BRANCH   4   5
ATOM      5  C   UNL     1      29.877 -18.479  27.760  1.00  0.00     0.006 C 
BRANCH   5   6
ATOM      6  C   UNL     1      28.457 -18.254  28.300  1.00  0.00     0.053 C 
BRANCH   6   7
ATOM      7  C   UNL     1      28.473 -17.660  29.675  1.00  0.00     0.041 C 
ATOM      8  O   UNL     1      28.058 -16.485  29.861  1.00  0.00    -0.550 OA
ATOM      9  O   UNL     1      28.982 -18.389  30.742  1.00  0.00    -0.550 OA
ENDBRANCH   6   7
ENDBRANCH   5   6
ENDBRANCH   4   5
ENDBRANCH   3   4
ENDBRANCH   2   3
ENDBRANCH   1   2
BRANCH   1  10
ATOM     10  C   UNL     1      26.479 -18.906  25.220  1.00  0.00     0.000 C 
BRANCH  10  11
ATOM     11  C   UNL     1      26.528 -17.580  24.441  1.00  0.00    -0.000 C 
BRANCH  11  12
ATOM     12  C   UNL     1      26.631 -16.350  25.362  1.00  0.00    -0.000 C 
BRANCH  12  13
ATOM     13  C   UNL     1      25.733 -16.390  26.614  1.00  0.00    -0.000 C 
BRANCH  13  14
ATOM     14  C   UNL     1      24.657 -15.295  26.619  1.00  0.00    -0.000 C 
BRANCH  14  15
ATOM     15  C   UNL     1      23.292 -15.866  27.032  1.00  0.00    -0.000 C 
BRANCH  15  16
ATOM     16  C   UNL     1      22.526 -16.481  25.850  1.00  0.00    -0.003 C 
ATOM     17  C   UNL     1      22.509 -18.011  25.883  1.00  0.00     0.004 C 
ENDBRANCH  15  16
ENDBRANCH  14  15
ENDBRANCH  13  14
ENDBRANCH  12  13
ENDBRANCH  11  12
ENDBRANCH  10  11
ENDBRANCH   1  10
TORSDOF 13
ENDMDL
MODEL 5
REMARK VINA RESULT:    -3.678      2.709      4.955
REMARK INTER + INTRA:          -8.277
REMARK INTER:                  -7.641
REMARK INTRA:                  -0.635
REMARK UNBOUND:                -1.803
REMARK SMILES CCCCCCCCCCCCCCC(=O)[O-]
REMARK SMILES IDX 9 1 10 2 11 3 12 4 13 5 14 6 15 7 16 8 17 9 8 10 7 11 6 12
REMARK SMILES IDX 5 13 4 14 3 15 2 16 1 17
REMARK H PARENT
REMARK Flexibility Score: inf
ROOT
ATOM      1  C   UNL     1      23.931 -14.269  26.513  1.00  0.00     0.000 C 
ENDROOT
BRANCH   1   2
ATOM      2  C   UNL     1      22.989 -15.486  26.506  1.00  0.00     0.000 C 
BRANCH   2   3
ATOM      3  C   UNL     1      22.056 -15.503  27.736  1.00  0.00     0.000 C 
BRANCH   3   4
ATOM      4  C   UNL     1      21.808 -16.911  28.305  1.00  0.00     0.000 C 
BRANCH   4   5
ATOM      5  C   UNL     1      20.695 -16.942  29.365  1.00  0.00     0.006 C 
BRANCH   5   6
ATOM      6  C   UNL     1      20.684 -15.672  30.229  1.00  0.00     0.053 C 
BRANCH   6   7
ATOM      7  C   UNL     1      19.325 -15.399  30.798  1.00  0.00     0.041 C 
ATOM      8  O   UNL     1      19.058 -15.728  31.984  1.00  0.00    -0.550 OA
ATOM      9  O   UNL     1      18.343 -14.818  30.006  1.00  0.00    -0.550 OA
ENDBRANCH   6   7
ENDBRANCH   5   6
ENDBRANCH   4   5
ENDBRANCH   3   4
ENDBRANCH   2   3
ENDBRANCH   1   2
BRANCH   1  10
ATOM     10  C   UNL     1      25.411 -14.662  26.376  1.00  0.00     0.000 C 
BRANCH  10  11
ATOM     11  C   UNL     1      25.606 -16.183  26.250  1.00  0.00    -0.000 C 
BRANCH  11  12
ATOM     12  C   UNL     1      26.622 -16.567  25.159  1.00  0.00    -0.000 C 
BRANCH  12  13
ATOM     13  C   UNL     1      26.718 -18.075  24.851  1.00  0.00    -0.000 C 
BRANCH  13  14
ATOM     14  C   UNL     1      28.162 -18.559  24.658  1.00  0.00    -0.000 C 
BRANCH  14  15
ATOM     15  C   UNL     1      28.743 -19.098  25.974  1.00  0.00    -0.000 C 
BRANCH  15  16
ATOM     16  C   UNL     1      30.227 -19.482  25.852  1.00  0.00    -0.003 C 
ATOM     17  C   UNL     1      30.975 -18.644  24.813  1.00  0.00     0.004 C 
ENDBRANCH  15  16
ENDBRANCH  14  15
ENDBRANCH  13  14
ENDBRANCH  12  13
ENDBRANCH  11  12
ENDBRANCH  10  11
ENDBRANCH   1  10
TORSDOF 13
ENDMDL
MODEL 6
REMARK VINA RESULT:    -3.651      2.666      3.466
REMARK INTER + INTRA:          -8.229
REMARK INTER:                  -7.264
REMARK INTRA:                  -0.965
REMARK UNBOUND:                -1.803
REMARK SMILES CCCCCCCCCCCCCCC(=O)[O-]
REMARK SMILES IDX 9 1 10 2 11 3 12 4 13 5 14 6 15 7 16 8 17 9 8 10 7 11 6 12
REMARK SMILES IDX 5 13 4 14 3 15 2 16 1 17
REMARK H PARENT
REMARK Flexibility Score: inf
ROOT
ATOM      1  C   UNL     1      28.581 -18.849  25.531  1.00  0.00     0.000 C 
ENDROOT
BRANCH   1   2
ATOM      2  C   UNL     1      27.063 -18.596  25.481  1.00  0.00     0.000 C 
BRANCH   2   3
ATOM      3  C   UNL     1      26.715 -17.315  24.692  1.00  0.00     0.000 C 
BRANCH   3   4
ATOM      4  C   UNL     1      26.259 -16.145  25.583  1.00  0.00     0.000 C 
BRANCH   4   5
ATOM      5  C   UNL     1      25.325 -16.589  26.722  1.00  0.00     0.006 C 
BRANCH   5   6
ATOM      6  C   UNL     1      23.845 -16.501  26.323  1.00  0.00     0.053 C 
BRANCH   6   7
ATOM      7  C   UNL     1      23.197 -15.262  26.862  1.00  0.00     0.041 C 
ATOM      8  O   UNL     1      22.356 -15.343  27.796  1.00  0.00    -0.550 OA
ATOM      9  O   UNL     1      23.493 -14.024  26.307  1.00  0.00    -0.550 OA
ENDBRANCH   6   7
ENDBRANCH   5   6
ENDBRANCH   4   5
ENDBRANCH   3   4
ENDBRANCH   2   3
ENDBRANCH   1   2
BRANCH   1  10
ATOM     10  C   UNL     1      29.235 -18.284  26.803  1.00  0.00     0.000 C 
BRANCH  10  11
ATOM     11  C   UNL     1      28.289 -18.320  28.016  1.00  0.00    -0.000 C 
BRANCH  11  12
ATOM     12  C   UNL     1      28.970 -17.854  29.317  1.00  0.00    -0.000 C 
BRANCH  12  13
ATOM     13  C   UNL     1      28.236 -16.730  30.075  1.00  0.00    -0.000 C 
BRANCH  13  14
ATOM     14  C   UNL     1      29.185 -15.824  30.874  1.00  0.00    -0.000 C 
BRANCH  14  15
ATOM     15  C   UNL     1      28.761 -14.352  30.767  1.00  0.00    -0.000 C 
BRANCH  15  16
ATOM     16  C   UNL     1      29.746 -13.400  31.465  1.00  0.00    -0.003 C 
ATOM     17  C   UNL     1      29.054 -12.416  32.410  1.00  0.00     0.004 C 
ENDBRANCH  15  16
ENDBRANCH  14  15
ENDBRANCH  13  14
ENDBRANCH  12  13
ENDBRANCH  11  12
ENDBRANCH  10  11
ENDBRANCH   1  10
TORSDOF 13
ENDMDL
MODEL 7
REMARK VINA RESULT:    -3.640      1.228      2.290
REMARK INTER + INTRA:          -8.209
REMARK INTER:                  -6.671
REMARK INTRA:                  -1.538
REMARK UNBOUND:                -1.803
REMARK SMILES CCCCCCCCCCCCCCC(=O)[O-]
REMARK SMILES IDX 9 1 10 2 11 3 12 4 13 5 14 6 15 7 16 8 17 9 8 10 7 11 6 12
REMARK SMILES IDX 5 13 4 14 3 15 2 16 1 17
REMARK H PARENT
REMARK Flexibility Score: inf
ROOT
ATOM      1  C   UNL     1      26.233 -16.532  25.669  1.00  0.00     0.000 C 
ENDROOT
BRANCH   1   2
ATOM      2  C   UNL     1      26.293 -17.352  26.970  1.00  0.00     0.000 C 
BRANCH   2   3
ATOM      3  C   UNL     1      24.885 -17.734  27.479  1.00  0.00     0.000 C 
BRANCH   3   4
ATOM      4  C   UNL     1      23.860 -17.955  26.352  1.00  0.00     0.000 C 
BRANCH   4   5
ATOM      5  C   UNL     1      22.527 -17.231  26.605  1.00  0.00     0.006 C 
BRANCH   5   6
ATOM      6  C   UNL     1      22.510 -15.820  26.000  1.00  0.00     0.053 C 
BRANCH   6   7
ATOM      7  C   UNL     1      22.784 -14.769  27.032  1.00  0.00     0.041 C 
ATOM      8  O   UNL     1      21.895 -14.456  27.868  1.00  0.00    -0.550 OA
ATOM      9  O   UNL     1      24.006 -14.109  27.046  1.00  0.00    -0.550 OA
ENDBRANCH   6   7
ENDBRANCH   5   6
ENDBRANCH   4   5
ENDBRANCH   3   4
ENDBRANCH   2   3
ENDBRANCH   1   2
BRANCH   1  10
ATOM     10  C   UNL     1      26.955 -17.221  24.499  1.00  0.00     0.000 C 
BRANCH  10  11
ATOM     11  C   UNL     1      27.387 -18.658  24.839  1.00  0.00    -0.000 C 
BRANCH  11  12
ATOM     12  C   UNL     1      28.846 -18.952  24.444  1.00  0.00    -0.000 C 
BRANCH  12  13
ATOM     13  C   UNL     1      29.755 -19.430  25.594  1.00  0.00    -0.000 C 
BRANCH  13  14
ATOM     14  C   UNL     1      30.800 -18.385  26.009  1.00  0.00    -0.000 C 
BRANCH  14  15
ATOM     15  C   UNL     1      30.843 -18.225  27.537  1.00  0.00    -0.000 C 
BRANCH  15  16
ATOM     16  C   UNL     1      29.530 -18.652  28.213  1.00  0.00    -0.003 C 
ATOM     17  C   UNL     1      29.146 -17.750  29.388  1.00  0.00     0.004 C 
ENDBRANCH  15  16
ENDBRANCH  14  15
ENDBRANCH  13  14
ENDBRANCH  12  13
ENDBRANCH  11  12
ENDBRANCH  10  11
ENDBRANCH   1  10
TORSDOF 13
ENDMDL
MODEL 8
REMARK VINA RESULT:    -3.597      3.853      6.455
REMARK INTER + INTRA:          -8.133
REMARK INTER:                  -7.294
REMARK INTRA:                  -0.840
REMARK UNBOUND:                -1.803
REMARK SMILES CCCCCCCCCCCCCCC(=O)[O-]
REMARK SMILES IDX 9 1 10 2 11 3 12 4 13 5 14 6 15 7 16 8 17 9 8 10 7 11 6 12
REMARK SMILES IDX 5 13 4 14 3 15 2 16 1 17
REMARK H PARENT
REMARK Flexibility Score: inf
ROOT
ATOM      1  C   UNL     1      22.083 -15.220  27.834  1.00  0.00     0.000 C 
ENDROOT
BRANCH   1   2
ATOM      2  C   UNL     1      21.736 -16.596  28.433  1.00  0.00     0.000 C 
BRANCH   2   3
ATOM      3  C   UNL     1      20.653 -16.493  29.528  1.00  0.00     0.000 C 
BRANCH   3   4
ATOM      4  C   UNL     1      20.058 -15.082  29.679  1.00  0.00     0.000 C 
BRANCH   4   5
ATOM      5  C   UNL     1      19.076 -14.968  30.858  1.00  0.00     0.006 C 
BRANCH   5   6
ATOM      6  C   UNL     1      18.628 -16.344  31.372  1.00  0.00     0.053 C 
BRANCH   6   7
ATOM      7  C   UNL     1      17.202 -16.633  31.015  1.00  0.00     0.041 C 
ATOM      8  O   UNL     1      16.295 -16.504  31.880  1.00  0.00    -0.550 OA
ATOM      9  O   UNL     1      16.881 -17.083  29.741  1.00  0.00    -0.550 OA
ENDBRANCH   6   7
ENDBRANCH   5   6
ENDBRANCH   4   5
ENDBRANCH   3   4
ENDBRANCH   2   3
ENDBRANCH   1   2
BRANCH   1  10
ATOM     10  C   UNL     1      23.081 -15.314  26.669  1.00  0.00     0.000 C 
BRANCH  10  11
ATOM     11  C   UNL     1      23.099 -16.710  26.021  1.00  0.00    -0.000 C 
BRANCH  11  12
ATOM     12  C   UNL     1      24.511 -17.319  25.953  1.00  0.00    -0.000 C 
BRANCH  12  13
ATOM     13  C   UNL     1      25.668 -16.299  25.969  1.00  0.00    -0.000 C 
BRANCH  13  14
ATOM     14  C   UNL     1      26.863 -16.730  25.108  1.00  0.00    -0.000 C 
BRANCH  14  15
ATOM     15  C   UNL     1      26.805 -18.234  24.799  1.00  0.00    -0.000 C 
BRANCH  15  16
ATOM     16  C   UNL     1      28.148 -18.786  24.293  1.00  0.00    -0.003 C 
ATOM     17  C   UNL     1      29.281 -18.619  25.308  1.00  0.00     0.004 C 
ENDBRANCH  15  16
ENDBRANCH  14  15
ENDBRANCH  13  14
ENDBRANCH  12  13
ENDBRANCH  11  12
ENDBRANCH  10  11
ENDBRANCH   1  10
TORSDOF 13
ENDMDL
MODEL 9
REMARK VINA RESULT:    -3.595      1.236      3.370
REMARK INTER + INTRA:          -8.129
REMARK INTER:                  -6.373
REMARK INTRA:                  -1.756
REMARK UNBOUND:                -1.803
REMARK SMILES CCCCCCCCCCCCCCC(=O)[O-]
REMARK SMILES IDX 9 1 10 2 11 3 12 4 13 5 14 6 15 7 16 8 17 9 8 10 7 11 6 12
REMARK SMILES IDX 5 13 4 14 3 15 2 16 1 17
REMARK H PARENT
REMARK Flexibility Score: inf
ROOT
ATOM      1  C   UNL     1      26.220 -19.055  28.078  1.00  0.00     0.000 C 
ENDROOT
BRANCH   1   2
ATOM      2  C   UNL     1      25.077 -18.937  29.103  1.00  0.00     0.000 C 
BRANCH   2   3
ATOM      3  C   UNL     1      23.696 -18.831  28.419  1.00  0.00     0.000 C 
BRANCH   3   4
ATOM      4  C   UNL     1      23.749 -18.208  27.013  1.00  0.00     0.000 C 
BRANCH   4   5
ATOM      5  C   UNL     1      22.419 -17.558  26.596  1.00  0.00     0.006 C 
BRANCH   5   6
ATOM      6  C   UNL     1      22.608 -16.115  26.105  1.00  0.00     0.053 C 
BRANCH   6   7
ATOM      7  C   UNL     1      22.620 -15.139  27.241  1.00  0.00     0.041 C 
ATOM      8  O   UNL     1      23.379 -14.134  27.203  1.00  0.00    -0.550 OA
ATOM      9  O   UNL     1      21.824 -15.359  28.357  1.00  0.00    -0.550 OA
ENDBRANCH   6   7
ENDBRANCH   5   6
ENDBRANCH   4   5
ENDBRANCH   3   4
ENDBRANCH   2   3
ENDBRANCH   1   2
BRANCH   1  10
ATOM     10  C   UNL     1      27.410 -18.139  28.407  1.00  0.00     0.000 C 
BRANCH  10  11
ATOM     11  C   UNL     1      28.764 -18.847  28.228  1.00  0.00    -0.000 C 
BRANCH  11  12
ATOM     12  C   UNL     1      29.367 -18.637  26.826  1.00  0.00    -0.000 C 
BRANCH  12  13
ATOM     13  C   UNL     1      29.237 -19.839  25.869  1.00  0.00    -0.000 C 
BRANCH  13  14
ATOM     14  C   UNL     1      27.975 -19.780  24.996  1.00  0.00    -0.000 C 
BRANCH  14  15
ATOM     15  C   UNL     1      27.849 -18.415  24.302  1.00  0.00    -0.000 C 
BRANCH  15  16
ATOM     16  C   UNL     1      26.495 -17.739  24.569  1.00  0.00    -0.003 C 
ATOM     17  C   UNL     1      26.634 -16.384  25.266  1.00  0.00     0.004 C 
ENDBRANCH  15  16
ENDBRANCH  14  15
ENDBRANCH  13  14
ENDBRANCH  12  13
ENDBRANCH  11  12
ENDBRANCH  10  11
ENDBRANCH   1  10
TORSDOF 13
ENDMDL
