MODEL 1
REMARK VINA RESULT:    -5.764      0.000      0.000
REMARK INTER + INTRA:          -5.764
REMARK INTER:                  -5.764
REMARK INTRA:                   0.000
REMARK UNBOUND:                 0.000
REMARK SMILES C[C@H]1CCC=C2CC[C@H]3[C@H](C3(C)C)[C@]21C
REMARK SMILES IDX 1 1 2 2 3 3 4 4 5 5 6 6 14 7 10 8 9 9 11 10 12 11 13 12 8 13
REMARK SMILES IDX 7 14 15 15
REMARK H PARENT
REMARK Flexibility Score: inf
ROOT
ATOM      1  C   UNL     1       3.442  15.732   1.967  1.00  0.00     0.008 C 
ATOM      2  C   UNL     1       1.901  15.625   1.989  1.00  0.00    -0.004 C 
ATOM      3  C   UNL     1       1.334  15.784   0.552  1.00  0.00     0.008 C 
ATOM      4  C   UNL     1       1.219  14.466  -0.252  1.00  0.00     0.027 C 
ATOM      5  C   UNL     1       1.759  13.244   0.447  1.00  0.00    -0.027 C 
ATOM      6  C   UNL     1       1.878  13.150   1.792  1.00  0.00    -0.068 C 
ATOM      7  C   UNL     1       1.383  14.307   2.669  1.00  0.00    -0.005 C 
ATOM      8  C   UNL     1       1.876  14.298   4.153  1.00  0.00     0.009 C 
ATOM      9  C   UNL     1       3.004  13.353   4.571  1.00  0.00    -0.000 C 
ATOM     10  C   UNL     1       1.595  13.153   5.161  1.00  0.00    -0.028 C 
ATOM     11  C   UNL     1       1.490  13.587   6.631  1.00  0.00     0.012 C 
ATOM     12  C   UNL     1       0.854  11.848   4.818  1.00  0.00     0.012 C 
ATOM     13  C   UNL     1       3.578  12.388   3.522  1.00  0.00     0.009 C 
ATOM     14  C   UNL     1       2.693  12.000   2.337  1.00  0.00     0.031 C 
ATOM     15  C   UNL     1      -0.173  14.359   2.711  1.00  0.00     0.017 C 
ENDROOT
TORSDOF 0
ENDMDL
MODEL 2
REMARK VINA RESULT:    -4.732      2.328      4.196
REMARK INTER + INTRA:          -4.732
REMARK INTER:                  -4.732
REMARK INTRA:                   0.000
REMARK UNBOUND:                 0.000
REMARK SMILES C[C@H]1CCC=C2CC[C@H]3[C@H](C3(C)C)[C@]21C
REMARK SMILES IDX 1 1 2 2 3 3 4 4 5 5 6 6 14 7 10 8 9 9 11 10 12 11 13 12 8 13
REMARK SMILES IDX 7 14 15 15
REMARK H PARENT
REMARK Flexibility Score: inf
ROOT
ATOM      1  C   UNL     1      -1.308  16.367  -1.172  1.00  0.00     0.008 C 
ATOM      2  C   UNL     1      -1.664  15.979   0.280  1.00  0.00    -0.004 C 
ATOM      3  C   UNL     1      -3.140  15.503   0.358  1.00  0.00     0.008 C 
ATOM      4  C   UNL     1      -3.349  13.989   0.110  1.00  0.00     0.027 C 
ATOM      5  C   UNL     1      -2.102  13.226  -0.259  1.00  0.00    -0.027 C 
ATOM      6  C   UNL     1      -0.854  13.643   0.060  1.00  0.00    -0.068 C 
ATOM      7  C   UNL     1      -0.684  14.918   0.895  1.00  0.00    -0.005 C 
ATOM      8  C   UNL     1       0.753  15.534   0.913  1.00  0.00     0.009 C 
ATOM      9  C   UNL     1       1.803  15.039  -0.082  1.00  0.00    -0.000 C 
ATOM     10  C   UNL     1       2.017  14.794   1.424  1.00  0.00    -0.028 C 
ATOM     11  C   UNL     1       3.102  15.696   2.033  1.00  0.00     0.012 C 
ATOM     12  C   UNL     1       2.037  13.336   1.917  1.00  0.00     0.012 C 
ATOM     13  C   UNL     1       1.427  13.892  -1.034  1.00  0.00     0.009 C 
ATOM     14  C   UNL     1       0.304  12.943  -0.613  1.00  0.00     0.031 C 
ATOM     15  C   UNL     1      -1.091  14.680   2.380  1.00  0.00     0.017 C 
ENDROOT
TORSDOF 0
ENDMDL
MODEL 3
REMARK VINA RESULT:    -4.455      2.451      4.965
REMARK INTER + INTRA:          -4.455
REMARK INTER:                  -4.455
REMARK INTRA:                   0.000
REMARK UNBOUND:                 0.000
REMARK SMILES C[C@H]1CCC=C2CC[C@H]3[C@H](C3(C)C)[C@]21C
REMARK SMILES IDX 1 1 2 2 3 3 4 4 5 5 6 6 14 7 10 8 9 9 11 10 12 11 13 12 8 13
REMARK SMILES IDX 7 14 15 15
REMARK H PARENT
REMARK Flexibility Score: inf
ROOT
ATOM      1  C   UNL     1       1.746  13.367   1.632  1.00  0.00     0.008 C 
ATOM      2  C   UNL     1       1.131  14.782   1.543  1.00  0.00    -0.004 C 
ATOM      3  C   UNL     1       2.247  15.857   1.660  1.00  0.00     0.008 C 
ATOM      4  C   UNL     1       2.899  16.268   0.317  1.00  0.00     0.027 C 
ATOM      5  C   UNL     1       2.416  15.497  -0.887  1.00  0.00    -0.027 C 
ATOM      6  C   UNL     1       1.217  14.872  -0.937  1.00  0.00    -0.068 C 
ATOM      7  C   UNL     1       0.260  14.997   0.254  1.00  0.00    -0.005 C 
ATOM      8  C   UNL     1      -0.922  13.974   0.290  1.00  0.00     0.009 C 
ATOM      9  C   UNL     1      -0.910  12.769  -0.652  1.00  0.00    -0.000 C 
ATOM     10  C   UNL     1      -2.002  13.844  -0.817  1.00  0.00    -0.028 C 
ATOM     11  C   UNL     1      -3.383  13.379  -0.332  1.00  0.00     0.012 C 
ATOM     12  C   UNL     1      -2.014  14.656  -2.125  1.00  0.00     0.012 C 
ATOM     13  C   UNL     1       0.243  12.637  -1.659  1.00  0.00     0.009 C 
ATOM     14  C   UNL     1       0.985  13.908  -2.077  1.00  0.00     0.031 C 
ATOM     15  C   UNL     1      -0.373  16.419   0.326  1.00  0.00     0.017 C 
ENDROOT
TORSDOF 0
ENDMDL
MODEL 4
REMARK VINA RESULT:    -4.402      1.902      4.828
REMARK INTER + INTRA:          -4.402
REMARK INTER:                  -4.402
REMARK INTRA:                   0.000
REMARK UNBOUND:                 0.000
REMARK SMILES C[C@H]1CCC=C2CC[C@H]3[C@H](C3(C)C)[C@]21C
REMARK SMILES IDX 1 1 2 2 3 3 4 4 5 5 6 6 14 7 10 8 9 9 11 10 12 11 13 12 8 13
REMARK SMILES IDX 7 14 15 15
REMARK H PARENT
REMARK Flexibility Score: inf
ROOT
ATOM      1  C   UNL     1       1.777  16.705   1.623  1.00  0.00     0.008 C 
ATOM      2  C   UNL     1       2.143  15.283   1.142  1.00  0.00    -0.004 C 
ATOM      3  C   UNL     1       3.164  14.636   2.117  1.00  0.00     0.008 C 
ATOM      4  C   UNL     1       2.534  13.862   3.300  1.00  0.00     0.027 C 
ATOM      5  C   UNL     1       1.029  13.931   3.377  1.00  0.00    -0.027 C 
ATOM      6  C   UNL     1       0.242  14.191   2.308  1.00  0.00    -0.068 C 
ATOM      7  C   UNL     1       0.889  14.362   0.928  1.00  0.00    -0.005 C 
ATOM      8  C   UNL     1      -0.011  15.012  -0.173  1.00  0.00     0.009 C 
ATOM      9  C   UNL     1      -1.326  15.684   0.224  1.00  0.00    -0.000 C 
ATOM     10  C   UNL     1      -1.361  14.424  -0.661  1.00  0.00    -0.028 C 
ATOM     11  C   UNL     1      -1.715  14.724  -2.125  1.00  0.00     0.012 C 
ATOM     12  C   UNL     1      -2.024  13.160  -0.081  1.00  0.00     0.012 C 
ATOM     13  C   UNL     1      -1.756  15.641   1.699  1.00  0.00     0.009 C 
ATOM     14  C   UNL     1      -1.210  14.514   2.577  1.00  0.00     0.031 C 
ATOM     15  C   UNL     1       1.379  12.997   0.360  1.00  0.00     0.017 C 
ENDROOT
TORSDOF 0
ENDMDL
MODEL 5
REMARK VINA RESULT:    -4.301      2.282      5.006
REMARK INTER + INTRA:          -4.301
REMARK INTER:                  -4.301
REMARK INTRA:                   0.000
REMARK UNBOUND:                 0.000
REMARK SMILES C[C@H]1CCC=C2CC[C@H]3[C@H](C3(C)C)[C@]21C
REMARK SMILES IDX 1 1 2 2 3 3 4 4 5 5 6 6 14 7 10 8 9 9 11 10 12 11 13 12 8 13
REMARK SMILES IDX 7 14 15 15
REMARK H PARENT
REMARK Flexibility Score: inf
ROOT
ATOM      1  C   UNL     1      -1.959  12.977  -0.072  1.00  0.00     0.008 C 
ATOM      2  C   UNL     1      -2.119  14.514  -0.106  1.00  0.00    -0.004 C 
ATOM      3  C   UNL     1      -3.417  14.932   0.637  1.00  0.00     0.008 C 
ATOM      4  C   UNL     1      -3.247  15.178   2.157  1.00  0.00     0.027 C 
ATOM      5  C   UNL     1      -1.870  14.887   2.699  1.00  0.00    -0.027 C 
ATOM      6  C   UNL     1      -0.754  14.892   1.934  1.00  0.00    -0.068 C 
ATOM      7  C   UNL     1      -0.865  15.278   0.453  1.00  0.00    -0.005 C 
ATOM      8  C   UNL     1       0.365  14.914  -0.441  1.00  0.00     0.009 C 
ATOM      9  C   UNL     1       1.446  13.978   0.102  1.00  0.00    -0.000 C 
ATOM     10  C   UNL     1       1.804  15.445  -0.208  1.00  0.00    -0.028 C 
ATOM     11  C   UNL     1       2.657  15.602  -1.476  1.00  0.00     0.012 C 
ATOM     12  C   UNL     1       2.224  16.343   0.970  1.00  0.00     0.012 C 
ATOM     13  C   UNL     1       1.320  13.473   1.548  1.00  0.00     0.009 C 
ATOM     14  C   UNL     1       0.503  14.307   2.535  1.00  0.00     0.031 C 
ATOM     15  C   UNL     1      -1.110  16.806   0.283  1.00  0.00     0.017 C 
ENDROOT
TORSDOF 0
ENDMDL
MODEL 6
REMARK VINA RESULT:    -4.266      2.586      5.297
REMARK INTER + INTRA:          -4.266
REMARK INTER:                  -4.266
REMARK INTRA:                   0.000
REMARK UNBOUND:                 0.000
REMARK SMILES C[C@H]1CCC=C2CC[C@H]3[C@H](C3(C)C)[C@]21C
REMARK SMILES IDX 1 1 2 2 3 3 4 4 5 5 6 6 14 7 10 8 9 9 11 10 12 11 13 12 8 13
REMARK SMILES IDX 7 14 15 15
REMARK H PARENT
REMARK Flexibility Score: inf
ROOT
ATOM      1  C   UNL     1       1.302  13.025  -0.374  1.00  0.00     0.008 C 
ATOM      2  C   UNL     1       0.839  13.447   1.039  1.00  0.00    -0.004 C 
ATOM      3  C   UNL     1       2.019  14.088   1.817  1.00  0.00     0.008 C 
ATOM      4  C   UNL     1       2.174  15.616   1.624  1.00  0.00     0.027 C 
ATOM      5  C   UNL     1       1.212  16.234   0.639  1.00  0.00    -0.027 C 
ATOM      6  C   UNL     1       0.023  15.677   0.313  1.00  0.00    -0.068 C 
ATOM      7  C   UNL     1      -0.418  14.389   1.021  1.00  0.00    -0.005 C 
ATOM      8  C   UNL     1      -1.599  13.613   0.352  1.00  0.00     0.009 C 
ATOM      9  C   UNL     1      -2.049  13.989  -1.060  1.00  0.00    -0.000 C 
ATOM     10  C   UNL     1      -3.015  14.204   0.120  1.00  0.00    -0.028 C 
ATOM     11  C   UNL     1      -4.163  13.184   0.154  1.00  0.00     0.012 C 
ATOM     12  C   UNL     1      -3.424  15.650   0.456  1.00  0.00     0.012 C 
ATOM     13  C   UNL     1      -1.361  15.172  -1.759  1.00  0.00     0.009 C 
ATOM     14  C   UNL     1      -0.702  16.242  -0.886  1.00  0.00     0.031 C 
ATOM     15  C   UNL     1      -0.838  14.668   2.494  1.00  0.00     0.017 C 
ENDROOT
TORSDOF 0
ENDMDL
MODEL 7
REMARK VINA RESULT:    -4.263      1.472      4.336
REMARK INTER + INTRA:          -4.263
REMARK INTER:                  -4.263
REMARK INTRA:                   0.000
REMARK UNBOUND:                 0.000
REMARK SMILES C[C@H]1CCC=C2CC[C@H]3[C@H](C3(C)C)[C@]21C
REMARK SMILES IDX 1 1 2 2 3 3 4 4 5 5 6 6 14 7 10 8 9 9 11 10 12 11 13 12 8 13
REMARK SMILES IDX 7 14 15 15
REMARK H PARENT
REMARK Flexibility Score: inf
ROOT
ATOM      1  C   UNL     1       3.417  11.977   1.793  1.00  0.00     0.008 C 
ATOM      2  C   UNL     1       2.535  12.522   2.939  1.00  0.00    -0.004 C 
ATOM      3  C   UNL     1       3.407  12.813   4.191  1.00  0.00     0.008 C 
ATOM      4  C   UNL     1       4.014  14.236   4.244  1.00  0.00     0.027 C 
ATOM      5  C   UNL     1       3.742  15.090   3.030  1.00  0.00    -0.027 C 
ATOM      6  C   UNL     1       2.696  14.885   2.197  1.00  0.00    -0.068 C 
ATOM      7  C   UNL     1       1.687  13.777   2.523  1.00  0.00    -0.005 C 
ATOM      8  C   UNL     1       0.734  13.357   1.357  1.00  0.00     0.009 C 
ATOM      9  C   UNL     1       1.024  13.833  -0.067  1.00  0.00    -0.000 C 
ATOM     10  C   UNL     1      -0.253  14.317   0.644  1.00  0.00    -0.028 C 
ATOM     11  C   UNL     1      -1.532  13.659   0.103  1.00  0.00     0.012 C 
ATOM     12  C   UNL     1      -0.379  15.822   0.944  1.00  0.00     0.012 C 
ATOM     13  C   UNL     1       2.219  14.772  -0.298  1.00  0.00     0.009 C 
ATOM     14  C   UNL     1       2.706  15.621   0.878  1.00  0.00     0.031 C 
ATOM     15  C   UNL     1       0.780  14.173   3.726  1.00  0.00     0.017 C 
ENDROOT
TORSDOF 0
ENDMDL
MODEL 8
REMARK VINA RESULT:    -4.047      2.219      5.156
REMARK INTER + INTRA:          -4.047
REMARK INTER:                  -4.047
REMARK INTRA:                   0.000
REMARK UNBOUND:                 0.000
REMARK SMILES C[C@H]1CCC=C2CC[C@H]3[C@H](C3(C)C)[C@]21C
REMARK SMILES IDX 1 1 2 2 3 3 4 4 5 5 6 6 14 7 10 8 9 9 11 10 12 11 13 12 8 13
REMARK SMILES IDX 7 14 15 15
REMARK H PARENT
REMARK Flexibility Score: inf
ROOT
ATOM      1  C   UNL     1      -0.574  13.954   3.088  1.00  0.00     0.008 C 
ATOM      2  C   UNL     1       0.519  14.889   2.525  1.00  0.00    -0.004 C 
ATOM      3  C   UNL     1       1.926  14.355   2.907  1.00  0.00     0.008 C 
ATOM      4  C   UNL     1       2.538  13.353   1.897  1.00  0.00     0.027 C 
ATOM      5  C   UNL     1       1.638  12.979   0.746  1.00  0.00    -0.027 C 
ATOM      6  C   UNL     1       0.619  13.759   0.316  1.00  0.00    -0.068 C 
ATOM      7  C   UNL     1       0.394  15.125   0.977  1.00  0.00    -0.005 C 
ATOM      8  C   UNL     1      -0.989  15.799   0.697  1.00  0.00     0.009 C 
ATOM      9  C   UNL     1      -2.112  14.984   0.054  1.00  0.00    -0.000 C 
ATOM     10  C   UNL     1      -1.510  16.175  -0.715  1.00  0.00    -0.028 C 
ATOM     11  C   UNL     1      -2.442  17.395  -0.765  1.00  0.00     0.012 C 
ATOM     12  C   UNL     1      -0.766  15.876  -2.029  1.00  0.00     0.012 C 
ATOM     13  C   UNL     1      -1.821  13.533  -0.360  1.00  0.00     0.009 C 
ATOM     14  C   UNL     1      -0.371  13.141  -0.644  1.00  0.00     0.031 C 
ATOM     15  C   UNL     1       1.488  16.147   0.550  1.00  0.00     0.017 C 
ENDROOT
TORSDOF 0
ENDMDL
MODEL 9
REMARK VINA RESULT:    -3.989      2.783      4.608
REMARK INTER + INTRA:          -3.989
REMARK INTER:                  -3.989
REMARK INTRA:                   0.000
REMARK UNBOUND:                 0.000
REMARK SMILES C[C@H]1CCC=C2CC[C@H]3[C@H](C3(C)C)[C@]21C
REMARK SMILES IDX 1 1 2 2 3 3 4 4 5 5 6 6 14 7 10 8 9 9 11 10 12 11 13 12 8 13
REMARK SMILES IDX 7 14 15 15
REMARK H PARENT
REMARK Flexibility Score: inf
ROOT
ATOM      1  C   UNL     1      -2.066  17.142   0.828  1.00  0.00     0.008 C 
ATOM      2  C   UNL     1      -2.527  15.679   0.640  1.00  0.00    -0.004 C 
ATOM      3  C   UNL     1      -3.681  15.613  -0.398  1.00  0.00     0.008 C 
ATOM      4  C   UNL     1      -3.226  15.454  -1.869  1.00  0.00     0.027 C 
ATOM      5  C   UNL     1      -1.732  15.479  -2.079  1.00  0.00    -0.027 C 
ATOM      6  C   UNL     1      -0.840  15.171  -1.109  1.00  0.00    -0.068 C 
ATOM      7  C   UNL     1      -1.355  14.706   0.259  1.00  0.00    -0.005 C 
ATOM      8  C   UNL     1      -0.311  14.722   1.422  1.00  0.00     0.009 C 
ATOM      9  C   UNL     1       1.027  15.438   1.230  1.00  0.00    -0.000 C 
ATOM     10  C   UNL     1       1.011  13.910   1.424  1.00  0.00    -0.028 C 
ATOM     11  C   UNL     1       1.509  13.472   2.810  1.00  0.00     0.012 C 
ATOM     12  C   UNL     1       1.500  13.035   0.255  1.00  0.00     0.012 C 
ATOM     13  C   UNL     1       1.331  16.069  -0.138  1.00  0.00     0.009 C 
ATOM     14  C   UNL     1       0.609  15.512  -1.366  1.00  0.00     0.031 C 
ATOM     15  C   UNL     1      -1.927  13.259   0.187  1.00  0.00     0.017 C 
ENDROOT
TORSDOF 0
ENDMDL
