MODEL 1
REMARK VINA RESULT:    -5.550      0.000      0.000
REMARK INTER + INTRA:          -5.972
REMARK INTER:                  -5.874
REMARK INTRA:                  -0.098
REMARK UNBOUND:                -0.098
REMARK SMILES C=C(C)[C@@H]1CC=C(C)C(=O)C1
REMARK SMILES IDX 8 1 7 2 6 3 5 4 4 5 11 6 9 7 10 8 2 9 1 10 3 11
REMARK H PARENT
REMARK Flexibility Score: inf
ROOT
ATOM      1  C   UNL     1      23.667  22.705  30.480  1.00  0.00     0.048 C 
ATOM      2  C   UNL     1      22.577  22.935  29.469  1.00  0.00    -0.012 C 
ATOM      3  C   UNL     1      21.827  21.903  29.047  1.00  0.00    -0.019 C 
ATOM      4  C   UNL     1      20.712  22.080  28.051  1.00  0.00     0.036 C 
ATOM      5  C   UNL     1      21.035  23.209  27.055  1.00  0.00     0.025 C 
ATOM      6  C   UNL     1      21.355  24.513  27.808  1.00  0.00     0.089 C 
ATOM      7  C   UNL     1      22.415  24.274  28.849  1.00  0.00     0.158 C 
ATOM      8  O   UNL     1      23.141  25.236  29.218  1.00  0.00    -0.295 OA
ENDROOT
BRANCH   5   9
ATOM      9  C   UNL     1      19.904  23.410  26.055  1.00  0.00    -0.077 C 
ATOM     10  C   UNL     1      18.908  22.513  25.976  1.00  0.00     0.008 C 
ATOM     11  C   UNL     1      19.870  24.605  25.134  1.00  0.00     0.039 C 
ENDBRANCH   5   9
TORSDOF 1
ENDMDL
MODEL 2
REMARK VINA RESULT:    -5.542      1.318      4.416
REMARK INTER + INTRA:          -5.964
REMARK INTER:                  -5.866
REMARK INTRA:                  -0.098
REMARK UNBOUND:                -0.098
REMARK SMILES C=C(C)[C@@H]1CC=C(C)C(=O)C1
REMARK SMILES IDX 8 1 7 2 6 3 5 4 4 5 11 6 9 7 10 8 2 9 1 10 3 11
REMARK H PARENT
REMARK Flexibility Score: inf
ROOT
ATOM      1  C   UNL     1      19.290  22.962  26.131  1.00  0.00     0.048 C 
ATOM      2  C   UNL     1      20.449  23.001  27.088  1.00  0.00    -0.012 C 
ATOM      3  C   UNL     1      20.689  21.950  27.890  1.00  0.00    -0.019 C 
ATOM      4  C   UNL     1      21.846  21.930  28.854  1.00  0.00     0.036 C 
ATOM      5  C   UNL     1      22.152  23.344  29.383  1.00  0.00     0.025 C 
ATOM      6  C   UNL     1      22.387  24.314  28.211  1.00  0.00     0.089 C 
ATOM      7  C   UNL     1      21.248  24.244  27.231  1.00  0.00     0.158 C 
ATOM      8  O   UNL     1      21.002  25.243  26.503  1.00  0.00    -0.295 OA
ENDROOT
BRANCH   5   9
ATOM      9  C   UNL     1      23.333  23.336  30.343  1.00  0.00    -0.077 C 
ATOM     10  C   UNL     1      23.991  24.475  30.611  1.00  0.00     0.008 C 
ATOM     11  C   UNL     1      23.795  22.064  31.012  1.00  0.00     0.039 C 
ENDBRANCH   5   9
TORSDOF 1
ENDMDL
MODEL 3
REMARK VINA RESULT:    -5.405      1.987      4.698
REMARK INTER + INTRA:          -5.819
REMARK INTER:                  -5.729
REMARK INTRA:                  -0.090
REMARK UNBOUND:                -0.098
REMARK SMILES C=C(C)[C@@H]1CC=C(C)C(=O)C1
REMARK SMILES IDX 8 1 7 2 6 3 5 4 4 5 11 6 9 7 10 8 2 9 1 10 3 11
REMARK H PARENT
REMARK Flexibility Score: inf
ROOT
ATOM      1  C   UNL     1      19.493  24.482  25.006  1.00  0.00     0.048 C 
ATOM      2  C   UNL     1      20.292  24.114  26.226  1.00  0.00    -0.012 C 
ATOM      3  C   UNL     1      21.176  24.988  26.735  1.00  0.00    -0.019 C 
ATOM      4  C   UNL     1      21.989  24.678  27.965  1.00  0.00     0.036 C 
ATOM      5  C   UNL     1      22.309  23.174  28.051  1.00  0.00     0.025 C 
ATOM      6  C   UNL     1      21.013  22.346  27.986  1.00  0.00     0.089 C 
ATOM      7  C   UNL     1      20.192  22.744  26.789  1.00  0.00     0.158 C 
ATOM      8  O   UNL     1      19.389  21.911  26.291  1.00  0.00    -0.295 OA
ENDROOT
BRANCH   5   9
ATOM      9  C   UNL     1      23.114  22.847  29.302  1.00  0.00    -0.077 C 
ATOM     10  C   UNL     1      24.040  21.875  29.272  1.00  0.00     0.008 C 
ATOM     11  C   UNL     1      22.897  23.594  30.595  1.00  0.00     0.039 C 
ENDBRANCH   5   9
TORSDOF 1
ENDMDL
MODEL 4
REMARK VINA RESULT:    -5.152     10.041     12.148
REMARK INTER + INTRA:          -5.552
REMARK INTER:                  -5.455
REMARK INTRA:                  -0.097
REMARK UNBOUND:                -0.098
REMARK SMILES C=C(C)[C@@H]1CC=C(C)C(=O)C1
REMARK SMILES IDX 8 1 7 2 6 3 5 4 4 5 11 6 9 7 10 8 2 9 1 10 3 11
REMARK H PARENT
REMARK Flexibility Score: inf
ROOT
ATOM      1  C   UNL     1      18.615  28.719  35.630  1.00  0.00     0.048 C 
ATOM      2  C   UNL     1      19.847  28.686  36.492  1.00  0.00    -0.012 C 
ATOM      3  C   UNL     1      20.450  27.513  36.751  1.00  0.00    -0.019 C 
ATOM      4  C   UNL     1      21.696  27.424  37.593  1.00  0.00     0.036 C 
ATOM      5  C   UNL     1      21.707  28.513  38.681  1.00  0.00     0.025 C 
ATOM      6  C   UNL     1      21.530  29.905  38.048  1.00  0.00     0.089 C 
ATOM      7  C   UNL     1      20.322  29.928  37.152  1.00  0.00     0.158 C 
ATOM      8  O   UNL     1      19.737  31.023  36.937  1.00  0.00    -0.295 OA
ENDROOT
BRANCH   5   9
ATOM      9  C   UNL     1      22.973  28.444  39.525  1.00  0.00    -0.077 C 
ATOM     10  C   UNL     1      24.139  28.890  39.028  1.00  0.00     0.008 C 
ATOM     11  C   UNL     1      22.957  27.879  40.924  1.00  0.00     0.039 C 
ENDBRANCH   5   9
TORSDOF 1
ENDMDL
MODEL 5
REMARK VINA RESULT:    -5.013     10.007     11.148
REMARK INTER + INTRA:          -5.405
REMARK INTER:                  -5.307
REMARK INTRA:                  -0.098
REMARK UNBOUND:                -0.098
REMARK SMILES C=C(C)[C@@H]1CC=C(C)C(=O)C1
REMARK SMILES IDX 8 1 7 2 6 3 5 4 4 5 11 6 9 7 10 8 2 9 1 10 3 11
REMARK H PARENT
REMARK Flexibility Score: inf
ROOT
ATOM      1  C   UNL     1      22.951  28.772  38.745  1.00  0.00     0.048 C 
ATOM      2  C   UNL     1      21.669  28.998  37.991  1.00  0.00    -0.012 C 
ATOM      3  C   UNL     1      20.985  30.141  38.164  1.00  0.00    -0.019 C 
ATOM      4  C   UNL     1      19.706  30.426  37.421  1.00  0.00     0.036 C 
ATOM      5  C   UNL     1      18.917  29.130  37.160  1.00  0.00     0.025 C 
ATOM      6  C   UNL     1      19.800  28.105  36.426  1.00  0.00     0.089 C 
ATOM      7  C   UNL     1      21.101  27.910  37.156  1.00  0.00     0.158 C 
ATOM      8  O   UNL     1      21.725  26.823  37.021  1.00  0.00    -0.295 OA
ENDROOT
BRANCH   5   9
ATOM      9  C   UNL     1      17.632  29.406  36.392  1.00  0.00    -0.077 C 
ATOM     10  C   UNL     1      17.589  29.225  35.062  1.00  0.00     0.008 C 
ATOM     11  C   UNL     1      16.384  29.885  37.092  1.00  0.00     0.039 C 
ENDBRANCH   5   9
TORSDOF 1
ENDMDL
MODEL 6
REMARK VINA RESULT:    -4.972      1.682      2.556
REMARK INTER + INTRA:          -5.361
REMARK INTER:                  -5.264
REMARK INTRA:                  -0.097
REMARK UNBOUND:                -0.098
REMARK SMILES C=C(C)[C@@H]1CC=C(C)C(=O)C1
REMARK SMILES IDX 8 1 7 2 6 3 5 4 4 5 11 6 9 7 10 8 2 9 1 10 3 11
REMARK H PARENT
REMARK Flexibility Score: inf
ROOT
ATOM      1  C   UNL     1      25.646  24.013  31.186  1.00  0.00     0.048 C 
ATOM      2  C   UNL     1      24.488  24.060  30.228  1.00  0.00    -0.012 C 
ATOM      3  C   UNL     1      23.255  23.736  30.654  1.00  0.00    -0.019 C 
ATOM      4  C   UNL     1      22.057  23.783  29.742  1.00  0.00     0.036 C 
ATOM      5  C   UNL     1      22.450  23.436  28.294  1.00  0.00     0.025 C 
ATOM      6  C   UNL     1      23.585  24.356  27.812  1.00  0.00     0.089 C 
ATOM      7  C   UNL     1      24.727  24.343  28.791  1.00  0.00     0.158 C 
ATOM      8  O   UNL     1      25.889  24.613  28.383  1.00  0.00    -0.295 OA
ENDROOT
BRANCH   5   9
ATOM      9  C   UNL     1      21.248  23.500  27.361  1.00  0.00    -0.077 C 
ATOM     10  C   UNL     1      20.872  24.674  26.828  1.00  0.00     0.008 C 
ATOM     11  C   UNL     1      20.455  22.265  27.013  1.00  0.00     0.039 C 
ENDBRANCH   5   9
TORSDOF 1
ENDMDL
MODEL 7
REMARK VINA RESULT:    -4.783     10.175     11.702
REMARK INTER + INTRA:          -5.160
REMARK INTER:                  -5.065
REMARK INTRA:                  -0.095
REMARK UNBOUND:                -0.098
REMARK SMILES C=C(C)[C@@H]1CC=C(C)C(=O)C1
REMARK SMILES IDX 8 1 7 2 6 3 5 4 4 5 11 6 9 7 10 8 2 9 1 10 3 11
REMARK H PARENT
REMARK Flexibility Score: inf
ROOT
ATOM      1  C   UNL     1      24.624  31.315  39.196  1.00  0.00     0.048 C 
ATOM      2  C   UNL     1      23.477  30.470  38.715  1.00  0.00    -0.012 C 
ATOM      3  C   UNL     1      23.297  29.237  39.220  1.00  0.00    -0.019 C 
ATOM      4  C   UNL     1      22.155  28.356  38.787  1.00  0.00     0.036 C 
ATOM      5  C   UNL     1      21.791  28.607  37.312  1.00  0.00     0.025 C 
ATOM      6  C   UNL     1      21.495  30.099  37.080  1.00  0.00     0.089 C 
ATOM      7  C   UNL     1      22.623  30.948  37.599  1.00  0.00     0.158 C 
ATOM      8  O   UNL     1      22.812  32.090  37.101  1.00  0.00    -0.295 OA
ENDROOT
BRANCH   5   9
ATOM      9  C   UNL     1      20.624  27.734  36.871  1.00  0.00    -0.077 C 
ATOM     10  C   UNL     1      20.600  26.430  37.190  1.00  0.00     0.008 C 
ATOM     11  C   UNL     1      19.475  28.300  36.073  1.00  0.00     0.039 C 
ENDBRANCH   5   9
TORSDOF 1
ENDMDL
MODEL 8
REMARK VINA RESULT:    -4.763     10.444     11.955
REMARK INTER + INTRA:          -5.139
REMARK INTER:                  -5.051
REMARK INTRA:                  -0.089
REMARK UNBOUND:                -0.098
REMARK SMILES C=C(C)[C@@H]1CC=C(C)C(=O)C1
REMARK SMILES IDX 8 1 7 2 6 3 5 4 4 5 11 6 9 7 10 8 2 9 1 10 3 11
REMARK H PARENT
REMARK Flexibility Score: inf
ROOT
ATOM      1  C   UNL     1      16.605  32.107  37.358  1.00  0.00     0.048 C 
ATOM      2  C   UNL     1      17.688  31.066  37.303  1.00  0.00    -0.012 C 
ATOM      3  C   UNL     1      18.840  31.263  37.968  1.00  0.00    -0.019 C 
ATOM      4  C   UNL     1      19.950  30.246  37.961  1.00  0.00     0.036 C 
ATOM      5  C   UNL     1      19.994  29.483  36.624  1.00  0.00     0.025 C 
ATOM      6  C   UNL     1      18.624  28.851  36.323  1.00  0.00     0.089 C 
ATOM      7  C   UNL     1      17.533  29.883  36.419  1.00  0.00     0.158 C 
ATOM      8  O   UNL     1      16.468  29.714  35.768  1.00  0.00    -0.295 OA
ENDROOT
BRANCH   5   9
ATOM      9  C   UNL     1      21.101  28.438  36.616  1.00  0.00    -0.077 C 
ATOM     10  C   UNL     1      22.354  28.787  36.280  1.00  0.00     0.008 C 
ATOM     11  C   UNL     1      20.828  26.999  36.978  1.00  0.00     0.039 C 
ENDBRANCH   5   9
TORSDOF 1
ENDMDL
MODEL 9
REMARK VINA RESULT:    -4.743     10.224     12.248
REMARK INTER + INTRA:          -5.119
REMARK INTER:                  -5.028
REMARK INTRA:                  -0.091
REMARK UNBOUND:                -0.098
REMARK SMILES C=C(C)[C@@H]1CC=C(C)C(=O)C1
REMARK SMILES IDX 8 1 7 2 6 3 5 4 4 5 11 6 9 7 10 8 2 9 1 10 3 11
REMARK H PARENT
REMARK Flexibility Score: inf
ROOT
ATOM      1  C   UNL     1      18.020  29.379  35.570  1.00  0.00     0.048 C 
ATOM      2  C   UNL     1      19.170  29.409  36.538  1.00  0.00    -0.012 C 
ATOM      3  C   UNL     1      19.422  30.525  37.243  1.00  0.00    -0.019 C 
ATOM      4  C   UNL     1      20.549  30.604  38.238  1.00  0.00     0.036 C 
ATOM      5  C   UNL     1      21.737  29.728  37.800  1.00  0.00     0.025 C 
ATOM      6  C   UNL     1      21.274  28.280  37.557  1.00  0.00     0.089 C 
ATOM      7  C   UNL     1      20.096  28.252  36.622  1.00  0.00     0.158 C 
ATOM      8  O   UNL     1      19.881  27.217  35.936  1.00  0.00    -0.295 OA
ENDROOT
BRANCH   5   9
ATOM      9  C   UNL     1      22.874  29.786  38.810  1.00  0.00    -0.077 C 
ATOM     10  C   UNL     1      23.589  30.913  38.956  1.00  0.00     0.008 C 
ATOM     11  C   UNL     1      23.228  28.594  39.666  1.00  0.00     0.039 C 
ENDBRANCH   5   9
TORSDOF 1
ENDMDL
