MODEL 1
REMARK VINA RESULT:    -5.280      0.000      0.000
REMARK INTER + INTRA:         -10.647
REMARK INTER:                  -8.985
REMARK INTRA:                  -1.662
REMARK UNBOUND:                -1.662
REMARK SMILES CCCCCCCCCCCCCC(=O)[O-]
REMARK SMILES IDX 8 1 9 2 10 3 11 4 12 5 13 6 14 7 15 8 16 9 7 10 6 11 5 12
REMARK SMILES IDX 4 13 3 14 2 15 1 16
REMARK H PARENT
REMARK Flexibility Score: inf
ROOT
ATOM      1  C   UNL     1      61.922   4.326  22.124  1.00  0.00     0.000 C 
ENDROOT
BRANCH   1   2
ATOM      2  C   UNL     1      62.266   3.157  23.059  1.00  0.00     0.000 C 
BRANCH   2   3
ATOM      3  C   UNL     1      63.779   2.886  23.152  1.00  0.00     0.000 C 
BRANCH   3   4
ATOM      4  C   UNL     1      64.677   4.080  22.781  1.00  0.00     0.000 C 
BRANCH   4   5
ATOM      5  C   UNL     1      66.066   4.011  23.431  1.00  0.00     0.006 C 
BRANCH   5   6
ATOM      6  C   UNL     1      66.128   4.885  24.687  1.00  0.00     0.053 C 
BRANCH   6   7
ATOM      7  C   UNL     1      67.472   4.776  25.336  1.00  0.00     0.041 C 
ATOM      8  O   UNL     1      67.565   4.654  26.585  1.00  0.00    -0.550 OA
ATOM      9  O   UNL     1      68.621   4.758  24.555  1.00  0.00    -0.550 OA
ENDBRANCH   6   7
ENDBRANCH   5   6
ENDBRANCH   4   5
ENDBRANCH   3   4
ENDBRANCH   2   3
ENDBRANCH   1   2
BRANCH   1  10
ATOM     10  C   UNL     1      60.912   3.891  21.051  1.00  0.00     0.000 C 
BRANCH  10  11
ATOM     11  C   UNL     1      60.903   2.370  20.825  1.00  0.00    -0.000 C 
BRANCH  11  12
ATOM     12  C   UNL     1      61.660   1.959  19.550  1.00  0.00    -0.000 C 
BRANCH  12  13
ATOM     13  C   UNL     1      62.873   1.061  19.848  1.00  0.00    -0.000 C 
BRANCH  13  14
ATOM     14  C   UNL     1      64.212   1.769  19.574  1.00  0.00    -0.000 C 
BRANCH  14  15
ATOM     15  C   UNL     1      64.025   3.219  19.102  1.00  0.00    -0.003 C 
ATOM     16  C   UNL     1      65.351   3.928  18.826  1.00  0.00     0.004 C 
ENDBRANCH  14  15
ENDBRANCH  13  14
ENDBRANCH  12  13
ENDBRANCH  11  12
ENDBRANCH  10  11
ENDBRANCH   1  10
TORSDOF 12
ENDMDL
MODEL 2
REMARK VINA RESULT:    -5.126      2.186      3.764
REMARK INTER + INTRA:         -10.384
REMARK INTER:                  -8.823
REMARK INTRA:                  -1.561
REMARK UNBOUND:                -1.662
REMARK SMILES CCCCCCCCCCCCCC(=O)[O-]
REMARK SMILES IDX 8 1 9 2 10 3 11 4 12 5 13 6 14 7 15 8 16 9 7 10 6 11 5 12
REMARK SMILES IDX 4 13 3 14 2 15 1 16
REMARK H PARENT
REMARK Flexibility Score: inf
ROOT
ATOM      1  C   UNL     1      61.967   1.455  19.899  1.00  0.00     0.000 C 
ENDROOT
BRANCH   1   2
ATOM      2  C   UNL     1      61.786   2.968  20.097  1.00  0.00     0.000 C 
BRANCH   2   3
ATOM      3  C   UNL     1      61.337   3.339  21.523  1.00  0.00     0.000 C 
BRANCH   3   4
ATOM      4  C   UNL     1      62.193   4.415  22.213  1.00  0.00     0.000 C 
BRANCH   4   5
ATOM      5  C   UNL     1      63.578   3.902  22.633  1.00  0.00     0.006 C 
BRANCH   5   6
ATOM      6  C   UNL     1      63.467   2.562  23.367  1.00  0.00     0.053 C 
BRANCH   6   7
ATOM      7  C   UNL     1      64.827   1.994  23.631  1.00  0.00     0.041 C 
ATOM      8  O   UNL     1      65.198   0.941  23.049  1.00  0.00    -0.550 OA
ATOM      9  O   UNL     1      65.703   2.656  24.480  1.00  0.00    -0.550 OA
ENDBRANCH   6   7
ENDBRANCH   5   6
ENDBRANCH   4   5
ENDBRANCH   3   4
ENDBRANCH   2   3
ENDBRANCH   1   2
BRANCH   1  10
ATOM     10  C   UNL     1      63.271   1.153  19.146  1.00  0.00     0.000 C 
BRANCH  10  11
ATOM     11  C   UNL     1      64.496   1.829  19.783  1.00  0.00    -0.000 C 
BRANCH  11  12
ATOM     12  C   UNL     1      65.199   2.803  18.821  1.00  0.00    -0.000 C 
BRANCH  12  13
ATOM     13  C   UNL     1      65.925   3.940  19.561  1.00  0.00    -0.000 C 
BRANCH  13  14
ATOM     14  C   UNL     1      65.100   5.239  19.603  1.00  0.00    -0.000 C 
BRANCH  14  15
ATOM     15  C   UNL     1      65.745   6.317  20.488  1.00  0.00    -0.003 C 
ATOM     16  C   UNL     1      65.514   7.733  19.962  1.00  0.00     0.004 C 
ENDBRANCH  14  15
ENDBRANCH  13  14
ENDBRANCH  12  13
ENDBRANCH  11  12
ENDBRANCH  10  11
ENDBRANCH   1  10
TORSDOF 12
ENDMDL
MODEL 3
REMARK VINA RESULT:    -5.070      2.381      5.288
REMARK INTER + INTRA:         -10.288
REMARK INTER:                  -8.626
REMARK INTRA:                  -1.663
REMARK UNBOUND:                -1.662
REMARK SMILES CCCCCCCCCCCCCC(=O)[O-]
REMARK SMILES IDX 8 1 9 2 10 3 11 4 12 5 13 6 14 7 15 8 16 9 7 10 6 11 5 12
REMARK SMILES IDX 4 13 3 14 2 15 1 16
REMARK H PARENT
REMARK Flexibility Score: inf
ROOT
ATOM      1  C   UNL     1      61.956   4.240  22.416  1.00  0.00     0.000 C 
ENDROOT
BRANCH   1   2
ATOM      2  C   UNL     1      61.293   2.979  21.844  1.00  0.00     0.000 C 
BRANCH   2   3
ATOM      3  C   UNL     1      61.476   2.840  20.321  1.00  0.00     0.000 C 
BRANCH   3   4
ATOM      4  C   UNL     1      62.266   1.598  19.872  1.00  0.00     0.000 C 
BRANCH   4   5
ATOM      5  C   UNL     1      63.677   1.934  19.369  1.00  0.00     0.006 C 
BRANCH   5   6
ATOM      6  C   UNL     1      63.820   3.435  19.097  1.00  0.00     0.053 C 
BRANCH   6   7
ATOM      7  C   UNL     1      65.263   3.828  19.068  1.00  0.00     0.041 C 
ATOM      8  O   UNL     1      66.076   3.203  18.338  1.00  0.00    -0.550 OA
ATOM      9  O   UNL     1      65.701   4.918  19.809  1.00  0.00    -0.550 OA
ENDBRANCH   6   7
ENDBRANCH   5   6
ENDBRANCH   4   5
ENDBRANCH   3   4
ENDBRANCH   2   3
ENDBRANCH   1   2
BRANCH   1  10
ATOM     10  C   UNL     1      63.442   3.990  22.716  1.00  0.00     0.000 C 
BRANCH  10  11
ATOM     11  C   UNL     1      63.711   2.574  23.249  1.00  0.00    -0.000 C 
BRANCH  11  12
ATOM     12  C   UNL     1      65.093   2.040  22.836  1.00  0.00    -0.000 C 
BRANCH  12  13
ATOM     13  C   UNL     1      66.160   3.148  22.779  1.00  0.00    -0.000 C 
BRANCH  13  14
ATOM     14  C   UNL     1      66.891   3.333  24.120  1.00  0.00    -0.000 C 
BRANCH  14  15
ATOM     15  C   UNL     1      66.817   4.780  24.635  1.00  0.00    -0.003 C 
ATOM     16  C   UNL     1      66.902   4.872  26.158  1.00  0.00     0.004 C 
ENDBRANCH  14  15
ENDBRANCH  13  14
ENDBRANCH  12  13
ENDBRANCH  11  12
ENDBRANCH  10  11
ENDBRANCH   1  10
TORSDOF 12
ENDMDL
MODEL 4
REMARK VINA RESULT:    -4.986      1.062      2.971
REMARK INTER + INTRA:         -10.146
REMARK INTER:                  -8.444
REMARK INTRA:                  -1.702
REMARK UNBOUND:                -1.662
REMARK SMILES CCCCCCCCCCCCCC(=O)[O-]
REMARK SMILES IDX 8 1 9 2 10 3 11 4 12 5 13 6 14 7 15 8 16 9 7 10 6 11 5 12
REMARK SMILES IDX 4 13 3 14 2 15 1 16
REMARK H PARENT
REMARK Flexibility Score: inf
ROOT
ATOM      1  C   UNL     1      66.002   4.318  20.359  1.00  0.00     0.000 C 
ENDROOT
BRANCH   1   2
ATOM      2  C   UNL     1      64.731   4.911  20.984  1.00  0.00     0.000 C 
BRANCH   2   3
ATOM      3  C   UNL     1      64.471   4.403  22.414  1.00  0.00     0.000 C 
BRANCH   3   4
ATOM      4  C   UNL     1      64.816   2.922  22.650  1.00  0.00     0.000 C 
BRANCH   4   5
ATOM      5  C   UNL     1      65.509   2.675  23.998  1.00  0.00     0.006 C 
BRANCH   5   6
ATOM      6  C   UNL     1      66.937   3.230  23.991  1.00  0.00     0.053 C 
BRANCH   6   7
ATOM      7  C   UNL     1      67.031   4.446  24.859  1.00  0.00     0.041 C 
ATOM      8  O   UNL     1      67.011   4.333  26.112  1.00  0.00    -0.550 OA
ATOM      9  O   UNL     1      67.194   5.699  24.282  1.00  0.00    -0.550 OA
ENDBRANCH   6   7
ENDBRANCH   5   6
ENDBRANCH   4   5
ENDBRANCH   3   4
ENDBRANCH   2   3
ENDBRANCH   1   2
BRANCH   1  10
ATOM     10  C   UNL     1      65.687   3.635  19.019  1.00  0.00     0.000 C 
BRANCH  10  11
ATOM     11  C   UNL     1      64.242   3.116  18.941  1.00  0.00    -0.000 C 
BRANCH  11  12
ATOM     12  C   UNL     1      64.117   1.648  19.383  1.00  0.00    -0.000 C 
BRANCH  12  13
ATOM     13  C   UNL     1      62.653   1.199  19.531  1.00  0.00    -0.000 C 
BRANCH  13  14
ATOM     14  C   UNL     1      61.684   2.385  19.684  1.00  0.00    -0.000 C 
BRANCH  14  15
ATOM     15  C   UNL     1      61.342   2.680  21.153  1.00  0.00    -0.003 C 
ATOM     16  C   UNL     1      60.974   4.144  21.394  1.00  0.00     0.004 C 
ENDBRANCH  14  15
ENDBRANCH  13  14
ENDBRANCH  12  13
ENDBRANCH  11  12
ENDBRANCH  10  11
ENDBRANCH   1  10
TORSDOF 12
ENDMDL
MODEL 5
REMARK VINA RESULT:    -4.884      1.000      3.288
REMARK INTER + INTRA:          -9.973
REMARK INTER:                  -8.368
REMARK INTRA:                  -1.605
REMARK UNBOUND:                -1.662
REMARK SMILES CCCCCCCCCCCCCC(=O)[O-]
REMARK SMILES IDX 8 1 9 2 10 3 11 4 12 5 13 6 14 7 15 8 16 9 7 10 6 11 5 12
REMARK SMILES IDX 4 13 3 14 2 15 1 16
REMARK H PARENT
REMARK Flexibility Score: inf
ROOT
ATOM      1  C   UNL     1      64.236   3.428  18.871  1.00  0.00     0.000 C 
ENDROOT
BRANCH   1   2
ATOM      2  C   UNL     1      65.573   4.120  19.175  1.00  0.00     0.000 C 
BRANCH   2   3
ATOM      3  C   UNL     1      65.403   5.457  19.920  1.00  0.00     0.000 C 
BRANCH   3   4
ATOM      4  C   UNL     1      64.941   5.331  21.383  1.00  0.00     0.000 C 
BRANCH   4   5
ATOM      5  C   UNL     1      65.966   4.614  22.275  1.00  0.00     0.006 C 
BRANCH   5   6
ATOM      6  C   UNL     1      65.558   4.691  23.749  1.00  0.00     0.053 C 
BRANCH   6   7
ATOM      7  C   UNL     1      66.767   4.818  24.622  1.00  0.00     0.041 C 
ATOM      8  O   UNL     1      66.657   5.257  25.797  1.00  0.00    -0.550 OA
ATOM      9  O   UNL     1      68.007   4.404  24.154  1.00  0.00    -0.550 OA
ENDBRANCH   6   7
ENDBRANCH   5   6
ENDBRANCH   4   5
ENDBRANCH   3   4
ENDBRANCH   2   3
ENDBRANCH   1   2
BRANCH   1  10
ATOM     10  C   UNL     1      64.110   2.111  19.654  1.00  0.00     0.000 C 
BRANCH  10  11
ATOM     11  C   UNL     1      62.655   1.630  19.779  1.00  0.00    -0.000 C 
BRANCH  11  12
ATOM     12  C   UNL     1      61.638   2.756  19.524  1.00  0.00    -0.000 C 
BRANCH  12  13
ATOM     13  C   UNL     1      60.875   3.161  20.797  1.00  0.00    -0.000 C 
BRANCH  13  14
ATOM     14  C   UNL     1      61.385   4.484  21.395  1.00  0.00    -0.000 C 
BRANCH  14  15
ATOM     15  C   UNL     1      61.937   4.312  22.819  1.00  0.00    -0.003 C 
ATOM     16  C   UNL     1      62.053   2.846  23.236  1.00  0.00     0.004 C 
ENDBRANCH  14  15
ENDBRANCH  13  14
ENDBRANCH  12  13
ENDBRANCH  11  12
ENDBRANCH  10  11
ENDBRANCH   1  10
TORSDOF 12
ENDMDL
MODEL 6
REMARK VINA RESULT:    -4.881     11.156     13.522
REMARK INTER + INTRA:          -9.966
REMARK INTER:                  -8.120
REMARK INTRA:                  -1.846
REMARK UNBOUND:                -1.662
REMARK SMILES CCCCCCCCCCCCCC(=O)[O-]
REMARK SMILES IDX 8 1 9 2 10 3 11 4 12 5 13 6 14 7 15 8 16 9 7 10 6 11 5 12
REMARK SMILES IDX 4 13 3 14 2 15 1 16
REMARK H PARENT
REMARK Flexibility Score: inf
ROOT
ATOM      1  C   UNL     1      78.222   5.886  20.906  1.00  0.00     0.000 C 
ENDROOT
BRANCH   1   2
ATOM      2  C   UNL     1      78.071   6.986  21.968  1.00  0.00     0.000 C 
BRANCH   2   3
ATOM      3  C   UNL     1      76.603   7.363  22.240  1.00  0.00     0.000 C 
BRANCH   3   4
ATOM      4  C   UNL     1      76.024   6.811  23.555  1.00  0.00     0.000 C 
BRANCH   4   5
ATOM      5  C   UNL     1      77.087   6.630  24.649  1.00  0.00     0.006 C 
BRANCH   5   6
ATOM      6  C   UNL     1      76.828   7.576  25.826  1.00  0.00     0.053 C 
BRANCH   6   7
ATOM      7  C   UNL     1      77.663   8.811  25.700  1.00  0.00     0.041 C 
ATOM      8  O   UNL     1      77.200   9.834  25.130  1.00  0.00    -0.550 OA
ATOM      9  O   UNL     1      78.934   8.850  26.259  1.00  0.00    -0.550 OA
ENDBRANCH   6   7
ENDBRANCH   5   6
ENDBRANCH   4   5
ENDBRANCH   3   4
ENDBRANCH   2   3
ENDBRANCH   1   2
BRANCH   1  10
ATOM     10  C   UNL     1      79.180   4.786  21.389  1.00  0.00     0.000 C 
BRANCH  10  11
ATOM     11  C   UNL     1      78.493   3.417  21.524  1.00  0.00    -0.000 C 
BRANCH  11  12
ATOM     12  C   UNL     1      77.733   3.267  22.853  1.00  0.00    -0.000 C 
BRANCH  12  13
ATOM     13  C   UNL     1      76.207   3.229  22.658  1.00  0.00    -0.000 C 
BRANCH  13  14
ATOM     14  C   UNL     1      75.801   2.665  21.285  1.00  0.00    -0.000 C 
BRANCH  14  15
ATOM     15  C   UNL     1      74.513   3.306  20.744  1.00  0.00    -0.003 C 
ATOM     16  C   UNL     1      74.585   4.832  20.695  1.00  0.00     0.004 C 
ENDBRANCH  14  15
ENDBRANCH  13  14
ENDBRANCH  12  13
ENDBRANCH  11  12
ENDBRANCH  10  11
ENDBRANCH   1  10
TORSDOF 12
ENDMDL
MODEL 7
REMARK VINA RESULT:    -4.859     10.195     13.966
REMARK INTER + INTRA:          -9.930
REMARK INTER:                  -8.093
REMARK INTRA:                  -1.837
REMARK UNBOUND:                -1.662
REMARK SMILES CCCCCCCCCCCCCC(=O)[O-]
REMARK SMILES IDX 8 1 9 2 10 3 11 4 12 5 13 6 14 7 15 8 16 9 7 10 6 11 5 12
REMARK SMILES IDX 4 13 3 14 2 15 1 16
REMARK H PARENT
REMARK Flexibility Score: inf
ROOT
ATOM      1  C   UNL     1      79.068   5.101  20.963  1.00  0.00     0.000 C 
ENDROOT
BRANCH   1   2
ATOM      2  C   UNL     1      79.322   4.352  22.280  1.00  0.00     0.000 C 
BRANCH   2   3
ATOM      3  C   UNL     1      78.273   3.261  22.564  1.00  0.00     0.000 C 
BRANCH   3   4
ATOM      4  C   UNL     1      77.391   2.879  21.361  1.00  0.00     0.000 C 
BRANCH   4   5
ATOM      5  C   UNL     1      75.957   2.506  21.764  1.00  0.00     0.006 C 
BRANCH   5   6
ATOM      6  C   UNL     1      74.950   3.514  21.201  1.00  0.00     0.053 C 
BRANCH   6   7
ATOM      7  C   UNL     1      73.713   2.814  20.731  1.00  0.00     0.041 C 
ATOM      8  O   UNL     1      72.579   3.212  21.104  1.00  0.00    -0.550 OA
ATOM      9  O   UNL     1      73.813   1.753  19.840  1.00  0.00    -0.550 OA
ENDBRANCH   6   7
ENDBRANCH   5   6
ENDBRANCH   4   5
ENDBRANCH   3   4
ENDBRANCH   2   3
ENDBRANCH   1   2
BRANCH   1  10
ATOM     10  C   UNL     1      78.507   6.506  21.232  1.00  0.00     0.000 C 
BRANCH  10  11
ATOM     11  C   UNL     1      76.971   6.532  21.294  1.00  0.00    -0.000 C 
BRANCH  11  12
ATOM     12  C   UNL     1      76.441   7.431  22.423  1.00  0.00    -0.000 C 
BRANCH  12  13
ATOM     13  C   UNL     1      76.051   6.633  23.679  1.00  0.00    -0.000 C 
BRANCH  13  14
ATOM     14  C   UNL     1      77.259   6.321  24.580  1.00  0.00    -0.000 C 
BRANCH  14  15
ATOM     15  C   UNL     1      78.034   7.585  24.983  1.00  0.00    -0.003 C 
ATOM     16  C   UNL     1      79.527   7.492  24.667  1.00  0.00     0.004 C 
ENDBRANCH  14  15
ENDBRANCH  13  14
ENDBRANCH  12  13
ENDBRANCH  11  12
ENDBRANCH  10  11
ENDBRANCH   1  10
TORSDOF 12
ENDMDL
MODEL 8
REMARK VINA RESULT:    -4.855     11.568     13.832
REMARK INTER + INTRA:          -9.923
REMARK INTER:                  -8.220
REMARK INTRA:                  -1.702
REMARK UNBOUND:                -1.662
REMARK SMILES CCCCCCCCCCCCCC(=O)[O-]
REMARK SMILES IDX 8 1 9 2 10 3 11 4 12 5 13 6 14 7 15 8 16 9 7 10 6 11 5 12
REMARK SMILES IDX 4 13 3 14 2 15 1 16
REMARK H PARENT
REMARK Flexibility Score: inf
ROOT
ATOM      1  C   UNL     1      75.562   6.053  20.815  1.00  0.00     0.000 C 
ENDROOT
BRANCH   1   2
ATOM      2  C   UNL     1      75.457   7.322  21.675  1.00  0.00     0.000 C 
BRANCH   2   3
ATOM      3  C   UNL     1      76.784   7.696  22.360  1.00  0.00     0.000 C 
BRANCH   3   4
ATOM      4  C   UNL     1      76.954   7.149  23.788  1.00  0.00     0.000 C 
BRANCH   4   5
ATOM      5  C   UNL     1      78.113   7.811  24.550  1.00  0.00     0.006 C 
BRANCH   5   6
ATOM      6  C   UNL     1      78.926   8.722  23.626  1.00  0.00     0.053 C 
BRANCH   6   7
ATOM      7  C   UNL     1      79.020  10.101  24.200  1.00  0.00     0.041 C 
ATOM      8  O   UNL     1      80.121  10.538  24.624  1.00  0.00    -0.550 OA
ATOM      9  O   UNL     1      77.900  10.923  24.218  1.00  0.00    -0.550 OA
ENDBRANCH   6   7
ENDBRANCH   5   6
ENDBRANCH   4   5
ENDBRANCH   3   4
ENDBRANCH   2   3
ENDBRANCH   1   2
BRANCH   1  10
ATOM     10  C   UNL     1      74.738   4.908  21.425  1.00  0.00     0.000 C 
BRANCH  10  11
ATOM     11  C   UNL     1      75.552   4.046  22.404  1.00  0.00    -0.000 C 
BRANCH  11  12
ATOM     12  C   UNL     1      76.094   2.763  21.750  1.00  0.00    -0.000 C 
BRANCH  12  13
ATOM     13  C   UNL     1      77.551   2.912  21.278  1.00  0.00    -0.000 C 
BRANCH  13  14
ATOM     14  C   UNL     1      78.515   3.235  22.433  1.00  0.00    -0.000 C 
BRANCH  14  15
ATOM     15  C   UNL     1      79.144   4.631  22.302  1.00  0.00    -0.003 C 
ATOM     16  C   UNL     1      79.176   5.133  20.858  1.00  0.00     0.004 C 
ENDBRANCH  14  15
ENDBRANCH  13  14
ENDBRANCH  12  13
ENDBRANCH  11  12
ENDBRANCH  10  11
ENDBRANCH   1  10
TORSDOF 12
ENDMDL
MODEL 9
REMARK VINA RESULT:    -4.750      3.117      5.948
REMARK INTER + INTRA:          -9.745
REMARK INTER:                  -7.917
REMARK INTRA:                  -1.828
REMARK UNBOUND:                -1.662
REMARK SMILES CCCCCCCCCCCCCC(=O)[O-]
REMARK SMILES IDX 8 1 9 2 10 3 11 4 12 5 13 6 14 7 15 8 16 9 7 10 6 11 5 12
REMARK SMILES IDX 4 13 3 14 2 15 1 16
REMARK H PARENT
REMARK Flexibility Score: inf
ROOT
ATOM      1  C   UNL     1      68.066   4.577  22.799  1.00  0.00     0.000 C 
ENDROOT
BRANCH   1   2
ATOM      2  C   UNL     1      67.932   5.122  21.369  1.00  0.00     0.000 C 
BRANCH   2   3
ATOM      3  C   UNL     1      66.836   6.196  21.235  1.00  0.00     0.000 C 
BRANCH   3   4
ATOM      4  C   UNL     1      65.741   5.879  20.202  1.00  0.00     0.000 C 
BRANCH   4   5
ATOM      5  C   UNL     1      65.763   4.417  19.733  1.00  0.00     0.006 C 
BRANCH   5   6
ATOM      6  C   UNL     1      64.556   4.109  18.842  1.00  0.00     0.053 C 
BRANCH   6   7
ATOM      7  C   UNL     1      63.899   2.835  19.271  1.00  0.00     0.041 C 
ATOM      8  O   UNL     1      64.596   1.824  19.549  1.00  0.00    -0.550 OA
ATOM      9  O   UNL     1      62.518   2.780  19.415  1.00  0.00    -0.550 OA
ENDBRANCH   6   7
ENDBRANCH   5   6
ENDBRANCH   4   5
ENDBRANCH   3   4
ENDBRANCH   2   3
ENDBRANCH   1   2
BRANCH   1  10
ATOM     10  C   UNL     1      67.319   5.472  23.799  1.00  0.00     0.000 C 
BRANCH  10  11
ATOM     11  C   UNL     1      66.129   4.758  24.462  1.00  0.00    -0.000 C 
BRANCH  11  12
ATOM     12  C   UNL     1      66.035   3.275  24.064  1.00  0.00    -0.000 C 
BRANCH  12  13
ATOM     13  C   UNL     1      64.867   2.996  23.102  1.00  0.00    -0.000 C 
BRANCH  13  14
ATOM     14  C   UNL     1      63.944   4.214  22.924  1.00  0.00    -0.000 C 
BRANCH  14  15
ATOM     15  C   UNL     1      62.459   3.823  22.861  1.00  0.00    -0.003 C 
ATOM     16  C   UNL     1      61.634   4.768  21.988  1.00  0.00     0.004 C 
ENDBRANCH  14  15
ENDBRANCH  13  14
ENDBRANCH  12  13
ENDBRANCH  11  12
ENDBRANCH  10  11
ENDBRANCH   1  10
TORSDOF 12
ENDMDL
