MODEL 1
REMARK VINA RESULT:    -3.430      0.000      0.000
REMARK INTER + INTRA:          -5.661
REMARK INTER:                  -4.232
REMARK INTRA:                  -1.430
REMARK UNBOUND:                -1.430
REMARK SMILES CC(C)=CCC[C@H](C)c1ccc(C)cc1
REMARK SMILES IDX 6 1 7 2 8 3 9 4 13 5 12 6 11 7 14 8 10 9 15 10 5 11 4 12
REMARK SMILES IDX 2 13 1 14 3 15
REMARK H PARENT
REMARK Flexibility Score: inf
ROOT
ATOM      1  C   UNL     1     101.625 102.113  93.171  1.00  0.00     0.012 C 
ENDROOT
BRANCH   1   2
ATOM      2  C   UNL     1     100.248 102.721  93.539  1.00  0.00     0.016 C 
ATOM      3  C   UNL     1      99.105 102.226  92.635  1.00  0.00     0.013 C 
BRANCH   2   4
ATOM      4  C   UNL     1     100.295 104.235  93.696  1.00  0.00    -0.045 A 
ATOM      5  C   UNL     1     100.273 108.538  94.095  1.00  0.00     0.044 C 
ATOM      6  C   UNL     1     100.252 107.043  93.974  1.00  0.00    -0.051 A 
ATOM      7  C   UNL     1     100.923 106.249  94.915  1.00  0.00     0.004 A 
ATOM      8  C   UNL     1      99.615 106.431  92.887  1.00  0.00     0.004 A 
ATOM      9  C   UNL     1     100.935 104.858  94.786  1.00  0.00     0.004 A 
ATOM     10  C   UNL     1      99.627 105.040  92.755  1.00  0.00     0.004 A 
ENDBRANCH   2   4
ENDBRANCH   1   2
BRANCH   1  11
ATOM     11  C   UNL     1     102.529 102.958  92.246  1.00  0.00     0.028 C 
BRANCH  11  12
ATOM     12  C   UNL     1     103.739 103.524  92.946  1.00  0.00    -0.028 C 
ATOM     13  C   UNL     1     104.114 104.821  92.914  1.00  0.00    -0.080 C 
ATOM     14  C   UNL     1     103.363 105.859  92.111  1.00  0.00     0.039 C 
ATOM     15  C   UNL     1     105.346 105.229  93.681  1.00  0.00     0.039 C 
ENDBRANCH  11  12
ENDBRANCH   1  11
TORSDOF 4
ENDMDL
MODEL 2
REMARK VINA RESULT:    -3.411      1.412      2.422
REMARK INTER + INTRA:          -5.638
REMARK INTER:                  -4.387
REMARK INTRA:                  -1.251
REMARK UNBOUND:                -1.430
REMARK SMILES CC(C)=CCC[C@H](C)c1ccc(C)cc1
REMARK SMILES IDX 6 1 7 2 8 3 9 4 13 5 12 6 11 7 14 8 10 9 15 10 5 11 4 12
REMARK SMILES IDX 2 13 1 14 3 15
REMARK H PARENT
REMARK Flexibility Score: inf
ROOT
ATOM      1  C   UNL     1     100.834 104.293  94.164  1.00  0.00     0.012 C 
ENDROOT
BRANCH   1   2
ATOM      2  C   UNL     1     100.234 105.267  93.118  1.00  0.00     0.016 C 
ATOM      3  C   UNL     1     100.423 104.791  91.667  1.00  0.00     0.013 C 
BRANCH   2   4
ATOM      4  C   UNL     1     100.653 106.712  93.350  1.00  0.00    -0.045 A 
ATOM      5  C   UNL     1     101.874 110.828  93.848  1.00  0.00     0.044 C 
ATOM      6  C   UNL     1     101.431 109.408  93.650  1.00  0.00    -0.051 A 
ATOM      7  C   UNL     1     100.332 108.905  94.361  1.00  0.00     0.004 A 
ATOM      8  C   UNL     1     102.148 108.556  92.800  1.00  0.00     0.004 A 
ATOM      9  C   UNL     1      99.938 107.574  94.204  1.00  0.00     0.004 A 
ATOM     10  C   UNL     1     101.756 107.224  92.643  1.00  0.00     0.004 A 
ENDBRANCH   2   4
ENDBRANCH   1   2
BRANCH   1  11
ATOM     11  C   UNL     1     102.104 103.522  93.742  1.00  0.00     0.028 C 
BRANCH  11  12
ATOM     12  C   UNL     1     103.384 104.220  94.128  1.00  0.00    -0.028 C 
ATOM     13  C   UNL     1     104.314 104.666  93.255  1.00  0.00    -0.080 C 
ATOM     14  C   UNL     1     104.184 104.462  91.763  1.00  0.00     0.039 C 
ATOM     15  C   UNL     1     105.536 105.358  93.804  1.00  0.00     0.039 C 
ENDBRANCH  11  12
ENDBRANCH   1  11
TORSDOF 4
ENDMDL
MODEL 3
REMARK VINA RESULT:    -3.404      2.243      5.826
REMARK INTER + INTRA:          -5.630
REMARK INTER:                  -5.068
REMARK INTRA:                  -0.562
REMARK UNBOUND:                -1.430
REMARK SMILES CC(C)=CCC[C@H](C)c1ccc(C)cc1
REMARK SMILES IDX 6 1 7 2 8 3 9 4 13 5 12 6 11 7 14 8 10 9 15 10 5 11 4 12
REMARK SMILES IDX 2 13 1 14 3 15
REMARK H PARENT
REMARK Flexibility Score: inf
ROOT
ATOM      1  C   UNL     1     100.385 108.519  94.133  1.00  0.00     0.012 C 
ENDROOT
BRANCH   1   2
ATOM      2  C   UNL     1      99.580 107.683  93.105  1.00  0.00     0.016 C 
ATOM      3  C   UNL     1      98.113 108.128  92.977  1.00  0.00     0.013 C 
BRANCH   2   4
ATOM      4  C   UNL     1      99.752 106.183  93.302  1.00  0.00    -0.045 A 
ATOM      5  C   UNL     1     100.262 101.952  94.022  1.00  0.00     0.044 C 
ATOM      6  C   UNL     1     100.063 103.422  93.797  1.00  0.00    -0.051 A 
ATOM      7  C   UNL     1      99.090 103.874  92.895  1.00  0.00     0.004 A 
ATOM      8  C   UNL     1     100.889 104.353  94.441  1.00  0.00     0.004 A 
ATOM      9  C   UNL     1      98.926 105.240  92.657  1.00  0.00     0.004 A 
ATOM     10  C   UNL     1     100.727 105.721  94.205  1.00  0.00     0.004 A 
ENDBRANCH   2   4
ENDBRANCH   1   2
BRANCH   1  11
ATOM     11  C   UNL     1     101.409 109.520  93.558  1.00  0.00     0.028 C 
BRANCH  11  12
ATOM     12  C   UNL     1     100.780 110.788  93.035  1.00  0.00    -0.028 C 
ATOM     13  C   UNL     1     100.973 112.018  93.558  1.00  0.00    -0.080 C 
ATOM     14  C   UNL     1     101.825 112.250  94.785  1.00  0.00     0.039 C 
ATOM     15  C   UNL     1     100.279 113.188  92.908  1.00  0.00     0.039 C 
ENDBRANCH  11  12
ENDBRANCH   1  11
TORSDOF 4
ENDMDL
MODEL 4
REMARK VINA RESULT:    -3.398     11.970     14.744
REMARK INTER + INTRA:          -5.622
REMARK INTER:                  -4.517
REMARK INTRA:                  -1.105
REMARK UNBOUND:                -1.430
REMARK SMILES CC(C)=CCC[C@H](C)c1ccc(C)cc1
REMARK SMILES IDX 6 1 7 2 8 3 9 4 13 5 12 6 11 7 14 8 10 9 15 10 5 11 4 12
REMARK SMILES IDX 2 13 1 14 3 15
REMARK H PARENT
REMARK Flexibility Score: inf
ROOT
ATOM      1  C   UNL     1     114.145  96.950  98.827  1.00  0.00     0.012 C 
ENDROOT
BRANCH   1   2
ATOM      2  C   UNL     1     113.862  97.661  97.478  1.00  0.00     0.016 C 
ATOM      3  C   UNL     1     114.294  96.834  96.255  1.00  0.00     0.013 C 
BRANCH   2   4
ATOM      4  C   UNL     1     114.361  99.099  97.455  1.00  0.00    -0.045 A 
ATOM      5  C   UNL     1     115.702 103.207  97.531  1.00  0.00     0.044 C 
ATOM      6  C   UNL     1     115.247 101.778  97.536  1.00  0.00    -0.051 A 
ATOM      7  C   UNL     1     116.105 100.762  97.092  1.00  0.00     0.004 A 
ATOM      8  C   UNL     1     113.941 101.453  97.926  1.00  0.00     0.004 A 
ATOM      9  C   UNL     1     115.673  99.434  97.062  1.00  0.00     0.004 A 
ATOM     10  C   UNL     1     113.507 100.125  97.897  1.00  0.00     0.004 A 
ENDBRANCH   2   4
ENDBRANCH   1   2
BRANCH   1  11
ATOM     11  C   UNL     1     112.976  96.888  99.833  1.00  0.00     0.028 C 
BRANCH  11  12
ATOM     12  C   UNL     1     111.633  97.180  99.211  1.00  0.00    -0.028 C 
ATOM     13  C   UNL     1     110.828  98.208  99.558  1.00  0.00    -0.080 C 
ATOM     14  C   UNL     1     111.180  99.169 100.670  1.00  0.00     0.039 C 
ATOM     15  C   UNL     1     109.520  98.370  98.826  1.00  0.00     0.039 C 
ENDBRANCH  11  12
ENDBRANCH   1  11
TORSDOF 4
ENDMDL
MODEL 5
REMARK VINA RESULT:    -3.394     13.410     15.052
REMARK INTER + INTRA:          -5.617
REMARK INTER:                  -4.540
REMARK INTRA:                  -1.076
REMARK UNBOUND:                -1.430
REMARK SMILES CC(C)=CCC[C@H](C)c1ccc(C)cc1
REMARK SMILES IDX 6 1 7 2 8 3 9 4 13 5 12 6 11 7 14 8 10 9 15 10 5 11 4 12
REMARK SMILES IDX 2 13 1 14 3 15
REMARK H PARENT
REMARK Flexibility Score: inf
ROOT
ATOM      1  C   UNL     1     114.285  96.826  96.150  1.00  0.00     0.012 C 
ENDROOT
BRANCH   1   2
ATOM      2  C   UNL     1     114.437  96.427  97.640  1.00  0.00     0.016 C 
ATOM      3  C   UNL     1     115.268  95.148  97.845  1.00  0.00     0.013 C 
BRANCH   2   4
ATOM      4  C   UNL     1     113.110  96.424  98.386  1.00  0.00    -0.045 A 
ATOM      5  C   UNL     1     109.295  96.541 100.415  1.00  0.00     0.044 C 
ATOM      6  C   UNL     1     110.603  96.502  99.682  1.00  0.00    -0.051 A 
ATOM      7  C   UNL     1     111.184  95.273  99.337  1.00  0.00     0.004 A 
ATOM      8  C   UNL     1     111.286  97.691  99.389  1.00  0.00     0.004 A 
ATOM      9  C   UNL     1     112.418  95.232  98.685  1.00  0.00     0.004 A 
ATOM     10  C   UNL     1     112.521  97.652  98.738  1.00  0.00     0.004 A 
ENDBRANCH   2   4
ENDBRANCH   1   2
BRANCH   1  11
ATOM     11  C   UNL     1     114.660  98.277  95.781  1.00  0.00     0.028 C 
BRANCH  11  12
ATOM     12  C   UNL     1     115.516  98.957  96.820  1.00  0.00    -0.028 C 
ATOM     13  C   UNL     1     115.158 100.059  97.515  1.00  0.00    -0.080 C 
ATOM     14  C   UNL     1     113.845 100.771  97.279  1.00  0.00     0.039 C 
ATOM     15  C   UNL     1     116.125 100.609  98.532  1.00  0.00     0.039 C 
ENDBRANCH  11  12
ENDBRANCH   1  11
TORSDOF 4
ENDMDL
MODEL 6
REMARK VINA RESULT:    -3.388     11.456     14.190
REMARK INTER + INTRA:          -5.609
REMARK INTER:                  -4.361
REMARK INTRA:                  -1.248
REMARK UNBOUND:                -1.430
REMARK SMILES CC(C)=CCC[C@H](C)c1ccc(C)cc1
REMARK SMILES IDX 6 1 7 2 8 3 9 4 13 5 12 6 11 7 14 8 10 9 15 10 5 11 4 12
REMARK SMILES IDX 2 13 1 14 3 15
REMARK H PARENT
REMARK Flexibility Score: inf
ROOT
ATOM      1  C   UNL     1     114.421 101.177  97.479  1.00  0.00     0.012 C 
ENDROOT
BRANCH   1   2
ATOM      2  C   UNL     1     113.899 101.016  98.930  1.00  0.00     0.016 C 
ATOM      3  C   UNL     1     114.972 100.505  99.908  1.00  0.00     0.013 C 
BRANCH   2   4
ATOM      4  C   UNL     1     112.587 100.248  99.002  1.00  0.00    -0.045 A 
ATOM      5  C   UNL     1     108.807  98.152  99.078  1.00  0.00     0.044 C 
ATOM      6  C   UNL     1     110.121  98.874  99.019  1.00  0.00    -0.051 A 
ATOM      7  C   UNL     1     111.318  98.183  99.257  1.00  0.00     0.004 A 
ATOM      8  C   UNL     1     110.159 100.255  98.787  1.00  0.00     0.004 A 
ATOM      9  C   UNL     1     112.540  98.859  99.237  1.00  0.00     0.004 A 
ATOM     10  C   UNL     1     111.381 100.933  98.767  1.00  0.00     0.004 A 
ENDBRANCH   2   4
ENDBRANCH   1   2
BRANCH   1  11
ATOM     11  C   UNL     1     115.453 100.135  96.997  1.00  0.00     0.028 C 
BRANCH  11  12
ATOM     12  C   UNL     1     114.824  98.899  96.403  1.00  0.00    -0.028 C 
ATOM     13  C   UNL     1     114.954  97.650  96.901  1.00  0.00    -0.080 C 
ATOM     14  C   UNL     1     115.808  97.349  98.112  1.00  0.00     0.039 C 
ATOM     15  C   UNL     1     114.248  96.521  96.195  1.00  0.00     0.039 C 
ENDBRANCH  11  12
ENDBRANCH   1  11
TORSDOF 4
ENDMDL
MODEL 7
REMARK VINA RESULT:    -3.384      1.549      5.276
REMARK INTER + INTRA:          -5.605
REMARK INTER:                  -4.076
REMARK INTRA:                  -1.529
REMARK UNBOUND:                -1.430
REMARK SMILES CC(C)=CCC[C@H](C)c1ccc(C)cc1
REMARK SMILES IDX 6 1 7 2 8 3 9 4 13 5 12 6 11 7 14 8 10 9 15 10 5 11 4 12
REMARK SMILES IDX 2 13 1 14 3 15
REMARK H PARENT
REMARK Flexibility Score: inf
ROOT
ATOM      1  C   UNL     1      98.754 107.826  93.919  1.00  0.00     0.012 C 
ENDROOT
BRANCH   1   2
ATOM      2  C   UNL     1     100.262 108.017  94.227  1.00  0.00     0.016 C 
ATOM      3  C   UNL     1     100.848 109.301  93.616  1.00  0.00     0.013 C 
BRANCH   2   4
ATOM      4  C   UNL     1     101.084 106.769  93.941  1.00  0.00    -0.045 A 
ATOM      5  C   UNL     1     103.284 103.135  93.140  1.00  0.00     0.044 C 
ATOM      6  C   UNL     1     102.498 104.387  93.395  1.00  0.00    -0.051 A 
ATOM      7  C   UNL     1     102.785 105.560  92.683  1.00  0.00     0.004 A 
ATOM      8  C   UNL     1     101.511 104.412  94.390  1.00  0.00     0.004 A 
ATOM      9  C   UNL     1     102.079 106.737  92.942  1.00  0.00     0.004 A 
ATOM     10  C   UNL     1     100.804 105.588  94.652  1.00  0.00     0.004 A 
ENDBRANCH   2   4
ENDBRANCH   1   2
BRANCH   1  11
ATOM     11  C   UNL     1      98.398 107.309  92.508  1.00  0.00     0.028 C 
BRANCH  11  12
ATOM     12  C   UNL     1      97.681 105.983  92.520  1.00  0.00    -0.028 C 
ATOM     13  C   UNL     1      98.149 104.846  91.959  1.00  0.00    -0.080 C 
ATOM     14  C   UNL     1      99.456 104.800  91.199  1.00  0.00     0.039 C 
ATOM     15  C   UNL     1      97.314 103.596  92.071  1.00  0.00     0.039 C 
ENDBRANCH  11  12
ENDBRANCH   1  11
TORSDOF 4
ENDMDL
MODEL 8
REMARK VINA RESULT:    -3.378      3.304      6.513
REMARK INTER + INTRA:          -5.597
REMARK INTER:                  -4.653
REMARK INTRA:                  -0.944
REMARK UNBOUND:                -1.430
REMARK SMILES CC(C)=CCC[C@H](C)c1ccc(C)cc1
REMARK SMILES IDX 6 1 7 2 8 3 9 4 13 5 12 6 11 7 14 8 10 9 15 10 5 11 4 12
REMARK SMILES IDX 2 13 1 14 3 15
REMARK H PARENT
REMARK Flexibility Score: inf
ROOT
ATOM      1  C   UNL     1     100.672 109.750  92.980  1.00  0.00     0.012 C 
ENDROOT
BRANCH   1   2
ATOM      2  C   UNL     1     101.749 110.310  93.944  1.00  0.00     0.016 C 
ATOM      3  C   UNL     1     101.402 111.702  94.500  1.00  0.00     0.013 C 
BRANCH   2   4
ATOM      4  C   UNL     1     103.158 110.210  93.375  1.00  0.00    -0.045 A 
ATOM      5  C   UNL     1     107.093 109.869  91.620  1.00  0.00     0.044 C 
ATOM      6  C   UNL     1     105.717 110.003  92.202  1.00  0.00    -0.051 A 
ATOM      7  C   UNL     1     105.392 111.108  93.000  1.00  0.00     0.004 A 
ATOM      8  C   UNL     1     104.764 108.995  92.003  1.00  0.00     0.004 A 
ATOM      9  C   UNL     1     104.122 111.219  93.572  1.00  0.00     0.004 A 
ATOM     10  C   UNL     1     103.493 109.103  92.575  1.00  0.00     0.004 A 
ENDBRANCH   2   4
ENDBRANCH   1   2
BRANCH   1  11
ATOM     11  C   UNL     1      99.680 108.727  93.573  1.00  0.00     0.028 C 
BRANCH  11  12
ATOM     12  C   UNL     1     100.349 107.639  94.376  1.00  0.00    -0.028 C 
ATOM     13  C   UNL     1     100.747 106.448  93.881  1.00  0.00    -0.080 C 
ATOM     14  C   UNL     1     100.514 106.053  92.440  1.00  0.00     0.039 C 
ATOM     15  C   UNL     1     101.416 105.472  94.816  1.00  0.00     0.039 C 
ENDBRANCH  11  12
ENDBRANCH   1  11
TORSDOF 4
ENDMDL
MODEL 9
REMARK VINA RESULT:    -3.335      9.557     11.870
REMARK INTER + INTRA:          -5.544
REMARK INTER:                  -4.085
REMARK INTRA:                  -1.459
REMARK UNBOUND:                -1.430
REMARK SMILES CC(C)=CCC[C@H](C)c1ccc(C)cc1
REMARK SMILES IDX 6 1 7 2 8 3 9 4 13 5 12 6 11 7 14 8 10 9 15 10 5 11 4 12
REMARK SMILES IDX 2 13 1 14 3 15
REMARK H PARENT
REMARK Flexibility Score: inf
ROOT
ATOM      1  C   UNL     1     105.222  99.876 100.748  1.00  0.00     0.012 C 
ENDROOT
BRANCH   1   2
ATOM      2  C   UNL     1     106.391 100.852 100.459  1.00  0.00     0.016 C 
ATOM      3  C   UNL     1     106.039 101.927  99.416  1.00  0.00     0.013 C 
BRANCH   2   4
ATOM      4  C   UNL     1     107.704 100.134 100.181  1.00  0.00    -0.045 A 
ATOM      5  C   UNL     1     111.426  98.149  99.239  1.00  0.00     0.044 C 
ATOM      6  C   UNL     1     110.146  98.865  99.552  1.00  0.00    -0.051 A 
ATOM      7  C   UNL     1     109.979  99.507 100.788  1.00  0.00     0.004 A 
ATOM      8  C   UNL     1     109.084  98.848  98.638  1.00  0.00     0.004 A 
ATOM      9  C   UNL     1     108.776 100.146 101.096  1.00  0.00     0.004 A 
ATOM     10  C   UNL     1     107.879  99.485  98.945  1.00  0.00     0.004 A 
ENDBRANCH   2   4
ENDBRANCH   1   2
BRANCH   1  11
ATOM     11  C   UNL     1     105.566  98.609 101.561  1.00  0.00     0.028 C 
BRANCH  11  12
ATOM     12  C   UNL     1     105.407  97.331 100.775  1.00  0.00    -0.028 C 
ATOM     13  C   UNL     1     106.356  96.378 100.651  1.00  0.00    -0.080 C 
ATOM     14  C   UNL     1     107.730  96.521 101.264  1.00  0.00     0.039 C 
ATOM     15  C   UNL     1     106.032  95.149  99.839  1.00  0.00     0.039 C 
ENDBRANCH  11  12
ENDBRANCH   1  11
TORSDOF 4
ENDMDL
