MODEL 1
REMARK VINA RESULT:    -2.246      0.000      0.000
REMARK INTER + INTRA:          -6.008
REMARK INTER:                  -4.084
REMARK INTRA:                  -1.924
REMARK UNBOUND:                -1.924
REMARK SMILES CCCCCCCCCCCCCC[C@@H](C)C(=O)[O-]
REMARK SMILES IDX 9 1 10 2 11 3 12 4 13 5 14 6 15 7 16 8 17 9 18 10 19 11 8 12
REMARK SMILES IDX 7 13 6 14 5 15 4 16 3 17 2 18 1 19
REMARK H PARENT
REMARK Flexibility Score: inf
ROOT
ATOM      1  C   UNL     1      -6.625 -10.122  -8.042  1.00  0.00     0.000 C 
ENDROOT
BRANCH   1   2
ATOM      2  C   UNL     1      -7.587 -10.080  -9.243  1.00  0.00     0.000 C 
BRANCH   2   3
ATOM      3  C   UNL     1      -7.814  -8.655  -9.772  1.00  0.00     0.000 C 
BRANCH   3   4
ATOM      4  C   UNL     1      -9.302  -8.327  -9.969  1.00  0.00     0.000 C 
BRANCH   4   5
ATOM      5  C   UNL     1      -9.920  -7.786  -8.674  1.00  0.00     0.001 C 
BRANCH   5   6
ATOM      6  C   UNL     1      -9.192  -6.513  -8.209  1.00  0.00     0.009 C 
BRANCH   6   7
ATOM      7  C   UNL     1     -10.125  -5.400  -7.681  1.00  0.00     0.032 C 
ATOM      8  C   UNL     1      -9.988  -5.178  -6.168  1.00  0.00     0.014 C 
BRANCH   7   9
ATOM      9  C   UNL     1      -9.955  -4.118  -8.455  1.00  0.00     0.044 C 
ATOM     10  O   UNL     1      -9.849  -3.012  -7.861  1.00  0.00    -0.550 OA
ATOM     11  O   UNL     1      -9.863  -4.158  -9.841  1.00  0.00    -0.550 OA
ENDBRANCH   7   9
ENDBRANCH   6   7
ENDBRANCH   5   6
ENDBRANCH   4   5
ENDBRANCH   3   4
ENDBRANCH   2   3
ENDBRANCH   1   2
BRANCH   1  12
ATOM     12  C   UNL     1      -7.378 -10.117  -6.695  1.00  0.00     0.000 C 
BRANCH  12  13
ATOM     13  C   UNL     1      -7.527  -8.716  -6.077  1.00  0.00    -0.000 C 
BRANCH  13  14
ATOM     14  C   UNL     1      -6.180  -8.107  -5.653  1.00  0.00    -0.000 C 
BRANCH  14  15
ATOM     15  C   UNL     1      -5.944  -6.703  -6.241  1.00  0.00    -0.000 C 
BRANCH  15  16
ATOM     16  C   UNL     1      -4.814  -6.610  -7.283  1.00  0.00    -0.000 C 
BRANCH  16  17
ATOM     17  C   UNL     1      -4.335  -7.984  -7.773  1.00  0.00    -0.000 C 
BRANCH  17  18
ATOM     18  C   UNL     1      -3.549  -7.855  -9.083  1.00  0.00    -0.003 C 
ATOM     19  C   UNL     1      -3.801  -9.051  -9.998  1.00  0.00     0.004 C 
ENDBRANCH  17  18
ENDBRANCH  16  17
ENDBRANCH  15  16
ENDBRANCH  14  15
ENDBRANCH  13  14
ENDBRANCH  12  13
ENDBRANCH   1  12
TORSDOF 14
ENDMDL
MODEL 2
REMARK VINA RESULT:    -1.881      1.862      5.137
REMARK INTER + INTRA:          -5.344
REMARK INTER:                  -4.208
REMARK INTRA:                  -1.136
REMARK UNBOUND:                -1.924
REMARK SMILES CCCCCCCCCCCCCC[C@@H](C)C(=O)[O-]
REMARK SMILES IDX 9 1 10 2 11 3 12 4 13 5 14 6 15 7 16 8 17 9 18 10 19 11 8 12
REMARK SMILES IDX 7 13 6 14 5 15 4 16 3 17 2 18 1 19
REMARK H PARENT
REMARK Flexibility Score: inf
ROOT
ATOM      1  C   UNL     1      -5.405  -6.212  -7.638  1.00  0.00     0.000 C 
ENDROOT
BRANCH   1   2
ATOM      2  C   UNL     1      -4.665  -7.514  -7.281  1.00  0.00     0.000 C 
BRANCH   2   3
ATOM      3  C   UNL     1      -3.724  -7.988  -8.399  1.00  0.00     0.000 C 
BRANCH   3   4
ATOM      4  C   UNL     1      -4.480  -8.456  -9.651  1.00  0.00     0.000 C 
BRANCH   4   5
ATOM      5  C   UNL     1      -4.927  -9.915  -9.509  1.00  0.00     0.001 C 
BRANCH   5   6
ATOM      6  C   UNL     1      -6.322 -10.124 -10.125  1.00  0.00     0.009 C 
BRANCH   6   7
ATOM      7  C   UNL     1      -7.492  -9.952  -9.129  1.00  0.00     0.032 C 
ATOM      8  C   UNL     1      -7.029  -9.953  -7.665  1.00  0.00     0.014 C 
BRANCH   7   9
ATOM      9  C   UNL     1      -8.326  -8.741  -9.455  1.00  0.00     0.044 C 
ATOM     10  O   UNL     1      -9.583  -8.780  -9.378  1.00  0.00    -0.550 OA
ATOM     11  O   UNL     1      -7.702  -7.547  -9.794  1.00  0.00    -0.550 OA
ENDBRANCH   7   9
ENDBRANCH   6   7
ENDBRANCH   5   6
ENDBRANCH   4   5
ENDBRANCH   3   4
ENDBRANCH   2   3
ENDBRANCH   1   2
BRANCH   1  12
ATOM     12  C   UNL     1      -6.859  -6.209  -7.118  1.00  0.00     0.000 C 
BRANCH  12  13
ATOM     13  C   UNL     1      -7.141  -7.299  -6.070  1.00  0.00    -0.000 C 
BRANCH  13  14
ATOM     14  C   UNL     1      -8.583  -7.254  -5.537  1.00  0.00    -0.000 C 
BRANCH  14  15
ATOM     15  C   UNL     1      -9.566  -6.592  -6.520  1.00  0.00    -0.000 C 
BRANCH  15  16
ATOM     16  C   UNL     1      -9.847  -5.100  -6.261  1.00  0.00    -0.000 C 
BRANCH  16  17
ATOM     17  C   UNL     1      -9.549  -4.213  -7.479  1.00  0.00    -0.000 C 
BRANCH  17  18
ATOM     18  C   UNL     1     -10.124  -4.827  -8.760  1.00  0.00    -0.003 C 
ATOM     19  C   UNL     1     -10.120  -3.820  -9.906  1.00  0.00     0.004 C 
ENDBRANCH  17  18
ENDBRANCH  16  17
ENDBRANCH  15  16
ENDBRANCH  14  15
ENDBRANCH  13  14
ENDBRANCH  12  13
ENDBRANCH   1  12
TORSDOF 14
ENDMDL
MODEL 3
REMARK VINA RESULT:    -1.793      3.176      6.169
REMARK INTER + INTRA:          -5.185
REMARK INTER:                  -3.439
REMARK INTRA:                  -1.746
REMARK UNBOUND:                -1.924
REMARK SMILES CCCCCCCCCCCCCC[C@@H](C)C(=O)[O-]
REMARK SMILES IDX 9 1 10 2 11 3 12 4 13 5 14 6 15 7 16 8 17 9 18 10 19 11 8 12
REMARK SMILES IDX 7 13 6 14 5 15 4 16 3 17 2 18 1 19
REMARK H PARENT
REMARK Flexibility Score: inf
ROOT
ATOM      1  C   UNL     1      -5.406  -6.182  -6.931  1.00  0.00     0.000 C 
ENDROOT
BRANCH   1   2
ATOM      2  C   UNL     1      -5.401  -7.099  -5.694  1.00  0.00     0.000 C 
BRANCH   2   3
ATOM      3  C   UNL     1      -5.663  -8.572  -6.045  1.00  0.00     0.000 C 
BRANCH   3   4
ATOM      4  C   UNL     1      -4.411  -9.449  -5.891  1.00  0.00     0.000 C 
BRANCH   4   5
ATOM      5  C   UNL     1      -3.997 -10.057  -7.236  1.00  0.00     0.001 C 
BRANCH   5   6
ATOM      6  C   UNL     1      -5.188 -10.093  -8.211  1.00  0.00     0.009 C 
BRANCH   6   7
ATOM      7  C   UNL     1      -4.861  -9.596  -9.637  1.00  0.00     0.032 C 
ATOM      8  C   UNL     1      -5.781  -8.453 -10.091  1.00  0.00     0.014 C 
BRANCH   7   9
ATOM      9  C   UNL     1      -3.405  -9.237  -9.782  1.00  0.00     0.044 C 
ATOM     10  O   UNL     1      -2.538 -10.125  -9.999  1.00  0.00    -0.550 OA
ATOM     11  O   UNL     1      -3.016  -7.904  -9.728  1.00  0.00    -0.550 OA
ENDBRANCH   7   9
ENDBRANCH   6   7
ENDBRANCH   5   6
ENDBRANCH   4   5
ENDBRANCH   3   4
ENDBRANCH   2   3
ENDBRANCH   1   2
BRANCH   1  12
ATOM     12  C   UNL     1      -6.731  -6.279  -7.718  1.00  0.00     0.000 C 
BRANCH  12  13
ATOM     13  C   UNL     1      -7.984  -6.143  -6.836  1.00  0.00    -0.000 C 
BRANCH  13  14
ATOM     14  C   UNL     1      -9.274  -6.554  -7.566  1.00  0.00    -0.000 C 
BRANCH  14  15
ATOM     15  C   UNL     1      -9.095  -7.808  -8.441  1.00  0.00    -0.000 C 
BRANCH  15  16
ATOM     16  C   UNL     1     -10.124  -8.929  -8.200  1.00  0.00    -0.000 C 
BRANCH  16  17
ATOM     17  C   UNL     1     -10.102  -9.465  -6.761  1.00  0.00    -0.000 C 
BRANCH  17  18
ATOM     18  C   UNL     1      -8.708  -9.983  -6.390  1.00  0.00    -0.003 C 
ATOM     19  C   UNL     1      -8.504  -9.984  -4.877  1.00  0.00     0.004 C 
ENDBRANCH  17  18
ENDBRANCH  16  17
ENDBRANCH  15  16
ENDBRANCH  14  15
ENDBRANCH  13  14
ENDBRANCH  12  13
ENDBRANCH   1  12
TORSDOF 14
ENDMDL
MODEL 4
REMARK VINA RESULT:    -1.375      1.551      4.155
REMARK INTER + INTRA:          -4.425
REMARK INTER:                  -3.603
REMARK INTRA:                  -0.822
REMARK UNBOUND:                -1.924
REMARK SMILES CCCCCCCCCCCCCC[C@@H](C)C(=O)[O-]
REMARK SMILES IDX 9 1 10 2 11 3 12 4 13 5 14 6 15 7 16 8 17 9 18 10 19 11 8 12
REMARK SMILES IDX 7 13 6 14 5 15 4 16 3 17 2 18 1 19
REMARK H PARENT
REMARK Flexibility Score: inf
ROOT
ATOM      1  C   UNL     1      -4.220  -7.071  -7.745  1.00  0.00     0.000 C 
ENDROOT
BRANCH   1   2
ATOM      2  C   UNL     1      -4.958  -7.549  -6.481  1.00  0.00     0.000 C 
BRANCH   2   3
ATOM      3  C   UNL     1      -6.485  -7.432  -6.606  1.00  0.00     0.000 C 
BRANCH   3   4
ATOM      4  C   UNL     1      -6.917  -6.316  -7.569  1.00  0.00     0.000 C 
BRANCH   4   5
ATOM      5  C   UNL     1      -7.924  -6.840  -8.599  1.00  0.00     0.001 C 
BRANCH   5   6
ATOM      6  C   UNL     1      -9.331  -6.280  -8.326  1.00  0.00     0.009 C 
BRANCH   6   7
ATOM      7  C   UNL     1      -9.350  -4.820  -7.820  1.00  0.00     0.032 C 
ATOM      8  C   UNL     1     -10.111  -3.875  -8.763  1.00  0.00     0.014 C 
BRANCH   7   9
ATOM      9  C   UNL     1      -9.855  -4.727  -6.404  1.00  0.00     0.044 C 
ATOM     10  O   UNL     1     -10.111  -5.765  -5.737  1.00  0.00    -0.550 OA
ATOM     11  O   UNL     1      -9.992  -3.482  -5.803  1.00  0.00    -0.550 OA
ENDBRANCH   7   9
ENDBRANCH   6   7
ENDBRANCH   5   6
ENDBRANCH   4   5
ENDBRANCH   3   4
ENDBRANCH   2   3
ENDBRANCH   1   2
BRANCH   1  12
ATOM     12  C   UNL     1      -3.954  -8.227  -8.733  1.00  0.00     0.000 C 
BRANCH  12  13
ATOM     13  C   UNL     1      -4.769  -8.126 -10.033  1.00  0.00    -0.000 C 
BRANCH  13  14
ATOM     14  C   UNL     1      -6.204  -8.658  -9.880  1.00  0.00    -0.000 C 
BRANCH  14  15
ATOM     15  C   UNL     1      -6.269  -9.999  -9.126  1.00  0.00    -0.000 C 
BRANCH  15  16
ATOM     16  C   UNL     1      -7.397 -10.111  -8.083  1.00  0.00    -0.000 C 
BRANCH  16  17
ATOM     17  C   UNL     1      -8.795  -9.916  -8.688  1.00  0.00    -0.000 C 
BRANCH  17  18
ATOM     18  C   UNL     1      -9.865  -9.860  -7.591  1.00  0.00    -0.003 C 
ATOM     19  C   UNL     1      -9.230  -9.799  -6.204  1.00  0.00     0.004 C 
ENDBRANCH  17  18
ENDBRANCH  16  17
ENDBRANCH  15  16
ENDBRANCH  14  15
ENDBRANCH  13  14
ENDBRANCH  12  13
ENDBRANCH   1  12
TORSDOF 14
ENDMDL
MODEL 5
REMARK VINA RESULT:    -1.319      1.485      3.200
REMARK INTER + INTRA:          -4.323
REMARK INTER:                  -3.742
REMARK INTRA:                  -0.581
REMARK UNBOUND:                -1.924
REMARK SMILES CCCCCCCCCCCCCC[C@@H](C)C(=O)[O-]
REMARK SMILES IDX 9 1 10 2 11 3 12 4 13 5 14 6 15 7 16 8 17 9 18 10 19 11 8 12
REMARK SMILES IDX 7 13 6 14 5 15 4 16 3 17 2 18 1 19
REMARK H PARENT
REMARK Flexibility Score: inf
ROOT
ATOM      1  C   UNL     1      -5.980  -8.414  -8.013  1.00  0.00     0.000 C 
ENDROOT
BRANCH   1   2
ATOM      2  C   UNL     1      -5.842  -8.800  -9.498  1.00  0.00     0.000 C 
BRANCH   2   3
ATOM      3  C   UNL     1      -7.076  -9.540 -10.037  1.00  0.00     0.000 C 
BRANCH   3   4
ATOM      4  C   UNL     1      -8.320  -8.641 -10.111  1.00  0.00     0.000 C 
BRANCH   4   5
ATOM      5  C   UNL     1      -8.926  -8.428  -8.719  1.00  0.00     0.001 C 
BRANCH   5   6
ATOM      6  C   UNL     1     -10.097  -7.431  -8.778  1.00  0.00     0.009 C 
BRANCH   6   7
ATOM      7  C   UNL     1      -9.984  -6.254  -7.783  1.00  0.00     0.032 C 
ATOM      8  C   UNL     1      -8.847  -6.443  -6.766  1.00  0.00     0.014 C 
BRANCH   7   9
ATOM      9  C   UNL     1      -9.886  -4.930  -8.495  1.00  0.00     0.044 C 
ATOM     10  O   UNL     1      -9.849  -3.848  -7.850  1.00  0.00    -0.550 OA
ATOM     11  O   UNL     1      -9.784  -4.900  -9.880  1.00  0.00    -0.550 OA
ENDBRANCH   7   9
ENDBRANCH   6   7
ENDBRANCH   5   6
ENDBRANCH   4   5
ENDBRANCH   3   4
ENDBRANCH   2   3
ENDBRANCH   1   2
BRANCH   1  12
ATOM     12  C   UNL     1      -4.903  -7.399  -7.575  1.00  0.00     0.000 C 
BRANCH  12  13
ATOM     13  C   UNL     1      -3.566  -8.050  -7.179  1.00  0.00    -0.000 C 
BRANCH  13  14
ATOM     14  C   UNL     1      -3.645  -9.584  -7.122  1.00  0.00    -0.000 C 
BRANCH  14  15
ATOM     15  C   UNL     1      -3.927 -10.119  -5.706  1.00  0.00    -0.000 C 
BRANCH  15  16
ATOM     16  C   UNL     1      -5.059  -9.402  -4.947  1.00  0.00    -0.000 C 
BRANCH  16  17
ATOM     17  C   UNL     1      -6.409 -10.125  -5.059  1.00  0.00    -0.000 C 
BRANCH  17  18
ATOM     18  C   UNL     1      -7.570  -9.124  -5.042  1.00  0.00    -0.003 C 
ATOM     19  C   UNL     1      -8.913  -9.839  -4.919  1.00  0.00     0.004 C 
ENDBRANCH  17  18
ENDBRANCH  16  17
ENDBRANCH  15  16
ENDBRANCH  14  15
ENDBRANCH  13  14
ENDBRANCH  12  13
ENDBRANCH   1  12
TORSDOF 14
ENDMDL
MODEL 6
REMARK VINA RESULT:    -0.472      2.519      5.434
REMARK INTER + INTRA:          -2.782
REMARK INTER:                  -2.856
REMARK INTRA:                   0.074
REMARK UNBOUND:                -1.924
REMARK SMILES CCCCCCCCCCCCCC[C@@H](C)C(=O)[O-]
REMARK SMILES IDX 9 1 10 2 11 3 12 4 13 5 14 6 15 7 16 8 17 9 18 10 19 11 8 12
REMARK SMILES IDX 7 13 6 14 5 15 4 16 3 17 2 18 1 19
REMARK H PARENT
REMARK Flexibility Score: inf
ROOT
ATOM      1  C   UNL     1      -4.623  -6.196  -7.353  1.00  0.00     0.000 C 
ENDROOT
BRANCH   1   2
ATOM      2  C   UNL     1      -5.954  -5.736  -6.730  1.00  0.00     0.000 C 
BRANCH   2   3
ATOM      3  C   UNL     1      -6.965  -6.883  -6.574  1.00  0.00     0.000 C 
BRANCH   3   4
ATOM      4  C   UNL     1      -6.903  -7.543  -5.188  1.00  0.00     0.000 C 
BRANCH   4   5
ATOM      5  C   UNL     1      -6.536  -9.027  -5.303  1.00  0.00     0.001 C 
BRANCH   5   6
ATOM      6  C   UNL     1      -7.595  -9.908  -4.616  1.00  0.00     0.009 C 
BRANCH   6   7
ATOM      7  C   UNL     1      -8.892 -10.103  -5.433  1.00  0.00     0.032 C 
ATOM      8  C   UNL     1     -10.007  -9.131  -5.017  1.00  0.00     0.014 C 
BRANCH   7   9
ATOM      9  C   UNL     1      -8.628 -10.055  -6.916  1.00  0.00     0.044 C 
ATOM     10  O   UNL     1      -7.454 -10.125  -7.368  1.00  0.00    -0.550 OA
ATOM     11  O   UNL     1      -9.696  -9.984  -7.802  1.00  0.00    -0.550 OA
ENDBRANCH   7   9
ENDBRANCH   6   7
ENDBRANCH   5   6
ENDBRANCH   4   5
ENDBRANCH   3   4
ENDBRANCH   2   3
ENDBRANCH   1   2
BRANCH   1  12
ATOM     12  C   UNL     1      -4.824  -7.343  -8.367  1.00  0.00     0.000 C 
BRANCH  12  13
ATOM     13  C   UNL     1      -5.889  -7.043  -9.435  1.00  0.00    -0.000 C 
BRANCH  13  14
ATOM     14  C   UNL     1      -6.469  -8.316 -10.074  1.00  0.00    -0.000 C 
BRANCH  14  15
ATOM     15  C   UNL     1      -8.006  -8.376 -10.004  1.00  0.00    -0.000 C 
BRANCH  15  16
ATOM     16  C   UNL     1      -8.721  -7.015 -10.093  1.00  0.00    -0.000 C 
BRANCH  16  17
ATOM     17  C   UNL     1      -9.380  -6.596  -8.771  1.00  0.00    -0.000 C 
BRANCH  17  18
ATOM     18  C   UNL     1      -9.886  -5.151  -8.844  1.00  0.00    -0.003 C 
ATOM     19  C   UNL     1      -9.967  -4.523  -7.455  1.00  0.00     0.004 C 
ENDBRANCH  17  18
ENDBRANCH  16  17
ENDBRANCH  15  16
ENDBRANCH  14  15
ENDBRANCH  13  14
ENDBRANCH  12  13
ENDBRANCH   1  12
TORSDOF 14
ENDMDL
MODEL 7
REMARK VINA RESULT:     0.257      1.934      4.926
REMARK INTER + INTRA:          -1.457
REMARK INTER:                  -1.282
REMARK INTRA:                  -0.175
REMARK UNBOUND:                -1.924
REMARK SMILES CCCCCCCCCCCCCC[C@@H](C)C(=O)[O-]
REMARK SMILES IDX 9 1 10 2 11 3 12 4 13 5 14 6 15 7 16 8 17 9 18 10 19 11 8 12
REMARK SMILES IDX 7 13 6 14 5 15 4 16 3 17 2 18 1 19
REMARK H PARENT
REMARK Flexibility Score: inf
ROOT
ATOM      1  C   UNL     1      -5.337  -6.532  -6.901  1.00  0.00     0.000 C 
ENDROOT
BRANCH   1   2
ATOM      2  C   UNL     1      -4.064  -7.194  -7.460  1.00  0.00     0.000 C 
BRANCH   2   3
ATOM      3  C   UNL     1      -4.333  -8.580  -8.067  1.00  0.00     0.000 C 
BRANCH   3   4
ATOM      4  C   UNL     1      -4.828  -8.505  -9.519  1.00  0.00     0.000 C 
BRANCH   4   5
ATOM      5  C   UNL     1      -5.437  -9.842  -9.960  1.00  0.00     0.001 C 
BRANCH   5   6
ATOM      6  C   UNL     1      -6.964  -9.727 -10.110  1.00  0.00     0.009 C 
BRANCH   6   7
ATOM      7  C   UNL     1      -7.562  -8.412  -9.560  1.00  0.00     0.032 C 
ATOM      8  C   UNL     1      -6.869  -7.163 -10.125  1.00  0.00     0.014 C 
BRANCH   7   9
ATOM      9  C   UNL     1      -9.056  -8.359  -9.746  1.00  0.00     0.044 C 
ATOM     10  O   UNL     1      -9.709  -9.394 -10.046  1.00  0.00    -0.550 OA
ATOM     11  O   UNL     1      -9.733  -7.165  -9.534  1.00  0.00    -0.550 OA
ENDBRANCH   7   9
ENDBRANCH   6   7
ENDBRANCH   5   6
ENDBRANCH   4   5
ENDBRANCH   3   4
ENDBRANCH   2   3
ENDBRANCH   1   2
BRANCH   1  12
ATOM     12  C   UNL     1      -6.429  -7.570  -6.564  1.00  0.00     0.000 C 
BRANCH  12  13
ATOM     13  C   UNL     1      -6.017  -8.565  -5.467  1.00  0.00    -0.000 C 
BRANCH  13  14
ATOM     14  C   UNL     1      -7.179  -9.462  -5.008  1.00  0.00    -0.000 C 
BRANCH  14  15
ATOM     15  C   UNL     1      -8.024  -9.995  -6.180  1.00  0.00    -0.000 C 
BRANCH  15  16
ATOM     16  C   UNL     1      -9.540 -10.065  -5.917  1.00  0.00    -0.000 C 
BRANCH  16  17
ATOM     17  C   UNL     1     -10.109  -8.764  -5.334  1.00  0.00    -0.000 C 
BRANCH  17  18
ATOM     18  C   UNL     1     -10.123  -7.650  -6.387  1.00  0.00    -0.003 C 
ATOM     19  C   UNL     1      -9.864  -6.287  -5.753  1.00  0.00     0.004 C 
ENDBRANCH  17  18
ENDBRANCH  16  17
ENDBRANCH  15  16
ENDBRANCH  14  15
ENDBRANCH  13  14
ENDBRANCH  12  13
ENDBRANCH   1  12
TORSDOF 14
ENDMDL
