MODEL 1
REMARK VINA RESULT:     2.996      0.000      0.000
REMARK INTER + INTRA:           9.624
REMARK INTER:                   4.222
REMARK INTRA:                   5.402
REMARK UNBOUND:                 5.402
REMARK SMILES CC1=CCC(=C(C)C)C(=O)CC(C)=CCC1
REMARK SMILES IDX 12 1 14 2 13 3 15 4 16 5 2 6 1 7 3 8 11 10 9 11 10 12 5 13
REMARK SMILES IDX 6 14 7 15 8 16 4 17
REMARK H PARENT
REMARK Flexibility Score: 60.00
ROOT
ATOM      1  C   UNL     1     -10.308 -21.219  24.642  1.00  0.00    -0.070 C 
ATOM      2  C   UNL     1      -9.042 -21.372  25.127  1.00  0.00    -0.027 C 
ATOM      3  C   UNL     1     -10.980 -19.892  24.912  1.00  0.00     0.039 C 
ENDROOT
BRANCH   2   4
ATOM      4  C   UNL     1      -8.048 -22.521  25.007  1.00  0.00     0.032 C 
BRANCH   4   5
ATOM      5  C   UNL     1      -8.559 -23.930  25.330  1.00  0.00     0.034 C 
BRANCH   5   6
ATOM      6  C   UNL     1     -10.073 -24.183  25.287  1.00  0.00    -0.077 C 
ATOM      7  C   UNL     1     -10.842 -23.732  26.510  1.00  0.00     0.039 C 
ATOM      8  C   UNL     1     -10.832 -24.681  24.266  1.00  0.00    -0.023 CG0
ATOM      9  G   UNL     1     -10.441 -25.171  22.885  1.00  0.00     0.000 G0
ENDBRANCH   5   6
ENDBRANCH   4   5
ENDBRANCH   2   4
BRANCH   1  10
ATOM     10  C   UNL     1     -11.117 -22.245  23.864  1.00  0.00     0.111 C 
BRANCH  10  11
ATOM     11  C   UNL     1     -10.502 -22.544  22.530  1.00  0.00     0.163 C 
ATOM     12  O   UNL     1     -10.603 -21.691  21.606  1.00  0.00    -0.294 OA
BRANCH  11  13
ATOM     13  C   UNL     1      -9.748 -23.804  22.306  1.00  0.00    -0.002 C 
ATOM     14  C   UNL     1      -8.563 -23.815  21.627  1.00  0.00    -0.069 C 
ATOM     15  C   UNL     1      -8.030 -22.563  20.968  1.00  0.00     0.039 C 
ATOM     16  C   UNL     1      -7.741 -25.076  21.490  1.00  0.00     0.039 C 
BRANCH  13  17
ATOM     17  C   UNL     1     -10.363 -25.059  22.888  1.00  0.00     0.066 CG0
ATOM     18  G   UNL     1     -10.878 -24.839  24.298  1.00  0.00     0.000 G0
ENDBRANCH  13  17
ENDBRANCH  11  13
ENDBRANCH  10  11
ENDBRANCH   1  10
TORSDOF 0
ENDMDL
MODEL 2
REMARK VINA RESULT:     5.825      2.356      4.337
REMARK INTER + INTRA:          13.610
REMARK INTER:                  12.073
REMARK INTRA:                   1.537
REMARK UNBOUND:                 5.402
REMARK SMILES CC1=CCC(=C(C)C)C(=O)CC(C)=CCC1
REMARK SMILES IDX 12 1 14 2 13 3 15 4 16 5 2 6 1 7 3 8 11 10 9 11 10 12 5 13
REMARK SMILES IDX 6 14 7 15 8 16 4 17
REMARK H PARENT
REMARK Flexibility Score: 60.00
ROOT
ATOM      1  C   UNL     1     -10.008 -23.651  24.253  1.00  0.00    -0.070 C 
ATOM      2  C   UNL     1     -10.671 -24.342  23.282  1.00  0.00    -0.027 C 
ATOM      3  C   UNL     1     -10.834 -23.160  25.419  1.00  0.00     0.039 C 
ENDROOT
BRANCH   2   4
ATOM      4  C   UNL     1     -10.177 -25.026  22.013  1.00  0.00     0.032 C 
BRANCH   4   5
ATOM      5  C   UNL     1      -8.679 -24.929  21.700  1.00  0.00     0.034 C 
BRANCH   5   6
ATOM      6  C   UNL     1      -8.245 -24.163  20.442  1.00  0.00    -0.077 C 
ATOM      7  C   UNL     1      -8.610 -24.815  19.127  1.00  0.00     0.039 C 
ATOM      8  C   UNL     1      -7.652 -22.936  20.346  1.00  0.00    -0.023 CG0
ATOM      9  G   UNL     1      -7.202 -21.963  21.419  1.00  0.00     0.000 G0
ENDBRANCH   5   6
ENDBRANCH   4   5
ENDBRANCH   2   4
BRANCH   1  10
ATOM     10  C   UNL     1      -8.525 -23.315  24.281  1.00  0.00     0.111 C 
BRANCH  10  11
ATOM     11  C   UNL     1      -8.249 -21.958  23.706  1.00  0.00     0.163 C 
ATOM     12  O   UNL     1      -7.883 -21.031  24.478  1.00  0.00    -0.294 OA
BRANCH  11  13
ATOM     13  C   UNL     1      -8.360 -21.715  22.245  1.00  0.00    -0.002 C 
ATOM     14  C   UNL     1      -9.492 -21.188  21.694  1.00  0.00    -0.069 C 
ATOM     15  C   UNL     1     -10.727 -20.943  22.531  1.00  0.00     0.039 C 
ATOM     16  C   UNL     1      -9.570 -20.840  20.225  1.00  0.00     0.039 C 
BRANCH  13  17
ATOM     17  C   UNL     1      -7.142 -22.070  21.418  1.00  0.00     0.066 CG0
ATOM     18  G   UNL     1      -7.504 -22.893  20.197  1.00  0.00     0.000 G0
ENDBRANCH  13  17
ENDBRANCH  11  13
ENDBRANCH  10  11
ENDBRANCH   1  10
TORSDOF 0
ENDMDL
