MODEL 1
REMARK VINA RESULT:    -3.391      0.000      0.000
REMARK INTER + INTRA:          -3.613
REMARK INTER:                  -3.590
REMARK INTRA:                  -0.024
REMARK UNBOUND:                -0.024
REMARK SMILES O=C([O-])c1cccnc1
REMARK SMILES IDX 4 1 5 2 9 3 6 4 8 5 7 6 2 7 1 8 3 9
REMARK H PARENT
REMARK Flexibility Score: inf
ROOT
ATOM      1  C   UNL     1     -27.154 -17.481  12.389  1.00  0.00     0.016 A 
ATOM      2  C   UNL     1     -27.949 -18.624  12.572  1.00  0.00     0.013 A 
ATOM      3  C   UNL     1     -26.253 -17.125  13.409  1.00  0.00     0.120 A 
ATOM      4  C   UNL     1     -27.837 -19.377  13.742  1.00  0.00     0.021 A 
ATOM      5  N   UNL     1     -26.164 -17.876  14.539  1.00  0.00    -0.264 NA
ATOM      6  C   UNL     1     -26.929 -18.983  14.725  1.00  0.00     0.111 A 
ENDROOT
BRANCH   1   7
ATOM      7  C   UNL     1     -27.263 -16.675  11.155  1.00  0.00     0.073 C 
ATOM      8  O   UNL     1     -26.578 -15.628  11.010  1.00  0.00    -0.545 OA
ATOM      9  O   UNL     1     -28.125 -17.063  10.135  1.00  0.00    -0.545 OA
ENDBRANCH   1   7
TORSDOF 1
ENDMDL
MODEL 2
REMARK VINA RESULT:    -3.059     22.944     23.715
REMARK INTER + INTRA:          -3.262
REMARK INTER:                  -3.240
REMARK INTRA:                  -0.021
REMARK UNBOUND:                -0.024
REMARK SMILES O=C([O-])c1cccnc1
REMARK SMILES IDX 4 1 5 2 9 3 6 4 8 5 7 6 2 7 1 8 3 9
REMARK H PARENT
REMARK Flexibility Score: inf
ROOT
ATOM      1  C   UNL     1      -9.741 -20.155  -3.030  1.00  0.00     0.016 A 
ATOM      2  C   UNL     1      -9.957 -19.609  -1.755  1.00  0.00     0.013 A 
ATOM      3  C   UNL     1      -9.409 -19.283  -4.083  1.00  0.00     0.120 A 
ATOM      4  C   UNL     1      -9.843 -18.232  -1.553  1.00  0.00     0.021 A 
ATOM      5  N   UNL     1      -9.304 -17.946  -3.859  1.00  0.00    -0.264 NA
ATOM      6  C   UNL     1      -9.512 -17.408  -2.629  1.00  0.00     0.111 A 
ENDROOT
BRANCH   1   7
ATOM      7  C   UNL     1      -9.859 -21.611  -3.257  1.00  0.00     0.073 C 
ATOM      8  O   UNL     1      -9.140 -22.186  -4.117  1.00  0.00    -0.545 OA
ATOM      9  O   UNL     1     -10.767 -22.366  -2.523  1.00  0.00    -0.545 OA
ENDBRANCH   1   7
TORSDOF 1
ENDMDL
MODEL 3
REMARK VINA RESULT:    -3.020     22.867     23.564
REMARK INTER + INTRA:          -3.220
REMARK INTER:                  -3.197
REMARK INTRA:                  -0.024
REMARK UNBOUND:                -0.024
REMARK SMILES O=C([O-])c1cccnc1
REMARK SMILES IDX 4 1 5 2 9 3 6 4 8 5 7 6 2 7 1 8 3 9
REMARK H PARENT
REMARK Flexibility Score: inf
ROOT
ATOM      1  C   UNL     1      -9.738 -20.062  -2.850  1.00  0.00     0.016 A 
ATOM      2  C   UNL     1     -10.118 -20.852  -1.754  1.00  0.00     0.013 A 
ATOM      3  C   UNL     1      -9.374 -20.708  -4.046  1.00  0.00     0.120 A 
ATOM      4  C   UNL     1     -10.128 -22.244  -1.863  1.00  0.00     0.021 A 
ATOM      5  N   UNL     1      -9.393 -22.065  -4.125  1.00  0.00    -0.264 NA
ATOM      6  C   UNL     1      -9.759 -22.839  -3.069  1.00  0.00     0.111 A 
ENDROOT
BRANCH   1   7
ATOM      7  C   UNL     1      -9.722 -18.587  -2.748  1.00  0.00     0.073 C 
ATOM      8  O   UNL     1      -9.372 -17.880  -3.730  1.00  0.00    -0.545 OA
ATOM      9  O   UNL     1     -10.095 -17.960  -1.564  1.00  0.00    -0.545 OA
ENDBRANCH   1   7
TORSDOF 1
ENDMDL
MODEL 4
REMARK VINA RESULT:    -2.878     22.696     23.113
REMARK INTER + INTRA:          -3.070
REMARK INTER:                  -3.053
REMARK INTRA:                  -0.017
REMARK UNBOUND:                -0.024
REMARK SMILES O=C([O-])c1cccnc1
REMARK SMILES IDX 4 1 5 2 9 3 6 4 8 5 7 6 2 7 1 8 3 9
REMARK H PARENT
REMARK Flexibility Score: inf
ROOT
ATOM      1  C   UNL     1      -9.415 -20.276  -1.891  1.00  0.00     0.016 A 
ATOM      2  C   UNL     1     -10.294 -21.360  -2.043  1.00  0.00     0.013 A 
ATOM      3  C   UNL     1      -8.210 -20.486  -1.196  1.00  0.00     0.120 A 
ATOM      4  C   UNL     1      -9.967 -22.609  -1.510  1.00  0.00     0.021 A 
ATOM      5  N   UNL     1      -7.916 -21.712  -0.688  1.00  0.00    -0.264 NA
ATOM      6  C   UNL     1      -8.760 -22.767  -0.829  1.00  0.00     0.111 A 
ENDROOT
BRANCH   1   7
ATOM      7  C   UNL     1      -9.750 -18.949  -2.450  1.00  0.00     0.073 C 
ATOM      8  O   UNL     1      -9.679 -18.739  -3.690  1.00  0.00    -0.545 OA
ATOM      9  O   UNL     1     -10.149 -17.914  -1.612  1.00  0.00    -0.545 OA
ENDBRANCH   1   7
TORSDOF 1
ENDMDL
MODEL 5
REMARK VINA RESULT:    -2.760     22.735     23.311
REMARK INTER + INTRA:          -2.945
REMARK INTER:                  -2.928
REMARK INTRA:                  -0.017
REMARK UNBOUND:                -0.024
REMARK SMILES O=C([O-])c1cccnc1
REMARK SMILES IDX 4 1 5 2 9 3 6 4 8 5 7 6 2 7 1 8 3 9
REMARK H PARENT
REMARK Flexibility Score: inf
ROOT
ATOM      1  C   UNL     1      -9.366 -20.153  -1.992  1.00  0.00     0.016 A 
ATOM      2  C   UNL     1     -10.131 -19.004  -2.245  1.00  0.00     0.013 A 
ATOM      3  C   UNL     1      -8.222 -20.030  -1.183  1.00  0.00     0.120 A 
ATOM      4  C   UNL     1      -9.752 -17.775  -1.702  1.00  0.00     0.021 A 
ATOM      5  N   UNL     1      -7.875 -18.821  -0.666  1.00  0.00    -0.264 NA
ATOM      6  C   UNL     1      -8.609 -17.703  -0.906  1.00  0.00     0.111 A 
ENDROOT
BRANCH   1   7
ATOM      7  C   UNL     1      -9.757 -21.460  -2.562  1.00  0.00     0.073 C 
ATOM      8  O   UNL     1     -10.839 -22.009  -2.224  1.00  0.00    -0.545 OA
ATOM      9  O   UNL     1      -8.933 -22.101  -3.481  1.00  0.00    -0.545 OA
ENDBRANCH   1   7
TORSDOF 1
ENDMDL
MODEL 6
REMARK VINA RESULT:    -2.733     17.156     17.830
REMARK INTER + INTRA:          -2.917
REMARK INTER:                  -2.901
REMARK INTRA:                  -0.016
REMARK UNBOUND:                -0.024
REMARK SMILES O=C([O-])c1cccnc1
REMARK SMILES IDX 4 1 5 2 9 3 6 4 8 5 7 6 2 7 1 8 3 9
REMARK H PARENT
REMARK Flexibility Score: inf
ROOT
ATOM      1  C   UNL     1      -9.487 -17.546  12.374  1.00  0.00     0.016 A 
ATOM      2  C   UNL     1     -10.497 -17.091  13.237  1.00  0.00     0.013 A 
ATOM      3  C   UNL     1      -8.160 -17.545  12.841  1.00  0.00     0.120 A 
ATOM      4  C   UNL     1     -10.177 -16.653  14.523  1.00  0.00     0.021 A 
ATOM      5  N   UNL     1      -7.876 -17.113  14.098  1.00  0.00    -0.264 NA
ATOM      6  C   UNL     1      -8.846 -16.672  14.940  1.00  0.00     0.111 A 
ENDROOT
BRANCH   1   7
ATOM      7  C   UNL     1      -9.813 -18.012  11.009  1.00  0.00     0.073 C 
ATOM      8  O   UNL     1     -10.128 -19.214  10.801  1.00  0.00    -0.545 OA
ATOM      9  O   UNL     1      -9.777 -17.128   9.936  1.00  0.00    -0.545 OA
ENDBRANCH   1   7
TORSDOF 1
ENDMDL
MODEL 7
REMARK VINA RESULT:    -2.728     17.077     17.807
REMARK INTER + INTRA:          -2.911
REMARK INTER:                  -2.891
REMARK INTRA:                  -0.020
REMARK UNBOUND:                -0.024
REMARK SMILES O=C([O-])c1cccnc1
REMARK SMILES IDX 4 1 5 2 9 3 6 4 8 5 7 6 2 7 1 8 3 9
REMARK H PARENT
REMARK Flexibility Score: inf
ROOT
ATOM      1  C   UNL     1      -9.731 -17.828  12.141  1.00  0.00     0.016 A 
ATOM      2  C   UNL     1      -9.806 -17.129  10.926  1.00  0.00     0.013 A 
ATOM      3  C   UNL     1      -9.266 -19.155  12.121  1.00  0.00     0.120 A 
ATOM      4  C   UNL     1      -9.425 -17.750   9.735  1.00  0.00     0.021 A 
ATOM      5  N   UNL     1      -8.901 -19.736  10.947  1.00  0.00    -0.264 NA
ATOM      6  C   UNL     1      -8.971 -19.068   9.766  1.00  0.00     0.111 A 
ENDROOT
BRANCH   1   7
ATOM      7  C   UNL     1     -10.132 -17.181  13.409  1.00  0.00     0.073 C 
ATOM      8  O   UNL     1      -9.426 -17.309  14.445  1.00  0.00    -0.545 OA
ATOM      9  O   UNL     1     -11.295 -16.422  13.475  1.00  0.00    -0.545 OA
ENDBRANCH   1   7
TORSDOF 1
ENDMDL
MODEL 8
REMARK VINA RESULT:    -1.302      1.457      2.377
REMARK INTER + INTRA:          -1.402
REMARK INTER:                  -1.379
REMARK INTRA:                  -0.023
REMARK UNBOUND:                -0.024
REMARK SMILES O=C([O-])c1cccnc1
REMARK SMILES IDX 4 1 5 2 9 3 6 4 8 5 7 6 2 7 1 8 3 9
REMARK H PARENT
REMARK Flexibility Score: inf
ROOT
ATOM      1  C   UNL     1     -27.136 -18.240  13.549  1.00  0.00     0.016 A 
ATOM      2  C   UNL     1     -26.249 -17.777  14.534  1.00  0.00     0.013 A 
ATOM      3  C   UNL     1     -27.954 -19.344  13.852  1.00  0.00     0.120 A 
ATOM      4  C   UNL     1     -26.192 -18.408  15.778  1.00  0.00     0.021 A 
ATOM      5  N   UNL     1     -27.878 -19.940  15.072  1.00  0.00    -0.264 NA
ATOM      6  C   UNL     1     -27.023 -19.499  16.031  1.00  0.00     0.111 A 
ENDROOT
BRANCH   1   7
ATOM      7  C   UNL     1     -27.206 -17.582  12.227  1.00  0.00     0.073 C 
ATOM      8  O   UNL     1     -28.125 -17.870  11.415  1.00  0.00    -0.545 OA
ATOM      9  O   UNL     1     -26.257 -16.633  11.862  1.00  0.00    -0.545 OA
ENDBRANCH   1   7
TORSDOF 1
ENDMDL
