MODEL 1
REMARK VINA RESULT:    -5.207      0.000      0.000
REMARK INTER + INTRA:          -6.002
REMARK INTER:                  -5.816
REMARK INTRA:                  -0.187
REMARK UNBOUND:                -0.187
REMARK SMILES O=C([O-])c1ccccc1C(=O)[O-]
REMARK SMILES IDX 4 1 9 2 5 3 8 4 6 5 7 6 2 7 1 8 3 9 10 10 11 11 12 12
REMARK H PARENT
REMARK Flexibility Score: inf
ROOT
ATOM      1  C   UNL     1      45.362  27.245 -10.214  1.00  0.00     0.006 A 
ATOM      2  C   UNL     1      44.755  27.272  -8.929  1.00  0.00     0.006 A 
ATOM      3  C   UNL     1      45.881  26.030 -10.701  1.00  0.00     0.010 A 
ATOM      4  C   UNL     1      44.746  26.100  -8.150  1.00  0.00     0.010 A 
ATOM      5  C   UNL     1      45.840  24.874  -9.921  1.00  0.00     0.001 A 
ATOM      6  C   UNL     1      45.285  24.911  -8.644  1.00  0.00     0.001 A 
ENDROOT
BRANCH   1   7
ATOM      7  C   UNL     1      45.540  28.460 -11.042  1.00  0.00     0.072 C 
ATOM      8  O   UNL     1      44.755  28.696 -12.000  1.00  0.00    -0.545 OA
ATOM      9  O   UNL     1      46.609  29.321 -10.818  1.00  0.00    -0.545 OA
ENDBRANCH   1   7
BRANCH   2  10
ATOM     10  C   UNL     1      44.061  28.466  -8.390  1.00  0.00     0.072 C 
ATOM     11  O   UNL     1      42.805  28.511  -8.336  1.00  0.00    -0.545 OA
ATOM     12  O   UNL     1      44.798  29.527  -7.875  1.00  0.00    -0.545 OA
ENDBRANCH   2  10
TORSDOF 2
ENDMDL
MODEL 2
REMARK VINA RESULT:    -4.887      0.166      2.871
REMARK INTER + INTRA:          -5.645
REMARK INTER:                  -5.424
REMARK INTRA:                  -0.221
REMARK UNBOUND:                -0.187
REMARK SMILES O=C([O-])c1ccccc1C(=O)[O-]
REMARK SMILES IDX 4 1 9 2 5 3 8 4 6 5 7 6 2 7 1 8 3 9 10 10 11 11 12 12
REMARK H PARENT
REMARK Flexibility Score: inf
ROOT
ATOM      1  C   UNL     1      44.745  27.213  -9.030  1.00  0.00     0.006 A 
ATOM      2  C   UNL     1      45.413  27.228 -10.286  1.00  0.00     0.006 A 
ATOM      3  C   UNL     1      44.752  26.031  -8.265  1.00  0.00     0.010 A 
ATOM      4  C   UNL     1      46.005  26.043 -10.761  1.00  0.00     0.010 A 
ATOM      5  C   UNL     1      45.365  24.875  -8.745  1.00  0.00     0.001 A 
ATOM      6  C   UNL     1      45.980  24.876  -9.995  1.00  0.00     0.001 A 
ENDROOT
BRANCH   1   7
ATOM      7  C   UNL     1      43.978  28.372  -8.517  1.00  0.00     0.072 C 
ATOM      8  O   UNL     1      42.735  28.447  -8.712  1.00  0.00    -0.545 OA
ATOM      9  O   UNL     1      44.625  29.422  -7.875  1.00  0.00    -0.545 OA
ENDBRANCH   1   7
BRANCH   2  10
ATOM     10  C   UNL     1      45.578  28.457 -11.097  1.00  0.00     0.072 C 
ATOM     11  O   UNL     1      44.751  28.749 -12.000  1.00  0.00    -0.545 OA
ATOM     12  O   UNL     1      46.617  29.339 -10.822  1.00  0.00    -0.545 OA
ENDBRANCH   2  10
TORSDOF 2
ENDMDL
MODEL 3
REMARK VINA RESULT:    -4.682      2.083      3.518
REMARK INTER + INTRA:          -5.415
REMARK INTER:                  -5.262
REMARK INTRA:                  -0.153
REMARK UNBOUND:                -0.187
REMARK SMILES O=C([O-])c1ccccc1C(=O)[O-]
REMARK SMILES IDX 4 1 9 2 5 3 8 4 6 5 7 6 2 7 1 8 3 9 10 10 11 11 12 12
REMARK H PARENT
REMARK Flexibility Score: inf
ROOT
ATOM      1  C   UNL     1      44.761  27.440  -9.796  1.00  0.00     0.006 A 
ATOM      2  C   UNL     1      45.042  28.809 -10.061  1.00  0.00     0.006 A 
ATOM      3  C   UNL     1      43.929  27.110  -8.709  1.00  0.00     0.010 A 
ATOM      4  C   UNL     1      44.535  29.793  -9.193  1.00  0.00     0.010 A 
ATOM      5  C   UNL     1      43.418  28.105  -7.875  1.00  0.00     0.001 A 
ATOM      6  C   UNL     1      43.730  29.442  -8.109  1.00  0.00     0.001 A 
ENDROOT
BRANCH   1   7
ATOM      7  C   UNL     1      45.365  26.333 -10.573  1.00  0.00     0.072 C 
ATOM      8  O   UNL     1      44.779  25.879 -11.592  1.00  0.00    -0.545 OA
ATOM      9  O   UNL     1      46.550  25.737 -10.154  1.00  0.00    -0.545 OA
ENDBRANCH   1   7
BRANCH   2  10
ATOM     10  C   UNL     1      45.792  29.261 -11.257  1.00  0.00     0.072 C 
ATOM     11  O   UNL     1      45.292  29.158 -12.408  1.00  0.00    -0.545 OA
ATOM     12  O   UNL     1      47.035  29.866 -11.113  1.00  0.00    -0.545 OA
ENDBRANCH   2  10
TORSDOF 2
ENDMDL
MODEL 4
REMARK VINA RESULT:    -4.504     13.439     13.991
REMARK INTER + INTRA:          -5.217
REMARK INTER:                  -5.003
REMARK INTRA:                  -0.214
REMARK UNBOUND:                -0.187
REMARK SMILES O=C([O-])c1ccccc1C(=O)[O-]
REMARK SMILES IDX 4 1 9 2 5 3 8 4 6 5 7 6 2 7 1 8 3 9 10 10 11 11 12 12
REMARK H PARENT
REMARK Flexibility Score: inf
ROOT
ATOM      1  C   UNL     1      35.606  24.644 -18.917  1.00  0.00     0.006 A 
ATOM      2  C   UNL     1      34.716  24.300 -17.863  1.00  0.00     0.006 A 
ATOM      3  C   UNL     1      35.791  26.001 -19.242  1.00  0.00     0.010 A 
ATOM      4  C   UNL     1      33.994  25.319 -17.215  1.00  0.00     0.010 A 
ATOM      5  C   UNL     1      35.081  26.997 -18.571  1.00  0.00     0.001 A 
ATOM      6  C   UNL     1      34.176  26.657 -17.568  1.00  0.00     0.001 A 
ENDROOT
BRANCH   1   7
ATOM      7  C   UNL     1      36.300  23.629 -19.743  1.00  0.00     0.072 C 
ATOM      8  O   UNL     1      37.473  23.269 -19.454  1.00  0.00    -0.545 OA
ATOM      9  O   UNL     1      35.696  23.109 -20.882  1.00  0.00    -0.545 OA
ENDBRANCH   1   7
BRANCH   2  10
ATOM     10  C   UNL     1      34.561  22.914 -17.359  1.00  0.00     0.072 C 
ATOM     11  O   UNL     1      33.734  22.126 -17.887  1.00  0.00    -0.545 OA
ATOM     12  O   UNL     1      35.378  22.450 -16.334  1.00  0.00    -0.545 OA
ENDBRANCH   2  10
TORSDOF 2
ENDMDL
MODEL 5
REMARK VINA RESULT:    -4.418     13.492     14.448
REMARK INTER + INTRA:          -5.121
REMARK INTER:                  -4.947
REMARK INTRA:                  -0.174
REMARK UNBOUND:                -0.187
REMARK SMILES O=C([O-])c1ccccc1C(=O)[O-]
REMARK SMILES IDX 4 1 9 2 5 3 8 4 6 5 7 6 2 7 1 8 3 9 10 10 11 11 12 12
REMARK H PARENT
REMARK Flexibility Score: inf
ROOT
ATOM      1  C   UNL     1      32.623  29.475 -16.477  1.00  0.00     0.006 A 
ATOM      2  C   UNL     1      33.795  29.721 -17.244  1.00  0.00     0.006 A 
ATOM      3  C   UNL     1      32.318  28.154 -16.097  1.00  0.00     0.010 A 
ATOM      4  C   UNL     1      34.583  28.632 -17.659  1.00  0.00     0.010 A 
ATOM      5  C   UNL     1      33.126  27.092 -16.500  1.00  0.00     0.001 A 
ATOM      6  C   UNL     1      34.249  27.328 -17.289  1.00  0.00     0.001 A 
ENDROOT
BRANCH   1   7
ATOM      7  C   UNL     1      31.664  30.545 -16.116  1.00  0.00     0.072 C 
ATOM      8  O   UNL     1      31.509  30.878 -14.911  1.00  0.00    -0.545 OA
ATOM      9  O   UNL     1      30.875  31.148 -17.089  1.00  0.00    -0.545 OA
ENDBRANCH   1   7
BRANCH   2  10
ATOM     10  C   UNL     1      34.272  31.085 -17.574  1.00  0.00     0.072 C 
ATOM     11  O   UNL     1      35.193  31.624 -16.907  1.00  0.00    -0.545 OA
ATOM     12  O   UNL     1      33.748  31.760 -18.671  1.00  0.00    -0.545 OA
ENDBRANCH   2  10
TORSDOF 2
ENDMDL
MODEL 6
REMARK VINA RESULT:    -4.392     13.503     14.171
REMARK INTER + INTRA:          -5.092
REMARK INTER:                  -4.970
REMARK INTRA:                  -0.122
REMARK UNBOUND:                -0.187
REMARK SMILES O=C([O-])c1ccccc1C(=O)[O-]
REMARK SMILES IDX 4 1 9 2 5 3 8 4 6 5 7 6 2 7 1 8 3 9 10 10 11 11 12 12
REMARK H PARENT
REMARK Flexibility Score: inf
ROOT
ATOM      1  C   UNL     1      33.755  29.697 -17.238  1.00  0.00     0.006 A 
ATOM      2  C   UNL     1      32.570  29.464 -16.487  1.00  0.00     0.006 A 
ATOM      3  C   UNL     1      34.536  28.598 -17.644  1.00  0.00     0.010 A 
ATOM      4  C   UNL     1      32.244  28.148 -16.113  1.00  0.00     0.010 A 
ATOM      5  C   UNL     1      34.181  27.299 -17.281  1.00  0.00     0.001 A 
ATOM      6  C   UNL     1      33.044  27.075 -16.507  1.00  0.00     0.001 A 
ENDROOT
BRANCH   1   7
ATOM      7  C   UNL     1      34.247  31.058 -17.556  1.00  0.00     0.072 C 
ATOM      8  O   UNL     1      33.757  31.700 -18.523  1.00  0.00    -0.545 OA
ATOM      9  O   UNL     1      35.298  31.617 -16.838  1.00  0.00    -0.545 OA
ENDBRANCH   1   7
BRANCH   2  10
ATOM     10  C   UNL     1      31.614  30.541 -16.134  1.00  0.00     0.072 C 
ATOM     11  O   UNL     1      30.882  31.065 -17.013  1.00  0.00    -0.545 OA
ATOM     12  O   UNL     1      31.471  30.939 -14.810  1.00  0.00    -0.545 OA
ENDBRANCH   2  10
TORSDOF 2
ENDMDL
MODEL 7
REMARK VINA RESULT:    -4.376     14.058     15.016
REMARK INTER + INTRA:          -5.074
REMARK INTER:                  -4.857
REMARK INTRA:                  -0.217
REMARK UNBOUND:                -0.187
REMARK SMILES O=C([O-])c1ccccc1C(=O)[O-]
REMARK SMILES IDX 4 1 9 2 5 3 8 4 6 5 7 6 2 7 1 8 3 9 10 10 11 11 12 12
REMARK H PARENT
REMARK Flexibility Score: inf
ROOT
ATOM      1  C   UNL     1      32.068  29.621 -17.203  1.00  0.00     0.006 A 
ATOM      2  C   UNL     1      33.035  28.592 -17.028  1.00  0.00     0.006 A 
ATOM      3  C   UNL     1      31.210  29.943 -16.135  1.00  0.00     0.010 A 
ATOM      4  C   UNL     1      33.064  27.879 -15.816  1.00  0.00     0.010 A 
ATOM      5  C   UNL     1      31.272  29.238 -14.933  1.00  0.00     0.001 A 
ATOM      6  C   UNL     1      32.188  28.201 -14.777  1.00  0.00     0.001 A 
ENDROOT
BRANCH   1   7
ATOM      7  C   UNL     1      31.875  30.327 -18.491  1.00  0.00     0.072 C 
ATOM      8  O   UNL     1      31.130  29.834 -19.379  1.00  0.00    -0.545 OA
ATOM      9  O   UNL     1      32.561  31.505 -18.763  1.00  0.00    -0.545 OA
ENDBRANCH   1   7
BRANCH   2  10
ATOM     10  C   UNL     1      34.069  28.277 -18.042  1.00  0.00     0.072 C 
ATOM     11  O   UNL     1      33.964  27.258 -18.773  1.00  0.00    -0.545 OA
ATOM     12  O   UNL     1      35.137  29.143 -18.240  1.00  0.00    -0.545 OA
ENDBRANCH   2  10
TORSDOF 2
ENDMDL
MODEL 8
REMARK VINA RESULT:    -4.325     13.880     14.807
REMARK INTER + INTRA:          -5.017
REMARK INTER:                  -4.834
REMARK INTRA:                  -0.183
REMARK UNBOUND:                -0.187
REMARK SMILES O=C([O-])c1ccccc1C(=O)[O-]
REMARK SMILES IDX 4 1 9 2 5 3 8 4 6 5 7 6 2 7 1 8 3 9 10 10 11 11 12 12
REMARK H PARENT
REMARK Flexibility Score: inf
ROOT
ATOM      1  C   UNL     1      33.057  28.900 -17.005  1.00  0.00     0.006 A 
ATOM      2  C   UNL     1      32.379  30.148 -17.086  1.00  0.00     0.006 A 
ATOM      3  C   UNL     1      32.789  28.044 -15.920  1.00  0.00     0.010 A 
ATOM      4  C   UNL     1      31.508  30.523 -16.047  1.00  0.00     0.010 A 
ATOM      5  C   UNL     1      31.904  28.427 -14.912  1.00  0.00     0.001 A 
ATOM      6  C   UNL     1      31.274  29.668 -14.968  1.00  0.00     0.001 A 
ENDROOT
BRANCH   1   7
ATOM      7  C   UNL     1      34.092  28.486 -17.980  1.00  0.00     0.072 C 
ATOM      8  O   UNL     1      33.893  27.499 -18.738  1.00  0.00    -0.545 OA
ATOM      9  O   UNL     1      35.321  29.136 -18.028  1.00  0.00    -0.545 OA
ENDBRANCH   1   7
BRANCH   2  10
ATOM     10  C   UNL     1      32.491  31.051 -18.256  1.00  0.00     0.072 C 
ATOM     11  O   UNL     1      31.627  31.029 -19.171  1.00  0.00    -0.545 OA
ATOM     12  O   UNL     1      33.521  31.983 -18.321  1.00  0.00    -0.545 OA
ENDBRANCH   2  10
TORSDOF 2
ENDMDL
MODEL 9
REMARK VINA RESULT:    -4.324     16.376     18.649
REMARK INTER + INTRA:          -5.016
REMARK INTER:                  -4.817
REMARK INTRA:                  -0.199
REMARK UNBOUND:                -0.187
REMARK SMILES O=C([O-])c1ccccc1C(=O)[O-]
REMARK SMILES IDX 4 1 9 2 5 3 8 4 6 5 7 6 2 7 1 8 3 9 10 10 11 11 12 12
REMARK H PARENT
REMARK Flexibility Score: inf
ROOT
ATOM      1  C   UNL     1      50.416  33.034 -25.707  1.00  0.00     0.006 A 
ATOM      2  C   UNL     1      50.378  32.307 -26.929  1.00  0.00     0.006 A 
ATOM      3  C   UNL     1      50.768  34.397 -25.732  1.00  0.00     0.010 A 
ATOM      4  C   UNL     1      50.756  32.951 -28.121  1.00  0.00     0.010 A 
ATOM      5  C   UNL     1      51.118  35.021 -26.930  1.00  0.00     0.001 A 
ATOM      6  C   UNL     1      51.124  34.298 -28.120  1.00  0.00     0.001 A 
ENDROOT
BRANCH   1   7
ATOM      7  C   UNL     1      50.168  32.402 -24.391  1.00  0.00     0.072 C 
ATOM      8  O   UNL     1      51.124  31.910 -23.734  1.00  0.00    -0.545 OA
ATOM      9  O   UNL     1      48.876  32.282 -23.894  1.00  0.00    -0.545 OA
ENDBRANCH   1   7
BRANCH   2  10
ATOM     10  C   UNL     1      49.888  30.911 -27.022  1.00  0.00     0.072 C 
ATOM     11  O   UNL     1      48.748  30.659 -27.493  1.00  0.00    -0.545 OA
ATOM     12  O   UNL     1      50.714  29.857 -26.648  1.00  0.00    -0.545 OA
ENDBRANCH   2  10
TORSDOF 2
ENDMDL
