MODEL 1
REMARK VINA RESULT:    -4.922      0.000      0.000
REMARK INTER + INTRA:          -6.969
REMARK INTER:                  -6.649
REMARK INTRA:                  -0.321
REMARK UNBOUND:                -0.321
REMARK SMILES CCCCCCC=CC(=O)[O-]
REMARK SMILES IDX 5 1 6 2 7 3 8 4 9 5 10 6 11 7 4 8 3 9 2 10 1 11
REMARK H PARENT
REMARK Flexibility Score: inf
ROOT
ATOM      1  C   UNL     1      15.335   3.573  55.550  1.00  0.00     0.004 C 
ENDROOT
BRANCH   1   2
ATOM      2  C   UNL     1      13.995   3.169  56.175  1.00  0.00     0.027 C 
BRANCH   2   3
ATOM      3  C   UNL     1      12.862   3.973  55.605  1.00  0.00    -0.025 C 
ATOM      4  C   UNL     1      12.917   4.479  54.369  1.00  0.00     0.020 C 
BRANCH   4   5
ATOM      5  C   UNL     1      11.822   5.279  53.803  1.00  0.00     0.064 C 
ATOM      6  O   UNL     1      10.749   5.409  54.447  1.00  0.00    -0.545 OA
ATOM      7  O   UNL     1      11.953   5.897  52.564  1.00  0.00    -0.545 OA
ENDBRANCH   4   5
ENDBRANCH   2   3
ENDBRANCH   1   2
BRANCH   1   8
ATOM      8  C   UNL     1      16.319   2.399  55.547  1.00  0.00     0.000 C 
BRANCH   8   9
ATOM      9  C   UNL     1      15.739   1.193  56.302  1.00  0.00    -0.000 C 
BRANCH   9  10
ATOM     10  C   UNL     1      16.751   0.047  56.448  1.00  0.00    -0.003 C 
ATOM     11  C   UNL     1      17.517   0.098  57.770  1.00  0.00     0.004 C 
ENDBRANCH   9  10
ENDBRANCH   8   9
ENDBRANCH   1   8
TORSDOF 6
ENDMDL
MODEL 2
REMARK VINA RESULT:    -4.867      3.900      5.259
REMARK INTER + INTRA:          -6.895
REMARK INTER:                  -6.193
REMARK INTRA:                  -0.702
REMARK UNBOUND:                -0.321
REMARK SMILES CCCCCCC=CC(=O)[O-]
REMARK SMILES IDX 5 1 6 2 7 3 8 4 9 5 10 6 11 7 4 8 3 9 2 10 1 11
REMARK H PARENT
REMARK Flexibility Score: inf
ROOT
ATOM      1  C   UNL     1      10.341   3.418  54.689  1.00  0.00     0.004 C 
ENDROOT
BRANCH   1   2
ATOM      2  C   UNL     1       9.297   4.110  55.572  1.00  0.00     0.027 C 
BRANCH   2   3
ATOM      3  C   UNL     1       9.696   5.524  55.880  1.00  0.00    -0.025 C 
ATOM      4  C   UNL     1       9.477   6.517  55.012  1.00  0.00     0.020 C 
BRANCH   4   5
ATOM      5  C   UNL     1       9.874   7.904  55.294  1.00  0.00     0.064 C 
ATOM      6  O   UNL     1       8.989   8.785  55.452  1.00  0.00    -0.545 OA
ATOM      7  O   UNL     1      11.215   8.260  55.390  1.00  0.00    -0.545 OA
ENDBRANCH   4   5
ENDBRANCH   2   3
ENDBRANCH   1   2
BRANCH   1   8
ATOM      8  C   UNL     1      11.725   3.447  55.346  1.00  0.00     0.000 C 
BRANCH   8   9
ATOM      9  C   UNL     1      12.727   4.232  54.486  1.00  0.00    -0.000 C 
BRANCH   9  10
ATOM     10  C   UNL     1      12.207   4.492  53.064  1.00  0.00    -0.003 C 
ATOM     11  C   UNL     1      12.258   5.969  52.674  1.00  0.00     0.004 C 
ENDBRANCH   9  10
ENDBRANCH   8   9
ENDBRANCH   1   8
TORSDOF 6
ENDMDL
MODEL 3
REMARK VINA RESULT:    -4.853      3.820      6.134
REMARK INTER + INTRA:          -6.876
REMARK INTER:                  -6.116
REMARK INTRA:                  -0.760
REMARK UNBOUND:                -0.321
REMARK SMILES CCCCCCC=CC(=O)[O-]
REMARK SMILES IDX 5 1 6 2 7 3 8 4 9 5 10 6 11 7 4 8 3 9 2 10 1 11
REMARK H PARENT
REMARK Flexibility Score: inf
ROOT
ATOM      1  C   UNL     1      12.517   5.652  53.005  1.00  0.00     0.004 C 
ENDROOT
BRANCH   1   2
ATOM      2  C   UNL     1      11.949   4.229  52.953  1.00  0.00     0.027 C 
BRANCH   2   3
ATOM      3  C   UNL     1      11.604   3.730  54.326  1.00  0.00    -0.025 C 
ATOM      4  C   UNL     1      12.473   3.814  55.339  1.00  0.00     0.020 C 
BRANCH   4   5
ATOM      5  C   UNL     1      12.155   3.317  56.685  1.00  0.00     0.064 C 
ATOM      6  O   UNL     1      11.443   4.015  57.453  1.00  0.00    -0.545 OA
ATOM      7  O   UNL     1      12.630   2.087  57.126  1.00  0.00    -0.545 OA
ENDBRANCH   4   5
ENDBRANCH   2   3
ENDBRANCH   1   2
BRANCH   1   8
ATOM      8  C   UNL     1      11.405   6.696  52.861  1.00  0.00     0.000 C 
BRANCH   8   9
ATOM      9  C   UNL     1      11.526   7.782  53.940  1.00  0.00    -0.000 C 
BRANCH   9  10
ATOM     10  C   UNL     1      11.039   7.303  55.316  1.00  0.00    -0.003 C 
ATOM     11  C   UNL     1       9.635   6.701  55.272  1.00  0.00     0.004 C 
ENDBRANCH   9  10
ENDBRANCH   8   9
ENDBRANCH   1   8
TORSDOF 6
ENDMDL
MODEL 4
REMARK VINA RESULT:    -4.746      4.429      5.651
REMARK INTER + INTRA:          -6.732
REMARK INTER:                  -6.038
REMARK INTRA:                  -0.693
REMARK UNBOUND:                -0.321
REMARK SMILES CCCCCCC=CC(=O)[O-]
REMARK SMILES IDX 5 1 6 2 7 3 8 4 9 5 10 6 11 7 4 8 3 9 2 10 1 11
REMARK H PARENT
REMARK Flexibility Score: inf
ROOT
ATOM      1  C   UNL     1       9.514   4.140  55.023  1.00  0.00     0.004 C 
ENDROOT
BRANCH   1   2
ATOM      2  C   UNL     1      10.038   5.226  55.969  1.00  0.00     0.027 C 
BRANCH   2   3
ATOM      3  C   UNL     1       9.489   6.576  55.606  1.00  0.00    -0.025 C 
ATOM      4  C   UNL     1       9.119   6.866  54.355  1.00  0.00     0.020 C 
BRANCH   4   5
ATOM      5  C   UNL     1       8.592   8.187  53.982  1.00  0.00     0.064 C 
ATOM      6  O   UNL     1       8.533   9.099  54.847  1.00  0.00    -0.545 OA
ATOM      7  O   UNL     1       8.157   8.445  52.687  1.00  0.00    -0.545 OA
ENDBRANCH   4   5
ENDBRANCH   2   3
ENDBRANCH   1   2
BRANCH   1   8
ATOM      8  C   UNL     1      10.651   3.231  54.544  1.00  0.00     0.000 C 
BRANCH   8   9
ATOM      9  C   UNL     1      11.956   4.023  54.377  1.00  0.00    -0.000 C 
BRANCH   9  10
ATOM     10  C   UNL     1      12.203   4.454  52.923  1.00  0.00    -0.003 C 
ATOM     11  C   UNL     1      12.230   5.973  52.751  1.00  0.00     0.004 C 
ENDBRANCH   9  10
ENDBRANCH   8   9
ENDBRANCH   1   8
TORSDOF 6
ENDMDL
MODEL 5
REMARK VINA RESULT:    -4.734      3.632      5.903
REMARK INTER + INTRA:          -6.715
REMARK INTER:                  -6.012
REMARK INTRA:                  -0.703
REMARK UNBOUND:                -0.321
REMARK SMILES CCCCCCC=CC(=O)[O-]
REMARK SMILES IDX 5 1 6 2 7 3 8 4 9 5 10 6 11 7 4 8 3 9 2 10 1 11
REMARK H PARENT
REMARK Flexibility Score: inf
ROOT
ATOM      1  C   UNL     1       9.505   6.346  54.926  1.00  0.00     0.004 C 
ENDROOT
BRANCH   1   2
ATOM      2  C   UNL     1       9.549   5.296  56.042  1.00  0.00     0.027 C 
BRANCH   2   3
ATOM      3  C   UNL     1      10.962   4.971  56.429  1.00  0.00    -0.025 C 
ATOM      4  C   UNL     1      11.379   3.707  56.556  1.00  0.00     0.020 C 
BRANCH   4   5
ATOM      5  C   UNL     1      12.757   3.374  56.947  1.00  0.00     0.064 C 
ATOM      6  O   UNL     1      12.962   2.447  57.773  1.00  0.00    -0.545 OA
ATOM      7  O   UNL     1      13.839   4.069  56.420  1.00  0.00    -0.545 OA
ENDBRANCH   4   5
ENDBRANCH   2   3
ENDBRANCH   1   2
BRANCH   1   8
ATOM      8  C   UNL     1      10.907   6.880  54.616  1.00  0.00     0.000 C 
BRANCH   8   9
ATOM      9  C   UNL     1      11.266   6.661  53.139  1.00  0.00    -0.000 C 
BRANCH   9  10
ATOM     10  C   UNL     1      12.448   5.697  52.955  1.00  0.00    -0.003 C 
ATOM     11  C   UNL     1      12.025   4.229  52.977  1.00  0.00     0.004 C 
ENDBRANCH   9  10
ENDBRANCH   8   9
ENDBRANCH   1   8
TORSDOF 6
ENDMDL
MODEL 6
REMARK VINA RESULT:    -4.674      3.522      6.446
REMARK INTER + INTRA:          -6.635
REMARK INTER:                  -6.003
REMARK INTRA:                  -0.632
REMARK UNBOUND:                -0.321
REMARK SMILES CCCCCCC=CC(=O)[O-]
REMARK SMILES IDX 5 1 6 2 7 3 8 4 9 5 10 6 11 7 4 8 3 9 2 10 1 11
REMARK H PARENT
REMARK Flexibility Score: inf
ROOT
ATOM      1  C   UNL     1       9.512   5.629  56.001  1.00  0.00     0.004 C 
ENDROOT
BRANCH   1   2
ATOM      2  C   UNL     1       9.622   4.372  55.131  1.00  0.00     0.027 C 
BRANCH   2   3
ATOM      3  C   UNL     1      10.954   3.702  55.307  1.00  0.00    -0.025 C 
ATOM      4  C   UNL     1      11.580   3.690  56.488  1.00  0.00     0.020 C 
BRANCH   4   5
ATOM      5  C   UNL     1      12.891   3.050  56.672  1.00  0.00     0.064 C 
ATOM      6  O   UNL     1      13.896   3.507  56.068  1.00  0.00    -0.545 OA
ATOM      7  O   UNL     1      13.038   1.946  57.503  1.00  0.00    -0.545 OA
ENDBRANCH   4   5
ENDBRANCH   2   3
ENDBRANCH   1   2
BRANCH   1   8
ATOM      8  C   UNL     1       9.510   6.897  55.140  1.00  0.00     0.000 C 
BRANCH   8   9
ATOM      9  C   UNL     1      10.935   7.434  54.945  1.00  0.00    -0.000 C 
BRANCH   9  10
ATOM     10  C   UNL     1      11.340   7.512  53.465  1.00  0.00    -0.003 C 
ATOM     11  C   UNL     1      12.130   6.289  53.002  1.00  0.00     0.004 C 
ENDBRANCH   9  10
ENDBRANCH   8   9
ENDBRANCH   1   8
TORSDOF 6
ENDMDL
MODEL 7
REMARK VINA RESULT:    -4.640      1.572      2.102
REMARK INTER + INTRA:          -6.588
REMARK INTER:                  -6.276
REMARK INTRA:                  -0.312
REMARK UNBOUND:                -0.321
REMARK SMILES CCCCCCC=CC(=O)[O-]
REMARK SMILES IDX 5 1 6 2 7 3 8 4 9 5 10 6 11 7 4 8 3 9 2 10 1 11
REMARK H PARENT
REMARK Flexibility Score: inf
ROOT
ATOM      1  C   UNL     1      13.859   2.998  56.755  1.00  0.00     0.004 C 
ENDROOT
BRANCH   1   2
ATOM      2  C   UNL     1      12.406   3.057  56.271  1.00  0.00     0.027 C 
BRANCH   2   3
ATOM      3  C   UNL     1      12.092   4.388  55.652  1.00  0.00    -0.025 C 
ATOM      4  C   UNL     1      11.034   5.108  56.041  1.00  0.00     0.020 C 
BRANCH   4   5
ATOM      5  C   UNL     1      10.706   6.406  55.435  1.00  0.00     0.064 C 
ATOM      6  O   UNL     1      11.557   7.333  55.454  1.00  0.00    -0.545 OA
ATOM      7  O   UNL     1       9.469   6.628  54.841  1.00  0.00    -0.545 OA
ENDBRANCH   4   5
ENDBRANCH   2   3
ENDBRANCH   1   2
BRANCH   1   8
ATOM      8  C   UNL     1      14.831   3.375  55.631  1.00  0.00     0.000 C 
BRANCH   8   9
ATOM      9  C   UNL     1      16.055   2.448  55.628  1.00  0.00    -0.000 C 
BRANCH   9  10
ATOM     10  C   UNL     1      15.841   1.184  56.474  1.00  0.00    -0.003 C 
ATOM     11  C   UNL     1      16.489  -0.057  55.861  1.00  0.00     0.004 C 
ENDBRANCH   9  10
ENDBRANCH   8   9
ENDBRANCH   1   8
TORSDOF 6
ENDMDL
MODEL 8
REMARK VINA RESULT:    -4.596      4.571      5.623
REMARK INTER + INTRA:          -6.529
REMARK INTER:                  -5.835
REMARK INTRA:                  -0.695
REMARK UNBOUND:                -0.321
REMARK SMILES CCCCCCC=CC(=O)[O-]
REMARK SMILES IDX 5 1 6 2 7 3 8 4 9 5 10 6 11 7 4 8 3 9 2 10 1 11
REMARK H PARENT
REMARK Flexibility Score: inf
ROOT
ATOM      1  C   UNL     1      12.492   5.185  53.502  1.00  0.00     0.004 C 
ENDROOT
BRANCH   1   2
ATOM      2  C   UNL     1      11.920   6.331  52.660  1.00  0.00     0.027 C 
BRANCH   2   3
ATOM      3  C   UNL     1      10.984   7.185  53.465  1.00  0.00    -0.025 C 
ATOM      4  C   UNL     1      11.401   7.850  54.548  1.00  0.00     0.020 C 
BRANCH   4   5
ATOM      5  C   UNL     1      10.493   8.678  55.354  1.00  0.00     0.064 C 
ATOM      6  O   UNL     1      10.961   9.614  56.053  1.00  0.00    -0.545 OA
ATOM      7  O   UNL     1       9.122   8.444  55.357  1.00  0.00    -0.545 OA
ENDBRANCH   4   5
ENDBRANCH   2   3
ENDBRANCH   1   2
BRANCH   1   8
ATOM      8  C   UNL     1      11.688   3.896  53.297  1.00  0.00     0.000 C 
BRANCH   8   9
ATOM      9  C   UNL     1      11.125   3.381  54.630  1.00  0.00    -0.000 C 
BRANCH   9  10
ATOM     10  C   UNL     1       9.653   3.769  54.838  1.00  0.00    -0.003 C 
ATOM     11  C   UNL     1       9.476   4.896  55.854  1.00  0.00     0.004 C 
ENDBRANCH   9  10
ENDBRANCH   8   9
ENDBRANCH   1   8
TORSDOF 6
ENDMDL
MODEL 9
REMARK VINA RESULT:    -4.540      4.614      5.657
REMARK INTER + INTRA:          -6.453
REMARK INTER:                  -5.735
REMARK INTRA:                  -0.718
REMARK UNBOUND:                -0.321
REMARK SMILES CCCCCCC=CC(=O)[O-]
REMARK SMILES IDX 5 1 6 2 7 3 8 4 9 5 10 6 11 7 4 8 3 9 2 10 1 11
REMARK H PARENT
REMARK Flexibility Score: inf
ROOT
ATOM      1  C   UNL     1      12.399   5.279  53.530  1.00  0.00     0.004 C 
ENDROOT
BRANCH   1   2
ATOM      2  C   UNL     1      11.770   6.377  52.664  1.00  0.00     0.027 C 
BRANCH   2   3
ATOM      3  C   UNL     1      10.969   7.335  53.497  1.00  0.00    -0.025 C 
ATOM      4  C   UNL     1       9.639   7.418  53.382  1.00  0.00     0.020 C 
BRANCH   4   5
ATOM      5  C   UNL     1       8.843   8.360  54.181  1.00  0.00     0.064 C 
ATOM      6  O   UNL     1       8.550   8.074  55.371  1.00  0.00    -0.545 OA
ATOM      7  O   UNL     1       8.406   9.566  53.642  1.00  0.00    -0.545 OA
ENDBRANCH   4   5
ENDBRANCH   2   3
ENDBRANCH   1   2
BRANCH   1   8
ATOM      8  C   UNL     1      11.773   3.913  53.228  1.00  0.00     0.000 C 
BRANCH   8   9
ATOM      9  C   UNL     1      11.148   3.303  54.491  1.00  0.00    -0.000 C 
BRANCH   9  10
ATOM     10  C   UNL     1       9.726   3.822  54.755  1.00  0.00    -0.003 C 
ATOM     11  C   UNL     1       9.654   4.772  55.950  1.00  0.00     0.004 C 
ENDBRANCH   9  10
ENDBRANCH   8   9
ENDBRANCH   1   8
TORSDOF 6
ENDMDL
