MODEL 1
REMARK VINA RESULT:    -4.374      0.000      0.000
REMARK INTER + INTRA:         -10.426
REMARK INTER:                  -8.209
REMARK INTRA:                  -2.216
REMARK UNBOUND:                -2.216
REMARK SMILES O=C([O-])CCCCCCCCCCCCCCC(=O)[O-]
REMARK SMILES IDX 10 1 9 2 8 3 7 4 6 5 5 6 4 7 2 8 1 9 3 10 11 11 12 12 13 13
REMARK SMILES IDX 14 14 15 15 16 16 17 17 18 18 19 19 20 20
REMARK H PARENT
REMARK Flexibility Score: inf
ROOT
ATOM      1  C   UNL     1      40.646  22.278 223.009  1.00  0.00     0.000 C 
ENDROOT
BRANCH   1   2
ATOM      2  C   UNL     1      41.927  21.429 223.089  1.00  0.00     0.000 C 
BRANCH   2   3
ATOM      3  C   UNL     1      41.810  20.283 224.106  1.00  0.00     0.000 C 
BRANCH   3   4
ATOM      4  C   UNL     1      40.376  19.735 224.214  1.00  0.00     0.000 C 
BRANCH   4   5
ATOM      5  C   UNL     1      39.985  19.403 225.663  1.00  0.00     0.000 C 
BRANCH   5   6
ATOM      6  C   UNL     1      38.685  18.583 225.745  1.00  0.00     0.006 C 
BRANCH   6   7
ATOM      7  C   UNL     1      37.651  19.228 226.678  1.00  0.00     0.053 C 
BRANCH   7   8
ATOM      8  C   UNL     1      36.258  19.081 226.148  1.00  0.00     0.041 C 
ATOM      9  O   UNL     1      35.370  19.917 226.465  1.00  0.00    -0.550 OA
ATOM     10  O   UNL     1      35.950  18.045 225.274  1.00  0.00    -0.550 OA
ENDBRANCH   7   8
ENDBRANCH   6   7
ENDBRANCH   5   6
ENDBRANCH   4   5
ENDBRANCH   3   4
ENDBRANCH   2   3
ENDBRANCH   1   2
BRANCH   1  11
ATOM     11  C   UNL     1      40.915  23.770 223.301  1.00  0.00     0.000 C 
BRANCH  11  12
ATOM     12  C   UNL     1      40.246  24.274 224.592  1.00  0.00     0.000 C 
BRANCH  12  13
ATOM     13  C   UNL     1      40.534  23.371 225.803  1.00  0.00     0.000 C 
BRANCH  13  14
ATOM     14  C   UNL     1      39.258  22.769 226.411  1.00  0.00     0.000 C 
BRANCH  14  15
ATOM     15  C   UNL     1      37.973  23.441 225.893  1.00  0.00     0.000 C 
BRANCH  15  16
ATOM     16  C   UNL     1      37.157  22.521 224.970  1.00  0.00     0.006 C 
BRANCH  16  17
ATOM     17  C   UNL     1      36.745  23.210 223.662  1.00  0.00     0.053 C 
BRANCH  17  18
ATOM     18  C   UNL     1      36.168  24.564 223.936  1.00  0.00     0.041 C 
ATOM     19  O   UNL     1      35.078  24.674 224.559  1.00  0.00    -0.550 OA
ATOM     20  O   UNL     1      36.836  25.707 223.508  1.00  0.00    -0.550 OA
ENDBRANCH  17  18
ENDBRANCH  16  17
ENDBRANCH  15  16
ENDBRANCH  14  15
ENDBRANCH  13  14
ENDBRANCH  12  13
ENDBRANCH  11  12
ENDBRANCH   1  11
TORSDOF 15
ENDMDL
MODEL 2
REMARK VINA RESULT:    -4.356      1.711      2.318
REMARK INTER + INTRA:         -10.392
REMARK INTER:                  -8.365
REMARK INTRA:                  -2.027
REMARK UNBOUND:                -2.216
REMARK SMILES O=C([O-])CCCCCCCCCCCCCCC(=O)[O-]
REMARK SMILES IDX 10 1 9 2 8 3 7 4 6 5 5 6 4 7 2 8 1 9 3 10 11 11 12 12 13 13
REMARK SMILES IDX 14 14 15 15 16 16 17 17 18 18 19 19 20 20
REMARK H PARENT
REMARK Flexibility Score: inf
ROOT
ATOM      1  C   UNL     1      40.967  23.789 223.828  1.00  0.00     0.000 C 
ENDROOT
BRANCH   1   2
ATOM      2  C   UNL     1      40.288  22.434 223.559  1.00  0.00     0.000 C 
BRANCH   2   3
ATOM      3  C   UNL     1      40.717  21.352 224.562  1.00  0.00     0.000 C 
BRANCH   3   4
ATOM      4  C   UNL     1      39.541  20.830 225.405  1.00  0.00     0.000 C 
BRANCH   4   5
ATOM      5  C   UNL     1      38.552  21.944 225.785  1.00  0.00     0.000 C 
BRANCH   5   6
ATOM      6  C   UNL     1      37.086  21.497 225.651  1.00  0.00     0.006 C 
BRANCH   6   7
ATOM      7  C   UNL     1      36.657  20.569 226.796  1.00  0.00     0.053 C 
BRANCH   7   8
ATOM      8  C   UNL     1      36.155  19.254 226.284  1.00  0.00     0.041 C 
ATOM      9  O   UNL     1      34.964  19.144 225.885  1.00  0.00    -0.550 OA
ATOM     10  O   UNL     1      37.011  18.161 226.210  1.00  0.00    -0.550 OA
ENDBRANCH   7   8
ENDBRANCH   6   7
ENDBRANCH   5   6
ENDBRANCH   4   5
ENDBRANCH   3   4
ENDBRANCH   2   3
ENDBRANCH   1   2
BRANCH   1  11
ATOM     11  C   UNL     1      42.079  23.683 224.894  1.00  0.00     0.000 C 
BRANCH  11  12
ATOM     12  C   UNL     1      42.225  24.948 225.758  1.00  0.00     0.000 C 
BRANCH  12  13
ATOM     13  C   UNL     1      41.063  25.130 226.748  1.00  0.00     0.000 C 
BRANCH  13  14
ATOM     14  C   UNL     1      40.521  26.566 226.770  1.00  0.00     0.000 C 
BRANCH  14  15
ATOM     15  C   UNL     1      39.380  26.791 225.761  1.00  0.00     0.000 C 
BRANCH  15  16
ATOM     16  C   UNL     1      38.380  25.625 225.730  1.00  0.00     0.006 C 
BRANCH  16  17
ATOM     17  C   UNL     1      37.638  25.517 224.390  1.00  0.00     0.053 C 
BRANCH  17  18
ATOM     18  C   UNL     1      36.188  25.215 224.610  1.00  0.00     0.041 C 
ATOM     19  O   UNL     1      35.513  25.906 225.420  1.00  0.00    -0.550 OA
ATOM     20  O   UNL     1      35.579  24.174 223.917  1.00  0.00    -0.550 OA
ENDBRANCH  17  18
ENDBRANCH  16  17
ENDBRANCH  15  16
ENDBRANCH  14  15
ENDBRANCH  13  14
ENDBRANCH  12  13
ENDBRANCH  11  12
ENDBRANCH   1  11
TORSDOF 15
ENDMDL
MODEL 3
REMARK VINA RESULT:    -4.312      1.676      4.957
REMARK INTER + INTRA:         -10.310
REMARK INTER:                  -7.902
REMARK INTRA:                  -2.408
REMARK UNBOUND:                -2.216
REMARK SMILES O=C([O-])CCCCCCCCCCCCCCC(=O)[O-]
REMARK SMILES IDX 10 1 9 2 8 3 7 4 6 5 5 6 4 7 2 8 1 9 3 10 11 11 12 12 13 13
REMARK SMILES IDX 14 14 15 15 16 16 17 17 18 18 19 19 20 20
REMARK H PARENT
REMARK Flexibility Score: inf
ROOT
ATOM      1  C   UNL     1      40.656  25.623 225.870  1.00  0.00     0.000 C 
ENDROOT
BRANCH   1   2
ATOM      2  C   UNL     1      41.820  24.675 225.530  1.00  0.00     0.000 C 
BRANCH   2   3
ATOM      3  C   UNL     1      41.529  23.806 224.297  1.00  0.00     0.000 C 
BRANCH   3   4
ATOM      4  C   UNL     1      40.401  24.381 223.423  1.00  0.00     0.000 C 
BRANCH   4   5
ATOM      5  C   UNL     1      39.473  23.287 222.871  1.00  0.00     0.000 C 
BRANCH   5   6
ATOM      6  C   UNL     1      37.992  23.706 222.899  1.00  0.00     0.006 C 
BRANCH   6   7
ATOM      7  C   UNL     1      37.764  24.973 223.736  1.00  0.00     0.053 C 
BRANCH   7   8
ATOM      8  C   UNL     1      36.403  24.987 224.361  1.00  0.00     0.041 C 
ATOM      9  O   UNL     1      35.576  24.075 224.092  1.00  0.00    -0.550 OA
ATOM     10  O   UNL     1      36.063  25.982 225.270  1.00  0.00    -0.550 OA
ENDBRANCH   7   8
ENDBRANCH   6   7
ENDBRANCH   5   6
ENDBRANCH   4   5
ENDBRANCH   3   4
ENDBRANCH   2   3
ENDBRANCH   1   2
BRANCH   1  11
ATOM     11  C   UNL     1      40.282  25.573 227.367  1.00  0.00     0.000 C 
BRANCH  11  12
ATOM     12  C   UNL     1      38.953  24.849 227.645  1.00  0.00     0.000 C 
BRANCH  12  13
ATOM     13  C   UNL     1      39.112  23.321 227.718  1.00  0.00     0.000 C 
BRANCH  13  14
ATOM     14  C   UNL     1      38.529  22.605 226.491  1.00  0.00     0.000 C 
BRANCH  14  15
ATOM     15  C   UNL     1      39.360  21.381 226.062  1.00  0.00     0.000 C 
BRANCH  15  16
ATOM     16  C   UNL     1      38.492  20.254 225.478  1.00  0.00     0.006 C 
BRANCH  16  17
ATOM     17  C   UNL     1      36.996  20.456 225.754  1.00  0.00     0.053 C 
BRANCH  17  18
ATOM     18  C   UNL     1      36.274  19.144 225.744  1.00  0.00     0.041 C 
ATOM     19  O   UNL     1      36.915  18.069 225.593  1.00  0.00    -0.550 OA
ATOM     20  O   UNL     1      34.893  19.106 225.908  1.00  0.00    -0.550 OA
ENDBRANCH  17  18
ENDBRANCH  16  17
ENDBRANCH  15  16
ENDBRANCH  14  15
ENDBRANCH  13  14
ENDBRANCH  12  13
ENDBRANCH  11  12
ENDBRANCH   1  11
TORSDOF 15
ENDMDL
MODEL 4
REMARK VINA RESULT:    -4.312      2.580      3.926
REMARK INTER + INTRA:         -10.309
REMARK INTER:                  -7.843
REMARK INTRA:                  -2.465
REMARK UNBOUND:                -2.216
REMARK SMILES O=C([O-])CCCCCCCCCCCCCCC(=O)[O-]
REMARK SMILES IDX 10 1 9 2 8 3 7 4 6 5 5 6 4 7 2 8 1 9 3 10 11 11 12 12 13 13
REMARK SMILES IDX 14 14 15 15 16 16 17 17 18 18 19 19 20 20
REMARK H PARENT
REMARK Flexibility Score: inf
ROOT
ATOM      1  C   UNL     1      41.284  23.509 227.374  1.00  0.00     0.000 C 
ENDROOT
BRANCH   1   2
ATOM      2  C   UNL     1      39.871  24.118 227.356  1.00  0.00     0.000 C 
BRANCH   2   3
ATOM      3  C   UNL     1      38.794  23.094 226.967  1.00  0.00     0.000 C 
BRANCH   3   4
ATOM      4  C   UNL     1      39.374  21.688 226.732  1.00  0.00     0.000 C 
BRANCH   4   5
ATOM      5  C   UNL     1      38.890  21.068 225.412  1.00  0.00     0.000 C 
BRANCH   5   6
ATOM      6  C   UNL     1      39.529  19.694 225.142  1.00  0.00     0.006 C 
BRANCH   6   7
ATOM      7  C   UNL     1      40.746  19.793 224.213  1.00  0.00     0.053 C 
BRANCH   7   8
ATOM      8  C   UNL     1      42.028  19.571 224.955  1.00  0.00     0.041 C 
ATOM      9  O   UNL     1      42.026  19.504 226.213  1.00  0.00    -0.550 OA
ATOM     10  O   UNL     1      43.218  19.399 224.256  1.00  0.00    -0.550 OA
ENDBRANCH   7   8
ENDBRANCH   6   7
ENDBRANCH   5   6
ENDBRANCH   4   5
ENDBRANCH   3   4
ENDBRANCH   2   3
ENDBRANCH   1   2
BRANCH   1  11
ATOM     11  C   UNL     1      42.326  24.432 226.706  1.00  0.00     0.000 C 
BRANCH  11  12
ATOM     12  C   UNL     1      42.079  24.653 225.204  1.00  0.00     0.000 C 
BRANCH  12  13
ATOM     13  C   UNL     1      41.862  23.339 224.436  1.00  0.00     0.000 C 
BRANCH  13  14
ATOM     14  C   UNL     1      40.777  23.455 223.355  1.00  0.00     0.000 C 
BRANCH  14  15
ATOM     15  C   UNL     1      39.692  24.489 223.703  1.00  0.00     0.000 C 
BRANCH  15  16
ATOM     16  C   UNL     1      38.282  24.024 223.305  1.00  0.00     0.006 C 
BRANCH  16  17
ATOM     17  C   UNL     1      37.228  25.129 223.462  1.00  0.00     0.053 C 
BRANCH  17  18
ATOM     18  C   UNL     1      36.390  24.892 224.681  1.00  0.00     0.041 C 
ATOM     19  O   UNL     1      35.955  25.867 225.350  1.00  0.00    -0.550 OA
ATOM     20  O   UNL     1      36.083  23.593 225.074  1.00  0.00    -0.550 OA
ENDBRANCH  17  18
ENDBRANCH  16  17
ENDBRANCH  15  16
ENDBRANCH  14  15
ENDBRANCH  13  14
ENDBRANCH  12  13
ENDBRANCH  11  12
ENDBRANCH   1  11
TORSDOF 15
ENDMDL
MODEL 5
REMARK VINA RESULT:    -4.282      2.379      3.341
REMARK INTER + INTRA:         -10.254
REMARK INTER:                  -7.910
REMARK INTRA:                  -2.344
REMARK UNBOUND:                -2.216
REMARK SMILES O=C([O-])CCCCCCCCCCCCCCC(=O)[O-]
REMARK SMILES IDX 10 1 9 2 8 3 7 4 6 5 5 6 4 7 2 8 1 9 3 10 11 11 12 12 13 13
REMARK SMILES IDX 14 14 15 15 16 16 17 17 18 18 19 19 20 20
REMARK H PARENT
REMARK Flexibility Score: inf
ROOT
ATOM      1  C   UNL     1      41.808  25.616 226.755  1.00  0.00     0.000 C 
ENDROOT
BRANCH   1   2
ATOM      2  C   UNL     1      42.619  25.084 225.560  1.00  0.00     0.000 C 
BRANCH   2   3
ATOM      3  C   UNL     1      41.780  24.192 224.631  1.00  0.00     0.000 C 
BRANCH   3   4
ATOM      4  C   UNL     1      41.129  23.013 225.376  1.00  0.00     0.000 C 
BRANCH   4   5
ATOM      5  C   UNL     1      40.535  21.970 224.415  1.00  0.00     0.000 C 
BRANCH   5   6
ATOM      6  C   UNL     1      39.162  21.457 224.884  1.00  0.00     0.006 C 
BRANCH   6   7
ATOM      7  C   UNL     1      38.763  22.035 226.248  1.00  0.00     0.053 C 
BRANCH   7   8
ATOM      8  C   UNL     1      37.532  21.374 226.791  1.00  0.00     0.041 C 
ATOM      9  O   UNL     1      36.395  21.857 226.541  1.00  0.00    -0.550 OA
ATOM     10  O   UNL     1      37.638  20.207 227.537  1.00  0.00    -0.550 OA
ENDBRANCH   7   8
ENDBRANCH   6   7
ENDBRANCH   5   6
ENDBRANCH   4   5
ENDBRANCH   3   4
ENDBRANCH   2   3
ENDBRANCH   1   2
BRANCH   1  11
ATOM     11  C   UNL     1      41.533  27.131 226.646  1.00  0.00     0.000 C 
BRANCH  11  12
ATOM     12  C   UNL     1      40.045  27.472 226.450  1.00  0.00     0.000 C 
BRANCH  12  13
ATOM     13  C   UNL     1      39.108  26.488 227.169  1.00  0.00     0.000 C 
BRANCH  13  14
ATOM     14  C   UNL     1      38.209  25.708 226.199  1.00  0.00     0.000 C 
BRANCH  14  15
ATOM     15  C   UNL     1      38.505  26.025 224.721  1.00  0.00     0.000 C 
BRANCH  15  16
ATOM     16  C   UNL     1      38.103  24.880 223.779  1.00  0.00     0.006 C 
BRANCH  16  17
ATOM     17  C   UNL     1      36.584  24.664 223.725  1.00  0.00     0.053 C 
BRANCH  17  18
ATOM     18  C   UNL     1      36.246  23.494 222.853  1.00  0.00     0.041 C 
ATOM     19  O   UNL     1      35.926  22.390 223.369  1.00  0.00    -0.550 OA
ATOM     20  O   UNL     1      36.279  23.625 221.468  1.00  0.00    -0.550 OA
ENDBRANCH  17  18
ENDBRANCH  16  17
ENDBRANCH  15  16
ENDBRANCH  14  15
ENDBRANCH  13  14
ENDBRANCH  12  13
ENDBRANCH  11  12
ENDBRANCH   1  11
TORSDOF 15
ENDMDL
MODEL 6
REMARK VINA RESULT:    -4.247      2.014      5.600
REMARK INTER + INTRA:         -10.188
REMARK INTER:                  -7.935
REMARK INTRA:                  -2.253
REMARK UNBOUND:                -2.216
REMARK SMILES O=C([O-])CCCCCCCCCCCCCCC(=O)[O-]
REMARK SMILES IDX 10 1 9 2 8 3 7 4 6 5 5 6 4 7 2 8 1 9 3 10 11 11 12 12 13 13
REMARK SMILES IDX 14 14 15 15 16 16 17 17 18 18 19 19 20 20
REMARK H PARENT
REMARK Flexibility Score: inf
ROOT
ATOM      1  C   UNL     1      42.472  24.858 225.581  1.00  0.00     0.000 C 
ENDROOT
BRANCH   1   2
ATOM      2  C   UNL     1      42.043  24.638 227.043  1.00  0.00     0.000 C 
BRANCH   2   3
ATOM      3  C   UNL     1      41.221  25.812 227.597  1.00  0.00     0.000 C 
BRANCH   3   4
ATOM      4  C   UNL     1      41.182  27.011 226.634  1.00  0.00     0.000 C 
BRANCH   4   5
ATOM      5  C   UNL     1      39.756  27.334 226.158  1.00  0.00     0.000 C 
BRANCH   5   6
ATOM      6  C   UNL     1      38.913  26.065 225.933  1.00  0.00     0.006 C 
BRANCH   6   7
ATOM      7  C   UNL     1      38.563  25.858 224.453  1.00  0.00     0.053 C 
BRANCH   7   8
ATOM      8  C   UNL     1      37.096  25.626 224.258  1.00  0.00     0.041 C 
ATOM      9  O   UNL     1      36.678  25.078 223.203  1.00  0.00    -0.550 OA
ATOM     10  O   UNL     1      36.195  25.980 225.256  1.00  0.00    -0.550 OA
ENDBRANCH   7   8
ENDBRANCH   6   7
ENDBRANCH   5   6
ENDBRANCH   4   5
ENDBRANCH   3   4
ENDBRANCH   2   3
ENDBRANCH   1   2
BRANCH   1  11
ATOM     11  C   UNL     1      41.848  23.818 224.626  1.00  0.00     0.000 C 
BRANCH  11  12
ATOM     12  C   UNL     1      40.863  22.861 225.320  1.00  0.00     0.000 C 
BRANCH  12  13
ATOM     13  C   UNL     1      39.805  22.294 224.359  1.00  0.00     0.000 C 
BRANCH  13  14
ATOM     14  C   UNL     1      38.416  22.183 225.004  1.00  0.00     0.000 C 
BRANCH  14  15
ATOM     15  C   UNL     1      38.433  22.466 226.517  1.00  0.00     0.000 C 
BRANCH  15  16
ATOM     16  C   UNL     1      38.140  21.211 227.356  1.00  0.00     0.006 C 
BRANCH  16  17
ATOM     17  C   UNL     1      37.743  20.004 226.495  1.00  0.00     0.053 C 
BRANCH  17  18
ATOM     18  C   UNL     1      36.318  19.619 226.749  1.00  0.00     0.041 C 
ATOM     19  O   UNL     1      35.428  20.506 226.835  1.00  0.00    -0.550 OA
ATOM     20  O   UNL     1      35.972  18.278 226.884  1.00  0.00    -0.550 OA
ENDBRANCH  17  18
ENDBRANCH  16  17
ENDBRANCH  15  16
ENDBRANCH  14  15
ENDBRANCH  13  14
ENDBRANCH  12  13
ENDBRANCH  11  12
ENDBRANCH   1  11
TORSDOF 15
ENDMDL
MODEL 7
REMARK VINA RESULT:    -4.244      1.321      4.722
REMARK INTER + INTRA:         -10.182
REMARK INTER:                  -8.065
REMARK INTRA:                  -2.117
REMARK UNBOUND:                -2.216
REMARK SMILES O=C([O-])CCCCCCCCCCCCCCC(=O)[O-]
REMARK SMILES IDX 10 1 9 2 8 3 7 4 6 5 5 6 4 7 2 8 1 9 3 10 11 11 12 12 13 13
REMARK SMILES IDX 14 14 15 15 16 16 17 17 18 18 19 19 20 20
REMARK H PARENT
REMARK Flexibility Score: inf
ROOT
ATOM      1  C   UNL     1      41.364  20.031 222.897  1.00  0.00     0.000 C 
ENDROOT
BRANCH   1   2
ATOM      2  C   UNL     1      41.657  21.523 222.660  1.00  0.00     0.000 C 
BRANCH   2   3
ATOM      3  C   UNL     1      40.383  22.382 222.670  1.00  0.00     0.000 C 
BRANCH   3   4
ATOM      4  C   UNL     1      40.596  23.746 223.350  1.00  0.00     0.000 C 
BRANCH   4   5
ATOM      5  C   UNL     1      39.271  24.472 223.632  1.00  0.00     0.000 C 
BRANCH   5   6
ATOM      6  C   UNL     1      38.065  23.762 222.991  1.00  0.00     0.006 C 
BRANCH   6   7
ATOM      7  C   UNL     1      36.760  24.544 223.189  1.00  0.00     0.053 C 
BRANCH   7   8
ATOM      8  C   UNL     1      36.457  24.757 224.641  1.00  0.00     0.041 C 
ATOM      9  O   UNL     1      36.342  25.926 225.097  1.00  0.00    -0.550 OA
ATOM     10  O   UNL     1      36.263  23.667 225.481  1.00  0.00    -0.550 OA
ENDBRANCH   7   8
ENDBRANCH   6   7
ENDBRANCH   5   6
ENDBRANCH   4   5
ENDBRANCH   3   4
ENDBRANCH   2   3
ENDBRANCH   1   2
BRANCH   1  11
ATOM     11  C   UNL     1      41.570  19.622 224.372  1.00  0.00     0.000 C 
BRANCH  11  12
ATOM     12  C   UNL     1      42.092  20.766 225.259  1.00  0.00     0.000 C 
BRANCH  12  13
ATOM     13  C   UNL     1      41.344  20.870 226.598  1.00  0.00     0.000 C 
BRANCH  13  14
ATOM     14  C   UNL     1      40.264  21.963 226.592  1.00  0.00     0.000 C 
BRANCH  14  15
ATOM     15  C   UNL     1      38.938  21.491 225.968  1.00  0.00     0.000 C 
BRANCH  15  16
ATOM     16  C   UNL     1      38.394  20.216 226.631  1.00  0.00     0.006 C 
BRANCH  16  17
ATOM     17  C   UNL     1      37.786  19.235 225.619  1.00  0.00     0.053 C 
BRANCH  17  18
ATOM     18  C   UNL     1      36.306  19.118 225.817  1.00  0.00     0.041 C 
ATOM     19  O   UNL     1      35.608  20.152 226.000  1.00  0.00    -0.550 OA
ATOM     20  O   UNL     1      35.696  17.868 225.794  1.00  0.00    -0.550 OA
ENDBRANCH  17  18
ENDBRANCH  16  17
ENDBRANCH  15  16
ENDBRANCH  14  15
ENDBRANCH  13  14
ENDBRANCH  12  13
ENDBRANCH  11  12
ENDBRANCH   1  11
TORSDOF 15
ENDMDL
MODEL 8
REMARK VINA RESULT:    -4.243      1.526      2.744
REMARK INTER + INTRA:         -10.181
REMARK INTER:                  -8.336
REMARK INTRA:                  -1.844
REMARK UNBOUND:                -2.216
REMARK SMILES O=C([O-])CCCCCCCCCCCCCCC(=O)[O-]
REMARK SMILES IDX 10 1 9 2 8 3 7 4 6 5 5 6 4 7 2 8 1 9 3 10 11 11 12 12 13 13
REMARK SMILES IDX 14 14 15 15 16 16 17 17 18 18 19 19 20 20
REMARK H PARENT
REMARK Flexibility Score: inf
ROOT
ATOM      1  C   UNL     1      40.357  23.197 226.865  1.00  0.00     0.000 C 
ENDROOT
BRANCH   1   2
ATOM      2  C   UNL     1      39.271  22.416 227.625  1.00  0.00     0.000 C 
BRANCH   2   3
ATOM      3  C   UNL     1      38.996  21.037 227.007  1.00  0.00     0.000 C 
BRANCH   3   4
ATOM      4  C   UNL     1      38.875  19.929 228.067  1.00  0.00     0.000 C 
BRANCH   4   5
ATOM      5  C   UNL     1      39.078  18.526 227.473  1.00  0.00     0.000 C 
BRANCH   5   6
ATOM      6  C   UNL     1      38.112  18.237 226.310  1.00  0.00     0.006 C 
BRANCH   6   7
ATOM      7  C   UNL     1      36.652  18.158 226.777  1.00  0.00     0.053 C 
BRANCH   7   8
ATOM      8  C   UNL     1      35.787  19.150 226.061  1.00  0.00     0.041 C 
ATOM      9  O   UNL     1      35.389  18.910 224.889  1.00  0.00    -0.550 OA
ATOM     10  O   UNL     1      35.389  20.318 226.699  1.00  0.00    -0.550 OA
ENDBRANCH   7   8
ENDBRANCH   6   7
ENDBRANCH   5   6
ENDBRANCH   4   5
ENDBRANCH   3   4
ENDBRANCH   2   3
ENDBRANCH   1   2
BRANCH   1  11
ATOM     11  C   UNL     1      41.047  22.336 225.785  1.00  0.00     0.000 C 
BRANCH  11  12
ATOM     12  C   UNL     1      41.841  23.160 224.756  1.00  0.00     0.000 C 
BRANCH  12  13
ATOM     13  C   UNL     1      41.176  23.186 223.371  1.00  0.00     0.000 C 
BRANCH  13  14
ATOM     14  C   UNL     1      39.993  24.163 223.299  1.00  0.00     0.000 C 
BRANCH  14  15
ATOM     15  C   UNL     1      38.679  23.482 222.875  1.00  0.00     0.000 C 
BRANCH  15  16
ATOM     16  C   UNL     1      37.790  23.116 224.074  1.00  0.00     0.006 C 
BRANCH  16  17
ATOM     17  C   UNL     1      37.501  24.317 224.985  1.00  0.00     0.053 C 
BRANCH  17  18
ATOM     18  C   UNL     1      36.132  24.864 224.722  1.00  0.00     0.041 C 
ATOM     19  O   UNL     1      35.729  25.887 225.337  1.00  0.00    -0.550 OA
ATOM     20  O   UNL     1      35.302  24.248 223.790  1.00  0.00    -0.550 OA
ENDBRANCH  17  18
ENDBRANCH  16  17
ENDBRANCH  15  16
ENDBRANCH  14  15
ENDBRANCH  13  14
ENDBRANCH  12  13
ENDBRANCH  11  12
ENDBRANCH   1  11
TORSDOF 15
ENDMDL
MODEL 9
REMARK VINA RESULT:    -4.175      1.435      2.370
REMARK INTER + INTRA:         -10.053
REMARK INTER:                  -8.102
REMARK INTRA:                  -1.950
REMARK UNBOUND:                -2.216
REMARK SMILES O=C([O-])CCCCCCCCCCCCCCC(=O)[O-]
REMARK SMILES IDX 10 1 9 2 8 3 7 4 6 5 5 6 4 7 2 8 1 9 3 10 11 11 12 12 13 13
REMARK SMILES IDX 14 14 15 15 16 16 17 17 18 18 19 19 20 20
REMARK H PARENT
REMARK Flexibility Score: inf
ROOT
ATOM      1  C   UNL     1      42.614  20.362 223.880  1.00  0.00     0.000 C 
ENDROOT
BRANCH   1   2
ATOM      2  C   UNL     1      41.401  19.795 224.638  1.00  0.00     0.000 C 
BRANCH   2   3
ATOM      3  C   UNL     1      41.223  20.432 226.025  1.00  0.00     0.000 C 
BRANCH   3   4
ATOM      4  C   UNL     1      39.825  20.179 226.615  1.00  0.00     0.000 C 
BRANCH   4   5
ATOM      5  C   UNL     1      38.809  21.255 226.196  1.00  0.00     0.000 C 
BRANCH   5   6
ATOM      6  C   UNL     1      37.555  20.651 225.539  1.00  0.00     0.006 C 
BRANCH   6   7
ATOM      7  C   UNL     1      37.431  19.144 225.804  1.00  0.00     0.053 C 
BRANCH   7   8
ATOM      8  C   UNL     1      36.137  18.806 226.479  1.00  0.00     0.041 C 
ATOM      9  O   UNL     1      35.043  19.153 225.957  1.00  0.00    -0.550 OA
ATOM     10  O   UNL     1      36.136  18.075 227.661  1.00  0.00    -0.550 OA
ENDBRANCH   7   8
ENDBRANCH   6   7
ENDBRANCH   5   6
ENDBRANCH   4   5
ENDBRANCH   3   4
ENDBRANCH   2   3
ENDBRANCH   1   2
BRANCH   1  11
ATOM     11  C   UNL     1      42.196  21.223 222.669  1.00  0.00     0.000 C 
BRANCH  11  12
ATOM     12  C   UNL     1      40.759  21.765 222.767  1.00  0.00     0.000 C 
BRANCH  12  13
ATOM     13  C   UNL     1      40.706  23.298 222.868  1.00  0.00     0.000 C 
BRANCH  13  14
ATOM     14  C   UNL     1      41.067  23.814 224.268  1.00  0.00     0.000 C 
BRANCH  14  15
ATOM     15  C   UNL     1      39.907  24.565 224.948  1.00  0.00     0.000 C 
BRANCH  15  16
ATOM     16  C   UNL     1      38.588  24.445 224.167  1.00  0.00     0.006 C 
BRANCH  16  17
ATOM     17  C   UNL     1      37.652  25.639 224.401  1.00  0.00     0.053 C 
BRANCH  17  18
ATOM     18  C   UNL     1      36.526  25.258 225.312  1.00  0.00     0.041 C 
ATOM     19  O   UNL     1      35.577  26.061 225.517  1.00  0.00    -0.550 OA
ATOM     20  O   UNL     1      36.520  24.011 225.929  1.00  0.00    -0.550 OA
ENDBRANCH  17  18
ENDBRANCH  16  17
ENDBRANCH  15  16
ENDBRANCH  14  15
ENDBRANCH  13  14
ENDBRANCH  12  13
ENDBRANCH  11  12
ENDBRANCH   1  11
TORSDOF 15
ENDMDL
