MODEL 1
REMARK VINA RESULT:    -6.291      0.000      0.000
REMARK INTER + INTRA:          -7.129
REMARK INTER:                  -7.026
REMARK INTRA:                  -0.103
REMARK UNBOUND:                -0.103
REMARK SMILES CCc1ccc(O)cc1O
REMARK SMILES IDX 3 1 9 2 8 3 6 4 5 5 4 6 2 7 1 8 10 9 7 11
REMARK H PARENT 10 10 7 12
REMARK Flexibility Score: inf
ROOT
ATOM      1  C   UNL     1     -36.578  -9.426  26.818  1.00  0.00    -0.006 A 
ATOM      2  C   UNL     1     -37.861  -9.198  27.356  1.00  0.00     0.122 A 
ATOM      3  C   UNL     1     -38.732  -8.296  26.726  1.00  0.00     0.092 A 
ATOM      4  C   UNL     1     -38.332  -7.614  25.573  1.00  0.00     0.119 A 
ATOM      5  C   UNL     1     -37.053  -7.830  25.045  1.00  0.00     0.047 A 
ATOM      6  C   UNL     1     -36.180  -8.727  25.667  1.00  0.00     0.011 A 
ENDROOT
BRANCH   1   7
ATOM      7  C   UNL     1     -35.611 -10.367  27.492  1.00  0.00     0.036 C 
ATOM      8  C   UNL     1     -34.447  -9.596  28.107  1.00  0.00     0.009 C 
ENDBRANCH   1   7
BRANCH   2   9
ATOM      9  O   UNL     1     -38.265  -9.862  28.514  1.00  0.00    -0.508 OA
ATOM     10  H   UNL     1     -38.197  -9.428  29.426  1.00  0.00     0.293 HD
ENDBRANCH   2   9
BRANCH   4  11
ATOM     11  O   UNL     1     -39.211  -6.723  24.961  1.00  0.00    -0.508 OA
ATOM     12  H   UNL     1     -39.404  -6.769  23.967  1.00  0.00     0.293 HD
ENDBRANCH   4  11
TORSDOF 3
ENDMDL
MODEL 2
REMARK VINA RESULT:    -6.228      1.548      2.285
REMARK INTER + INTRA:          -7.059
REMARK INTER:                  -6.971
REMARK INTRA:                  -0.087
REMARK UNBOUND:                -0.103
REMARK SMILES CCc1ccc(O)cc1O
REMARK SMILES IDX 3 1 9 2 8 3 6 4 5 5 4 6 2 7 1 8 10 9 7 11
REMARK H PARENT 10 10 7 12
REMARK Flexibility Score: inf
ROOT
ATOM      1  C   UNL     1     -36.327  -9.188  26.623  1.00  0.00    -0.006 A 
ATOM      2  C   UNL     1     -36.138  -8.340  25.513  1.00  0.00     0.122 A 
ATOM      3  C   UNL     1     -37.210  -7.574  25.029  1.00  0.00     0.092 A 
ATOM      4  C   UNL     1     -38.467  -7.657  25.633  1.00  0.00     0.119 A 
ATOM      5  C   UNL     1     -38.660  -8.508  26.727  1.00  0.00     0.047 A 
ATOM      6  C   UNL     1     -37.597  -9.274  27.216  1.00  0.00     0.011 A 
ENDROOT
BRANCH   1   7
ATOM      7  C   UNL     1     -35.200 -10.044  27.145  1.00  0.00     0.036 C 
ATOM      8  C   UNL     1     -35.163 -10.016  28.670  1.00  0.00     0.009 C 
ENDBRANCH   1   7
BRANCH   2   9
ATOM      9  O   UNL     1     -34.891  -8.261  24.893  1.00  0.00    -0.508 OA
ATOM     10  H   UNL     1     -34.802  -8.181  23.887  1.00  0.00     0.293 HD
ENDBRANCH   2   9
BRANCH   4  11
ATOM     11  O   UNL     1     -39.520  -6.888  25.138  1.00  0.00    -0.508 OA
ATOM     12  H   UNL     1     -40.061  -7.188  24.335  1.00  0.00     0.293 HD
ENDBRANCH   4  11
TORSDOF 3
ENDMDL
MODEL 3
REMARK VINA RESULT:    -5.746      0.985      3.587
REMARK INTER + INTRA:          -6.521
REMARK INTER:                  -6.417
REMARK INTRA:                  -0.104
REMARK UNBOUND:                -0.103
REMARK SMILES CCc1ccc(O)cc1O
REMARK SMILES IDX 3 1 9 2 8 3 6 4 5 5 4 6 2 7 1 8 10 9 7 11
REMARK H PARENT 10 10 7 12
REMARK Flexibility Score: inf
ROOT
ATOM      1  C   UNL     1     -37.260  -7.708  25.287  1.00  0.00    -0.006 A 
ATOM      2  C   UNL     1     -38.589  -7.653  25.756  1.00  0.00     0.122 A 
ATOM      3  C   UNL     1     -38.963  -8.405  26.881  1.00  0.00     0.092 A 
ATOM      4  C   UNL     1     -38.030  -9.216  27.532  1.00  0.00     0.119 A 
ATOM      5  C   UNL     1     -36.714  -9.281  27.060  1.00  0.00     0.047 A 
ATOM      6  C   UNL     1     -36.333  -8.536  25.941  1.00  0.00     0.011 A 
ENDROOT
BRANCH   1   7
ATOM      7  C   UNL     1     -36.838  -6.934  24.064  1.00  0.00     0.036 C 
ATOM      8  C   UNL     1     -36.222  -5.595  24.457  1.00  0.00     0.009 C 
ENDBRANCH   1   7
BRANCH   2   9
ATOM      9  O   UNL     1     -39.531  -6.858  25.105  1.00  0.00    -0.508 OA
ATOM     10  H   UNL     1     -39.695  -6.938  24.109  1.00  0.00     0.293 HD
ENDBRANCH   2   9
BRANCH   4  11
ATOM     11  O   UNL     1     -38.421  -9.955  28.648  1.00  0.00    -0.508 OA
ATOM     12  H   UNL     1     -39.399 -10.085  28.879  1.00  0.00     0.293 HD
ENDBRANCH   4  11
TORSDOF 3
ENDMDL
MODEL 4
REMARK VINA RESULT:    -5.409      2.150      2.877
REMARK INTER + INTRA:          -6.144
REMARK INTER:                  -6.040
REMARK INTRA:                  -0.104
REMARK UNBOUND:                -0.103
REMARK SMILES CCc1ccc(O)cc1O
REMARK SMILES IDX 3 1 9 2 8 3 6 4 5 5 4 6 2 7 1 8 10 9 7 11
REMARK H PARENT 10 10 7 12
REMARK Flexibility Score: inf
ROOT
ATOM      1  C   UNL     1     -38.090  -9.776  25.868  1.00  0.00    -0.006 A 
ATOM      2  C   UNL     1     -38.419  -8.560  26.503  1.00  0.00     0.122 A 
ATOM      3  C   UNL     1     -37.703  -7.394  26.193  1.00  0.00     0.092 A 
ATOM      4  C   UNL     1     -36.657  -7.431  25.268  1.00  0.00     0.119 A 
ATOM      5  C   UNL     1     -36.319  -8.639  24.646  1.00  0.00     0.047 A 
ATOM      6  C   UNL     1     -37.028  -9.806  24.949  1.00  0.00     0.011 A 
ENDROOT
BRANCH   1   7
ATOM      7  C   UNL     1     -38.823 -11.049  26.204  1.00  0.00     0.036 C 
ATOM      8  C   UNL     1     -39.927 -11.322  25.186  1.00  0.00     0.009 C 
ENDBRANCH   1   7
BRANCH   2   9
ATOM      9  O   UNL     1     -39.452  -8.515  27.439  1.00  0.00    -0.508 OA
ATOM     10  H   UNL     1     -39.280  -8.660  28.426  1.00  0.00     0.293 HD
ENDBRANCH   2   9
BRANCH   4  11
ATOM     11  O   UNL     1     -35.957  -6.262  24.973  1.00  0.00    -0.508 OA
ATOM     12  H   UNL     1     -35.093  -6.029  25.449  1.00  0.00     0.293 HD
ENDBRANCH   4  11
TORSDOF 3
ENDMDL
MODEL 5
REMARK VINA RESULT:    -5.314      2.432      3.866
REMARK INTER + INTRA:          -6.037
REMARK INTER:                  -5.948
REMARK INTRA:                  -0.089
REMARK UNBOUND:                -0.103
REMARK SMILES CCc1ccc(O)cc1O
REMARK SMILES IDX 3 1 9 2 8 3 6 4 5 5 4 6 2 7 1 8 10 9 7 11
REMARK H PARENT 10 10 7 12
REMARK Flexibility Score: inf
ROOT
ATOM      1  C   UNL     1     -37.257  -9.891  24.521  1.00  0.00    -0.006 A 
ATOM      2  C   UNL     1     -36.516  -9.098  25.420  1.00  0.00     0.122 A 
ATOM      3  C   UNL     1     -36.900  -9.027  26.768  1.00  0.00     0.092 A 
ATOM      4  C   UNL     1     -38.020  -9.729  27.223  1.00  0.00     0.119 A 
ATOM      5  C   UNL     1     -38.765 -10.507  26.328  1.00  0.00     0.047 A 
ATOM      6  C   UNL     1     -38.388 -10.583  24.984  1.00  0.00     0.011 A 
ENDROOT
BRANCH   1   7
ATOM      7  C   UNL     1     -36.884  -9.962  23.061  1.00  0.00     0.036 C 
ATOM      8  C   UNL     1     -36.865 -11.409  22.578  1.00  0.00     0.009 C 
ENDBRANCH   1   7
BRANCH   2   9
ATOM      9  O   UNL     1     -35.406  -8.382  24.975  1.00  0.00    -0.508 OA
ATOM     10  H   UNL     1     -35.472  -7.720  24.211  1.00  0.00     0.293 HD
ENDBRANCH   2   9
BRANCH   4  11
ATOM     11  O   UNL     1     -38.386  -9.645  28.565  1.00  0.00    -0.508 OA
ATOM     12  H   UNL     1     -38.060  -8.889  29.156  1.00  0.00     0.293 HD
ENDBRANCH   4  11
TORSDOF 3
ENDMDL
MODEL 6
REMARK VINA RESULT:    -5.230      9.614     11.540
REMARK INTER + INTRA:          -5.944
REMARK INTER:                  -5.856
REMARK INTRA:                  -0.088
REMARK UNBOUND:                -0.103
REMARK SMILES CCc1ccc(O)cc1O
REMARK SMILES IDX 3 1 9 2 8 3 6 4 5 5 4 6 2 7 1 8 10 9 7 11
REMARK H PARENT 10 10 7 12
REMARK Flexibility Score: inf
ROOT
ATOM      1  C   UNL     1     -25.235 -10.719  28.232  1.00  0.00    -0.006 A 
ATOM      2  C   UNL     1     -26.102 -10.821  27.124  1.00  0.00     0.122 A 
ATOM      3  C   UNL     1     -27.350 -10.179  27.151  1.00  0.00     0.092 A 
ATOM      4  C   UNL     1     -27.744  -9.448  28.275  1.00  0.00     0.119 A 
ATOM      5  C   UNL     1     -26.891  -9.356  29.381  1.00  0.00     0.047 A 
ATOM      6  C   UNL     1     -25.646  -9.992  29.362  1.00  0.00     0.011 A 
ENDROOT
BRANCH   1   7
ATOM      7  C   UNL     1     -23.902 -11.422  28.240  1.00  0.00     0.036 C 
ATOM      8  C   UNL     1     -23.539 -11.875  29.652  1.00  0.00     0.009 C 
ENDBRANCH   1   7
BRANCH   2   9
ATOM      9  O   UNL     1     -25.724 -11.560  26.003  1.00  0.00    -0.508 OA
ATOM     10  H   UNL     1     -24.805 -11.463  25.588  1.00  0.00     0.293 HD
ENDBRANCH   2   9
BRANCH   4  11
ATOM     11  O   UNL     1     -28.987  -8.818  28.284  1.00  0.00    -0.508 OA
ATOM     12  H   UNL     1     -29.682  -9.028  28.991  1.00  0.00     0.293 HD
ENDBRANCH   4  11
TORSDOF 3
ENDMDL
MODEL 7
REMARK VINA RESULT:    -5.166      2.297      3.866
REMARK INTER + INTRA:          -5.873
REMARK INTER:                  -5.771
REMARK INTRA:                  -0.102
REMARK UNBOUND:                -0.103
REMARK SMILES CCc1ccc(O)cc1O
REMARK SMILES IDX 3 1 9 2 8 3 6 4 5 5 4 6 2 7 1 8 10 9 7 11
REMARK H PARENT 10 10 7 12
REMARK Flexibility Score: inf
ROOT
ATOM      1  C   UNL     1     -37.039  -8.676  25.288  1.00  0.00    -0.006 A 
ATOM      2  C   UNL     1     -37.475  -9.628  24.345  1.00  0.00     0.122 A 
ATOM      3  C   UNL     1     -38.324 -10.671  24.747  1.00  0.00     0.092 A 
ATOM      4  C   UNL     1     -38.729 -10.779  26.080  1.00  0.00     0.119 A 
ATOM      5  C   UNL     1     -38.286  -9.842  27.021  1.00  0.00     0.047 A 
ATOM      6  C   UNL     1     -37.441  -8.800  26.628  1.00  0.00     0.011 A 
ENDROOT
BRANCH   1   7
ATOM      7  C   UNL     1     -36.104  -7.562  24.890  1.00  0.00     0.036 C 
ATOM      8  C   UNL     1     -36.887  -6.311  24.504  1.00  0.00     0.009 C 
ENDBRANCH   1   7
BRANCH   2   9
ATOM      9  O   UNL     1     -37.065  -9.538  23.015  1.00  0.00    -0.508 OA
ATOM     10  H   UNL     1     -36.132  -9.808  22.728  1.00  0.00     0.293 HD
ENDBRANCH   2   9
BRANCH   4  11
ATOM     11  O   UNL     1     -39.572 -11.823  26.460  1.00  0.00    -0.508 OA
ATOM     12  H   UNL     1     -40.542 -11.852  26.168  1.00  0.00     0.293 HD
ENDBRANCH   4  11
TORSDOF 3
ENDMDL
MODEL 8
REMARK VINA RESULT:    -5.160      9.929     11.675
REMARK INTER + INTRA:          -5.866
REMARK INTER:                  -5.777
REMARK INTRA:                  -0.089
REMARK UNBOUND:                -0.103
REMARK SMILES CCc1ccc(O)cc1O
REMARK SMILES IDX 3 1 9 2 8 3 6 4 5 5 4 6 2 7 1 8 10 9 7 11
REMARK H PARENT 10 10 7 12
REMARK Flexibility Score: inf
ROOT
ATOM      1  C   UNL     1     -25.276 -11.743  27.266  1.00  0.00    -0.006 A 
ATOM      2  C   UNL     1     -25.620 -11.377  28.583  1.00  0.00     0.122 A 
ATOM      3  C   UNL     1     -26.697 -10.505  28.807  1.00  0.00     0.092 A 
ATOM      4  C   UNL     1     -27.424  -9.987  27.731  1.00  0.00     0.119 A 
ATOM      5  C   UNL     1     -27.076 -10.339  26.422  1.00  0.00     0.047 A 
ATOM      6  C   UNL     1     -26.005 -11.208  26.190  1.00  0.00     0.011 A 
ENDROOT
BRANCH   1   7
ATOM      7  C   UNL     1     -24.106 -12.654  26.995  1.00  0.00     0.036 C 
ATOM      8  C   UNL     1     -24.490 -13.746  26.000  1.00  0.00     0.009 C 
ENDBRANCH   1   7
BRANCH   2   9
ATOM      9  O   UNL     1     -24.893 -11.875  29.663  1.00  0.00    -0.508 OA
ATOM     10  H   UNL     1     -24.447 -12.784  29.629  1.00  0.00     0.293 HD
ENDBRANCH   2   9
BRANCH   4  11
ATOM     11  O   UNL     1     -28.490  -9.123  27.974  1.00  0.00    -0.508 OA
ATOM     12  H   UNL     1     -29.450  -9.443  27.935  1.00  0.00     0.293 HD
ENDBRANCH   4  11
TORSDOF 3
ENDMDL
MODEL 9
REMARK VINA RESULT:    -5.111      2.443      3.712
REMARK INTER + INTRA:          -5.811
REMARK INTER:                  -5.738
REMARK INTRA:                  -0.073
REMARK UNBOUND:                -0.103
REMARK SMILES CCc1ccc(O)cc1O
REMARK SMILES IDX 3 1 9 2 8 3 6 4 5 5 4 6 2 7 1 8 10 9 7 11
REMARK H PARENT 10 10 7 12
REMARK Flexibility Score: inf
ROOT
ATOM      1  C   UNL     1     -37.506  -9.878  24.480  1.00  0.00    -0.006 A 
ATOM      2  C   UNL     1     -38.699 -10.386  25.033  1.00  0.00     0.122 A 
ATOM      3  C   UNL     1     -38.908 -10.325  26.419  1.00  0.00     0.092 A 
ATOM      4  C   UNL     1     -37.935  -9.773  27.257  1.00  0.00     0.119 A 
ATOM      5  C   UNL     1     -36.744  -9.280  26.712  1.00  0.00     0.047 A 
ATOM      6  C   UNL     1     -36.528  -9.337  25.332  1.00  0.00     0.011 A 
ENDROOT
BRANCH   1   7
ATOM      7  C   UNL     1     -37.243  -9.958  22.998  1.00  0.00     0.036 C 
ATOM      8  C   UNL     1     -36.670 -11.322  22.623  1.00  0.00     0.009 C 
ENDBRANCH   1   7
BRANCH   2   9
ATOM      9  O   UNL     1     -39.670 -10.952  24.207  1.00  0.00    -0.508 OA
ATOM     10  H   UNL     1     -40.579 -11.221  24.564  1.00  0.00     0.293 HD
ENDBRANCH   2   9
BRANCH   4  11
ATOM     11  O   UNL     1     -38.161  -9.721  28.632  1.00  0.00    -0.508 OA
ATOM     12  H   UNL     1     -39.097  -9.783  29.017  1.00  0.00     0.293 HD
ENDBRANCH   4  11
TORSDOF 3
ENDMDL
