MODEL 1
REMARK VINA RESULT:    -7.036      0.000      0.000
REMARK INTER + INTRA:         -16.747
REMARK INTER:                 -15.263
REMARK INTRA:                  -1.484
REMARK UNBOUND:                -1.484
REMARK SMILES CCCCCCCCCCCCCCCCCCCCCC(=O)[O-]
REMARK SMILES IDX 12 1 11 2 10 3 9 4 8 5 7 6 6 7 5 8 4 9 3 10 2 11 1 12 13 13
REMARK SMILES IDX 14 14 15 15 16 16 17 17 18 18 19 19 20 20 21 21 22 22 23 23
REMARK SMILES IDX 24 24
REMARK H PARENT
REMARK Flexibility Score: inf
ROOT
ATOM      1  C   UNL     1     -21.291 -19.676  28.818  1.00  0.00     0.000 C 
ENDROOT
BRANCH   1   2
ATOM      2  C   UNL     1     -20.901 -18.552  29.790  1.00  0.00     0.000 C 
BRANCH   2   3
ATOM      3  C   UNL     1     -20.043 -19.096  30.942  1.00  0.00     0.000 C 
BRANCH   3   4
ATOM      4  C   UNL     1     -19.096 -18.038  31.528  1.00  0.00    -0.000 C 
BRANCH   4   5
ATOM      5  C   UNL     1     -19.298 -16.650  30.901  1.00  0.00    -0.000 C 
BRANCH   5   6
ATOM      6  C   UNL     1     -17.954 -15.943  30.687  1.00  0.00    -0.000 C 
BRANCH   6   7
ATOM      7  C   UNL     1     -17.891 -15.292  29.296  1.00  0.00    -0.000 C 
BRANCH   7   8
ATOM      8  C   UNL     1     -18.362 -16.237  28.179  1.00  0.00    -0.000 C 
BRANCH   8   9
ATOM      9  C   UNL     1     -17.356 -16.337  27.023  1.00  0.00    -0.000 C 
BRANCH   9  10
ATOM     10  C   UNL     1     -17.643 -15.275  25.951  1.00  0.00    -0.000 C 
BRANCH  10  11
ATOM     11  C   UNL     1     -16.392 -14.892  25.147  1.00  0.00    -0.003 C 
ATOM     12  C   UNL     1     -15.751 -16.088  24.444  1.00  0.00     0.004 C 
ENDBRANCH  10  11
ENDBRANCH   9  10
ENDBRANCH   8   9
ENDBRANCH   7   8
ENDBRANCH   6   7
ENDBRANCH   5   6
ENDBRANCH   4   5
ENDBRANCH   3   4
ENDBRANCH   2   3
ENDBRANCH   1   2
BRANCH   1  13
ATOM     13  C   UNL     1     -22.184 -20.747  29.469  1.00  0.00     0.000 C 
BRANCH  13  14
ATOM     14  C   UNL     1     -22.377 -22.032  28.639  1.00  0.00     0.000 C 
BRANCH  14  15
ATOM     15  C   UNL     1     -22.076 -23.343  29.388  1.00  0.00     0.000 C 
BRANCH  15  16
ATOM     16  C   UNL     1     -22.049 -23.166  30.913  1.00  0.00     0.000 C 
BRANCH  16  17
ATOM     17  C   UNL     1     -23.344 -23.688  31.553  1.00  0.00     0.000 C 
BRANCH  17  18
ATOM     18  C   UNL     1     -23.512 -25.211  31.367  1.00  0.00     0.000 C 
BRANCH  18  19
ATOM     19  C   UNL     1     -24.951 -25.634  31.025  1.00  0.00     0.000 C 
BRANCH  19  20
ATOM     20  C   UNL     1     -25.203 -25.728  29.512  1.00  0.00     0.006 C 
BRANCH  20  21
ATOM     21  C   UNL     1     -24.846 -27.111  28.950  1.00  0.00     0.053 C 
BRANCH  21  22
ATOM     22  C   UNL     1     -26.072 -27.909  28.621  1.00  0.00     0.041 C 
ATOM     23  O   UNL     1     -26.535 -27.908  27.449  1.00  0.00    -0.550 OA
ATOM     24  O   UNL     1     -26.693 -28.669  29.606  1.00  0.00    -0.550 OA
ENDBRANCH  21  22
ENDBRANCH  20  21
ENDBRANCH  19  20
ENDBRANCH  18  19
ENDBRANCH  17  18
ENDBRANCH  16  17
ENDBRANCH  15  16
ENDBRANCH  14  15
ENDBRANCH  13  14
ENDBRANCH   1  13
TORSDOF 20
ENDMDL
MODEL 2
REMARK VINA RESULT:    -6.977      4.707     11.550
REMARK INTER + INTRA:         -16.618
REMARK INTER:                 -15.482
REMARK INTRA:                  -1.135
REMARK UNBOUND:                -1.484
REMARK SMILES CCCCCCCCCCCCCCCCCCCCCC(=O)[O-]
REMARK SMILES IDX 12 1 11 2 10 3 9 4 8 5 7 6 6 7 5 8 4 9 3 10 2 11 1 12 13 13
REMARK SMILES IDX 14 14 15 15 16 16 17 17 18 18 19 19 20 20 21 21 22 22 23 23
REMARK SMILES IDX 24 24
REMARK H PARENT
REMARK Flexibility Score: inf
ROOT
ATOM      1  C   UNL     1     -22.103 -22.109  28.639  1.00  0.00     0.000 C 
ENDROOT
BRANCH   1   2
ATOM      2  C   UNL     1     -22.231 -23.424  29.424  1.00  0.00     0.000 C 
BRANCH   2   3
ATOM      3  C   UNL     1     -22.260 -23.159  30.936  1.00  0.00     0.000 C 
BRANCH   3   4
ATOM      4  C   UNL     1     -23.492 -23.769  31.622  1.00  0.00    -0.000 C 
BRANCH   4   5
ATOM      5  C   UNL     1     -23.573 -25.293  31.448  1.00  0.00    -0.000 C 
BRANCH   5   6
ATOM      6  C   UNL     1     -25.023 -25.782  31.550  1.00  0.00    -0.000 C 
BRANCH   6   7
ATOM      7  C   UNL     1     -25.276 -26.957  30.593  1.00  0.00    -0.000 C 
BRANCH   7   8
ATOM      8  C   UNL     1     -25.594 -26.496  29.162  1.00  0.00    -0.000 C 
BRANCH   8   9
ATOM      9  C   UNL     1     -25.349 -27.594  28.116  1.00  0.00    -0.000 C 
BRANCH   9  10
ATOM     10  C   UNL     1     -26.676 -28.116  27.546  1.00  0.00    -0.000 C 
BRANCH  10  11
ATOM     11  C   UNL     1     -26.539 -28.632  26.106  1.00  0.00    -0.003 C 
ATOM     12  C   UNL     1     -27.874 -28.682  25.364  1.00  0.00     0.004 C 
ENDBRANCH  10  11
ENDBRANCH   9  10
ENDBRANCH   8   9
ENDBRANCH   7   8
ENDBRANCH   6   7
ENDBRANCH   5   6
ENDBRANCH   4   5
ENDBRANCH   3   4
ENDBRANCH   2   3
ENDBRANCH   1   2
BRANCH   1  13
ATOM     13  C   UNL     1     -22.202 -20.864  29.537  1.00  0.00     0.000 C 
BRANCH  13  14
ATOM     14  C   UNL     1     -21.629 -19.569  28.927  1.00  0.00     0.000 C 
BRANCH  14  15
ATOM     15  C   UNL     1     -20.264 -19.132  29.490  1.00  0.00     0.000 C 
BRANCH  15  16
ATOM     16  C   UNL     1     -20.346 -18.656  30.947  1.00  0.00     0.000 C 
BRANCH  16  17
ATOM     17  C   UNL     1     -19.392 -17.479  31.199  1.00  0.00     0.000 C 
BRANCH  17  18
ATOM     18  C   UNL     1     -19.088 -16.689  29.908  1.00  0.00     0.000 C 
BRANCH  18  19
ATOM     19  C   UNL     1     -17.950 -15.667  30.066  1.00  0.00     0.000 C 
BRANCH  19  20
ATOM     20  C   UNL     1     -17.338 -15.241  28.723  1.00  0.00     0.006 C 
BRANCH  20  21
ATOM     21  C   UNL     1     -17.908 -16.043  27.545  1.00  0.00     0.053 C 
BRANCH  21  22
ATOM     22  C   UNL     1     -17.512 -15.451  26.226  1.00  0.00     0.041 C 
ATOM     23  O   UNL     1     -16.314 -15.122  26.011  1.00  0.00    -0.550 OA
ATOM     24  O   UNL     1     -18.464 -15.279  25.227  1.00  0.00    -0.550 OA
ENDBRANCH  21  22
ENDBRANCH  20  21
ENDBRANCH  19  20
ENDBRANCH  18  19
ENDBRANCH  17  18
ENDBRANCH  16  17
ENDBRANCH  15  16
ENDBRANCH  14  15
ENDBRANCH  13  14
ENDBRANCH   1  13
TORSDOF 20
ENDMDL
MODEL 3
REMARK VINA RESULT:    -6.966      1.293      2.609
REMARK INTER + INTRA:         -16.594
REMARK INTER:                 -15.489
REMARK INTRA:                  -1.105
REMARK UNBOUND:                -1.484
REMARK SMILES CCCCCCCCCCCCCCCCCCCCCC(=O)[O-]
REMARK SMILES IDX 12 1 11 2 10 3 9 4 8 5 7 6 6 7 5 8 4 9 3 10 2 11 1 12 13 13
REMARK SMILES IDX 14 14 15 15 16 16 17 17 18 18 19 19 20 20 21 21 22 22 23 23
REMARK SMILES IDX 24 24
REMARK H PARENT
REMARK Flexibility Score: inf
ROOT
ATOM      1  C   UNL     1     -22.189 -22.146  28.617  1.00  0.00     0.000 C 
ENDROOT
BRANCH   1   2
ATOM      2  C   UNL     1     -22.684 -20.937  29.426  1.00  0.00     0.000 C 
BRANCH   2   3
ATOM      3  C   UNL     1     -21.521 -19.997  29.774  1.00  0.00     0.000 C 
BRANCH   3   4
ATOM      4  C   UNL     1     -21.164 -20.022  31.269  1.00  0.00    -0.000 C 
BRANCH   4   5
ATOM      5  C   UNL     1     -20.176 -18.913  31.660  1.00  0.00    -0.000 C 
BRANCH   5   6
ATOM      6  C   UNL     1     -19.611 -18.216  30.417  1.00  0.00    -0.000 C 
BRANCH   6   7
ATOM      7  C   UNL     1     -19.438 -16.709  30.661  1.00  0.00    -0.000 C 
BRANCH   7   8
ATOM      8  C   UNL     1     -18.281 -16.107  29.849  1.00  0.00    -0.000 C 
BRANCH   8   9
ATOM      9  C   UNL     1     -18.425 -16.353  28.339  1.00  0.00    -0.000 C 
BRANCH   9  10
ATOM     10  C   UNL     1     -17.453 -15.469  27.544  1.00  0.00    -0.000 C 
BRANCH  10  11
ATOM     11  C   UNL     1     -17.692 -15.542  26.028  1.00  0.00    -0.003 C 
ATOM     12  C   UNL     1     -16.439 -15.218  25.214  1.00  0.00     0.004 C 
ENDBRANCH  10  11
ENDBRANCH   9  10
ENDBRANCH   8   9
ENDBRANCH   7   8
ENDBRANCH   6   7
ENDBRANCH   5   6
ENDBRANCH   4   5
ENDBRANCH   3   4
ENDBRANCH   2   3
ENDBRANCH   1   2
BRANCH   1  13
ATOM     13  C   UNL     1     -22.410 -23.484  29.344  1.00  0.00     0.000 C 
BRANCH  13  14
ATOM     14  C   UNL     1     -22.396 -23.402  30.884  1.00  0.00     0.000 C 
BRANCH  14  15
ATOM     15  C   UNL     1     -23.527 -24.173  31.589  1.00  0.00     0.000 C 
BRANCH  15  16
ATOM     16  C   UNL     1     -23.658 -25.620  31.095  1.00  0.00     0.000 C 
BRANCH  16  17
ATOM     17  C   UNL     1     -25.022 -26.213  31.478  1.00  0.00     0.000 C 
BRANCH  17  18
ATOM     18  C   UNL     1     -25.551 -27.195  30.411  1.00  0.00     0.000 C 
BRANCH  18  19
ATOM     19  C   UNL     1     -25.654 -26.579  29.005  1.00  0.00     0.000 C 
BRANCH  19  20
ATOM     20  C   UNL     1     -25.431 -27.607  27.884  1.00  0.00     0.006 C 
BRANCH  20  21
ATOM     21  C   UNL     1     -26.720 -28.357  27.522  1.00  0.00     0.053 C 
BRANCH  21  22
ATOM     22  C   UNL     1     -26.907 -28.453  26.037  1.00  0.00     0.041 C 
ATOM     23  O   UNL     1     -27.957 -28.011  25.499  1.00  0.00    -0.550 OA
ATOM     24  O   UNL     1     -25.912 -29.015  25.245  1.00  0.00    -0.550 OA
ENDBRANCH  21  22
ENDBRANCH  20  21
ENDBRANCH  19  20
ENDBRANCH  18  19
ENDBRANCH  17  18
ENDBRANCH  16  17
ENDBRANCH  15  16
ENDBRANCH  14  15
ENDBRANCH  13  14
ENDBRANCH   1  13
TORSDOF 20
ENDMDL
MODEL 4
REMARK VINA RESULT:    -6.914      4.723     11.621
REMARK INTER + INTRA:         -16.482
REMARK INTER:                 -15.080
REMARK INTRA:                  -1.402
REMARK UNBOUND:                -1.484
REMARK SMILES CCCCCCCCCCCCCCCCCCCCCC(=O)[O-]
REMARK SMILES IDX 12 1 11 2 10 3 9 4 8 5 7 6 6 7 5 8 4 9 3 10 2 11 1 12 13 13
REMARK SMILES IDX 14 14 15 15 16 16 17 17 18 18 19 19 20 20 21 21 22 22 23 23
REMARK SMILES IDX 24 24
REMARK H PARENT
REMARK Flexibility Score: inf
ROOT
ATOM      1  C   UNL     1     -22.394 -20.954  29.364  1.00  0.00     0.000 C 
ENDROOT
BRANCH   1   2
ATOM      2  C   UNL     1     -22.255 -22.293  28.623  1.00  0.00     0.000 C 
BRANCH   2   3
ATOM      3  C   UNL     1     -22.451 -23.475  29.584  1.00  0.00     0.000 C 
BRANCH   3   4
ATOM      4  C   UNL     1     -22.864 -24.766  28.861  1.00  0.00    -0.000 C 
BRANCH   4   5
ATOM      5  C   UNL     1     -24.209 -25.318  29.356  1.00  0.00    -0.000 C 
BRANCH   5   6
ATOM      6  C   UNL     1     -24.302 -25.248  30.885  1.00  0.00    -0.000 C 
BRANCH   6   7
ATOM      7  C   UNL     1     -25.192 -26.374  31.434  1.00  0.00    -0.000 C 
BRANCH   7   8
ATOM      8  C   UNL     1     -25.126 -27.650  30.580  1.00  0.00    -0.000 C 
BRANCH   8   9
ATOM      9  C   UNL     1     -26.455 -28.421  30.562  1.00  0.00    -0.000 C 
BRANCH   9  10
ATOM     10  C   UNL     1     -26.756 -28.962  29.157  1.00  0.00    -0.000 C 
BRANCH  10  11
ATOM     11  C   UNL     1     -26.343 -27.985  28.045  1.00  0.00    -0.003 C 
ATOM     12  C   UNL     1     -26.755 -28.464  26.653  1.00  0.00     0.004 C 
ENDBRANCH  10  11
ENDBRANCH   9  10
ENDBRANCH   8   9
ENDBRANCH   7   8
ENDBRANCH   6   7
ENDBRANCH   5   6
ENDBRANCH   4   5
ENDBRANCH   3   4
ENDBRANCH   2   3
ENDBRANCH   1   2
BRANCH   1  13
ATOM     13  C   UNL     1     -22.043 -21.058  30.858  1.00  0.00     0.000 C 
BRANCH  13  14
ATOM     14  C   UNL     1     -21.610 -19.736  31.522  1.00  0.00     0.000 C 
BRANCH  14  15
ATOM     15  C   UNL     1     -20.120 -19.383  31.361  1.00  0.00     0.000 C 
BRANCH  15  16
ATOM     16  C   UNL     1     -19.822 -17.907  31.661  1.00  0.00     0.000 C 
BRANCH  16  17
ATOM     17  C   UNL     1     -19.900 -17.057  30.385  1.00  0.00     0.000 C 
BRANCH  17  18
ATOM     18  C   UNL     1     -19.492 -17.854  29.128  1.00  0.00     0.000 C 
BRANCH  18  19
ATOM     19  C   UNL     1     -18.179 -17.368  28.491  1.00  0.00     0.000 C 
BRANCH  19  20
ATOM     20  C   UNL     1     -18.277 -15.941  27.931  1.00  0.00     0.006 C 
BRANCH  20  21
ATOM     21  C   UNL     1     -17.008 -15.526  27.173  1.00  0.00     0.053 C 
BRANCH  21  22
ATOM     22  C   UNL     1     -17.267 -15.360  25.706  1.00  0.00     0.041 C 
ATOM     23  O   UNL     1     -18.449 -15.285  25.274  1.00  0.00    -0.550 OA
ATOM     24  O   UNL     1     -16.202 -15.269  24.817  1.00  0.00    -0.550 OA
ENDBRANCH  21  22
ENDBRANCH  20  21
ENDBRANCH  19  20
ENDBRANCH  18  19
ENDBRANCH  17  18
ENDBRANCH  16  17
ENDBRANCH  15  16
ENDBRANCH  14  15
ENDBRANCH  13  14
ENDBRANCH   1  13
TORSDOF 20
ENDMDL
MODEL 5
REMARK VINA RESULT:    -6.856      4.755     11.461
REMARK INTER + INTRA:         -16.355
REMARK INTER:                 -14.893
REMARK INTRA:                  -1.463
REMARK UNBOUND:                -1.484
REMARK SMILES CCCCCCCCCCCCCCCCCCCCCC(=O)[O-]
REMARK SMILES IDX 12 1 11 2 10 3 9 4 8 5 7 6 6 7 5 8 4 9 3 10 2 11 1 12 13 13
REMARK SMILES IDX 14 14 15 15 16 16 17 17 18 18 19 19 20 20 21 21 22 22 23 23
REMARK SMILES IDX 24 24
REMARK H PARENT
REMARK Flexibility Score: inf
ROOT
ATOM      1  C   UNL     1     -22.422 -24.070  28.431  1.00  0.00     0.000 C 
ENDROOT
BRANCH   1   2
ATOM      2  C   UNL     1     -23.400 -25.021  29.138  1.00  0.00     0.000 C 
BRANCH   2   3
ATOM      3  C   UNL     1     -23.501 -24.691  30.635  1.00  0.00     0.000 C 
BRANCH   3   4
ATOM      4  C   UNL     1     -24.041 -25.864  31.467  1.00  0.00    -0.000 C 
BRANCH   4   5
ATOM      5  C   UNL     1     -25.575 -25.881  31.540  1.00  0.00    -0.000 C 
BRANCH   5   6
ATOM      6  C   UNL     1     -26.128 -27.263  31.169  1.00  0.00    -0.000 C 
BRANCH   6   7
ATOM      7  C   UNL     1     -25.482 -27.785  29.876  1.00  0.00    -0.000 C 
BRANCH   7   8
ATOM      8  C   UNL     1     -26.211 -27.300  28.613  1.00  0.00    -0.000 C 
BRANCH   8   9
ATOM      9  C   UNL     1     -26.848 -28.450  27.818  1.00  0.00    -0.000 C 
BRANCH   9  10
ATOM     10  C   UNL     1     -26.436 -28.389  26.339  1.00  0.00    -0.000 C 
BRANCH  10  11
ATOM     11  C   UNL     1     -27.400 -29.160  25.425  1.00  0.00    -0.003 C 
ATOM     12  C   UNL     1     -28.378 -28.243  24.689  1.00  0.00     0.004 C 
ENDBRANCH  10  11
ENDBRANCH   9  10
ENDBRANCH   8   9
ENDBRANCH   7   8
ENDBRANCH   6   7
ENDBRANCH   5   6
ENDBRANCH   4   5
ENDBRANCH   3   4
ENDBRANCH   2   3
ENDBRANCH   1   2
BRANCH   1  13
ATOM     13  C   UNL     1     -21.940 -22.925  29.339  1.00  0.00     0.000 C 
BRANCH  13  14
ATOM     14  C   UNL     1     -22.014 -21.518  28.713  1.00  0.00     0.000 C 
BRANCH  14  15
ATOM     15  C   UNL     1     -21.950 -20.353  29.718  1.00  0.00     0.000 C 
BRANCH  15  16
ATOM     16  C   UNL     1     -21.760 -20.826  31.166  1.00  0.00     0.000 C 
BRANCH  16  17
ATOM     17  C   UNL     1     -20.729 -19.957  31.900  1.00  0.00     0.000 C 
BRANCH  17  18
ATOM     18  C   UNL     1     -20.424 -18.648  31.141  1.00  0.00     0.000 C 
BRANCH  18  19
ATOM     19  C   UNL     1     -18.931 -18.453  30.825  1.00  0.00     0.000 C 
BRANCH  19  20
ATOM     20  C   UNL     1     -18.663 -18.209  29.332  1.00  0.00     0.006 C 
BRANCH  20  21
ATOM     21  C   UNL     1     -19.184 -16.844  28.864  1.00  0.00     0.053 C 
BRANCH  21  22
ATOM     22  C   UNL     1     -18.067 -15.943  28.429  1.00  0.00     0.041 C 
ATOM     23  O   UNL     1     -17.641 -15.986  27.243  1.00  0.00    -0.550 OA
ATOM     24  O   UNL     1     -17.508 -15.042  29.329  1.00  0.00    -0.550 OA
ENDBRANCH  21  22
ENDBRANCH  20  21
ENDBRANCH  19  20
ENDBRANCH  18  19
ENDBRANCH  17  18
ENDBRANCH  16  17
ENDBRANCH  15  16
ENDBRANCH  14  15
ENDBRANCH  13  14
ENDBRANCH   1  13
TORSDOF 20
ENDMDL
MODEL 6
REMARK VINA RESULT:    -6.481      4.594     11.637
REMARK INTER + INTRA:         -15.543
REMARK INTER:                 -14.179
REMARK INTRA:                  -1.364
REMARK UNBOUND:                -1.484
REMARK SMILES CCCCCCCCCCCCCCCCCCCCCC(=O)[O-]
REMARK SMILES IDX 12 1 11 2 10 3 9 4 8 5 7 6 6 7 5 8 4 9 3 10 2 11 1 12 13 13
REMARK SMILES IDX 14 14 15 15 16 16 17 17 18 18 19 19 20 20 21 21 22 22 23 23
REMARK SMILES IDX 24 24
REMARK H PARENT
REMARK Flexibility Score: inf
ROOT
ATOM      1  C   UNL     1     -23.195 -25.492  29.469  1.00  0.00     0.000 C 
ENDROOT
BRANCH   1   2
ATOM      2  C   UNL     1     -24.678 -25.227  29.773  1.00  0.00     0.000 C 
BRANCH   2   3
ATOM      3  C   UNL     1     -24.966 -25.384  31.273  1.00  0.00     0.000 C 
BRANCH   3   4
ATOM      4  C   UNL     1     -25.529 -26.769  31.628  1.00  0.00    -0.000 C 
BRANCH   4   5
ATOM      5  C   UNL     1     -25.276 -27.810  30.528  1.00  0.00    -0.000 C 
BRANCH   5   6
ATOM      6  C   UNL     1     -26.457 -28.782  30.410  1.00  0.00    -0.000 C 
BRANCH   6   7
ATOM      7  C   UNL     1     -26.908 -28.924  28.948  1.00  0.00    -0.000 C 
BRANCH   7   8
ATOM      8  C   UNL     1     -26.135 -27.995  27.997  1.00  0.00    -0.000 C 
BRANCH   8   9
ATOM      9  C   UNL     1     -26.828 -27.831  26.636  1.00  0.00    -0.000 C 
BRANCH   9  10
ATOM     10  C   UNL     1     -27.125 -29.199  26.002  1.00  0.00    -0.000 C 
BRANCH  10  11
ATOM     11  C   UNL     1     -28.067 -29.098  24.793  1.00  0.00    -0.003 C 
ATOM     12  C   UNL     1     -28.615 -27.686  24.585  1.00  0.00     0.004 C 
ENDBRANCH  10  11
ENDBRANCH   9  10
ENDBRANCH   8   9
ENDBRANCH   7   8
ENDBRANCH   6   7
ENDBRANCH   5   6
ENDBRANCH   4   5
ENDBRANCH   3   4
ENDBRANCH   2   3
ENDBRANCH   1   2
BRANCH   1  13
ATOM     13  C   UNL     1     -22.546 -24.373  28.636  1.00  0.00     0.000 C 
BRANCH  13  14
ATOM     14  C   UNL     1     -22.438 -23.008  29.346  1.00  0.00     0.000 C 
BRANCH  14  15
ATOM     15  C   UNL     1     -22.001 -23.072  30.820  1.00  0.00     0.000 C 
BRANCH  15  16
ATOM     16  C   UNL     1     -22.099 -21.715  31.530  1.00  0.00     0.000 C 
BRANCH  16  17
ATOM     17  C   UNL     1     -22.302 -20.576  30.520  1.00  0.00     0.000 C 
BRANCH  17  18
ATOM     18  C   UNL     1     -21.022 -19.735  30.326  1.00  0.00     0.000 C 
BRANCH  18  19
ATOM     19  C   UNL     1     -20.992 -18.957  28.999  1.00  0.00     0.000 C 
BRANCH  19  20
ATOM     20  C   UNL     1     -20.655 -17.470  29.184  1.00  0.00     0.006 C 
BRANCH  20  21
ATOM     21  C   UNL     1     -19.141 -17.216  29.201  1.00  0.00     0.053 C 
BRANCH  21  22
ATOM     22  C   UNL     1     -18.687 -16.660  30.517  1.00  0.00     0.041 C 
ATOM     23  O   UNL     1     -18.002 -15.602  30.558  1.00  0.00    -0.550 OA
ATOM     24  O   UNL     1     -19.035 -17.301  31.701  1.00  0.00    -0.550 OA
ENDBRANCH  21  22
ENDBRANCH  20  21
ENDBRANCH  19  20
ENDBRANCH  18  19
ENDBRANCH  17  18
ENDBRANCH  16  17
ENDBRANCH  15  16
ENDBRANCH  14  15
ENDBRANCH  13  14
ENDBRANCH   1  13
TORSDOF 20
ENDMDL
MODEL 7
REMARK VINA RESULT:    -6.480      1.445      3.242
REMARK INTER + INTRA:         -15.540
REMARK INTER:                 -14.384
REMARK INTRA:                  -1.156
REMARK UNBOUND:                -1.484
REMARK SMILES CCCCCCCCCCCCCCCCCCCCCC(=O)[O-]
REMARK SMILES IDX 12 1 11 2 10 3 9 4 8 5 7 6 6 7 5 8 4 9 3 10 2 11 1 12 13 13
REMARK SMILES IDX 14 14 15 15 16 16 17 17 18 18 19 19 20 20 21 21 22 22 23 23
REMARK SMILES IDX 24 24
REMARK H PARENT
REMARK Flexibility Score: inf
ROOT
ATOM      1  C   UNL     1     -22.685 -22.454  29.056  1.00  0.00     0.000 C 
ENDROOT
BRANCH   1   2
ATOM      2  C   UNL     1     -21.632 -21.481  28.501  1.00  0.00     0.000 C 
BRANCH   2   3
ATOM      3  C   UNL     1     -21.811 -20.079  29.102  1.00  0.00     0.000 C 
BRANCH   3   4
ATOM      4  C   UNL     1     -21.738 -20.077  30.637  1.00  0.00    -0.000 C 
BRANCH   4   5
ATOM      5  C   UNL     1     -21.061 -18.816  31.195  1.00  0.00    -0.000 C 
BRANCH   5   6
ATOM      6  C   UNL     1     -19.578 -19.074  31.490  1.00  0.00    -0.000 C 
BRANCH   6   7
ATOM      7  C   UNL     1     -18.798 -17.753  31.581  1.00  0.00    -0.000 C 
BRANCH   7   8
ATOM      8  C   UNL     1     -18.868 -16.934  30.283  1.00  0.00    -0.000 C 
BRANCH   8   9
ATOM      9  C   UNL     1     -18.180 -15.566  30.406  1.00  0.00    -0.000 C 
BRANCH   9  10
ATOM     10  C   UNL     1     -17.579 -15.130  29.062  1.00  0.00    -0.000 C 
BRANCH  10  11
ATOM     11  C   UNL     1     -17.885 -16.121  27.928  1.00  0.00    -0.003 C 
ATOM     12  C   UNL     1     -17.472 -15.594  26.554  1.00  0.00     0.004 C 
ENDBRANCH  10  11
ENDBRANCH   9  10
ENDBRANCH   8   9
ENDBRANCH   7   8
ENDBRANCH   6   7
ENDBRANCH   5   6
ENDBRANCH   4   5
ENDBRANCH   3   4
ENDBRANCH   2   3
ENDBRANCH   1   2
BRANCH   1  13
ATOM     13  C   UNL     1     -22.086 -23.507  30.003  1.00  0.00     0.000 C 
BRANCH  13  14
ATOM     14  C   UNL     1     -22.903 -23.777  31.283  1.00  0.00     0.000 C 
BRANCH  14  15
ATOM     15  C   UNL     1     -23.455 -25.208  31.415  1.00  0.00     0.000 C 
BRANCH  15  16
ATOM     16  C   UNL     1     -23.834 -25.827  30.062  1.00  0.00     0.000 C 
BRANCH  16  17
ATOM     17  C   UNL     1     -25.359 -25.891  29.892  1.00  0.00     0.000 C 
BRANCH  17  18
ATOM     18  C   UNL     1     -25.948 -27.223  30.404  1.00  0.00     0.000 C 
BRANCH  18  19
ATOM     19  C   UNL     1     -25.952 -28.340  29.346  1.00  0.00     0.000 C 
BRANCH  19  20
ATOM     20  C   UNL     1     -26.249 -27.823  27.931  1.00  0.00     0.006 C 
BRANCH  20  21
ATOM     21  C   UNL     1     -27.326 -28.657  27.223  1.00  0.00     0.053 C 
BRANCH  21  22
ATOM     22  C   UNL     1     -27.099 -28.715  25.742  1.00  0.00     0.041 C 
ATOM     23  O   UNL     1     -25.931 -28.829  25.282  1.00  0.00    -0.550 OA
ATOM     24  O   UNL     1     -28.180 -28.661  24.870  1.00  0.00    -0.550 OA
ENDBRANCH  21  22
ENDBRANCH  20  21
ENDBRANCH  19  20
ENDBRANCH  18  19
ENDBRANCH  17  18
ENDBRANCH  16  17
ENDBRANCH  15  16
ENDBRANCH  14  15
ENDBRANCH  13  14
ENDBRANCH   1  13
TORSDOF 20
ENDMDL
MODEL 8
REMARK VINA RESULT:    -6.306      1.623      3.191
REMARK INTER + INTRA:         -15.163
REMARK INTER:                 -13.788
REMARK INTRA:                  -1.375
REMARK UNBOUND:                -1.484
REMARK SMILES CCCCCCCCCCCCCCCCCCCCCC(=O)[O-]
REMARK SMILES IDX 12 1 11 2 10 3 9 4 8 5 7 6 6 7 5 8 4 9 3 10 2 11 1 12 13 13
REMARK SMILES IDX 14 14 15 15 16 16 17 17 18 18 19 19 20 20 21 21 22 22 23 23
REMARK SMILES IDX 24 24
REMARK H PARENT
REMARK Flexibility Score: inf
ROOT
ATOM      1  C   UNL     1     -21.935 -21.390  31.514  1.00  0.00     0.000 C 
ENDROOT
BRANCH   1   2
ATOM      2  C   UNL     1     -22.652 -20.226  30.814  1.00  0.00     0.000 C 
BRANCH   2   3
ATOM      3  C   UNL     1     -22.672 -20.430  29.292  1.00  0.00     0.000 C 
BRANCH   3   4
ATOM      4  C   UNL     1     -21.321 -20.111  28.632  1.00  0.00    -0.000 C 
BRANCH   4   5
ATOM      5  C   UNL     1     -20.857 -18.671  28.901  1.00  0.00    -0.000 C 
BRANCH   5   6
ATOM      6  C   UNL     1     -19.411 -18.647  29.412  1.00  0.00    -0.000 C 
BRANCH   6   7
ATOM      7  C   UNL     1     -19.366 -18.765  30.943  1.00  0.00    -0.000 C 
BRANCH   7   8
ATOM      8  C   UNL     1     -19.269 -17.399  31.640  1.00  0.00    -0.000 C 
BRANCH   8   9
ATOM      9  C   UNL     1     -19.268 -16.226  30.648  1.00  0.00    -0.000 C 
BRANCH   9  10
ATOM     10  C   UNL     1     -17.874 -15.588  30.552  1.00  0.00    -0.000 C 
BRANCH  10  11
ATOM     11  C   UNL     1     -17.642 -14.871  29.214  1.00  0.00    -0.003 C 
ATOM     12  C   UNL     1     -17.828 -15.792  28.008  1.00  0.00     0.004 C 
ENDBRANCH  10  11
ENDBRANCH   9  10
ENDBRANCH   8   9
ENDBRANCH   7   8
ENDBRANCH   6   7
ENDBRANCH   5   6
ENDBRANCH   4   5
ENDBRANCH   3   4
ENDBRANCH   2   3
ENDBRANCH   1   2
BRANCH   1  13
ATOM     13  C   UNL     1     -22.909 -22.396  32.151  1.00  0.00     0.000 C 
BRANCH  13  14
ATOM     14  C   UNL     1     -22.872 -23.815  31.549  1.00  0.00     0.000 C 
BRANCH  14  15
ATOM     15  C   UNL     1     -22.088 -23.943  30.230  1.00  0.00     0.000 C 
BRANCH  15  16
ATOM     16  C   UNL     1     -22.999 -23.966  28.995  1.00  0.00     0.000 C 
BRANCH  16  17
ATOM     17  C   UNL     1     -23.133 -25.388  28.432  1.00  0.00     0.000 C 
BRANCH  17  18
ATOM     18  C   UNL     1     -23.833 -26.343  29.422  1.00  0.00     0.000 C 
BRANCH  18  19
ATOM     19  C   UNL     1     -25.291 -25.956  29.725  1.00  0.00     0.000 C 
BRANCH  19  20
ATOM     20  C   UNL     1     -26.297 -26.631  28.781  1.00  0.00     0.006 C 
BRANCH  20  21
ATOM     21  C   UNL     1     -26.071 -28.146  28.679  1.00  0.00     0.053 C 
BRANCH  21  22
ATOM     22  C   UNL     1     -26.447 -28.850  29.949  1.00  0.00     0.041 C 
ATOM     23  O   UNL     1     -26.432 -28.231  31.047  1.00  0.00    -0.550 OA
ATOM     24  O   UNL     1     -26.832 -30.186  29.916  1.00  0.00    -0.550 OA
ENDBRANCH  21  22
ENDBRANCH  20  21
ENDBRANCH  19  20
ENDBRANCH  18  19
ENDBRANCH  17  18
ENDBRANCH  16  17
ENDBRANCH  15  16
ENDBRANCH  14  15
ENDBRANCH  13  14
ENDBRANCH   1  13
TORSDOF 20
ENDMDL
MODEL 9
REMARK VINA RESULT:    -6.185      4.343     11.347
REMARK INTER + INTRA:         -14.901
REMARK INTER:                 -13.459
REMARK INTRA:                  -1.442
REMARK UNBOUND:                -1.484
REMARK SMILES CCCCCCCCCCCCCCCCCCCCCC(=O)[O-]
REMARK SMILES IDX 12 1 11 2 10 3 9 4 8 5 7 6 6 7 5 8 4 9 3 10 2 11 1 12 13 13
REMARK SMILES IDX 14 14 15 15 16 16 17 17 18 18 19 19 20 20 21 21 22 22 23 23
REMARK SMILES IDX 24 24
REMARK H PARENT
REMARK Flexibility Score: inf
ROOT
ATOM      1  C   UNL     1     -23.316 -23.256  32.000  1.00  0.00     0.000 C 
ENDROOT
BRANCH   1   2
ATOM      2  C   UNL     1     -23.108 -24.774  31.882  1.00  0.00     0.000 C 
BRANCH   2   3
ATOM      3  C   UNL     1     -24.446 -25.495  31.661  1.00  0.00     0.000 C 
BRANCH   3   4
ATOM      4  C   UNL     1     -24.935 -25.408  30.207  1.00  0.00    -0.000 C 
BRANCH   4   5
ATOM      5  C   UNL     1     -23.905 -25.946  29.202  1.00  0.00    -0.000 C 
BRANCH   5   6
ATOM      6  C   UNL     1     -24.401 -27.241  28.548  1.00  0.00    -0.000 C 
BRANCH   6   7
ATOM      7  C   UNL     1     -25.873 -27.117  28.127  1.00  0.00    -0.000 C 
BRANCH   7   8
ATOM      8  C   UNL     1     -26.736 -28.279  28.642  1.00  0.00    -0.000 C 
BRANCH   8   9
ATOM      9  C   UNL     1     -27.331 -29.125  27.506  1.00  0.00    -0.000 C 
BRANCH   9  10
ATOM     10  C   UNL     1     -26.730 -28.723  26.150  1.00  0.00    -0.000 C 
BRANCH  10  11
ATOM     11  C   UNL     1     -27.629 -29.112  24.966  1.00  0.00    -0.003 C 
ATOM     12  C   UNL     1     -28.595 -27.998  24.566  1.00  0.00     0.004 C 
ENDBRANCH  10  11
ENDBRANCH   9  10
ENDBRANCH   8   9
ENDBRANCH   7   8
ENDBRANCH   6   7
ENDBRANCH   5   6
ENDBRANCH   4   5
ENDBRANCH   3   4
ENDBRANCH   2   3
ENDBRANCH   1   2
BRANCH   1  13
ATOM     13  C   UNL     1     -22.339 -22.449  31.128  1.00  0.00     0.000 C 
BRANCH  13  14
ATOM     14  C   UNL     1     -22.132 -22.995  29.700  1.00  0.00     0.000 C 
BRANCH  14  15
ATOM     15  C   UNL     1     -22.003 -21.921  28.605  1.00  0.00     0.000 C 
BRANCH  15  16
ATOM     16  C   UNL     1     -22.307 -20.506  29.118  1.00  0.00     0.000 C 
BRANCH  16  17
ATOM     17  C   UNL     1     -21.013 -19.726  29.388  1.00  0.00     0.000 C 
BRANCH  17  18
ATOM     18  C   UNL     1     -21.064 -18.960  30.728  1.00  0.00     0.000 C 
BRANCH  18  19
ATOM     19  C   UNL     1     -19.717 -18.928  31.470  1.00  0.00     0.000 C 
BRANCH  19  20
ATOM     20  C   UNL     1     -18.978 -17.590  31.313  1.00  0.00     0.006 C 
BRANCH  20  21
ATOM     21  C   UNL     1     -19.481 -16.789  30.104  1.00  0.00     0.053 C 
BRANCH  21  22
ATOM     22  C   UNL     1     -18.509 -16.837  28.963  1.00  0.00     0.041 C 
ATOM     23  O   UNL     1     -18.246 -15.794  28.307  1.00  0.00    -0.550 OA
ATOM     24  O   UNL     1     -17.879 -18.033  28.636  1.00  0.00    -0.550 OA
ENDBRANCH  21  22
ENDBRANCH  20  21
ENDBRANCH  19  20
ENDBRANCH  18  19
ENDBRANCH  17  18
ENDBRANCH  16  17
ENDBRANCH  15  16
ENDBRANCH  14  15
ENDBRANCH  13  14
ENDBRANCH   1  13
TORSDOF 20
ENDMDL
