MODEL 1
REMARK VINA RESULT:    -3.925      0.000      0.000
REMARK INTER + INTRA:          -6.783
REMARK INTER:                  -5.989
REMARK INTRA:                  -0.793
REMARK UNBOUND:                -0.793
REMARK SMILES CCCCCCCCCCC(=O)[O-]
REMARK SMILES IDX 7 1 8 2 9 3 10 4 11 5 12 6 13 7 6 8 5 9 4 10 3 11 2 12 1 13
REMARK H PARENT
REMARK Flexibility Score: inf
ROOT
ATOM      1  C   UNL     1       8.071  -8.970  43.789  1.00  0.00     0.000 C 
ENDROOT
BRANCH   1   2
ATOM      2  C   UNL     1       7.662  -8.707  42.328  1.00  0.00     0.000 C 
BRANCH   2   3
ATOM      3  C   UNL     1       8.518  -7.625  41.655  1.00  0.00     0.006 C 
BRANCH   3   4
ATOM      4  C   UNL     1       7.712  -6.340  41.446  1.00  0.00     0.053 C 
BRANCH   4   5
ATOM      5  C   UNL     1       8.005  -5.355  42.532  1.00  0.00     0.041 C 
ATOM      6  O   UNL     1       9.174  -4.916  42.691  1.00  0.00    -0.550 OA
ATOM      7  O   UNL     1       6.997  -4.958  43.402  1.00  0.00    -0.550 OA
ENDBRANCH   4   5
ENDBRANCH   3   4
ENDBRANCH   2   3
ENDBRANCH   1   2
BRANCH   1   8
ATOM      8  C   UNL     1       7.326 -10.132  44.474  1.00  0.00     0.000 C 
BRANCH   8   9
ATOM      9  C   UNL     1       6.347 -10.909  43.570  1.00  0.00    -0.000 C 
BRANCH   9  10
ATOM     10  C   UNL     1       6.828 -12.305  43.136  1.00  0.00    -0.000 C 
BRANCH  10  11
ATOM     11  C   UNL     1       6.343 -12.694  41.730  1.00  0.00    -0.000 C 
BRANCH  11  12
ATOM     12  C   UNL     1       5.631 -11.536  41.012  1.00  0.00    -0.003 C 
ATOM     13  C   UNL     1       6.383 -11.056  39.771  1.00  0.00     0.004 C 
ENDBRANCH  11  12
ENDBRANCH  10  11
ENDBRANCH   9  10
ENDBRANCH   8   9
ENDBRANCH   1   8
TORSDOF 9
ENDMDL
MODEL 2
REMARK VINA RESULT:    -3.901      4.988      7.495
REMARK INTER + INTRA:          -6.747
REMARK INTER:                  -6.197
REMARK INTRA:                  -0.550
REMARK UNBOUND:                -0.793
REMARK SMILES CCCCCCCCCCC(=O)[O-]
REMARK SMILES IDX 7 1 8 2 9 3 10 4 11 5 12 6 13 7 6 8 5 9 4 10 3 11 2 12 1 13
REMARK H PARENT
REMARK Flexibility Score: inf
ROOT
ATOM      1  C   UNL     1       7.926  -1.575  39.903  1.00  0.00     0.000 C 
ENDROOT
BRANCH   1   2
ATOM      2  C   UNL     1       7.479  -2.763  39.031  1.00  0.00     0.000 C 
BRANCH   2   3
ATOM      3  C   UNL     1       6.304  -2.413  38.106  1.00  0.00     0.006 C 
BRANCH   3   4
ATOM      4  C   UNL     1       6.779  -1.589  36.905  1.00  0.00     0.053 C 
BRANCH   4   5
ATOM      5  C   UNL     1       6.684  -2.394  35.648  1.00  0.00     0.041 C 
ATOM      6  O   UNL     1       6.351  -1.843  34.567  1.00  0.00    -0.550 OA
ATOM      7  O   UNL     1       6.916  -3.764  35.680  1.00  0.00    -0.550 OA
ENDBRANCH   4   5
ENDBRANCH   3   4
ENDBRANCH   2   3
ENDBRANCH   1   2
BRANCH   1   8
ATOM      8  C   UNL     1       8.585  -1.963  41.241  1.00  0.00     0.000 C 
BRANCH   8   9
ATOM      9  C   UNL     1       8.588  -3.473  41.559  1.00  0.00    -0.000 C 
BRANCH   9  10
ATOM     10  C   UNL     1       7.799  -3.876  42.817  1.00  0.00    -0.000 C 
BRANCH  10  11
ATOM     11  C   UNL     1       7.446  -5.373  42.846  1.00  0.00    -0.000 C 
BRANCH  11  12
ATOM     12  C   UNL     1       7.689  -6.061  41.493  1.00  0.00    -0.003 C 
ATOM     13  C   UNL     1       7.768  -7.583  41.609  1.00  0.00     0.004 C 
ENDBRANCH  11  12
ENDBRANCH  10  11
ENDBRANCH   9  10
ENDBRANCH   8   9
ENDBRANCH   1   8
TORSDOF 9
ENDMDL
MODEL 3
REMARK VINA RESULT:    -3.878      4.785      7.943
REMARK INTER + INTRA:          -6.712
REMARK INTER:                  -6.303
REMARK INTRA:                  -0.409
REMARK UNBOUND:                -0.793
REMARK SMILES CCCCCCCCCCC(=O)[O-]
REMARK SMILES IDX 7 1 8 2 9 3 10 4 11 5 12 6 13 7 6 8 5 9 4 10 3 11 2 12 1 13
REMARK H PARENT
REMARK Flexibility Score: inf
ROOT
ATOM      1  C   UNL     1       8.112  -4.176  40.143  1.00  0.00     0.000 C 
ENDROOT
BRANCH   1   2
ATOM      2  C   UNL     1       8.222  -3.153  41.289  1.00  0.00     0.000 C 
BRANCH   2   3
ATOM      3  C   UNL     1       8.265  -3.813  42.675  1.00  0.00     0.006 C 
BRANCH   3   4
ATOM      4  C   UNL     1       7.477  -5.126  42.681  1.00  0.00     0.053 C 
BRANCH   4   5
ATOM      5  C   UNL     1       8.299  -6.227  43.273  1.00  0.00     0.041 C 
ATOM      6  O   UNL     1       9.423  -6.513  42.783  1.00  0.00    -0.550 OA
ATOM      7  O   UNL     1       7.803  -6.971  44.336  1.00  0.00    -0.550 OA
ENDBRANCH   4   5
ENDBRANCH   3   4
ENDBRANCH   2   3
ENDBRANCH   1   2
BRANCH   1   8
ATOM      8  C   UNL     1       7.946  -3.564  38.739  1.00  0.00     0.000 C 
BRANCH   8   9
ATOM      9  C   UNL     1       7.179  -2.227  38.691  1.00  0.00    -0.000 C 
BRANCH   9  10
ATOM     10  C   UNL     1       5.994  -2.188  37.709  1.00  0.00    -0.000 C 
BRANCH  10  11
ATOM     11  C   UNL     1       6.221  -1.218  36.538  1.00  0.00    -0.000 C 
BRANCH  11  12
ATOM     12  C   UNL     1       6.279  -1.937  35.181  1.00  0.00    -0.003 C 
ATOM     13  C   UNL     1       5.449  -1.239  34.104  1.00  0.00     0.004 C 
ENDBRANCH  11  12
ENDBRANCH  10  11
ENDBRANCH   9  10
ENDBRANCH   8   9
ENDBRANCH   1   8
TORSDOF 9
ENDMDL
MODEL 4
REMARK VINA RESULT:    -3.869      4.371      6.738
REMARK INTER + INTRA:          -6.698
REMARK INTER:                  -6.221
REMARK INTRA:                  -0.478
REMARK UNBOUND:                -0.793
REMARK SMILES CCCCCCCCCCC(=O)[O-]
REMARK SMILES IDX 7 1 8 2 9 3 10 4 11 5 12 6 13 7 6 8 5 9 4 10 3 11 2 12 1 13
REMARK H PARENT
REMARK Flexibility Score: inf
ROOT
ATOM      1  C   UNL     1       8.247  -1.924  40.842  1.00  0.00     0.000 C 
ENDROOT
BRANCH   1   2
ATOM      2  C   UNL     1       7.768  -1.689  39.397  1.00  0.00     0.000 C 
BRANCH   2   3
ATOM      3  C   UNL     1       7.148  -2.943  38.763  1.00  0.00     0.006 C 
BRANCH   3   4
ATOM      4  C   UNL     1       6.350  -2.584  37.507  1.00  0.00     0.053 C 
BRANCH   4   5
ATOM      5  C   UNL     1       6.991  -3.177  36.292  1.00  0.00     0.041 C 
ATOM      6  O   UNL     1       7.827  -4.110  36.409  1.00  0.00    -0.550 OA
ATOM      7  O   UNL     1       6.702  -2.664  35.033  1.00  0.00    -0.550 OA
ENDBRANCH   4   5
ENDBRANCH   3   4
ENDBRANCH   2   3
ENDBRANCH   1   2
BRANCH   1   8
ATOM      8  C   UNL     1       8.569  -3.391  41.189  1.00  0.00     0.000 C 
BRANCH   8   9
ATOM      9  C   UNL     1       8.361  -3.777  42.668  1.00  0.00    -0.000 C 
BRANCH   9  10
ATOM     10  C   UNL     1       7.421  -4.973  42.904  1.00  0.00    -0.000 C 
BRANCH  10  11
ATOM     11  C   UNL     1       7.546  -6.054  41.817  1.00  0.00    -0.000 C 
BRANCH  11  12
ATOM     12  C   UNL     1       8.004  -7.408  42.384  1.00  0.00    -0.003 C 
ATOM     13  C   UNL     1       7.587  -8.588  41.507  1.00  0.00     0.004 C 
ENDBRANCH  11  12
ENDBRANCH  10  11
ENDBRANCH   9  10
ENDBRANCH   8   9
ENDBRANCH   1   8
TORSDOF 9
ENDMDL
MODEL 5
REMARK VINA RESULT:    -3.846      2.354      4.313
REMARK INTER + INTRA:          -6.662
REMARK INTER:                  -6.117
REMARK INTRA:                  -0.545
REMARK UNBOUND:                -0.793
REMARK SMILES CCCCCCCCCCC(=O)[O-]
REMARK SMILES IDX 7 1 8 2 9 3 10 4 11 5 12 6 13 7 6 8 5 9 4 10 3 11 2 12 1 13
REMARK H PARENT
REMARK Flexibility Score: inf
ROOT
ATOM      1  C   UNL     1       7.480  -4.778  42.786  1.00  0.00     0.000 C 
ENDROOT
BRANCH   1   2
ATOM      2  C   UNL     1       8.687  -3.850  42.559  1.00  0.00     0.000 C 
BRANCH   2   3
ATOM      3  C   UNL     1       8.569  -3.025  41.269  1.00  0.00     0.006 C 
BRANCH   3   4
ATOM      4  C   UNL     1       7.906  -3.840  40.155  1.00  0.00     0.053 C 
BRANCH   4   5
ATOM      5  C   UNL     1       8.843  -4.012  39.003  1.00  0.00     0.041 C 
ATOM      6  O   UNL     1       8.444  -3.813  37.826  1.00  0.00    -0.550 OA
ATOM      7  O   UNL     1      10.147  -4.441  39.224  1.00  0.00    -0.550 OA
ENDBRANCH   4   5
ENDBRANCH   3   4
ENDBRANCH   2   3
ENDBRANCH   1   2
BRANCH   1   8
ATOM      8  C   UNL     1       7.834  -6.201  43.262  1.00  0.00     0.000 C 
BRANCH   8   9
ATOM      9  C   UNL     1       8.192  -7.199  42.141  1.00  0.00    -0.000 C 
BRANCH   9  10
ATOM     10  C   UNL     1       7.922  -8.677  42.473  1.00  0.00    -0.000 C 
BRANCH  10  11
ATOM     11  C   UNL     1       8.063  -8.988  43.972  1.00  0.00    -0.000 C 
BRANCH  11  12
ATOM     12  C   UNL     1       7.205 -10.187  44.408  1.00  0.00    -0.003 C 
ATOM     13  C   UNL     1       6.423 -10.807  43.251  1.00  0.00     0.004 C 
ENDBRANCH  11  12
ENDBRANCH  10  11
ENDBRANCH   9  10
ENDBRANCH   8   9
ENDBRANCH   1   8
TORSDOF 9
ENDMDL
MODEL 6
REMARK VINA RESULT:    -3.806      4.128      7.359
REMARK INTER + INTRA:          -6.602
REMARK INTER:                  -6.128
REMARK INTRA:                  -0.474
REMARK UNBOUND:                -0.793
REMARK SMILES CCCCCCCCCCC(=O)[O-]
REMARK SMILES IDX 7 1 8 2 9 3 10 4 11 5 12 6 13 7 6 8 5 9 4 10 3 11 2 12 1 13
REMARK H PARENT
REMARK Flexibility Score: inf
ROOT
ATOM      1  C   UNL     1       8.339  -2.153  41.011  1.00  0.00     0.000 C 
ENDROOT
BRANCH   1   2
ATOM      2  C   UNL     1       8.243  -3.647  41.372  1.00  0.00     0.000 C 
BRANCH   2   3
ATOM      3  C   UNL     1       7.971  -3.882  42.865  1.00  0.00     0.006 C 
BRANCH   3   4
ATOM      4  C   UNL     1       7.214  -5.195  43.083  1.00  0.00     0.053 C 
BRANCH   4   5
ATOM      5  C   UNL     1       8.013  -6.351  42.572  1.00  0.00     0.041 C 
ATOM      6  O   UNL     1       7.535  -7.110  41.689  1.00  0.00    -0.550 OA
ATOM      7  O   UNL     1       9.267  -6.621  43.107  1.00  0.00    -0.550 OA
ENDBRANCH   4   5
ENDBRANCH   3   4
ENDBRANCH   2   3
ENDBRANCH   1   2
BRANCH   1   8
ATOM      8  C   UNL     1       7.852  -1.794  39.593  1.00  0.00     0.000 C 
BRANCH   8   9
ATOM      9  C   UNL     1       7.469  -2.996  38.706  1.00  0.00    -0.000 C 
BRANCH   9  10
ATOM     10  C   UNL     1       6.435  -2.692  37.607  1.00  0.00    -0.000 C 
BRANCH  10  11
ATOM     11  C   UNL     1       6.891  -3.155  36.213  1.00  0.00    -0.000 C 
BRANCH  11  12
ATOM     12  C   UNL     1       8.159  -4.023  36.267  1.00  0.00    -0.003 C 
ATOM     13  C   UNL     1       8.700  -4.368  34.880  1.00  0.00     0.004 C 
ENDBRANCH  11  12
ENDBRANCH  10  11
ENDBRANCH   9  10
ENDBRANCH   8   9
ENDBRANCH   1   8
TORSDOF 9
ENDMDL
MODEL 7
REMARK VINA RESULT:    -3.780      3.308      7.085
REMARK INTER + INTRA:          -6.563
REMARK INTER:                  -5.528
REMARK INTRA:                  -1.035
REMARK UNBOUND:                -0.793
REMARK SMILES CCCCCCCCCCC(=O)[O-]
REMARK SMILES IDX 7 1 8 2 9 3 10 4 11 5 12 6 13 7 6 8 5 9 4 10 3 11 2 12 1 13
REMARK H PARENT
REMARK Flexibility Score: inf
ROOT
ATOM      1  C   UNL     1       9.219  -3.915  42.386  1.00  0.00     0.000 C 
ENDROOT
BRANCH   1   2
ATOM      2  C   UNL     1       7.841  -4.548  42.655  1.00  0.00     0.000 C 
BRANCH   2   3
ATOM      3  C   UNL     1       7.521  -5.706  41.699  1.00  0.00     0.006 C 
BRANCH   3   4
ATOM      4  C   UNL     1       8.643  -6.748  41.705  1.00  0.00     0.053 C 
BRANCH   4   5
ATOM      5  C   UNL     1       8.099  -8.102  42.035  1.00  0.00     0.041 C 
ATOM      6  O   UNL     1       8.451  -8.686  43.092  1.00  0.00    -0.550 OA
ATOM      7  O   UNL     1       7.240  -8.741  41.149  1.00  0.00    -0.550 OA
ENDBRANCH   4   5
ENDBRANCH   3   4
ENDBRANCH   2   3
ENDBRANCH   1   2
BRANCH   1   8
ATOM      8  C   UNL     1       9.345  -2.434  42.795  1.00  0.00     0.000 C 
BRANCH   8   9
ATOM      9  C   UNL     1       8.620  -1.433  41.872  1.00  0.00    -0.000 C 
BRANCH   9  10
ATOM     10  C   UNL     1       9.014  -1.513  40.386  1.00  0.00    -0.000 C 
BRANCH  10  11
ATOM     11  C   UNL     1       7.813  -1.776  39.464  1.00  0.00    -0.000 C 
BRANCH  11  12
ATOM     12  C   UNL     1       7.732  -3.242  39.005  1.00  0.00    -0.003 C 
ATOM     13  C   UNL     1       9.071  -3.779  38.502  1.00  0.00     0.004 C 
ENDBRANCH  11  12
ENDBRANCH  10  11
ENDBRANCH   9  10
ENDBRANCH   8   9
ENDBRANCH   1   8
TORSDOF 9
ENDMDL
MODEL 8
REMARK VINA RESULT:    -3.738      3.923      6.874
REMARK INTER + INTRA:          -6.498
REMARK INTER:                  -5.174
REMARK INTRA:                  -1.325
REMARK UNBOUND:                -0.793
REMARK SMILES CCCCCCCCCCC(=O)[O-]
REMARK SMILES IDX 7 1 8 2 9 3 10 4 11 5 12 6 13 7 6 8 5 9 4 10 3 11 2 12 1 13
REMARK H PARENT
REMARK Flexibility Score: inf
ROOT
ATOM      1  C   UNL     1      10.999  -3.686  42.025  1.00  0.00     0.000 C 
ENDROOT
BRANCH   1   2
ATOM      2  C   UNL     1       9.984  -4.813  42.288  1.00  0.00     0.000 C 
BRANCH   2   3
ATOM      3  C   UNL     1       8.584  -4.284  42.637  1.00  0.00     0.006 C 
BRANCH   3   4
ATOM      4  C   UNL     1       7.502  -5.285  42.224  1.00  0.00     0.053 C 
BRANCH   4   5
ATOM      5  C   UNL     1       7.789  -6.635  42.801  1.00  0.00     0.041 C 
ATOM      6  O   UNL     1       7.905  -7.635  42.046  1.00  0.00    -0.550 OA
ATOM      7  O   UNL     1       7.880  -6.798  44.178  1.00  0.00    -0.550 OA
ENDBRANCH   4   5
ENDBRANCH   3   4
ENDBRANCH   2   3
ENDBRANCH   1   2
BRANCH   1   8
ATOM      8  C   UNL     1      11.571  -3.646  40.594  1.00  0.00     0.000 C 
BRANCH   8   9
ATOM      9  C   UNL     1      10.757  -4.425  39.540  1.00  0.00    -0.000 C 
BRANCH   9  10
ATOM     10  C   UNL     1       9.814  -3.566  38.679  1.00  0.00    -0.000 C 
BRANCH  10  11
ATOM     11  C   UNL     1       8.331  -3.910  38.892  1.00  0.00    -0.000 C 
BRANCH  11  12
ATOM     12  C   UNL     1       7.511  -2.704  39.380  1.00  0.00    -0.003 C 
ATOM     13  C   UNL     1       8.374  -1.628  40.037  1.00  0.00     0.004 C 
ENDBRANCH  11  12
ENDBRANCH  10  11
ENDBRANCH   9  10
ENDBRANCH   8   9
ENDBRANCH   1   8
TORSDOF 9
ENDMDL
MODEL 9
REMARK VINA RESULT:    -3.737      3.850      7.158
REMARK INTER + INTRA:          -6.497
REMARK INTER:                  -5.982
REMARK INTRA:                  -0.515
REMARK UNBOUND:                -0.793
REMARK SMILES CCCCCCCCCCC(=O)[O-]
REMARK SMILES IDX 7 1 8 2 9 3 10 4 11 5 12 6 13 7 6 8 5 9 4 10 3 11 2 12 1 13
REMARK H PARENT
REMARK Flexibility Score: inf
ROOT
ATOM      1  C   UNL     1       8.697  -3.910  41.772  1.00  0.00     0.000 C 
ENDROOT
BRANCH   1   2
ATOM      2  C   UNL     1       7.608  -4.803  42.393  1.00  0.00     0.000 C 
BRANCH   2   3
ATOM      3  C   UNL     1       7.508  -6.179  41.718  1.00  0.00     0.006 C 
BRANCH   3   4
ATOM      4  C   UNL     1       8.256  -7.242  42.528  1.00  0.00     0.053 C 
BRANCH   4   5
ATOM      5  C   UNL     1       7.696  -8.601  42.250  1.00  0.00     0.041 C 
ATOM      6  O   UNL     1       7.148  -8.847  41.145  1.00  0.00    -0.550 OA
ATOM      7  O   UNL     1       7.736  -9.583  43.232  1.00  0.00    -0.550 OA
ENDBRANCH   4   5
ENDBRANCH   3   4
ENDBRANCH   2   3
ENDBRANCH   1   2
BRANCH   1   8
ATOM      8  C   UNL     1       8.240  -2.484  41.409  1.00  0.00     0.000 C 
BRANCH   8   9
ATOM      9  C   UNL     1       7.986  -2.237  39.908  1.00  0.00    -0.000 C 
BRANCH   9  10
ATOM     10  C   UNL     1       7.956  -3.504  39.034  1.00  0.00    -0.000 C 
BRANCH  10  11
ATOM     11  C   UNL     1       7.119  -3.328  37.756  1.00  0.00    -0.000 C 
BRANCH  11  12
ATOM     12  C   UNL     1       6.022  -2.263  37.912  1.00  0.00    -0.003 C 
ATOM     13  C   UNL     1       6.014  -1.248  36.769  1.00  0.00     0.004 C 
ENDBRANCH  11  12
ENDBRANCH  10  11
ENDBRANCH   9  10
ENDBRANCH   8   9
ENDBRANCH   1   8
TORSDOF 9
ENDMDL
