MODEL 1
REMARK VINA RESULT:    -4.206      0.000      0.000
REMARK INTER + INTRA:         -10.076
REMARK INTER:                  -8.140
REMARK INTRA:                  -1.936
REMARK UNBOUND:                -1.936
REMARK SMILES CCCCCCCCCCCCCCCCCC(=O)[O-]
REMARK SMILES IDX 10 1 11 2 12 3 13 4 14 5 15 6 16 7 17 8 18 9 19 10 20 11
REMARK SMILES IDX 9 12 8 13 7 14 6 15 5 16 4 17 3 18 2 19 1 20
REMARK H PARENT
REMARK Flexibility Score: inf
ROOT
ATOM      1  C   UNL     1      12.513  35.927  21.469  1.00  0.00     0.000 C 
ENDROOT
BRANCH   1   2
ATOM      2  C   UNL     1      11.205  35.322  22.007  1.00  0.00     0.000 C 
BRANCH   2   3
ATOM      3  C   UNL     1       9.986  36.216  21.724  1.00  0.00     0.000 C 
BRANCH   3   4
ATOM      4  C   UNL     1       9.023  35.589  20.699  1.00  0.00     0.000 C 
BRANCH   4   5
ATOM      5  C   UNL     1       9.420  34.153  20.318  1.00  0.00     0.000 C 
BRANCH   5   6
ATOM      6  C   UNL     1       8.364  33.462  19.439  1.00  0.00     0.000 C 
BRANCH   6   7
ATOM      7  C   UNL     1       6.981  33.416  20.106  1.00  0.00     0.006 C 
BRANCH   7   8
ATOM      8  C   UNL     1       6.151  32.204  19.664  1.00  0.00     0.053 C 
BRANCH   8   9
ATOM      9  C   UNL     1       4.984  32.006  20.581  1.00  0.00     0.041 C 
ATOM     10  O   UNL     1       5.013  32.468  21.752  1.00  0.00    -0.550 OA
ATOM     11  O   UNL     1       3.886  31.269  20.157  1.00  0.00    -0.550 OA
ENDBRANCH   8   9
ENDBRANCH   7   8
ENDBRANCH   6   7
ENDBRANCH   5   6
ENDBRANCH   4   5
ENDBRANCH   3   4
ENDBRANCH   2   3
ENDBRANCH   1   2
BRANCH   1  12
ATOM     12  C   UNL     1      12.366  36.484  20.044  1.00  0.00     0.000 C 
BRANCH  12  13
ATOM     13  C   UNL     1      13.450  35.968  19.087  1.00  0.00    -0.000 C 
BRANCH  13  14
ATOM     14  C   UNL     1      13.322  34.450  18.881  1.00  0.00    -0.000 C 
BRANCH  14  15
ATOM     15  C   UNL     1      14.663  33.714  19.032  1.00  0.00    -0.000 C 
BRANCH  15  16
ATOM     16  C   UNL     1      15.299  33.915  20.416  1.00  0.00    -0.000 C 
BRANCH  16  17
ATOM     17  C   UNL     1      15.688  32.571  21.040  1.00  0.00    -0.000 C 
BRANCH  17  18
ATOM     18  C   UNL     1      14.523  31.576  20.977  1.00  0.00    -0.000 C 
BRANCH  18  19
ATOM     19  C   UNL     1      13.351  32.044  21.847  1.00  0.00    -0.003 C 
ATOM     20  C   UNL     1      12.013  31.750  21.176  1.00  0.00     0.004 C 
ENDBRANCH  18  19
ENDBRANCH  17  18
ENDBRANCH  16  17
ENDBRANCH  15  16
ENDBRANCH  14  15
ENDBRANCH  13  14
ENDBRANCH  12  13
ENDBRANCH   1  12
TORSDOF 16
ENDMDL
MODEL 2
REMARK VINA RESULT:    -4.179      3.523      4.894
REMARK INTER + INTRA:         -10.024
REMARK INTER:                  -7.556
REMARK INTRA:                  -2.468
REMARK UNBOUND:                -1.936
REMARK SMILES CCCCCCCCCCCCCCCCCC(=O)[O-]
REMARK SMILES IDX 10 1 11 2 12 3 13 4 14 5 15 6 16 7 17 8 18 9 19 10 20 11
REMARK SMILES IDX 9 12 8 13 7 14 6 15 5 16 4 17 3 18 2 19 1 20
REMARK H PARENT
REMARK Flexibility Score: inf
ROOT
ATOM      1  C   UNL     1      13.726  35.872  20.457  1.00  0.00     0.000 C 
ENDROOT
BRANCH   1   2
ATOM      2  C   UNL     1      13.224  35.941  19.005  1.00  0.00     0.000 C 
BRANCH   2   3
ATOM      3  C   UNL     1      11.696  36.095  18.920  1.00  0.00     0.000 C 
BRANCH   3   4
ATOM      4  C   UNL     1      10.960  34.753  19.088  1.00  0.00     0.000 C 
BRANCH   4   5
ATOM      5  C   UNL     1      10.407  34.557  20.510  1.00  0.00     0.000 C 
BRANCH   5   6
ATOM      6  C   UNL     1       9.540  35.740  20.973  1.00  0.00     0.000 C 
BRANCH   6   7
ATOM      7  C   UNL     1      10.137  36.471  22.185  1.00  0.00     0.006 C 
BRANCH   7   8
ATOM      8  C   UNL     1      11.109  35.595  22.986  1.00  0.00     0.053 C 
BRANCH   8   9
ATOM      9  C   UNL     1      11.400  36.216  24.316  1.00  0.00     0.041 C 
ATOM     10  O   UNL     1      10.577  36.100  25.263  1.00  0.00    -0.550 OA
ATOM     11  O   UNL     1      12.556  36.964  24.495  1.00  0.00    -0.550 OA
ENDBRANCH   8   9
ENDBRANCH   7   8
ENDBRANCH   6   7
ENDBRANCH   5   6
ENDBRANCH   4   5
ENDBRANCH   3   4
ENDBRANCH   2   3
ENDBRANCH   1   2
BRANCH   1  12
ATOM     12  C   UNL     1      14.507  34.582  20.753  1.00  0.00     0.000 C 
BRANCH  12  13
ATOM     13  C   UNL     1      14.476  33.583  19.587  1.00  0.00    -0.000 C 
BRANCH  13  14
ATOM     14  C   UNL     1      13.843  32.252  20.023  1.00  0.00    -0.000 C 
BRANCH  14  15
ATOM     15  C   UNL     1      13.598  32.179  21.538  1.00  0.00    -0.000 C 
BRANCH  15  16
ATOM     16  C   UNL     1      13.858  30.780  22.116  1.00  0.00    -0.000 C 
BRANCH  16  17
ATOM     17  C   UNL     1      15.339  30.405  21.999  1.00  0.00    -0.000 C 
BRANCH  17  18
ATOM     18  C   UNL     1      16.160  31.042  23.128  1.00  0.00    -0.000 C 
BRANCH  18  19
ATOM     19  C   UNL     1      17.551  31.452  22.633  1.00  0.00    -0.003 C 
ATOM     20  C   UNL     1      17.473  32.143  21.276  1.00  0.00     0.004 C 
ENDBRANCH  18  19
ENDBRANCH  17  18
ENDBRANCH  16  17
ENDBRANCH  15  16
ENDBRANCH  14  15
ENDBRANCH  13  14
ENDBRANCH  12  13
ENDBRANCH   1  12
TORSDOF 16
ENDMDL
MODEL 3
REMARK VINA RESULT:    -4.075      3.947      7.262
REMARK INTER + INTRA:          -9.822
REMARK INTER:                  -7.707
REMARK INTRA:                  -2.115
REMARK UNBOUND:                -1.936
REMARK SMILES CCCCCCCCCCCCCCCCCC(=O)[O-]
REMARK SMILES IDX 10 1 11 2 12 3 13 4 14 5 15 6 16 7 17 8 18 9 19 10 20 11
REMARK SMILES IDX 9 12 8 13 7 14 6 15 5 16 4 17 3 18 2 19 1 20
REMARK H PARENT
REMARK Flexibility Score: inf
ROOT
ATOM      1  C   UNL     1      12.645  36.016  21.059  1.00  0.00     0.000 C 
ENDROOT
BRANCH   1   2
ATOM      2  C   UNL     1      13.633  34.861  20.829  1.00  0.00     0.000 C 
BRANCH   2   3
ATOM      3  C   UNL     1      13.226  33.969  19.644  1.00  0.00     0.000 C 
BRANCH   3   4
ATOM      4  C   UNL     1      12.789  32.561  20.091  1.00  0.00     0.000 C 
BRANCH   4   5
ATOM      5  C   UNL     1      12.759  32.412  21.621  1.00  0.00     0.000 C 
BRANCH   5   6
ATOM      6  C   UNL     1      13.373  31.084  22.095  1.00  0.00     0.000 C 
BRANCH   6   7
ATOM      7  C   UNL     1      14.732  30.793  21.439  1.00  0.00     0.006 C 
BRANCH   7   8
ATOM      8  C   UNL     1      15.842  31.726  21.939  1.00  0.00     0.053 C 
BRANCH   8   9
ATOM      9  C   UNL     1      16.676  32.208  20.794  1.00  0.00     0.041 C 
ATOM     10  O   UNL     1      17.756  32.818  21.010  1.00  0.00    -0.550 OA
ATOM     11  O   UNL     1      16.237  32.024  19.489  1.00  0.00    -0.550 OA
ENDBRANCH   8   9
ENDBRANCH   7   8
ENDBRANCH   6   7
ENDBRANCH   5   6
ENDBRANCH   4   5
ENDBRANCH   3   4
ENDBRANCH   2   3
ENDBRANCH   1   2
BRANCH   1  12
ATOM     12  C   UNL     1      11.887  35.892  22.390  1.00  0.00     0.000 C 
BRANCH  12  13
ATOM     13  C   UNL     1      10.403  36.269  22.270  1.00  0.00    -0.000 C 
BRANCH  13  14
ATOM     14  C   UNL     1       9.995  36.423  20.797  1.00  0.00    -0.000 C 
BRANCH  14  15
ATOM     15  C   UNL     1       8.884  35.444  20.382  1.00  0.00    -0.000 C 
BRANCH  15  16
ATOM     16  C   UNL     1       9.417  34.037  20.071  1.00  0.00    -0.000 C 
BRANCH  16  17
ATOM     17  C   UNL     1       8.265  33.048  19.869  1.00  0.00    -0.000 C 
BRANCH  17  18
ATOM     18  C   UNL     1       6.907  33.730  20.078  1.00  0.00    -0.000 C 
BRANCH  18  19
ATOM     19  C   UNL     1       5.897  32.765  20.709  1.00  0.00    -0.003 C 
ATOM     20  C   UNL     1       6.283  31.313  20.447  1.00  0.00     0.004 C 
ENDBRANCH  18  19
ENDBRANCH  17  18
ENDBRANCH  16  17
ENDBRANCH  15  16
ENDBRANCH  14  15
ENDBRANCH  13  14
ENDBRANCH  12  13
ENDBRANCH   1  12
TORSDOF 16
ENDMDL
MODEL 4
REMARK VINA RESULT:    -4.059      1.086      2.040
REMARK INTER + INTRA:          -9.792
REMARK INTER:                  -8.102
REMARK INTRA:                  -1.690
REMARK UNBOUND:                -1.936
REMARK SMILES CCCCCCCCCCCCCCCCCC(=O)[O-]
REMARK SMILES IDX 10 1 11 2 12 3 13 4 14 5 15 6 16 7 17 8 18 9 19 10 20 11
REMARK SMILES IDX 9 12 8 13 7 14 6 15 5 16 4 17 3 18 2 19 1 20
REMARK H PARENT
REMARK Flexibility Score: inf
ROOT
ATOM      1  C   UNL     1      11.843  35.765  22.140  1.00  0.00     0.000 C 
ENDROOT
BRANCH   1   2
ATOM      2  C   UNL     1      10.325  35.870  21.916  1.00  0.00     0.000 C 
BRANCH   2   3
ATOM      3  C   UNL     1       9.975  36.441  20.531  1.00  0.00     0.000 C 
BRANCH   3   4
ATOM      4  C   UNL     1       9.388  35.375  19.588  1.00  0.00     0.000 C 
BRANCH   4   5
ATOM      5  C   UNL     1       9.328  33.982  20.236  1.00  0.00     0.000 C 
BRANCH   5   6
ATOM      6  C   UNL     1       8.356  33.036  19.512  1.00  0.00     0.000 C 
BRANCH   6   7
ATOM      7  C   UNL     1       6.913  33.167  20.024  1.00  0.00     0.006 C 
BRANCH   7   8
ATOM      8  C   UNL     1       5.970  32.125  19.411  1.00  0.00     0.053 C 
BRANCH   8   9
ATOM      9  C   UNL     1       4.870  31.786  20.368  1.00  0.00     0.041 C 
ATOM     10  O   UNL     1       3.960  30.984  20.029  1.00  0.00    -0.550 OA
ATOM     11  O   UNL     1       4.824  32.393  21.616  1.00  0.00    -0.550 OA
ENDBRANCH   8   9
ENDBRANCH   7   8
ENDBRANCH   6   7
ENDBRANCH   5   6
ENDBRANCH   4   5
ENDBRANCH   3   4
ENDBRANCH   2   3
ENDBRANCH   1   2
BRANCH   1  12
ATOM     12  C   UNL     1      12.655  36.241  20.925  1.00  0.00     0.000 C 
BRANCH  12  13
ATOM     13  C   UNL     1      13.679  35.201  20.446  1.00  0.00    -0.000 C 
BRANCH  13  14
ATOM     14  C   UNL     1      13.013  34.157  19.536  1.00  0.00    -0.000 C 
BRANCH  14  15
ATOM     15  C   UNL     1      13.290  32.713  19.986  1.00  0.00    -0.000 C 
BRANCH  15  16
ATOM     16  C   UNL     1      13.735  32.623  21.453  1.00  0.00    -0.000 C 
BRANCH  16  17
ATOM     17  C   UNL     1      15.049  31.846  21.581  1.00  0.00    -0.000 C 
BRANCH  17  18
ATOM     18  C   UNL     1      16.107  32.388  20.612  1.00  0.00    -0.000 C 
BRANCH  18  19
ATOM     19  C   UNL     1      17.510  32.304  21.226  1.00  0.00    -0.003 C 
ATOM     20  C   UNL     1      17.501  31.487  22.513  1.00  0.00     0.004 C 
ENDBRANCH  18  19
ENDBRANCH  17  18
ENDBRANCH  16  17
ENDBRANCH  15  16
ENDBRANCH  14  15
ENDBRANCH  13  14
ENDBRANCH  12  13
ENDBRANCH   1  12
TORSDOF 16
ENDMDL
MODEL 5
REMARK VINA RESULT:    -4.037      4.371      8.236
REMARK INTER + INTRA:          -9.750
REMARK INTER:                  -8.759
REMARK INTRA:                  -0.991
REMARK UNBOUND:                -1.936
REMARK SMILES CCCCCCCCCCCCCCCCCC(=O)[O-]
REMARK SMILES IDX 10 1 11 2 12 3 13 4 14 5 15 6 16 7 17 8 18 9 19 10 20 11
REMARK SMILES IDX 9 12 8 13 7 14 6 15 5 16 4 17 3 18 2 19 1 20
REMARK H PARENT
REMARK Flexibility Score: inf
ROOT
ATOM      1  C   UNL     1      12.316  34.907  21.282  1.00  0.00     0.000 C 
ENDROOT
BRANCH   1   2
ATOM      2  C   UNL     1      13.617  35.492  20.708  1.00  0.00     0.000 C 
BRANCH   2   3
ATOM      3  C   UNL     1      14.714  34.427  20.538  1.00  0.00     0.000 C 
BRANCH   3   4
ATOM      4  C   UNL     1      14.186  32.999  20.770  1.00  0.00     0.000 C 
BRANCH   4   5
ATOM      5  C   UNL     1      15.288  32.031  21.234  1.00  0.00     0.000 C 
BRANCH   5   6
ATOM      6  C   UNL     1      16.674  32.696  21.281  1.00  0.00     0.000 C 
BRANCH   6   7
ATOM      7  C   UNL     1      17.770  31.743  21.783  1.00  0.00     0.006 C 
BRANCH   7   8
ATOM      8  C   UNL     1      17.206  30.558  22.577  1.00  0.00     0.053 C 
BRANCH   8   9
ATOM      9  C   UNL     1      17.340  30.800  24.047  1.00  0.00     0.041 C 
ATOM     10  O   UNL     1      16.486  30.333  24.846  1.00  0.00    -0.550 OA
ATOM     11  O   UNL     1      18.381  31.583  24.530  1.00  0.00    -0.550 OA
ENDBRANCH   8   9
ENDBRANCH   7   8
ENDBRANCH   6   7
ENDBRANCH   5   6
ENDBRANCH   4   5
ENDBRANCH   3   4
ENDBRANCH   2   3
ENDBRANCH   1   2
BRANCH   1  12
ATOM     12  C   UNL     1      11.520  35.929  22.108  1.00  0.00     0.000 C 
BRANCH  12  13
ATOM     13  C   UNL     1      10.173  36.297  21.467  1.00  0.00    -0.000 C 
BRANCH  13  14
ATOM     14  C   UNL     1      10.132  35.864  19.993  1.00  0.00    -0.000 C 
BRANCH  14  15
ATOM     15  C   UNL     1       9.085  36.638  19.176  1.00  0.00    -0.000 C 
BRANCH  15  16
ATOM     16  C   UNL     1       7.673  36.048  19.308  1.00  0.00    -0.000 C 
BRANCH  16  17
ATOM     17  C   UNL     1       7.727  34.524  19.452  1.00  0.00    -0.000 C 
BRANCH  17  18
ATOM     18  C   UNL     1       6.692  34.028  20.469  1.00  0.00    -0.000 C 
BRANCH  18  19
ATOM     19  C   UNL     1       6.204  32.619  20.116  1.00  0.00    -0.003 C 
ATOM     20  C   UNL     1       5.131  32.145  21.091  1.00  0.00     0.004 C 
ENDBRANCH  18  19
ENDBRANCH  17  18
ENDBRANCH  16  17
ENDBRANCH  15  16
ENDBRANCH  14  15
ENDBRANCH  13  14
ENDBRANCH  12  13
ENDBRANCH   1  12
TORSDOF 16
ENDMDL
MODEL 6
REMARK VINA RESULT:    -3.990      4.459      7.819
REMARK INTER + INTRA:          -9.658
REMARK INTER:                  -8.142
REMARK INTRA:                  -1.516
REMARK UNBOUND:                -1.936
REMARK SMILES CCCCCCCCCCCCCCCCCC(=O)[O-]
REMARK SMILES IDX 10 1 11 2 12 3 13 4 14 5 15 6 16 7 17 8 18 9 19 10 20 11
REMARK SMILES IDX 9 12 8 13 7 14 6 15 5 16 4 17 3 18 2 19 1 20
REMARK H PARENT
REMARK Flexibility Score: inf
ROOT
ATOM      1  C   UNL     1      11.162  35.703  22.210  1.00  0.00     0.000 C 
ENDROOT
BRANCH   1   2
ATOM      2  C   UNL     1      12.557  35.808  21.570  1.00  0.00     0.000 C 
BRANCH   2   3
ATOM      3  C   UNL     1      13.097  34.441  21.117  1.00  0.00     0.000 C 
BRANCH   3   4
ATOM      4  C   UNL     1      14.544  34.525  20.596  1.00  0.00     0.000 C 
BRANCH   4   5
ATOM      5  C   UNL     1      15.313  33.206  20.776  1.00  0.00     0.000 C 
BRANCH   5   6
ATOM      6  C   UNL     1      14.554  32.196  21.652  1.00  0.00     0.000 C 
BRANCH   6   7
ATOM      7  C   UNL     1      15.468  31.094  22.210  1.00  0.00     0.006 C 
BRANCH   7   8
ATOM      8  C   UNL     1      16.951  31.486  22.188  1.00  0.00     0.053 C 
BRANCH   8   9
ATOM      9  C   UNL     1      17.628  31.042  23.446  1.00  0.00     0.041 C 
ATOM     10  O   UNL     1      16.966  30.911  24.510  1.00  0.00    -0.550 OA
ATOM     11  O   UNL     1      18.999  30.819  23.456  1.00  0.00    -0.550 OA
ENDBRANCH   8   9
ENDBRANCH   7   8
ENDBRANCH   6   7
ENDBRANCH   5   6
ENDBRANCH   4   5
ENDBRANCH   3   4
ENDBRANCH   2   3
ENDBRANCH   1   2
BRANCH   1  12
ATOM     12  C   UNL     1      10.105  36.534  21.465  1.00  0.00     0.000 C 
BRANCH  12  13
ATOM     13  C   UNL     1      10.148  36.331  19.944  1.00  0.00    -0.000 C 
BRANCH  13  14
ATOM     14  C   UNL     1       8.841  36.807  19.291  1.00  0.00    -0.000 C 
BRANCH  14  15
ATOM     15  C   UNL     1       7.862  35.655  19.012  1.00  0.00    -0.000 C 
BRANCH  15  16
ATOM     16  C   UNL     1       7.170  35.142  20.284  1.00  0.00    -0.000 C 
BRANCH  16  17
ATOM     17  C   UNL     1       6.836  33.651  20.163  1.00  0.00    -0.000 C 
BRANCH  17  18
ATOM     18  C   UNL     1       7.730  32.968  19.119  1.00  0.00    -0.000 C 
BRANCH  18  19
ATOM     19  C   UNL     1       8.766  32.061  19.791  1.00  0.00    -0.003 C 
ATOM     20  C   UNL     1      10.168  32.654  19.688  1.00  0.00     0.004 C 
ENDBRANCH  18  19
ENDBRANCH  17  18
ENDBRANCH  16  17
ENDBRANCH  15  16
ENDBRANCH  14  15
ENDBRANCH  13  14
ENDBRANCH  12  13
ENDBRANCH   1  12
TORSDOF 16
ENDMDL
MODEL 7
REMARK VINA RESULT:    -3.975      3.958      7.205
REMARK INTER + INTRA:          -9.629
REMARK INTER:                  -7.235
REMARK INTRA:                  -2.393
REMARK UNBOUND:                -1.936
REMARK SMILES CCCCCCCCCCCCCCCCCC(=O)[O-]
REMARK SMILES IDX 10 1 11 2 12 3 13 4 14 5 15 6 16 7 17 8 18 9 19 10 20 11
REMARK SMILES IDX 9 12 8 13 7 14 6 15 5 16 4 17 3 18 2 19 1 20
REMARK H PARENT
REMARK Flexibility Score: inf
ROOT
ATOM      1  C   UNL     1      12.468  35.867  21.814  1.00  0.00     0.000 C 
ENDROOT
BRANCH   1   2
ATOM      2  C   UNL     1      12.700  36.157  20.322  1.00  0.00     0.000 C 
BRANCH   2   3
ATOM      3  C   UNL     1      13.789  35.258  19.712  1.00  0.00     0.000 C 
BRANCH   3   4
ATOM      4  C   UNL     1      14.664  34.586  20.786  1.00  0.00     0.000 C 
BRANCH   4   5
ATOM      5  C   UNL     1      15.380  33.330  20.262  1.00  0.00     0.000 C 
BRANCH   5   6
ATOM      6  C   UNL     1      16.796  33.174  20.841  1.00  0.00     0.000 C 
BRANCH   6   7
ATOM      7  C   UNL     1      17.159  31.709  21.128  1.00  0.00     0.006 C 
BRANCH   7   8
ATOM      8  C   UNL     1      17.779  31.513  22.517  1.00  0.00     0.053 C 
BRANCH   8   9
ATOM      9  C   UNL     1      16.780  30.915  23.457  1.00  0.00     0.041 C 
ATOM     10  O   UNL     1      17.141  30.519  24.597  1.00  0.00    -0.550 OA
ATOM     11  O   UNL     1      15.460  30.752  23.057  1.00  0.00    -0.550 OA
ENDBRANCH   8   9
ENDBRANCH   7   8
ENDBRANCH   6   7
ENDBRANCH   5   6
ENDBRANCH   4   5
ENDBRANCH   3   4
ENDBRANCH   2   3
ENDBRANCH   1   2
BRANCH   1  12
ATOM     12  C   UNL     1      10.996  35.565  22.137  1.00  0.00     0.000 C 
BRANCH  12  13
ATOM     13  C   UNL     1      10.016  36.362  21.264  1.00  0.00    -0.000 C 
BRANCH  13  14
ATOM     14  C   UNL     1       8.984  35.431  20.609  1.00  0.00    -0.000 C 
BRANCH  14  15
ATOM     15  C   UNL     1       9.307  35.125  19.138  1.00  0.00    -0.000 C 
BRANCH  15  16
ATOM     16  C   UNL     1      10.136  33.844  18.965  1.00  0.00    -0.000 C 
BRANCH  16  17
ATOM     17  C   UNL     1       9.486  32.667  19.700  1.00  0.00    -0.000 C 
BRANCH  17  18
ATOM     18  C   UNL     1      10.488  31.525  19.909  1.00  0.00    -0.000 C 
BRANCH  18  19
ATOM     19  C   UNL     1      11.898  32.070  20.167  1.00  0.00    -0.003 C 
ATOM     20  C   UNL     1      12.226  32.070  21.657  1.00  0.00     0.004 C 
ENDBRANCH  18  19
ENDBRANCH  17  18
ENDBRANCH  16  17
ENDBRANCH  15  16
ENDBRANCH  14  15
ENDBRANCH  13  14
ENDBRANCH  12  13
ENDBRANCH   1  12
TORSDOF 16
ENDMDL
MODEL 8
REMARK VINA RESULT:    -3.909      1.667      2.987
REMARK INTER + INTRA:          -9.501
REMARK INTER:                  -7.878
REMARK INTRA:                  -1.623
REMARK UNBOUND:                -1.936
REMARK SMILES CCCCCCCCCCCCCCCCCC(=O)[O-]
REMARK SMILES IDX 10 1 11 2 12 3 13 4 14 5 15 6 16 7 17 8 18 9 19 10 20 11
REMARK SMILES IDX 9 12 8 13 7 14 6 15 5 16 4 17 3 18 2 19 1 20
REMARK H PARENT
REMARK Flexibility Score: inf
ROOT
ATOM      1  C   UNL     1      13.501  35.408  20.966  1.00  0.00     0.000 C 
ENDROOT
BRANCH   1   2
ATOM      2  C   UNL     1      12.089  34.922  21.334  1.00  0.00     0.000 C 
BRANCH   2   3
ATOM      3  C   UNL     1      11.369  35.886  22.293  1.00  0.00     0.000 C 
BRANCH   3   4
ATOM      4  C   UNL     1      10.009  36.353  21.745  1.00  0.00     0.000 C 
BRANCH   4   5
ATOM      5  C   UNL     1      10.054  36.659  20.238  1.00  0.00     0.000 C 
BRANCH   5   6
ATOM      6  C   UNL     1       8.983  35.888  19.449  1.00  0.00     0.000 C 
BRANCH   6   7
ATOM      7  C   UNL     1       8.525  34.609  20.167  1.00  0.00     0.006 C 
BRANCH   7   8
ATOM      8  C   UNL     1       7.000  34.515  20.296  1.00  0.00     0.053 C 
BRANCH   8   9
ATOM      9  C   UNL     1       6.566  33.084  20.352  1.00  0.00     0.041 C 
ATOM     10  O   UNL     1       5.431  32.784  20.807  1.00  0.00    -0.550 OA
ATOM     11  O   UNL     1       7.434  32.079  19.945  1.00  0.00    -0.550 OA
ENDBRANCH   8   9
ENDBRANCH   7   8
ENDBRANCH   6   7
ENDBRANCH   5   6
ENDBRANCH   4   5
ENDBRANCH   3   4
ENDBRANCH   2   3
ENDBRANCH   1   2
BRANCH   1  12
ATOM     12  C   UNL     1      14.465  34.251  20.662  1.00  0.00     0.000 C 
BRANCH  12  13
ATOM     13  C   UNL     1      13.843  33.175  19.759  1.00  0.00    -0.000 C 
BRANCH  13  14
ATOM     14  C   UNL     1      14.024  31.776  20.370  1.00  0.00    -0.000 C 
BRANCH  14  15
ATOM     15  C   UNL     1      14.093  31.803  21.905  1.00  0.00    -0.000 C 
BRANCH  15  16
ATOM     16  C   UNL     1      14.869  30.611  22.486  1.00  0.00    -0.000 C 
BRANCH  16  17
ATOM     17  C   UNL     1      16.243  31.052  23.001  1.00  0.00    -0.000 C 
BRANCH  17  18
ATOM     18  C   UNL     1      17.364  30.215  22.372  1.00  0.00    -0.000 C 
BRANCH  18  19
ATOM     19  C   UNL     1      17.889  30.872  21.091  1.00  0.00    -0.003 C 
ATOM     20  C   UNL     1      17.685  32.383  21.122  1.00  0.00     0.004 C 
ENDBRANCH  18  19
ENDBRANCH  17  18
ENDBRANCH  16  17
ENDBRANCH  15  16
ENDBRANCH  14  15
ENDBRANCH  13  14
ENDBRANCH  12  13
ENDBRANCH   1  12
TORSDOF 16
ENDMDL
MODEL 9
REMARK VINA RESULT:    -3.861      4.588      7.332
REMARK INTER + INTRA:          -9.408
REMARK INTER:                  -7.291
REMARK INTRA:                  -2.117
REMARK UNBOUND:                -1.936
REMARK SMILES CCCCCCCCCCCCCCCCCC(=O)[O-]
REMARK SMILES IDX 10 1 11 2 12 3 13 4 14 5 15 6 16 7 17 8 18 9 19 10 20 11
REMARK SMILES IDX 9 12 8 13 7 14 6 15 5 16 4 17 3 18 2 19 1 20
REMARK H PARENT
REMARK Flexibility Score: inf
ROOT
ATOM      1  C   UNL     1      14.166  35.254  20.400  1.00  0.00     0.000 C 
ENDROOT
BRANCH   1   2
ATOM      2  C   UNL     1      14.881  33.902  20.567  1.00  0.00     0.000 C 
BRANCH   2   3
ATOM      3  C   UNL     1      14.333  32.828  19.613  1.00  0.00     0.000 C 
BRANCH   3   4
ATOM      4  C   UNL     1      13.454  31.791  20.337  1.00  0.00     0.000 C 
BRANCH   4   5
ATOM      5  C   UNL     1      13.699  31.769  21.855  1.00  0.00     0.000 C 
BRANCH   5   6
ATOM      6  C   UNL     1      13.911  30.346  22.397  1.00  0.00     0.000 C 
BRANCH   6   7
ATOM      7  C   UNL     1      15.341  30.116  22.910  1.00  0.00     0.006 C 
BRANCH   7   8
ATOM      8  C   UNL     1      16.240  31.346  22.730  1.00  0.00     0.053 C 
BRANCH   8   9
ATOM      9  C   UNL     1      17.370  31.038  21.799  1.00  0.00     0.041 C 
ATOM     10  O   UNL     1      18.561  31.117  22.200  1.00  0.00    -0.550 OA
ATOM     11  O   UNL     1      17.109  30.710  20.475  1.00  0.00    -0.550 OA
ENDBRANCH   8   9
ENDBRANCH   7   8
ENDBRANCH   6   7
ENDBRANCH   5   6
ENDBRANCH   4   5
ENDBRANCH   3   4
ENDBRANCH   2   3
ENDBRANCH   1   2
BRANCH   1  12
ATOM     12  C   UNL     1      13.556  35.432  19.001  1.00  0.00     0.000 C 
BRANCH  12  13
ATOM     13  C   UNL     1      12.607  36.636  18.911  1.00  0.00    -0.000 C 
BRANCH  13  14
ATOM     14  C   UNL     1      11.141  36.177  18.875  1.00  0.00    -0.000 C 
BRANCH  14  15
ATOM     15  C   UNL     1      10.974  34.694  19.245  1.00  0.00    -0.000 C 
BRANCH  15  16
ATOM     16  C   UNL     1      10.572  34.489  20.713  1.00  0.00    -0.000 C 
BRANCH  16  17
ATOM     17  C   UNL     1       9.508  35.507  21.137  1.00  0.00    -0.000 C 
BRANCH  17  18
ATOM     18  C   UNL     1      10.113  36.597  22.031  1.00  0.00    -0.000 C 
BRANCH  18  19
ATOM     19  C   UNL     1      11.336  36.071  22.791  1.00  0.00    -0.003 C 
ATOM     20  C   UNL     1      11.028  35.889  24.274  1.00  0.00     0.004 C 
ENDBRANCH  18  19
ENDBRANCH  17  18
ENDBRANCH  16  17
ENDBRANCH  15  16
ENDBRANCH  14  15
ENDBRANCH  13  14
ENDBRANCH  12  13
ENDBRANCH   1  12
TORSDOF 16
ENDMDL
