MODEL 1
REMARK VINA RESULT:    -3.792      0.000      0.000
REMARK INTER + INTRA:          -7.326
REMARK INTER:                  -6.009
REMARK INTRA:                  -1.317
REMARK UNBOUND:                -1.317
REMARK SMILES CCCCCCCCCCCC(=O)[O-]
REMARK SMILES IDX 7 1 8 2 9 3 10 4 11 5 12 6 13 7 14 8 6 9 5 10 4 11 3 12 2 13
REMARK SMILES IDX 1 14
REMARK H PARENT
REMARK Flexibility Score: inf
ROOT
ATOM      1  C   UNL     1      51.431 -50.693  -8.095  1.00  0.00     0.000 C 
ENDROOT
BRANCH   1   2
ATOM      2  C   UNL     1      51.984 -51.754  -9.064  1.00  0.00     0.000 C 
BRANCH   2   3
ATOM      3  C   UNL     1      53.194 -51.248  -9.865  1.00  0.00     0.000 C 
BRANCH   3   4
ATOM      4  C   UNL     1      52.930 -51.204 -11.378  1.00  0.00     0.006 C 
BRANCH   4   5
ATOM      5  C   UNL     1      51.428 -51.267 -11.674  1.00  0.00     0.053 C 
BRANCH   5   6
ATOM      6  C   UNL     1      51.094 -50.439 -12.874  1.00  0.00     0.041 C 
ATOM      7  O   UNL     1      51.920 -49.597 -13.313  1.00  0.00    -0.550 OA
ATOM      8  O   UNL     1      49.849 -50.562 -13.478  1.00  0.00    -0.550 OA
ENDBRANCH   5   6
ENDBRANCH   4   5
ENDBRANCH   3   4
ENDBRANCH   2   3
ENDBRANCH   1   2
BRANCH   1   9
ATOM      9  C   UNL     1      52.182 -49.356  -8.194  1.00  0.00     0.000 C 
BRANCH   9  10
ATOM     10  C   UNL     1      51.339 -48.251  -8.855  1.00  0.00    -0.000 C 
BRANCH  10  11
ATOM     11  C   UNL     1      51.993 -47.690 -10.129  1.00  0.00    -0.000 C 
BRANCH  11  12
ATOM     12  C   UNL     1      50.970 -47.052 -11.085  1.00  0.00    -0.000 C 
BRANCH  12  13
ATOM     13  C   UNL     1      49.519 -47.369 -10.691  1.00  0.00    -0.003 C 
ATOM     14  C   UNL     1      48.608 -47.583 -11.900  1.00  0.00     0.004 C 
ENDBRANCH  12  13
ENDBRANCH  11  12
ENDBRANCH  10  11
ENDBRANCH   9  10
ENDBRANCH   1   9
TORSDOF 10
ENDMDL
MODEL 2
REMARK VINA RESULT:    -3.666      2.557      4.571
REMARK INTER + INTRA:          -7.126
REMARK INTER:                  -5.830
REMARK INTRA:                  -1.296
REMARK UNBOUND:                -1.317
REMARK SMILES CCCCCCCCCCCC(=O)[O-]
REMARK SMILES IDX 7 1 8 2 9 3 10 4 11 5 12 6 13 7 14 8 6 9 5 10 4 11 3 12 2 13
REMARK SMILES IDX 1 14
REMARK H PARENT
REMARK Flexibility Score: inf
ROOT
ATOM      1  C   UNL     1      52.107 -49.377  -8.061  1.00  0.00     0.000 C 
ENDROOT
BRANCH   1   2
ATOM      2  C   UNL     1      51.342 -48.282  -8.827  1.00  0.00     0.000 C 
BRANCH   2   3
ATOM      3  C   UNL     1      52.129 -47.749 -10.035  1.00  0.00     0.000 C 
BRANCH   3   4
ATOM      4  C   UNL     1      51.227 -47.081 -11.084  1.00  0.00     0.006 C 
BRANCH   4   5
ATOM      5  C   UNL     1      49.927 -46.580 -10.449  1.00  0.00     0.053 C 
BRANCH   5   6
ATOM      6  C   UNL     1      49.972 -45.097 -10.259  1.00  0.00     0.041 C 
ATOM      7  O   UNL     1      50.356 -44.350 -11.197  1.00  0.00    -0.550 OA
ATOM      8  O   UNL     1      49.639 -44.543  -9.030  1.00  0.00    -0.550 OA
ENDBRANCH   5   6
ENDBRANCH   4   5
ENDBRANCH   3   4
ENDBRANCH   2   3
ENDBRANCH   1   2
BRANCH   1   9
ATOM      9  C   UNL     1      51.341 -50.710  -8.016  1.00  0.00     0.000 C 
BRANCH   9  10
ATOM     10  C   UNL     1      51.687 -51.631  -9.199  1.00  0.00    -0.000 C 
BRANCH  10  11
ATOM     11  C   UNL     1      53.124 -51.429  -9.706  1.00  0.00    -0.000 C 
BRANCH  11  12
ATOM     12  C   UNL     1      53.199 -51.310 -11.238  1.00  0.00    -0.000 C 
BRANCH  12  13
ATOM     13  C   UNL     1      51.837 -50.980 -11.870  1.00  0.00    -0.003 C 
ATOM     14  C   UNL     1      51.957 -50.092 -13.108  1.00  0.00     0.004 C 
ENDBRANCH  12  13
ENDBRANCH  11  12
ENDBRANCH  10  11
ENDBRANCH   9  10
ENDBRANCH   1   9
TORSDOF 10
ENDMDL
MODEL 3
REMARK VINA RESULT:    -3.642      1.565      2.790
REMARK INTER + INTRA:          -7.088
REMARK INTER:                  -6.064
REMARK INTRA:                  -1.023
REMARK UNBOUND:                -1.317
REMARK SMILES CCCCCCCCCCCC(=O)[O-]
REMARK SMILES IDX 7 1 8 2 9 3 10 4 11 5 12 6 13 7 14 8 6 9 5 10 4 11 3 12 2 13
REMARK SMILES IDX 1 14
REMARK H PARENT
REMARK Flexibility Score: inf
ROOT
ATOM      1  C   UNL     1      51.346 -48.316  -8.880  1.00  0.00     0.000 C 
ENDROOT
BRANCH   1   2
ATOM      2  C   UNL     1      52.200 -49.373  -8.156  1.00  0.00     0.000 C 
BRANCH   2   3
ATOM      3  C   UNL     1      51.459 -50.708  -7.975  1.00  0.00     0.000 C 
BRANCH   3   4
ATOM      4  C   UNL     1      51.576 -51.624  -9.203  1.00  0.00     0.006 C 
BRANCH   4   5
ATOM      5  C   UNL     1      52.898 -51.387  -9.938  1.00  0.00     0.053 C 
BRANCH   5   6
ATOM      6  C   UNL     1      52.658 -51.201 -11.404  1.00  0.00     0.041 C 
ATOM      7  O   UNL     1      51.626 -50.602 -11.806  1.00  0.00    -0.550 OA
ATOM      8  O   UNL     1      53.548 -51.736 -12.327  1.00  0.00    -0.550 OA
ENDBRANCH   5   6
ENDBRANCH   4   5
ENDBRANCH   3   4
ENDBRANCH   2   3
ENDBRANCH   1   2
BRANCH   1   9
ATOM      9  C   UNL     1      52.095 -47.653 -10.048  1.00  0.00     0.000 C 
BRANCH   9  10
ATOM     10  C   UNL     1      51.144 -46.995 -11.063  1.00  0.00    -0.000 C 
BRANCH  10  11
ATOM     11  C   UNL     1      49.663 -47.259 -10.744  1.00  0.00    -0.000 C 
BRANCH  11  12
ATOM     12  C   UNL     1      48.825 -45.969 -10.717  1.00  0.00    -0.000 C 
BRANCH  12  13
ATOM     13  C   UNL     1      49.677 -44.719 -10.445  1.00  0.00    -0.003 C 
ATOM     14  C   UNL     1      49.584 -44.241  -8.997  1.00  0.00     0.004 C 
ENDBRANCH  12  13
ENDBRANCH  11  12
ENDBRANCH  10  11
ENDBRANCH   9  10
ENDBRANCH   1   9
TORSDOF 10
ENDMDL
MODEL 4
REMARK VINA RESULT:    -3.602      1.526      2.583
REMARK INTER + INTRA:          -7.024
REMARK INTER:                  -5.743
REMARK INTRA:                  -1.280
REMARK UNBOUND:                -1.317
REMARK SMILES CCCCCCCCCCCC(=O)[O-]
REMARK SMILES IDX 7 1 8 2 9 3 10 4 11 5 12 6 13 7 14 8 6 9 5 10 4 11 3 12 2 13
REMARK SMILES IDX 1 14
REMARK H PARENT
REMARK Flexibility Score: inf
ROOT
ATOM      1  C   UNL     1      53.210 -51.274  -9.758  1.00  0.00     0.000 C 
ENDROOT
BRANCH   1   2
ATOM      2  C   UNL     1      52.923 -51.231 -11.270  1.00  0.00     0.000 C 
BRANCH   2   3
ATOM      3  C   UNL     1      51.424 -51.353 -11.590  1.00  0.00     0.000 C 
BRANCH   3   4
ATOM      4  C   UNL     1      51.128 -51.270 -13.095  1.00  0.00     0.006 C 
BRANCH   4   5
ATOM      5  C   UNL     1      49.977 -50.299 -13.373  1.00  0.00     0.053 C 
BRANCH   5   6
ATOM      6  C   UNL     1      48.896 -50.975 -14.156  1.00  0.00     0.041 C 
ATOM      7  O   UNL     1      48.845 -50.846 -15.407  1.00  0.00    -0.550 OA
ATOM      8  O   UNL     1      47.915 -51.707 -13.499  1.00  0.00    -0.550 OA
ENDBRANCH   5   6
ENDBRANCH   4   5
ENDBRANCH   3   4
ENDBRANCH   2   3
ENDBRANCH   1   2
BRANCH   1   9
ATOM      9  C   UNL     1      51.971 -51.662  -8.934  1.00  0.00     0.000 C 
BRANCH   9  10
ATOM     10  C   UNL     1      51.447 -50.499  -8.072  1.00  0.00    -0.000 C 
BRANCH  10  11
ATOM     11  C   UNL     1      52.119 -49.159  -8.415  1.00  0.00    -0.000 C 
BRANCH  11  12
ATOM     12  C   UNL     1      51.099 -48.050  -8.729  1.00  0.00    -0.000 C 
BRANCH  12  13
ATOM     13  C   UNL     1      50.647 -48.066 -10.198  1.00  0.00    -0.003 C 
ATOM     14  C   UNL     1      51.743 -47.611 -11.161  1.00  0.00     0.004 C 
ENDBRANCH  12  13
ENDBRANCH  11  12
ENDBRANCH  10  11
ENDBRANCH   9  10
ENDBRANCH   1   9
TORSDOF 10
ENDMDL
MODEL 5
REMARK VINA RESULT:    -3.596      1.217      3.935
REMARK INTER + INTRA:          -7.015
REMARK INTER:                  -5.739
REMARK INTRA:                  -1.276
REMARK UNBOUND:                -1.317
REMARK SMILES CCCCCCCCCCCC(=O)[O-]
REMARK SMILES IDX 7 1 8 2 9 3 10 4 11 5 12 6 13 7 14 8 6 9 5 10 4 11 3 12 2 13
REMARK SMILES IDX 1 14
REMARK H PARENT
REMARK Flexibility Score: inf
ROOT
ATOM      1  C   UNL     1      51.305 -48.356  -8.926  1.00  0.00     0.000 C 
ENDROOT
BRANCH   1   2
ATOM      2  C   UNL     1      52.109 -47.684 -10.054  1.00  0.00     0.000 C 
BRANCH   2   3
ATOM      3  C   UNL     1      51.208 -46.960 -11.068  1.00  0.00     0.000 C 
BRANCH   3   4
ATOM      4  C   UNL     1      49.870 -47.680 -11.295  1.00  0.00     0.006 C 
BRANCH   4   5
ATOM      5  C   UNL     1      49.590 -47.855 -12.790  1.00  0.00     0.053 C 
BRANCH   5   6
ATOM      6  C   UNL     1      48.398 -48.735 -13.002  1.00  0.00     0.041 C 
ATOM      7  O   UNL     1      48.510 -49.810 -13.647  1.00  0.00    -0.550 OA
ATOM      8  O   UNL     1      47.152 -48.342 -12.530  1.00  0.00    -0.550 OA
ENDBRANCH   5   6
ENDBRANCH   4   5
ENDBRANCH   3   4
ENDBRANCH   2   3
ENDBRANCH   1   2
BRANCH   1   9
ATOM      9  C   UNL     1      52.121 -49.422  -8.175  1.00  0.00     0.000 C 
BRANCH   9  10
ATOM     10  C   UNL     1      51.386 -50.771  -8.080  1.00  0.00    -0.000 C 
BRANCH  10  11
ATOM     11  C   UNL     1      51.810 -51.755  -9.183  1.00  0.00    -0.000 C 
BRANCH  11  12
ATOM     12  C   UNL     1      53.119 -51.338  -9.876  1.00  0.00    -0.000 C 
BRANCH  12  13
ATOM     13  C   UNL     1      52.955 -51.181 -11.396  1.00  0.00    -0.003 C 
ATOM     14  C   UNL     1      51.493 -51.067 -11.828  1.00  0.00     0.004 C 
ENDBRANCH  12  13
ENDBRANCH  11  12
ENDBRANCH  10  11
ENDBRANCH   9  10
ENDBRANCH   1   9
TORSDOF 10
ENDMDL
MODEL 6
REMARK VINA RESULT:    -3.573      1.537      3.608
REMARK INTER + INTRA:          -6.979
REMARK INTER:                  -5.731
REMARK INTRA:                  -1.247
REMARK UNBOUND:                -1.317
REMARK SMILES CCCCCCCCCCCC(=O)[O-]
REMARK SMILES IDX 7 1 8 2 9 3 10 4 11 5 12 6 13 7 14 8 6 9 5 10 4 11 3 12 2 13
REMARK SMILES IDX 1 14
REMARK H PARENT
REMARK Flexibility Score: inf
ROOT
ATOM      1  C   UNL     1      51.765 -51.735  -8.890  1.00  0.00     0.000 C 
ENDROOT
BRANCH   1   2
ATOM      2  C   UNL     1      51.208 -50.699  -7.897  1.00  0.00     0.000 C 
BRANCH   2   3
ATOM      3  C   UNL     1      51.919 -49.340  -8.001  1.00  0.00     0.000 C 
BRANCH   3   4
ATOM      4  C   UNL     1      51.212 -48.370  -8.959  1.00  0.00     0.006 C 
BRANCH   4   5
ATOM      5  C   UNL     1      52.146 -47.948 -10.097  1.00  0.00     0.053 C 
BRANCH   5   6
ATOM      6  C   UNL     1      51.366 -47.686 -11.347  1.00  0.00     0.041 C 
ATOM      7  O   UNL     1      50.160 -48.038 -11.427  1.00  0.00    -0.550 OA
ATOM      8  O   UNL     1      51.986 -47.098 -12.443  1.00  0.00    -0.550 OA
ENDBRANCH   5   6
ENDBRANCH   4   5
ENDBRANCH   3   4
ENDBRANCH   2   3
ENDBRANCH   1   2
BRANCH   1   9
ATOM      9  C   UNL     1      53.251 -51.502  -9.213  1.00  0.00     0.000 C 
BRANCH   9  10
ATOM     10  C   UNL     1      53.516 -51.388 -10.725  1.00  0.00    -0.000 C 
BRANCH  10  11
ATOM     11  C   UNL     1      52.220 -51.318 -11.550  1.00  0.00    -0.000 C 
BRANCH  11  12
ATOM     12  C   UNL     1      52.485 -51.078 -13.047  1.00  0.00    -0.000 C 
BRANCH  12  13
ATOM     13  C   UNL     1      51.282 -50.443 -13.762  1.00  0.00    -0.003 C 
ATOM     14  C   UNL     1      49.958 -51.123 -13.415  1.00  0.00     0.004 C 
ENDBRANCH  12  13
ENDBRANCH  11  12
ENDBRANCH  10  11
ENDBRANCH   9  10
ENDBRANCH   1   9
TORSDOF 10
ENDMDL
MODEL 7
REMARK VINA RESULT:    -3.542      1.999      4.712
REMARK INTER + INTRA:          -6.929
REMARK INTER:                  -5.894
REMARK INTRA:                  -1.035
REMARK UNBOUND:                -1.317
REMARK SMILES CCCCCCCCCCCC(=O)[O-]
REMARK SMILES IDX 7 1 8 2 9 3 10 4 11 5 12 6 13 7 14 8 6 9 5 10 4 11 3 12 2 13
REMARK SMILES IDX 1 14
REMARK H PARENT
REMARK Flexibility Score: inf
ROOT
ATOM      1  C   UNL     1      51.238 -48.359  -8.935  1.00  0.00     0.000 C 
ENDROOT
BRANCH   1   2
ATOM      2  C   UNL     1      52.062 -47.788 -10.103  1.00  0.00     0.000 C 
BRANCH   2   3
ATOM      3  C   UNL     1      51.411 -46.545 -10.732  1.00  0.00     0.000 C 
BRANCH   3   4
ATOM      4  C   UNL     1      50.191 -46.047  -9.941  1.00  0.00     0.006 C 
BRANCH   4   5
ATOM      5  C   UNL     1      49.236 -45.263 -10.845  1.00  0.00     0.053 C 
BRANCH   5   6
ATOM      6  C   UNL     1      48.413 -46.197 -11.675  1.00  0.00     0.041 C 
ATOM      7  O   UNL     1      47.927 -47.239 -11.163  1.00  0.00    -0.550 OA
ATOM      8  O   UNL     1      48.227 -45.943 -13.028  1.00  0.00    -0.550 OA
ENDBRANCH   5   6
ENDBRANCH   4   5
ENDBRANCH   3   4
ENDBRANCH   2   3
ENDBRANCH   1   2
BRANCH   1   9
ATOM      9  C   UNL     1      52.050 -49.327  -8.058  1.00  0.00     0.000 C 
BRANCH   9  10
ATOM     10  C   UNL     1      51.331 -50.670  -7.839  1.00  0.00    -0.000 C 
BRANCH  10  11
ATOM     11  C   UNL     1      51.734 -51.733  -8.875  1.00  0.00    -0.000 C 
BRANCH  11  12
ATOM     12  C   UNL     1      53.185 -51.566  -9.359  1.00  0.00    -0.000 C 
BRANCH  12  13
ATOM     13  C   UNL     1      53.272 -51.263 -10.863  1.00  0.00    -0.003 C 
ATOM     14  C   UNL     1      51.908 -51.288 -11.553  1.00  0.00     0.004 C 
ENDBRANCH  12  13
ENDBRANCH  11  12
ENDBRANCH  10  11
ENDBRANCH   9  10
ENDBRANCH   1   9
TORSDOF 10
ENDMDL
MODEL 8
REMARK VINA RESULT:    -3.538      1.547      3.680
REMARK INTER + INTRA:          -6.923
REMARK INTER:                  -5.597
REMARK INTRA:                  -1.325
REMARK UNBOUND:                -1.317
REMARK SMILES CCCCCCCCCCCC(=O)[O-]
REMARK SMILES IDX 7 1 8 2 9 3 10 4 11 5 12 6 13 7 14 8 6 9 5 10 4 11 3 12 2 13
REMARK SMILES IDX 1 14
REMARK H PARENT
REMARK Flexibility Score: inf
ROOT
ATOM      1  C   UNL     1      51.699 -47.639 -11.413  1.00  0.00     0.000 C 
ENDROOT
BRANCH   1   2
ATOM      2  C   UNL     1      50.905 -48.911 -11.763  1.00  0.00     0.000 C 
BRANCH   2   3
ATOM      3  C   UNL     1      51.794 -50.019 -12.349  1.00  0.00     0.000 C 
BRANCH   3   4
ATOM      4  C   UNL     1      51.112 -51.396 -12.343  1.00  0.00     0.006 C 
BRANCH   4   5
ATOM      5  C   UNL     1      50.701 -51.810 -13.758  1.00  0.00     0.053 C 
BRANCH   5   6
ATOM      6  C   UNL     1      49.302 -51.365 -14.050  1.00  0.00     0.041 C 
ATOM      7  O   UNL     1      49.089 -50.473 -14.913  1.00  0.00    -0.550 OA
ATOM      8  O   UNL     1      48.239 -51.898 -13.333  1.00  0.00    -0.550 OA
ENDBRANCH   5   6
ENDBRANCH   4   5
ENDBRANCH   3   4
ENDBRANCH   2   3
ENDBRANCH   1   2
BRANCH   1   9
ATOM      9  C   UNL     1      52.282 -47.681  -9.991  1.00  0.00     0.000 C 
BRANCH   9  10
ATOM     10  C   UNL     1      51.316 -48.314  -8.974  1.00  0.00    -0.000 C 
BRANCH  10  11
ATOM     11  C   UNL     1      51.971 -49.441  -8.159  1.00  0.00    -0.000 C 
BRANCH  11  12
ATOM     12  C   UNL     1      51.275 -50.799  -8.363  1.00  0.00    -0.000 C 
BRANCH  12  13
ATOM     13  C   UNL     1      52.261 -51.912  -8.753  1.00  0.00    -0.003 C 
ATOM     14  C   UNL     1      53.586 -51.371  -9.289  1.00  0.00     0.004 C 
ENDBRANCH  12  13
ENDBRANCH  11  12
ENDBRANCH  10  11
ENDBRANCH   9  10
ENDBRANCH   1   9
TORSDOF 10
ENDMDL
MODEL 9
REMARK VINA RESULT:    -3.523      1.317      2.520
REMARK INTER + INTRA:          -6.900
REMARK INTER:                  -5.499
REMARK INTRA:                  -1.400
REMARK UNBOUND:                -1.317
REMARK SMILES CCCCCCCCCCCC(=O)[O-]
REMARK SMILES IDX 7 1 8 2 9 3 10 4 11 5 12 6 13 7 14 8 6 9 5 10 4 11 3 12 2 13
REMARK SMILES IDX 1 14
REMARK H PARENT
REMARK Flexibility Score: inf
ROOT
ATOM      1  C   UNL     1      53.225 -51.173  -9.889  1.00  0.00     0.000 C 
ENDROOT
BRANCH   1   2
ATOM      2  C   UNL     1      52.926 -51.229 -11.398  1.00  0.00     0.000 C 
BRANCH   2   3
ATOM      3  C   UNL     1      51.422 -51.337 -11.698  1.00  0.00     0.000 C 
BRANCH   3   4
ATOM      4  C   UNL     1      50.896 -50.160 -12.534  1.00  0.00     0.006 C 
BRANCH   4   5
ATOM      5  C   UNL     1      52.035 -49.483 -13.302  1.00  0.00     0.053 C 
BRANCH   5   6
ATOM      6  C   UNL     1      51.974 -49.840 -14.754  1.00  0.00     0.041 C 
ATOM      7  O   UNL     1      52.642 -49.186 -15.596  1.00  0.00    -0.550 OA
ATOM      8  O   UNL     1      51.138 -50.864 -15.183  1.00  0.00    -0.550 OA
ENDBRANCH   5   6
ENDBRANCH   4   5
ENDBRANCH   3   4
ENDBRANCH   2   3
ENDBRANCH   1   2
BRANCH   1   9
ATOM      9  C   UNL     1      52.080 -51.749  -9.039  1.00  0.00     0.000 C 
BRANCH   9  10
ATOM     10  C   UNL     1      51.436 -50.695  -8.121  1.00  0.00    -0.000 C 
BRANCH  10  11
ATOM     11  C   UNL     1      52.097 -49.313  -8.253  1.00  0.00    -0.000 C 
BRANCH  11  12
ATOM     12  C   UNL     1      51.261 -48.338  -9.101  1.00  0.00    -0.000 C 
BRANCH  12  13
ATOM     13  C   UNL     1      52.113 -47.571 -10.125  1.00  0.00    -0.003 C 
ATOM     14  C   UNL     1      51.302 -46.557 -10.932  1.00  0.00     0.004 C 
ENDBRANCH  12  13
ENDBRANCH  11  12
ENDBRANCH  10  11
ENDBRANCH   9  10
ENDBRANCH   1   9
TORSDOF 10
ENDMDL
