MODEL 1
REMARK VINA RESULT:    -4.580      0.000      0.000
REMARK INTER + INTRA:          -5.101
REMARK INTER:                  -4.981
REMARK INTRA:                  -0.120
REMARK UNBOUND:                -0.120
REMARK SMILES Cc1ccc(C(C)C)cc1O
REMARK SMILES IDX 1 1 2 2 10 3 9 4 5 5 4 6 3 7 11 8 6 10 7 11 8 12
REMARK H PARENT 11 9
REMARK Flexibility Score: inf
ROOT
ATOM      1  C   UNL     1      -4.123   5.923  -3.881  1.00  0.00     0.048 C 
ATOM      2  C   UNL     1      -5.466   6.435  -3.442  1.00  0.00    -0.009 A 
ATOM      3  C   UNL     1      -5.625   7.781  -3.072  1.00  0.00     0.118 A 
ATOM      4  C   UNL     1      -6.882   8.252  -2.663  1.00  0.00     0.050 A 
ATOM      5  C   UNL     1      -7.990   7.390  -2.617  1.00  0.00    -0.042 A 
ATOM      6  C   UNL     1      -7.821   6.043  -2.989  1.00  0.00     0.004 A 
ATOM      7  C   UNL     1      -6.571   5.572  -3.397  1.00  0.00     0.007 A 
ENDROOT
BRANCH   3   8
ATOM      8  O   UNL     1      -4.534   8.650  -3.112  1.00  0.00    -0.508 OA
ATOM      9  H   UNL     1      -4.315   9.190  -3.941  1.00  0.00     0.293 HD
ENDBRANCH   3   8
BRANCH   5  10
ATOM     10  C   UNL     1      -9.343   7.915  -2.171  1.00  0.00     0.013 C 
ATOM     11  C   UNL     1      -9.927   7.051  -1.047  1.00  0.00     0.012 C 
ATOM     12  C   UNL     1      -9.253   9.385  -1.748  1.00  0.00     0.012 C 
ENDBRANCH   5  10
TORSDOF 2
ENDMDL
MODEL 2
REMARK VINA RESULT:    -4.533     17.900     20.004
REMARK INTER + INTRA:          -5.050
REMARK INTER:                  -4.924
REMARK INTRA:                  -0.126
REMARK UNBOUND:                -0.120
REMARK SMILES Cc1ccc(C(C)C)cc1O
REMARK SMILES IDX 1 1 2 2 10 3 9 4 5 5 4 6 3 7 11 8 6 10 7 11 8 12
REMARK H PARENT 11 9
REMARK Flexibility Score: inf
ROOT
ATOM      1  C   UNL     1      -0.146  -6.464   5.505  1.00  0.00     0.048 C 
ATOM      2  C   UNL     1       1.155  -7.085   5.082  1.00  0.00    -0.009 A 
ATOM      3  C   UNL     1       1.163  -8.287   4.354  1.00  0.00     0.118 A 
ATOM      4  C   UNL     1       2.382  -8.861   3.962  1.00  0.00     0.050 A 
ATOM      5  C   UNL     1       3.602  -8.247   4.292  1.00  0.00    -0.042 A 
ATOM      6  C   UNL     1       3.584  -7.045   5.023  1.00  0.00     0.004 A 
ATOM      7  C   UNL     1       2.372  -6.471   5.413  1.00  0.00     0.007 A 
ENDROOT
BRANCH   3   8
ATOM      8  O   UNL     1      -0.040  -8.908   4.018  1.00  0.00    -0.508 OA
ATOM      9  H   UNL     1      -0.117  -9.517   3.212  1.00  0.00     0.293 HD
ENDBRANCH   3   8
BRANCH   5  10
ATOM     10  C   UNL     1       4.912  -8.882   3.861  1.00  0.00     0.013 C 
ATOM     11  C   UNL     1       4.733  -9.700   2.577  1.00  0.00     0.012 C 
ATOM     12  C   UNL     1       6.011  -7.826   3.694  1.00  0.00     0.012 C 
ENDBRANCH   5  10
TORSDOF 2
ENDMDL
MODEL 3
REMARK VINA RESULT:    -4.449     17.897     19.512
REMARK INTER + INTRA:          -4.959
REMARK INTER:                  -4.834
REMARK INTRA:                  -0.125
REMARK UNBOUND:                -0.120
REMARK SMILES Cc1ccc(C(C)C)cc1O
REMARK SMILES IDX 1 1 2 2 10 3 9 4 5 5 4 6 3 7 11 8 6 10 7 11 8 12
REMARK H PARENT 11 9
REMARK Flexibility Score: inf
ROOT
ATOM      1  C   UNL     1      -1.095  -7.956   4.334  1.00  0.00     0.048 C 
ATOM      2  C   UNL     1       0.402  -7.918   4.458  1.00  0.00    -0.009 A 
ATOM      3  C   UNL     1       1.038  -6.801   5.025  1.00  0.00     0.118 A 
ATOM      4  C   UNL     1       2.436  -6.773   5.138  1.00  0.00     0.050 A 
ATOM      5  C   UNL     1       3.214  -7.854   4.687  1.00  0.00    -0.042 A 
ATOM      6  C   UNL     1       2.567  -8.967   4.119  1.00  0.00     0.004 A 
ATOM      7  C   UNL     1       1.175  -8.998   4.006  1.00  0.00     0.007 A 
ENDROOT
BRANCH   3   8
ATOM      8  O   UNL     1       0.280  -5.721   5.478  1.00  0.00    -0.508 OA
ATOM      9  H   UNL     1      -0.170  -5.732   6.386  1.00  0.00     0.293 HD
ENDBRANCH   3   8
BRANCH   5  10
ATOM     10  C   UNL     1       4.725  -7.807   4.815  1.00  0.00     0.013 C 
ATOM     11  C   UNL     1       5.402  -8.448   3.598  1.00  0.00     0.012 C 
ATOM     12  C   UNL     1       5.219  -6.371   5.028  1.00  0.00     0.012 C 
ENDBRANCH   5  10
TORSDOF 2
ENDMDL
MODEL 4
REMARK VINA RESULT:    -4.376     17.186     18.853
REMARK INTER + INTRA:          -4.879
REMARK INTER:                  -4.754
REMARK INTRA:                  -0.126
REMARK UNBOUND:                -0.120
REMARK SMILES Cc1ccc(C(C)C)cc1O
REMARK SMILES IDX 1 1 2 2 10 3 9 4 5 5 4 6 3 7 11 8 6 10 7 11 8 12
REMARK H PARENT 11 9
REMARK Flexibility Score: inf
ROOT
ATOM      1  C   UNL     1       2.227 -10.125   3.293  1.00  0.00     0.048 C 
ATOM      2  C   UNL     1       2.204  -8.814   4.028  1.00  0.00    -0.009 A 
ATOM      3  C   UNL     1       0.979  -8.215   4.369  1.00  0.00     0.118 A 
ATOM      4  C   UNL     1       0.965  -6.992   5.055  1.00  0.00     0.050 A 
ATOM      5  C   UNL     1       2.166  -6.353   5.408  1.00  0.00    -0.042 A 
ATOM      6  C   UNL     1       3.387  -6.960   5.061  1.00  0.00     0.004 A 
ATOM      7  C   UNL     1       3.404  -8.179   4.377  1.00  0.00     0.007 A 
ENDROOT
BRANCH   3   8
ATOM      8  O   UNL     1      -0.222  -8.837   4.027  1.00  0.00    -0.508 OA
ATOM      9  H   UNL     1      -0.293  -9.447   3.220  1.00  0.00     0.293 HD
ENDBRANCH   3   8
BRANCH   5  10
ATOM     10  C   UNL     1       2.133  -5.030   6.150  1.00  0.00     0.013 C 
ATOM     11  C   UNL     1       3.378  -4.191   5.838  1.00  0.00     0.012 C 
ATOM     12  C   UNL     1       0.851  -4.251   5.835  1.00  0.00     0.012 C 
ENDBRANCH   5  10
TORSDOF 2
ENDMDL
MODEL 5
REMARK VINA RESULT:    -4.307     17.450     19.502
REMARK INTER + INTRA:          -4.804
REMARK INTER:                  -4.680
REMARK INTRA:                  -0.124
REMARK UNBOUND:                -0.120
REMARK SMILES Cc1ccc(C(C)C)cc1O
REMARK SMILES IDX 1 1 2 2 10 3 9 4 5 5 4 6 3 7 11 8 6 10 7 11 8 12
REMARK H PARENT 11 9
REMARK Flexibility Score: inf
ROOT
ATOM      1  C   UNL     1       0.409  -4.855   5.940  1.00  0.00     0.048 C 
ATOM      2  C   UNL     1       1.396  -5.897   5.493  1.00  0.00    -0.009 A 
ATOM      3  C   UNL     1       0.957  -7.035   4.796  1.00  0.00     0.118 A 
ATOM      4  C   UNL     1       1.884  -8.004   4.382  1.00  0.00     0.050 A 
ATOM      5  C   UNL     1       3.254  -7.850   4.657  1.00  0.00    -0.042 A 
ATOM      6  C   UNL     1       3.683  -6.707   5.357  1.00  0.00     0.004 A 
ATOM      7  C   UNL     1       2.762  -5.741   5.770  1.00  0.00     0.007 A 
ENDROOT
BRANCH   3   8
ATOM      8  O   UNL     1      -0.399  -7.202   4.515  1.00  0.00    -0.508 OA
ATOM      9  H   UNL     1      -0.981  -7.830   5.057  1.00  0.00     0.293 HD
ENDBRANCH   3   8
BRANCH   5  10
ATOM     10  C   UNL     1       4.243  -8.907   4.204  1.00  0.00     0.013 C 
ATOM     11  C   UNL     1       3.614  -9.840   3.161  1.00  0.00     0.012 C 
ATOM     12  C   UNL     1       5.529  -8.269   3.668  1.00  0.00     0.012 C 
ENDBRANCH   5  10
TORSDOF 2
ENDMDL
MODEL 6
REMARK VINA RESULT:    -4.220     17.961     19.691
REMARK INTER + INTRA:          -4.710
REMARK INTER:                  -4.584
REMARK INTRA:                  -0.126
REMARK UNBOUND:                -0.120
REMARK SMILES Cc1ccc(C(C)C)cc1O
REMARK SMILES IDX 1 1 2 2 10 3 9 4 5 5 4 6 3 7 11 8 6 10 7 11 8 12
REMARK H PARENT 11 9
REMARK Flexibility Score: inf
ROOT
ATOM      1  C   UNL     1       4.617 -10.125   2.823  1.00  0.00     0.048 C 
ATOM      2  C   UNL     1       4.093  -8.985   3.649  1.00  0.00    -0.009 A 
ATOM      3  C   UNL     1       4.979  -8.039   4.194  1.00  0.00     0.118 A 
ATOM      4  C   UNL     1       4.482  -6.977   4.964  1.00  0.00     0.050 A 
ATOM      5  C   UNL     1       3.103  -6.846   5.201  1.00  0.00    -0.042 A 
ATOM      6  C   UNL     1       2.225  -7.799   4.653  1.00  0.00     0.004 A 
ATOM      7  C   UNL     1       2.716  -8.857   3.885  1.00  0.00     0.007 A 
ENDROOT
BRANCH   3   8
ATOM      8  O   UNL     1       6.350  -8.155   3.967  1.00  0.00    -0.508 OA
ATOM      9  H   UNL     1       6.784  -9.052   3.785  1.00  0.00     0.293 HD
ENDBRANCH   3   8
BRANCH   5  10
ATOM     10  C   UNL     1       2.583  -5.691   6.038  1.00  0.00     0.013 C 
ATOM     11  C   UNL     1       3.492  -4.463   5.910  1.00  0.00     0.012 C 
ATOM     12  C   UNL     1       1.136  -5.347   5.667  1.00  0.00     0.012 C 
ENDBRANCH   5  10
TORSDOF 2
ENDMDL
MODEL 7
REMARK VINA RESULT:    -4.181      2.317      3.050
REMARK INTER + INTRA:          -4.667
REMARK INTER:                  -4.566
REMARK INTRA:                  -0.101
REMARK UNBOUND:                -0.120
REMARK SMILES Cc1ccc(C(C)C)cc1O
REMARK SMILES IDX 1 1 2 2 10 3 9 4 5 5 4 6 3 7 11 8 6 10 7 11 8 12
REMARK H PARENT 11 9
REMARK Flexibility Score: inf
ROOT
ATOM      1  C   UNL     1      -4.043   5.638  -3.227  1.00  0.00     0.048 C 
ATOM      2  C   UNL     1      -5.112   6.609  -3.643  1.00  0.00    -0.009 A 
ATOM      3  C   UNL     1      -6.465   6.231  -3.605  1.00  0.00     0.118 A 
ATOM      4  C   UNL     1      -7.458   7.143  -3.994  1.00  0.00     0.050 A 
ATOM      5  C   UNL     1      -7.115   8.436  -4.424  1.00  0.00    -0.042 A 
ATOM      6  C   UNL     1      -5.757   8.804  -4.460  1.00  0.00     0.004 A 
ATOM      7  C   UNL     1      -4.767   7.899  -4.073  1.00  0.00     0.007 A 
ENDROOT
BRANCH   3   8
ATOM      8  O   UNL     1      -6.821   4.951  -3.180  1.00  0.00    -0.508 OA
ATOM      9  H   UNL     1      -6.674   4.649  -2.224  1.00  0.00     0.293 HD
ENDBRANCH   3   8
BRANCH   5  10
ATOM     10  C   UNL     1      -8.201   9.410  -4.843  1.00  0.00     0.013 C 
ATOM     11  C   UNL     1      -8.718   9.089  -6.250  1.00  0.00     0.012 C 
ATOM     12  C   UNL     1      -9.348   9.431  -3.826  1.00  0.00     0.012 C 
ENDBRANCH   5  10
TORSDOF 2
ENDMDL
MODEL 8
REMARK VINA RESULT:    -4.128     18.087     19.694
REMARK INTER + INTRA:          -4.610
REMARK INTER:                  -4.484
REMARK INTRA:                  -0.126
REMARK UNBOUND:                -0.120
REMARK SMILES Cc1ccc(C(C)C)cc1O
REMARK SMILES IDX 1 1 2 2 10 3 9 4 5 5 4 6 3 7 11 8 6 10 7 11 8 12
REMARK H PARENT 11 9
REMARK Flexibility Score: inf
ROOT
ATOM      1  C   UNL     1       5.191 -10.097   2.829  1.00  0.00     0.048 C 
ATOM      2  C   UNL     1       3.977  -9.453   3.437  1.00  0.00    -0.009 A 
ATOM      3  C   UNL     1       4.093  -8.236   4.131  1.00  0.00     0.118 A 
ATOM      4  C   UNL     1       2.955  -7.640   4.695  1.00  0.00     0.050 A 
ATOM      5  C   UNL     1       1.693  -8.247   4.575  1.00  0.00    -0.042 A 
ATOM      6  C   UNL     1       1.587  -9.466   3.880  1.00  0.00     0.004 A 
ATOM      7  C   UNL     1       2.719 -10.061   3.317  1.00  0.00     0.007 A 
ENDROOT
BRANCH   3   8
ATOM      8  O   UNL     1       5.339  -7.621   4.257  1.00  0.00    -0.508 OA
ATOM      9  H   UNL     1       5.901  -7.727   5.093  1.00  0.00     0.293 HD
ENDBRANCH   3   8
BRANCH   5  10
ATOM     10  C   UNL     1       0.473  -7.589   5.193  1.00  0.00     0.013 C 
ATOM     11  C   UNL     1       0.682  -6.079   5.354  1.00  0.00     0.012 C 
ATOM     12  C   UNL     1      -0.789  -7.887   4.376  1.00  0.00     0.012 C 
ENDBRANCH   5  10
TORSDOF 2
ENDMDL
