MODEL 1
REMARK VINA RESULT:    -3.670      0.000      0.000
REMARK INTER + INTRA:          -3.670
REMARK INTER:                  -3.670
REMARK INTRA:                   0.000
REMARK UNBOUND:                 0.000
REMARK SMILES O=C1CCCCC1
REMARK SMILES IDX 5 1 4 2 3 3 2 4 1 5 7 6 6 7
REMARK H PARENT
REMARK Flexibility Score: inf
ROOT
ATOM      1  C   UNL     1      18.103  43.818   1.717  1.00  0.00     0.001 C 
ATOM      2  C   UNL     1      19.511  44.137   2.241  1.00  0.00     0.008 C 
ATOM      3  C   UNL     1      20.569  43.976   1.141  1.00  0.00     0.075 C 
ATOM      4  C   UNL     1      20.423  42.641   0.465  1.00  0.00     0.132 C 
ATOM      5  O   UNL     1      21.410  41.970   0.207  1.00  0.00    -0.300 OA
ATOM      6  C   UNL     1      19.059  42.186   0.026  1.00  0.00     0.075 C 
ATOM      7  C   UNL     1      18.039  42.390   1.154  1.00  0.00     0.008 C 
ENDROOT
TORSDOF 0
ENDMDL
MODEL 2
REMARK VINA RESULT:    -3.666      0.852      2.029
REMARK INTER + INTRA:          -3.666
REMARK INTER:                  -3.666
REMARK INTRA:                   0.000
REMARK UNBOUND:                 0.000
REMARK SMILES O=C1CCCCC1
REMARK SMILES IDX 5 1 4 2 3 3 2 4 1 5 7 6 6 7
REMARK H PARENT
REMARK Flexibility Score: inf
ROOT
ATOM      1  C   UNL     1      18.713  44.118   1.706  1.00  0.00     0.001 C 
ATOM      2  C   UNL     1      18.346  43.548   0.328  1.00  0.00     0.008 C 
ATOM      3  C   UNL     1      19.066  42.220   0.061  1.00  0.00     0.075 C 
ATOM      4  C   UNL     1      20.539  42.360   0.326  1.00  0.00     0.132 C 
ATOM      5  O   UNL     1      21.353  41.875  -0.445  1.00  0.00    -0.300 OA
ATOM      6  C   UNL     1      20.997  43.021   1.597  1.00  0.00     0.075 C 
ATOM      7  C   UNL     1      20.229  44.329   1.825  1.00  0.00     0.008 C 
ENDROOT
TORSDOF 0
ENDMDL
MODEL 3
REMARK VINA RESULT:    -3.648      1.939      2.511
REMARK INTER + INTRA:          -3.648
REMARK INTER:                  -3.648
REMARK INTRA:                   0.000
REMARK UNBOUND:                 0.000
REMARK SMILES O=C1CCCCC1
REMARK SMILES IDX 5 1 4 2 3 3 2 4 1 5 7 6 6 7
REMARK H PARENT
REMARK Flexibility Score: inf
ROOT
ATOM      1  C   UNL     1      20.254  44.498   1.633  1.00  0.00     0.001 C 
ATOM      2  C   UNL     1      19.778  45.149   0.326  1.00  0.00     0.008 C 
ATOM      3  C   UNL     1      18.360  44.696  -0.042  1.00  0.00     0.075 C 
ATOM      4  C   UNL     1      18.261  43.197   0.000  1.00  0.00     0.132 C 
ATOM      5  O   UNL     1      17.671  42.593  -0.882  1.00  0.00    -0.300 OA
ATOM      6  C   UNL     1      18.813  42.458   1.188  1.00  0.00     0.075 C 
ATOM      7  C   UNL     1      20.221  42.966   1.526  1.00  0.00     0.008 C 
ENDROOT
TORSDOF 0
ENDMDL
MODEL 4
REMARK VINA RESULT:    -3.597      2.353      3.223
REMARK INTER + INTRA:          -3.597
REMARK INTER:                  -3.597
REMARK INTRA:                   0.000
REMARK UNBOUND:                 0.000
REMARK SMILES O=C1CCCCC1
REMARK SMILES IDX 5 1 4 2 3 3 2 4 1 5 7 6 6 7
REMARK H PARENT
REMARK Flexibility Score: inf
ROOT
ATOM      1  C   UNL     1      20.126  42.974   1.480  1.00  0.00     0.001 C 
ATOM      2  C   UNL     1      18.673  42.553   1.213  1.00  0.00     0.008 C 
ATOM      3  C   UNL     1      18.129  43.199  -0.068  1.00  0.00     0.075 C 
ATOM      4  C   UNL     1      18.374  44.682  -0.051  1.00  0.00     0.132 C 
ATOM      5  O   UNL     1      17.499  45.455  -0.410  1.00  0.00    -0.300 OA
ATOM      6  C   UNL     1      19.737  45.197   0.321  1.00  0.00     0.075 C 
ATOM      7  C   UNL     1      20.242  44.501   1.592  1.00  0.00     0.008 C 
ENDROOT
TORSDOF 0
ENDMDL
MODEL 5
REMARK VINA RESULT:    -3.580     14.233     15.228
REMARK INTER + INTRA:          -3.580
REMARK INTER:                  -3.580
REMARK INTRA:                   0.000
REMARK UNBOUND:                 0.000
REMARK SMILES O=C1CCCCC1
REMARK SMILES IDX 5 1 4 2 3 3 2 4 1 5 7 6 6 7
REMARK H PARENT
REMARK Flexibility Score: inf
ROOT
ATOM      1  C   UNL     1      14.988  44.129 -15.014  1.00  0.00     0.001 C 
ATOM      2  C   UNL     1      16.415  43.574 -14.891  1.00  0.00     0.008 C 
ATOM      3  C   UNL     1      16.459  42.339 -13.982  1.00  0.00     0.075 C 
ATOM      4  C   UNL     1      15.766  42.622 -12.678  1.00  0.00     0.132 C 
ATOM      5  O   UNL     1      16.260  42.253 -11.625  1.00  0.00    -0.300 OA
ATOM      6  C   UNL     1      14.413  43.280 -12.694  1.00  0.00     0.075 C 
ATOM      7  C   UNL     1      14.420  44.493 -13.634  1.00  0.00     0.008 C 
ENDROOT
TORSDOF 0
ENDMDL
MODEL 6
REMARK VINA RESULT:    -3.552      1.424      2.419
REMARK INTER + INTRA:          -3.552
REMARK INTER:                  -3.552
REMARK INTRA:                   0.000
REMARK UNBOUND:                 0.000
REMARK SMILES O=C1CCCCC1
REMARK SMILES IDX 5 1 4 2 3 3 2 4 1 5 7 6 6 7
REMARK H PARENT
REMARK Flexibility Score: inf
ROOT
ATOM      1  C   UNL     1      17.952  44.578  -0.061  1.00  0.00     0.001 C 
ATOM      2  C   UNL     1      18.080  43.049  -0.122  1.00  0.00     0.008 C 
ATOM      3  C   UNL     1      18.881  42.505   1.067  1.00  0.00     0.075 C 
ATOM      4  C   UNL     1      20.178  43.251   1.210  1.00  0.00     0.132 C 
ATOM      5  O   UNL     1      21.214  42.648   1.443  1.00  0.00    -0.300 OA
ATOM      6  C   UNL     1      20.170  44.755   1.158  1.00  0.00     0.075 C 
ATOM      7  C   UNL     1      19.337  45.243  -0.034  1.00  0.00     0.008 C 
ENDROOT
TORSDOF 0
ENDMDL
MODEL 7
REMARK VINA RESULT:    -3.551      1.665      2.510
REMARK INTER + INTRA:          -3.551
REMARK INTER:                  -3.551
REMARK INTRA:                   0.000
REMARK UNBOUND:                 0.000
REMARK SMILES O=C1CCCCC1
REMARK SMILES IDX 5 1 4 2 3 3 2 4 1 5 7 6 6 7
REMARK H PARENT
REMARK Flexibility Score: inf
ROOT
ATOM      1  C   UNL     1      19.000  42.225  -0.000  1.00  0.00     0.001 C 
ATOM      2  C   UNL     1      20.526  42.368   0.111  1.00  0.00     0.008 C 
ATOM      3  C   UNL     1      20.942  42.861   1.503  1.00  0.00     0.075 C 
ATOM      4  C   UNL     1      20.154  44.083   1.883  1.00  0.00     0.132 C 
ATOM      5  O   UNL     1      20.709  45.034   2.412  1.00  0.00    -0.300 OA
ATOM      6  C   UNL     1      18.662  44.084   1.692  1.00  0.00     0.075 C 
ATOM      7  C   UNL     1      18.302  43.561   0.296  1.00  0.00     0.008 C 
ENDROOT
TORSDOF 0
ENDMDL
MODEL 8
REMARK VINA RESULT:    -3.541      2.041      2.486
REMARK INTER + INTRA:          -3.541
REMARK INTER:                  -3.541
REMARK INTRA:                   0.000
REMARK UNBOUND:                 0.000
REMARK SMILES O=C1CCCCC1
REMARK SMILES IDX 5 1 4 2 3 3 2 4 1 5 7 6 6 7
REMARK H PARENT
REMARK Flexibility Score: inf
ROOT
ATOM      1  C   UNL     1      17.369  44.535  -0.047  1.00  0.00     0.001 C 
ATOM      2  C   UNL     1      18.440  45.602  -0.320  1.00  0.00     0.008 C 
ATOM      3  C   UNL     1      19.840  45.101   0.058  1.00  0.00     0.075 C 
ATOM      4  C   UNL     1      19.836  44.538   1.452  1.00  0.00     0.132 C 
ATOM      5  O   UNL     1      20.746  44.798   2.223  1.00  0.00    -0.300 OA
ATOM      6  C   UNL     1      18.751  43.577   1.853  1.00  0.00     0.075 C 
ATOM      7  C   UNL     1      17.378  44.117   1.431  1.00  0.00     0.008 C 
ENDROOT
TORSDOF 0
ENDMDL
MODEL 9
REMARK VINA RESULT:    -3.477      2.018      2.409
REMARK INTER + INTRA:          -3.477
REMARK INTER:                  -3.477
REMARK INTRA:                   0.000
REMARK UNBOUND:                 0.000
REMARK SMILES O=C1CCCCC1
REMARK SMILES IDX 5 1 4 2 3 3 2 4 1 5 7 6 6 7
REMARK H PARENT
REMARK Flexibility Score: inf
ROOT
ATOM      1  C   UNL     1      19.791  45.094   0.256  1.00  0.00     0.001 C 
ATOM      2  C   UNL     1      20.110  44.413   1.595  1.00  0.00     0.008 C 
ATOM      3  C   UNL     1      19.786  42.914   1.553  1.00  0.00     0.075 C 
ATOM      4  C   UNL     1      18.391  42.694   1.038  1.00  0.00     0.132 C 
ATOM      5  O   UNL     1      17.658  41.879   1.576  1.00  0.00    -0.300 OA
ATOM      6  C   UNL     1      17.944  43.417  -0.203  1.00  0.00     0.075 C 
ATOM      7  C   UNL     1      18.313  44.904  -0.116  1.00  0.00     0.008 C 
ENDROOT
TORSDOF 0
ENDMDL
