MODEL 1
REMARK VINA RESULT:    -5.086      0.000      0.000
REMARK INTER + INTRA:         -11.565
REMARK INTER:                 -10.736
REMARK INTRA:                  -0.829
REMARK UNBOUND:                -0.829
REMARK SMILES CCC(=O)CCCCC[C@@H]1NC(=O)[C@@H]2CCCCN2C(=O)[C@@H]([C@@H](C)CC)NC(=O)[C@H](Cc2cn(OC)c3ccccc23)NC1=O
REMARK SMILES IDX 9 1 10 2 44 3 43 4 45 6 30 7 28 8 27 9 29 11 22 12 23 14
REMARK SMILES IDX 24 15 25 16 26 17 31 18 32 19 33 20 42 21 34 22 37 23 41 24
REMARK SMILES IDX 38 25 40 26 39 27 35 28 36 29 11 30 12 31 13 33 14 34 19 35
REMARK SMILES IDX 15 36 18 37 16 38 17 39 20 40 21 41 8 43 7 44 6 45 5 46 3 47
REMARK SMILES IDX 4 48 2 49 1 50
REMARK H PARENT 43 5 27 10 11 32
REMARK Flexibility Score: 80.00
ROOT
ATOM      1  C   UNL     1       5.522 -59.048 -25.975  1.00  0.00     0.035 C 
ENDROOT
BRANCH   1   2
ATOM      2  C   UNL     1       5.043 -59.695 -24.657  1.00  0.00     0.171 C 
BRANCH   2   3
ATOM      3  C   UNL     1       5.184 -58.749 -23.496  1.00  0.00     0.243 C 
ATOM      4  N   UNL     1       5.989 -59.109 -22.365  1.00  0.00    -0.342 N 
ATOM      5  H   UNL     1       6.801 -59.749 -22.522  1.00  0.00     0.164 HD
ATOM      6  O   UNL     1       4.558 -57.654 -23.507  1.00  0.00    -0.273 OA
BRANCH   4   7
ATOM      7  C   UNL     1       5.539 -58.916 -20.979  1.00  0.00     0.175 C 
BRANCH   7   8
ATOM      8  C   UNL     1       4.230 -59.646 -20.783  1.00  0.00     0.243 C 
ATOM      9  N   UNL     1       3.012 -58.983 -20.391  1.00  0.00    -0.342 N 
ATOM     10  H   UNL     1       3.075 -58.068 -19.897  1.00  0.00     0.164 HD
ATOM     11  O   UNL     1       4.222 -60.882 -21.014  1.00  0.00    -0.273 OA
BRANCH   9  12
ATOM     12  C   UNL     1       1.662 -59.413 -20.794  1.00  0.00     0.174 CG0
ATOM     13  G   UNL     1       1.583 -59.612 -22.302  1.00  0.00     0.000 G0
BRANCH  12  14
ATOM     14  C   UNL     1       1.085 -60.534 -19.866  1.00  0.00     0.018 C 
ATOM     15  C   UNL     1       2.055 -61.045 -18.785  1.00  0.00     0.010 C 
BRANCH  14  16
ATOM     16  C   UNL     1      -0.247 -60.062 -19.228  1.00  0.00     0.002 C 
ATOM     17  C   UNL     1      -0.060 -59.435 -17.846  1.00  0.00     0.004 C 
ENDBRANCH  14  16
ENDBRANCH  12  14
ENDBRANCH   9  12
ENDBRANCH   7   8
BRANCH   7  18
ATOM     18  C   UNL     1       5.518 -57.424 -20.592  1.00  0.00     0.073 C 
BRANCH  18  19
ATOM     19  C   UNL     1       6.906 -56.912 -20.338  1.00  0.00    -0.016 A 
ATOM     20  C   UNL     1       7.972 -57.639 -19.828  1.00  0.00     0.134 A 
ATOM     21  C   UNL     1       7.359 -55.613 -20.456  1.00  0.00     0.006 A 
ATOM     22  N   UNL     1       9.049 -56.841 -19.657  1.00  0.00    -0.191 N 
ATOM     23  C   UNL     1       8.674 -55.591 -20.043  1.00  0.00     0.087 A 
ATOM     24  C   UNL     1       6.690 -54.463 -20.879  1.00  0.00     0.011 A 
ATOM     25  C   UNL     1       9.401 -54.389 -20.051  1.00  0.00     0.030 A 
ATOM     26  C   UNL     1       7.402 -53.255 -20.891  1.00  0.00     0.001 A 
ATOM     27  C   UNL     1       8.750 -53.219 -20.482  1.00  0.00     0.002 A 
BRANCH  22  28
ATOM     28  O   UNL     1      10.247 -57.322 -19.147  1.00  0.00    -0.417 OA
ATOM     29  C   UNL     1      10.571 -58.694 -18.994  1.00  0.00     0.313 C 
ENDBRANCH  22  28
ENDBRANCH  18  19
ENDBRANCH   7  18
ENDBRANCH   4   7
ENDBRANCH   2   3
BRANCH   2  30
ATOM     30  N   UNL     1       3.633 -60.083 -24.781  1.00  0.00    -0.343 N 
ATOM     31  C   UNL     1       3.088 -61.252 -24.138  1.00  0.00     0.243 C 
ATOM     32  H   UNL     1       2.978 -59.384 -25.195  1.00  0.00     0.164 HD
ATOM     33  O   UNL     1       3.866 -62.121 -23.659  1.00  0.00    -0.273 OA
BRANCH  31  34
ATOM     34  C   UNL     1       1.589 -61.488 -24.040  1.00  0.00     0.174 C 
ATOM     35  N   UNL     1       0.908 -60.675 -23.004  1.00  0.00    -0.329 N 
ATOM     36  C   UNL     1       0.893 -61.305 -25.404  1.00  0.00     0.035 C 
ATOM     37  C   UNL     1      -0.544 -60.845 -22.867  1.00  0.00     0.120 C 
ATOM     38  C   UNL     1      -0.609 -61.579 -25.281  1.00  0.00     0.004 C 
ATOM     39  C   UNL     1      -1.236 -60.667 -24.223  1.00  0.00     0.022 C 
BRANCH  35  40
ATOM     40  C   UNL     1       1.549 -59.577 -22.323  1.00  0.00     0.246 CG0
ATOM     41  O   UNL     1       1.948 -58.597 -23.005  1.00  0.00    -0.272 OA
ATOM     42  G   UNL     1       1.654 -59.472 -20.807  1.00  0.00     0.000 G0
ENDBRANCH  35  40
ENDBRANCH  31  34
ENDBRANCH   2  30
ENDBRANCH   1   2
BRANCH   1  43
ATOM     43  C   UNL     1       5.514 -60.003 -27.185  1.00  0.00     0.003 C 
BRANCH  43  44
ATOM     44  C   UNL     1       4.424 -59.649 -28.211  1.00  0.00     0.001 C 
BRANCH  44  45
ATOM     45  C   UNL     1       4.986 -59.457 -29.628  1.00  0.00     0.008 C 
BRANCH  45  46
ATOM     46  C   UNL     1       4.232 -58.386 -30.429  1.00  0.00     0.075 C 
BRANCH  46  47
ATOM     47  C   UNL     1       2.921 -58.936 -30.933  1.00  0.00     0.132 C 
ATOM     48  O   UNL     1       2.900 -60.038 -31.464  1.00  0.00    -0.300 OA
BRANCH  47  49
ATOM     49  C   UNL     1       1.635 -58.167 -30.774  1.00  0.00     0.072 C 
ATOM     50  C   UNL     1       1.524 -57.552 -29.381  1.00  0.00     0.012 C 
ENDBRANCH  47  49
ENDBRANCH  46  47
ENDBRANCH  45  46
ENDBRANCH  44  45
ENDBRANCH  43  44
ENDBRANCH   1  43
TORSDOF 12
ENDMDL
MODEL 2
REMARK VINA RESULT:    -4.990      2.045      2.653
REMARK INTER + INTRA:         -11.361
REMARK INTER:                 -10.290
REMARK INTRA:                  -1.071
REMARK UNBOUND:                -0.829
REMARK SMILES CCC(=O)CCCCC[C@@H]1NC(=O)[C@@H]2CCCCN2C(=O)[C@@H]([C@@H](C)CC)NC(=O)[C@H](Cc2cn(OC)c3ccccc23)NC1=O
REMARK SMILES IDX 9 1 10 2 44 3 43 4 45 6 30 7 28 8 27 9 29 11 22 12 23 14
REMARK SMILES IDX 24 15 25 16 26 17 31 18 32 19 33 20 42 21 34 22 37 23 41 24
REMARK SMILES IDX 38 25 40 26 39 27 35 28 36 29 11 30 12 31 13 33 14 34 19 35
REMARK SMILES IDX 15 36 18 37 16 38 17 39 20 40 21 41 8 43 7 44 6 45 5 46 3 47
REMARK SMILES IDX 4 48 2 49 1 50
REMARK H PARENT 43 5 27 10 11 32
REMARK Flexibility Score: 80.00
ROOT
ATOM      1  C   UNL     1       4.274 -60.655 -27.347  1.00  0.00     0.035 C 
ENDROOT
BRANCH   1   2
ATOM      2  C   UNL     1       4.351 -61.095 -25.869  1.00  0.00     0.171 C 
BRANCH   2   3
ATOM      3  C   UNL     1       4.922 -60.007 -25.001  1.00  0.00     0.243 C 
ATOM      4  N   UNL     1       5.296 -60.287 -23.644  1.00  0.00    -0.342 N 
ATOM      5  H   UNL     1       5.609 -61.257 -23.411  1.00  0.00     0.164 HD
ATOM      6  O   UNL     1       5.033 -58.838 -25.460  1.00  0.00    -0.273 OA
BRANCH   4   7
ATOM      7  C   UNL     1       4.938 -59.405 -22.526  1.00  0.00     0.175 C 
BRANCH   7   8
ATOM      8  C   UNL     1       3.586 -58.787 -22.802  1.00  0.00     0.243 C 
ATOM      9  N   UNL     1       2.441 -59.558 -23.217  1.00  0.00    -0.342 N 
ATOM     10  H   UNL     1       2.596 -60.482 -23.672  1.00  0.00     0.164 HD
ATOM     11  O   UNL     1       3.473 -57.549 -22.620  1.00  0.00    -0.273 OA
BRANCH   9  12
ATOM     12  C   UNL     1       1.046 -59.221 -22.885  1.00  0.00     0.174 CG0
ATOM     13  G   UNL     1       0.136 -59.425 -24.089  1.00  0.00     0.000 G0
BRANCH  12  14
ATOM     14  C   UNL     1       0.596 -59.809 -21.506  1.00  0.00     0.018 C 
ATOM     15  C   UNL     1       1.284 -61.126 -21.106  1.00  0.00     0.010 C 
BRANCH  14  16
ATOM     16  C   UNL     1       0.765 -58.742 -20.393  1.00  0.00     0.002 C 
ATOM     17  C   UNL     1       1.956 -59.019 -19.474  1.00  0.00     0.004 C 
ENDBRANCH  14  16
ENDBRANCH  12  14
ENDBRANCH   9  12
ENDBRANCH   7   8
BRANCH   7  18
ATOM     18  C   UNL     1       6.064 -58.397 -22.215  1.00  0.00     0.073 C 
BRANCH  18  19
ATOM     19  C   UNL     1       6.224 -58.207 -20.734  1.00  0.00    -0.016 A 
ATOM     20  C   UNL     1       5.670 -58.995 -19.737  1.00  0.00     0.134 A 
ATOM     21  C   UNL     1       6.852 -57.163 -20.084  1.00  0.00     0.006 A 
ATOM     22  N   UNL     1       5.956 -58.487 -18.518  1.00  0.00    -0.191 N 
ATOM     23  C   UNL     1       6.685 -57.357 -18.728  1.00  0.00     0.087 A 
ATOM     24  C   UNL     1       7.534 -56.062 -20.601  1.00  0.00     0.011 A 
ATOM     25  C   UNL     1       7.221 -56.440 -17.809  1.00  0.00     0.030 A 
ATOM     26  C   UNL     1       8.074 -55.136 -19.696  1.00  0.00     0.001 A 
ATOM     27  C   UNL     1       7.921 -55.327 -18.308  1.00  0.00     0.002 A 
BRANCH  22  28
ATOM     28  O   UNL     1       5.507 -59.083 -17.348  1.00  0.00    -0.417 OA
ATOM     29  C   UNL     1       4.574 -58.506 -16.450  1.00  0.00     0.313 C 
ENDBRANCH  22  28
ENDBRANCH  18  19
ENDBRANCH   7  18
ENDBRANCH   4   7
ENDBRANCH   2   3
BRANCH   2  30
ATOM     30  N   UNL     1       3.008 -61.431 -25.382  1.00  0.00    -0.343 N 
ATOM     31  C   UNL     1       1.811 -60.848 -25.934  1.00  0.00     0.243 C 
ATOM     32  H   UNL     1       2.921 -62.253 -24.746  1.00  0.00     0.164 HD
ATOM     33  O   UNL     1       1.897 -59.836 -26.681  1.00  0.00    -0.273 OA
BRANCH  31  34
ATOM     34  C   UNL     1       0.431 -61.404 -25.622  1.00  0.00     0.174 C 
ATOM     35  N   UNL     1      -0.306 -60.658 -24.574  1.00  0.00    -0.329 N 
ATOM     36  C   UNL     1      -0.433 -61.533 -26.893  1.00  0.00     0.035 C 
ATOM     37  C   UNL     1      -1.653 -61.136 -24.235  1.00  0.00     0.120 C 
ATOM     38  C   UNL     1      -1.804 -62.125 -26.553  1.00  0.00     0.004 C 
ATOM     39  C   UNL     1      -2.511 -61.269 -25.498  1.00  0.00     0.022 C 
BRANCH  35  40
ATOM     40  C   UNL     1       0.125 -59.377 -24.074  1.00  0.00     0.246 CG0
ATOM     41  O   UNL     1      -0.372 -58.336 -24.577  1.00  0.00    -0.272 OA
ATOM     42  G   UNL     1       1.052 -59.208 -22.877  1.00  0.00     0.000 G0
ENDBRANCH  35  40
ENDBRANCH  31  34
ENDBRANCH   2  30
ENDBRANCH   1   2
BRANCH   1  43
ATOM     43  C   UNL     1       4.264 -61.824 -28.352  1.00  0.00     0.003 C 
BRANCH  43  44
ATOM     44  C   UNL     1       4.763 -61.409 -29.747  1.00  0.00     0.001 C 
BRANCH  44  45
ATOM     45  C   UNL     1       3.613 -61.136 -30.730  1.00  0.00     0.008 C 
BRANCH  45  46
ATOM     46  C   UNL     1       2.621 -60.086 -30.210  1.00  0.00     0.075 C 
BRANCH  46  47
ATOM     47  C   UNL     1       2.932 -58.734 -30.802  1.00  0.00     0.132 C 
ATOM     48  O   UNL     1       3.014 -58.618 -32.017  1.00  0.00    -0.300 OA
BRANCH  47  49
ATOM     49  C   UNL     1       3.119 -57.520 -29.929  1.00  0.00     0.072 C 
ATOM     50  C   UNL     1       4.586 -57.328 -29.553  1.00  0.00     0.012 C 
ENDBRANCH  47  49
ENDBRANCH  46  47
ENDBRANCH  45  46
ENDBRANCH  44  45
ENDBRANCH  43  44
ENDBRANCH   1  43
TORSDOF 12
ENDMDL
MODEL 3
REMARK VINA RESULT:    -4.935      2.685      7.631
REMARK INTER + INTRA:         -11.245
REMARK INTER:                 -10.989
REMARK INTRA:                  -0.256
REMARK UNBOUND:                -0.829
REMARK SMILES CCC(=O)CCCCC[C@@H]1NC(=O)[C@@H]2CCCCN2C(=O)[C@@H]([C@@H](C)CC)NC(=O)[C@H](Cc2cn(OC)c3ccccc23)NC1=O
REMARK SMILES IDX 9 1 10 2 44 3 43 4 45 6 30 7 28 8 27 9 29 11 22 12 23 14
REMARK SMILES IDX 24 15 25 16 26 17 31 18 32 19 33 20 42 21 34 22 37 23 41 24
REMARK SMILES IDX 38 25 40 26 39 27 35 28 36 29 11 30 12 31 13 33 14 34 19 35
REMARK SMILES IDX 15 36 18 37 16 38 17 39 20 40 21 41 8 43 7 44 6 45 5 46 3 47
REMARK SMILES IDX 4 48 2 49 1 50
REMARK H PARENT 43 5 27 10 11 32
REMARK Flexibility Score: 80.00
ROOT
ATOM      1  C   UNL     1       3.674 -59.503 -23.353  1.00  0.00     0.035 C 
ENDROOT
BRANCH   1   2
ATOM      2  C   UNL     1       2.853 -58.789 -22.258  1.00  0.00     0.171 C 
BRANCH   2   3
ATOM      3  C   UNL     1       2.520 -59.720 -21.124  1.00  0.00     0.243 C 
ATOM      4  N   UNL     1       1.865 -59.221 -19.948  1.00  0.00    -0.342 N 
ATOM      5  H   UNL     1       1.232 -58.396 -20.051  1.00  0.00     0.164 HD
ATOM      6  O   UNL     1       2.855 -60.933 -21.197  1.00  0.00    -0.273 OA
BRANCH   4   7
ATOM      7  C   UNL     1       2.298 -59.577 -18.590  1.00  0.00     0.175 C 
BRANCH   7   8
ATOM      8  C   UNL     1       3.809 -59.568 -18.539  1.00  0.00     0.243 C 
ATOM      9  N   UNL     1       4.600 -58.421 -18.908  1.00  0.00    -0.342 N 
ATOM     10  H   UNL     1       4.184 -57.708 -19.543  1.00  0.00     0.164 HD
ATOM     11  O   UNL     1       4.375 -60.608 -18.118  1.00  0.00    -0.273 OA
BRANCH   9  12
ATOM     12  C   UNL     1       5.903 -58.082 -18.311  1.00  0.00     0.174 CG0
ATOM     13  G   UNL     1       6.873 -57.580 -19.373  1.00  0.00     0.000 G0
BRANCH  12  14
ATOM     14  C   UNL     1       5.762 -57.261 -16.986  1.00  0.00     0.018 C 
ATOM     15  C   UNL     1       4.354 -57.265 -16.366  1.00  0.00     0.010 C 
BRANCH  14  16
ATOM     16  C   UNL     1       6.817 -57.734 -15.953  1.00  0.00     0.002 C 
ATOM     17  C   UNL     1       7.086 -59.238 -16.019  1.00  0.00     0.004 C 
ENDBRANCH  14  16
ENDBRANCH  12  14
ENDBRANCH   9  12
ENDBRANCH   7   8
BRANCH   7  18
ATOM     18  C   UNL     1       1.637 -60.885 -18.109  1.00  0.00     0.073 C 
BRANCH  18  19
ATOM     19  C   UNL     1       0.147 -60.835 -18.289  1.00  0.00    -0.016 A 
ATOM     20  C   UNL     1      -0.591 -61.528 -19.237  1.00  0.00     0.134 A 
ATOM     21  C   UNL     1      -0.753 -60.020 -17.633  1.00  0.00     0.006 A 
ATOM     22  N   UNL     1      -1.896 -61.185 -19.163  1.00  0.00    -0.191 N 
ATOM     23  C   UNL     1      -1.999 -60.255 -18.175  1.00  0.00     0.087 A 
ATOM     24  C   UNL     1      -0.545 -59.086 -16.617  1.00  0.00     0.011 A 
ATOM     25  C   UNL     1      -3.122 -59.557 -17.701  1.00  0.00     0.030 A 
ATOM     26  C   UNL     1      -1.656 -58.379 -16.134  1.00  0.00     0.001 A 
ATOM     27  C   UNL     1      -2.938 -58.617 -16.671  1.00  0.00     0.002 A 
BRANCH  22  28
ATOM     28  O   UNL     1      -2.850 -61.729 -20.012  1.00  0.00    -0.417 OA
ATOM     29  C   UNL     1      -2.745 -61.776 -21.425  1.00  0.00     0.313 C 
ENDBRANCH  22  28
ENDBRANCH  18  19
ENDBRANCH   7  18
ENDBRANCH   4   7
ENDBRANCH   2   3
BRANCH   2  30
ATOM     30  N   UNL     1       3.618 -57.654 -21.727  1.00  0.00    -0.343 N 
ATOM     31  C   UNL     1       5.059 -57.617 -21.731  1.00  0.00     0.243 C 
ATOM     32  H   UNL     1       3.091 -56.779 -21.514  1.00  0.00     0.164 HD
ATOM     33  O   UNL     1       5.709 -58.673 -21.957  1.00  0.00    -0.273 OA
BRANCH  31  34
ATOM     34  C   UNL     1       5.828 -56.338 -21.444  1.00  0.00     0.174 C 
ATOM     35  N   UNL     1       6.615 -56.366 -20.187  1.00  0.00    -0.329 N 
ATOM     36  C   UNL     1       6.730 -55.936 -22.629  1.00  0.00     0.035 C 
ATOM     37  C   UNL     1       7.393 -55.164 -19.858  1.00  0.00     0.120 C 
ATOM     38  C   UNL     1       7.467 -54.629 -22.323  1.00  0.00     0.004 C 
ATOM     39  C   UNL     1       8.286 -54.763 -21.036  1.00  0.00     0.022 C 
BRANCH  35  40
ATOM     40  C   UNL     1       6.842 -57.573 -19.432  1.00  0.00     0.246 CG0
ATOM     41  O   UNL     1       7.923 -58.194 -19.603  1.00  0.00    -0.272 OA
ATOM     42  G   UNL     1       5.907 -58.071 -18.339  1.00  0.00     0.000 G0
ENDBRANCH  35  40
ENDBRANCH  31  34
ENDBRANCH   2  30
ENDBRANCH   1   2
BRANCH   1  43
ATOM     43  C   UNL     1       2.916 -60.637 -24.070  1.00  0.00     0.003 C 
BRANCH  43  44
ATOM     44  C   UNL     1       3.783 -61.360 -25.115  1.00  0.00     0.001 C 
BRANCH  44  45
ATOM     45  C   UNL     1       3.051 -61.568 -26.450  1.00  0.00     0.008 C 
BRANCH  45  46
ATOM     46  C   UNL     1       3.098 -60.329 -27.356  1.00  0.00     0.075 C 
BRANCH  46  47
ATOM     47  C   UNL     1       4.500 -60.108 -27.867  1.00  0.00     0.132 C 
ATOM     48  O   UNL     1       5.137 -61.060 -28.294  1.00  0.00    -0.300 OA
BRANCH  47  49
ATOM     49  C   UNL     1       5.121 -58.735 -27.884  1.00  0.00     0.072 C 
ATOM     50  C   UNL     1       4.570 -57.891 -29.031  1.00  0.00     0.012 C 
ENDBRANCH  47  49
ENDBRANCH  46  47
ENDBRANCH  45  46
ENDBRANCH  44  45
ENDBRANCH  43  44
ENDBRANCH   1  43
TORSDOF 12
ENDMDL
MODEL 4
REMARK VINA RESULT:    -4.852      1.193      2.052
REMARK INTER + INTRA:         -11.069
REMARK INTER:                 -10.425
REMARK INTRA:                  -0.645
REMARK UNBOUND:                -0.829
REMARK SMILES CCC(=O)CCCCC[C@@H]1NC(=O)[C@@H]2CCCCN2C(=O)[C@@H]([C@@H](C)CC)NC(=O)[C@H](Cc2cn(OC)c3ccccc23)NC1=O
REMARK SMILES IDX 9 1 10 2 44 3 43 4 45 6 30 7 28 8 27 9 29 11 22 12 23 14
REMARK SMILES IDX 24 15 25 16 26 17 31 18 32 19 33 20 42 21 34 22 37 23 41 24
REMARK SMILES IDX 38 25 40 26 39 27 35 28 36 29 11 30 12 31 13 33 14 34 19 35
REMARK SMILES IDX 15 36 18 37 16 38 17 39 20 40 21 41 8 43 7 44 6 45 5 46 3 47
REMARK SMILES IDX 4 48 2 49 1 50
REMARK H PARENT 43 5 27 10 11 32
REMARK Flexibility Score: 80.00
ROOT
ATOM      1  C   UNL     1       5.584 -58.986 -25.840  1.00  0.00     0.035 C 
ENDROOT
BRANCH   1   2
ATOM      2  C   UNL     1       4.916 -59.666 -24.626  1.00  0.00     0.171 C 
BRANCH   2   3
ATOM      3  C   UNL     1       4.977 -58.793 -23.403  1.00  0.00     0.243 C 
ATOM      4  N   UNL     1       5.735 -59.207 -22.257  1.00  0.00    -0.342 N 
ATOM      5  H   UNL     1       6.568 -59.818 -22.414  1.00  0.00     0.164 HD
ATOM      6  O   UNL     1       4.327 -57.713 -23.377  1.00  0.00    -0.273 OA
BRANCH   4   7
ATOM      7  C   UNL     1       5.213 -59.112 -20.887  1.00  0.00     0.175 C 
BRANCH   7   8
ATOM      8  C   UNL     1       3.953 -59.940 -20.783  1.00  0.00     0.243 C 
ATOM      9  N   UNL     1       2.657 -59.368 -20.515  1.00  0.00    -0.342 N 
ATOM     10  H   UNL     1       2.606 -58.441 -20.043  1.00  0.00     0.164 HD
ATOM     11  O   UNL     1       4.061 -61.176 -20.980  1.00  0.00    -0.273 OA
BRANCH   9  12
ATOM     12  C   UNL     1       1.385 -59.913 -21.020  1.00  0.00     0.174 CG0
ATOM     13  G   UNL     1       1.228 -59.636 -22.510  1.00  0.00     0.000 G0
BRANCH  12  14
ATOM     14  C   UNL     1       1.104 -61.363 -20.501  1.00  0.00     0.018 C 
ATOM     15  C   UNL     1       2.056 -61.854 -19.396  1.00  0.00     0.010 C 
BRANCH  14  16
ATOM     16  C   UNL     1      -0.374 -61.486 -20.046  1.00  0.00     0.002 C 
ATOM     17  C   UNL     1      -0.658 -60.758 -18.732  1.00  0.00     0.004 C 
ENDBRANCH  14  16
ENDBRANCH  12  14
ENDBRANCH   9  12
ENDBRANCH   7   8
BRANCH   7  18
ATOM     18  C   UNL     1       5.068 -57.644 -20.436  1.00  0.00     0.073 C 
BRANCH  18  19
ATOM     19  C   UNL     1       6.393 -56.939 -20.458  1.00  0.00    -0.016 A 
ATOM     20  C   UNL     1       6.751 -55.883 -21.283  1.00  0.00     0.134 A 
ATOM     21  C   UNL     1       7.533 -57.268 -19.752  1.00  0.00     0.006 A 
ATOM     22  N   UNL     1       8.045 -55.548 -21.087  1.00  0.00    -0.191 N 
ATOM     23  C   UNL     1       8.531 -56.400 -20.144  1.00  0.00     0.087 A 
ATOM     24  C   UNL     1       7.750 -58.279 -18.816  1.00  0.00     0.011 A 
ATOM     25  C   UNL     1       9.817 -56.501 -19.589  1.00  0.00     0.030 A 
ATOM     26  C   UNL     1       9.030 -58.394 -18.254  1.00  0.00     0.001 A 
ATOM     27  C   UNL     1      10.056 -57.507 -18.636  1.00  0.00     0.002 A 
BRANCH  22  28
ATOM     28  O   UNL     1       8.657 -54.525 -21.799  1.00  0.00    -0.417 OA
ATOM     29  C   UNL     1       8.224 -53.174 -21.810  1.00  0.00     0.313 C 
ENDBRANCH  22  28
ENDBRANCH  18  19
ENDBRANCH   7  18
ENDBRANCH   4   7
ENDBRANCH   2   3
BRANCH   2  30
ATOM     30  N   UNL     1       3.508 -59.951 -24.932  1.00  0.00    -0.343 N 
ATOM     31  C   UNL     1       2.828 -61.124 -24.444  1.00  0.00     0.243 C 
ATOM     32  H   UNL     1       2.946 -59.182 -25.360  1.00  0.00     0.164 HD
ATOM     33  O   UNL     1       3.496 -62.073 -23.953  1.00  0.00    -0.273 OA
BRANCH  31  34
ATOM     34  C   UNL     1       1.317 -61.267 -24.528  1.00  0.00     0.174 C 
ATOM     35  N   UNL     1       0.576 -60.585 -23.440  1.00  0.00    -0.329 N 
ATOM     36  C   UNL     1       0.777 -60.819 -25.902  1.00  0.00     0.035 C 
ATOM     37  C   UNL     1      -0.890 -60.673 -23.470  1.00  0.00     0.120 C 
ATOM     38  C   UNL     1      -0.742 -61.004 -25.968  1.00  0.00     0.004 C 
ATOM     39  C   UNL     1      -1.427 -60.232 -24.836  1.00  0.00     0.022 C 
BRANCH  35  40
ATOM     40  C   UNL     1       1.200 -59.659 -22.528  1.00  0.00     0.246 CG0
ATOM     41  O   UNL     1       1.527 -58.521 -22.957  1.00  0.00    -0.272 OA
ATOM     42  G   UNL     1       1.368 -59.926 -21.038  1.00  0.00     0.000 G0
ENDBRANCH  35  40
ENDBRANCH  31  34
ENDBRANCH   2  30
ENDBRANCH   1   2
BRANCH   1  43
ATOM     43  C   UNL     1       5.533 -59.818 -27.136  1.00  0.00     0.003 C 
BRANCH  43  44
ATOM     44  C   UNL     1       4.503 -59.282 -28.145  1.00  0.00     0.001 C 
BRANCH  44  45
ATOM     45  C   UNL     1       5.113 -59.017 -29.530  1.00  0.00     0.008 C 
BRANCH  45  46
ATOM     46  C   UNL     1       4.553 -57.752 -30.197  1.00  0.00     0.075 C 
BRANCH  46  47
ATOM     47  C   UNL     1       3.085 -57.926 -30.498  1.00  0.00     0.132 C 
ATOM     48  O   UNL     1       2.289 -57.091 -30.092  1.00  0.00    -0.300 OA
BRANCH  47  49
ATOM     49  C   UNL     1       2.584 -59.093 -31.310  1.00  0.00     0.072 C 
ATOM     50  C   UNL     1       1.835 -60.095 -30.437  1.00  0.00     0.012 C 
ENDBRANCH  47  49
ENDBRANCH  46  47
ENDBRANCH  45  46
ENDBRANCH  44  45
ENDBRANCH  43  44
ENDBRANCH   1  43
TORSDOF 12
ENDMDL
MODEL 5
REMARK VINA RESULT:    -4.595      2.121      3.021
REMARK INTER + INTRA:         -10.527
REMARK INTER:                  -9.707
REMARK INTRA:                  -0.820
REMARK UNBOUND:                -0.829
REMARK SMILES CCC(=O)CCCCC[C@@H]1NC(=O)[C@@H]2CCCCN2C(=O)[C@@H]([C@@H](C)CC)NC(=O)[C@H](Cc2cn(OC)c3ccccc23)NC1=O
REMARK SMILES IDX 9 1 10 2 44 3 43 4 45 6 30 7 28 8 27 9 29 11 22 12 23 14
REMARK SMILES IDX 24 15 25 16 26 17 31 18 32 19 33 20 42 21 34 22 37 23 41 24
REMARK SMILES IDX 38 25 40 26 39 27 35 28 36 29 11 30 12 31 13 33 14 34 19 35
REMARK SMILES IDX 15 36 18 37 16 38 17 39 20 40 21 41 8 43 7 44 6 45 5 46 3 47
REMARK SMILES IDX 4 48 2 49 1 50
REMARK H PARENT 43 5 27 10 11 32
REMARK Flexibility Score: 80.00
ROOT
ATOM      1  C   UNL     1       3.380 -60.258 -24.493  1.00  0.00     0.035 C 
ENDROOT
BRANCH   1   2
ATOM      2  C   UNL     1       3.705 -60.325 -22.985  1.00  0.00     0.171 C 
BRANCH   2   3
ATOM      3  C   UNL     1       4.248 -59.016 -22.480  1.00  0.00     0.243 C 
ATOM      4  N   UNL     1       5.561 -58.953 -21.905  1.00  0.00    -0.342 N 
ATOM      5  H   UNL     1       6.278 -59.637 -22.239  1.00  0.00     0.164 HD
ATOM      6  O   UNL     1       3.528 -57.983 -22.530  1.00  0.00    -0.273 OA
BRANCH   4   7
ATOM      7  C   UNL     1       5.845 -58.232 -20.656  1.00  0.00     0.175 C 
BRANCH   7   8
ATOM      8  C   UNL     1       5.005 -58.824 -19.547  1.00  0.00     0.243 C 
ATOM      9  N   UNL     1       4.061 -58.051 -18.780  1.00  0.00    -0.342 N 
ATOM     10  H   UNL     1       4.184 -57.018 -18.725  1.00  0.00     0.164 HD
ATOM     11  O   UNL     1       5.128 -60.055 -19.329  1.00  0.00    -0.273 OA
BRANCH   9  12
ATOM     12  C   UNL     1       2.816 -58.590 -18.204  1.00  0.00     0.174 CG0
ATOM     13  G   UNL     1       1.920 -59.168 -19.292  1.00  0.00     0.000 G0
BRANCH  12  14
ATOM     14  C   UNL     1       3.069 -59.445 -16.918  1.00  0.00     0.018 C 
ATOM     15  C   UNL     1       4.365 -59.109 -16.159  1.00  0.00     0.010 C 
BRANCH  14  16
ATOM     16  C   UNL     1       1.842 -59.360 -15.974  1.00  0.00     0.002 C 
ATOM     17  C   UNL     1       1.159 -57.992 -16.001  1.00  0.00     0.004 C 
ENDBRANCH  14  16
ENDBRANCH  12  14
ENDBRANCH   9  12
ENDBRANCH   7   8
BRANCH   7  18
ATOM     18  C   UNL     1       5.705 -56.707 -20.837  1.00  0.00     0.073 C 
BRANCH  18  19
ATOM     19  C   UNL     1       6.891 -55.985 -20.265  1.00  0.00    -0.016 A 
ATOM     20  C   UNL     1       7.216 -55.872 -18.922  1.00  0.00     0.134 A 
ATOM     21  C   UNL     1       7.812 -55.212 -20.943  1.00  0.00     0.006 A 
ATOM     22  N   UNL     1       8.305 -55.086 -18.764  1.00  0.00    -0.191 N 
ATOM     23  C   UNL     1       8.674 -54.678 -20.008  1.00  0.00     0.087 A 
ATOM     24  C   UNL     1       7.927 -54.939 -22.306  1.00  0.00     0.011 A 
ATOM     25  C   UNL     1       9.725 -53.837 -20.411  1.00  0.00     0.030 A 
ATOM     26  C   UNL     1       8.970 -54.099 -22.724  1.00  0.00     0.001 A 
ATOM     27  C   UNL     1       9.865 -53.555 -21.782  1.00  0.00     0.002 A 
BRANCH  22  28
ATOM     28  O   UNL     1       8.832 -54.802 -17.512  1.00  0.00    -0.417 OA
ATOM     29  C   UNL     1       8.131 -54.151 -16.465  1.00  0.00     0.313 C 
ENDBRANCH  22  28
ENDBRANCH  18  19
ENDBRANCH   7  18
ENDBRANCH   4   7
ENDBRANCH   2   3
BRANCH   2  30
ATOM     30  N   UNL     1       2.489 -60.652 -22.231  1.00  0.00    -0.343 N 
ATOM     31  C   UNL     1       2.512 -61.423 -21.014  1.00  0.00     0.243 C 
ATOM     32  H   UNL     1       1.612 -60.150 -22.494  1.00  0.00     0.164 HD
ATOM     33  O   UNL     1       3.553 -62.059 -20.697  1.00  0.00    -0.273 OA
BRANCH  31  34
ATOM     34  C   UNL     1       1.299 -61.516 -20.101  1.00  0.00     0.174 C 
ATOM     35  N   UNL     1       1.136 -60.365 -19.181  1.00  0.00    -0.329 N 
ATOM     36  C   UNL     1       0.001 -61.750 -20.900  1.00  0.00     0.035 C 
ATOM     37  C   UNL     1      -0.025 -60.386 -18.282  1.00  0.00     0.120 C 
ATOM     38  C   UNL     1      -1.197 -61.871 -19.953  1.00  0.00     0.004 C 
ATOM     39  C   UNL     1      -1.315 -60.622 -19.074  1.00  0.00     0.022 C 
BRANCH  35  40
ATOM     40  C   UNL     1       1.898 -59.148 -19.307  1.00  0.00     0.246 CG0
ATOM     41  O   UNL     1       1.702 -58.416 -20.312  1.00  0.00    -0.272 OA
ATOM     42  G   UNL     1       2.835 -58.625 -18.226  1.00  0.00     0.000 G0
ENDBRANCH  35  40
ENDBRANCH  31  34
ENDBRANCH   2  30
ENDBRANCH   1   2
BRANCH   1  43
ATOM     43  C   UNL     1       4.199 -61.234 -25.358  1.00  0.00     0.003 C 
BRANCH  43  44
ATOM     44  C   UNL     1       3.379 -61.832 -26.515  1.00  0.00     0.001 C 
BRANCH  44  45
ATOM     45  C   UNL     1       4.030 -61.594 -27.886  1.00  0.00     0.008 C 
BRANCH  45  46
ATOM     46  C   UNL     1       3.132 -60.793 -28.841  1.00  0.00     0.075 C 
BRANCH  46  47
ATOM     47  C   UNL     1       3.452 -59.322 -28.749  1.00  0.00     0.132 C 
ATOM     48  O   UNL     1       2.540 -58.508 -28.808  1.00  0.00    -0.300 OA
BRANCH  47  49
ATOM     49  C   UNL     1       4.866 -58.836 -28.562  1.00  0.00     0.072 C 
ATOM     50  C   UNL     1       5.236 -57.790 -29.610  1.00  0.00     0.012 C 
ENDBRANCH  47  49
ENDBRANCH  46  47
ENDBRANCH  45  46
ENDBRANCH  44  45
ENDBRANCH  43  44
ENDBRANCH   1  43
TORSDOF 12
ENDMDL
MODEL 6
REMARK VINA RESULT:    -4.591      2.144      2.917
REMARK INTER + INTRA:         -10.520
REMARK INTER:                  -9.974
REMARK INTRA:                  -0.545
REMARK UNBOUND:                -0.829
REMARK SMILES CCC(=O)CCCCC[C@@H]1NC(=O)[C@@H]2CCCCN2C(=O)[C@@H]([C@@H](C)CC)NC(=O)[C@H](Cc2cn(OC)c3ccccc23)NC1=O
REMARK SMILES IDX 9 1 10 2 44 3 43 4 45 6 30 7 28 8 27 9 29 11 22 12 23 14
REMARK SMILES IDX 24 15 25 16 26 17 31 18 32 19 33 20 42 21 34 22 37 23 41 24
REMARK SMILES IDX 38 25 40 26 39 27 35 28 36 29 11 30 12 31 13 33 14 34 19 35
REMARK SMILES IDX 15 36 18 37 16 38 17 39 20 40 21 41 8 43 7 44 6 45 5 46 3 47
REMARK SMILES IDX 4 48 2 49 1 50
REMARK H PARENT 43 5 27 10 11 32
REMARK Flexibility Score: 80.00
ROOT
ATOM      1  C   UNL     1       4.540 -59.796 -26.850  1.00  0.00     0.035 C 
ENDROOT
BRANCH   1   2
ATOM      2  C   UNL     1       4.565 -60.432 -25.444  1.00  0.00     0.171 C 
BRANCH   2   3
ATOM      3  C   UNL     1       5.080 -59.467 -24.411  1.00  0.00     0.243 C 
ATOM      4  N   UNL     1       5.364 -59.919 -23.079  1.00  0.00    -0.342 N 
ATOM      5  H   UNL     1       5.658 -60.913 -22.949  1.00  0.00     0.164 HD
ATOM      6  O   UNL     1       5.223 -58.252 -24.713  1.00  0.00    -0.273 OA
BRANCH   4   7
ATOM      7  C   UNL     1       4.935 -59.178 -21.884  1.00  0.00     0.175 C 
BRANCH   7   8
ATOM      8  C   UNL     1       3.551 -58.620 -22.124  1.00  0.00     0.243 C 
ATOM      9  N   UNL     1       2.499 -59.374 -22.759  1.00  0.00    -0.342 N 
ATOM     10  H   UNL     1       2.756 -60.173 -23.376  1.00  0.00     0.164 HD
ATOM     11  O   UNL     1       3.323 -57.455 -21.711  1.00  0.00    -0.273 OA
BRANCH   9  12
ATOM     12  C   UNL     1       1.065 -59.215 -22.463  1.00  0.00     0.174 CG0
ATOM     13  G   UNL     1       0.239 -59.243 -23.742  1.00  0.00     0.000 G0
BRANCH  12  14
ATOM     14  C   UNL     1       0.598 -60.097 -21.257  1.00  0.00     0.018 C 
ATOM     15  C   UNL     1       1.562 -61.234 -20.873  1.00  0.00     0.010 C 
BRANCH  14  16
ATOM     16  C   UNL     1       0.291 -59.201 -20.030  1.00  0.00     0.002 C 
ATOM     17  C   UNL     1       0.310 -59.969 -18.708  1.00  0.00     0.004 C 
ENDBRANCH  14  16
ENDBRANCH  12  14
ENDBRANCH   9  12
ENDBRANCH   7   8
BRANCH   7  18
ATOM     18  C   UNL     1       5.991 -58.141 -21.450  1.00  0.00     0.073 C 
BRANCH  18  19
ATOM     19  C   UNL     1       6.550 -58.475 -20.097  1.00  0.00    -0.016 A 
ATOM     20  C   UNL     1       7.880 -58.390 -19.712  1.00  0.00     0.134 A 
ATOM     21  C   UNL     1       5.881 -59.026 -19.023  1.00  0.00     0.006 A 
ATOM     22  N   UNL     1       8.035 -58.843 -18.448  1.00  0.00    -0.191 N 
ATOM     23  C   UNL     1       6.805 -59.236 -18.020  1.00  0.00     0.087 A 
ATOM     24  C   UNL     1       4.535 -59.367 -18.881  1.00  0.00     0.011 A 
ATOM     25  C   UNL     1       6.407 -59.796 -16.795  1.00  0.00     0.030 A 
ATOM     26  C   UNL     1       4.123 -59.929 -17.664  1.00  0.00     0.001 A 
ATOM     27  C   UNL     1       5.054 -60.139 -16.626  1.00  0.00     0.002 A 
BRANCH  22  28
ATOM     28  O   UNL     1       9.275 -58.876 -17.825  1.00  0.00    -0.417 OA
ATOM     29  C   UNL     1       9.735 -59.926 -16.990  1.00  0.00     0.313 C 
ENDBRANCH  22  28
ENDBRANCH  18  19
ENDBRANCH   7  18
ENDBRANCH   4   7
ENDBRANCH   2   3
BRANCH   2  30
ATOM     30  N   UNL     1       3.209 -60.849 -25.066  1.00  0.00    -0.343 N 
ATOM     31  C   UNL     1       2.034 -60.405 -25.772  1.00  0.00     0.243 C 
ATOM     32  H   UNL     1       3.122 -61.633 -24.383  1.00  0.00     0.164 HD
ATOM     33  O   UNL     1       2.117 -59.440 -26.578  1.00  0.00    -0.273 OA
BRANCH  31  34
ATOM     34  C   UNL     1       0.676 -61.054 -25.555  1.00  0.00     0.174 C 
ATOM     35  N   UNL     1      -0.103 -60.483 -24.430  1.00  0.00    -0.329 N 
ATOM     36  C   UNL     1      -0.169 -61.053 -26.845  1.00  0.00     0.035 C 
ATOM     37  C   UNL     1      -1.431 -61.057 -24.176  1.00  0.00     0.120 C 
ATOM     38  C   UNL     1      -1.517 -61.740 -26.604  1.00  0.00     0.004 C 
ATOM     39  C   UNL     1      -2.270 -61.059 -25.458  1.00  0.00     0.022 C 
BRANCH  35  40
ATOM     40  C   UNL     1       0.269 -59.261 -23.762  1.00  0.00     0.246 CG0
ATOM     41  O   UNL     1      -0.187 -58.173 -24.200  1.00  0.00    -0.272 OA
ATOM     42  G   UNL     1       1.075 -59.218 -22.471  1.00  0.00     0.000 G0
ENDBRANCH  35  40
ENDBRANCH  31  34
ENDBRANCH   2  30
ENDBRANCH   1   2
BRANCH   1  43
ATOM     43  C   UNL     1       5.021 -60.732 -27.975  1.00  0.00     0.003 C 
BRANCH  43  44
ATOM     44  C   UNL     1       5.177 -60.008 -29.323  1.00  0.00     0.001 C 
BRANCH  44  45
ATOM     45  C   UNL     1       4.573 -58.595 -29.308  1.00  0.00     0.008 C 
BRANCH  45  46
ATOM     46  C   UNL     1       4.201 -58.090 -30.710  1.00  0.00     0.075 C 
BRANCH  46  47
ATOM     47  C   UNL     1       2.913 -58.725 -31.170  1.00  0.00     0.132 C 
ATOM     48  O   UNL     1       2.899 -59.357 -32.218  1.00  0.00    -0.300 OA
BRANCH  47  49
ATOM     49  C   UNL     1       1.650 -58.616 -30.355  1.00  0.00     0.072 C 
ATOM     50  C   UNL     1       1.019 -59.987 -30.125  1.00  0.00     0.012 C 
ENDBRANCH  47  49
ENDBRANCH  46  47
ENDBRANCH  45  46
ENDBRANCH  44  45
ENDBRANCH  43  44
ENDBRANCH   1  43
TORSDOF 12
ENDMDL
MODEL 7
REMARK VINA RESULT:    -4.571      1.329      1.483
REMARK INTER + INTRA:         -10.478
REMARK INTER:                  -9.607
REMARK INTRA:                  -0.871
REMARK UNBOUND:                -0.829
REMARK SMILES CCC(=O)CCCCC[C@@H]1NC(=O)[C@@H]2CCCCN2C(=O)[C@@H]([C@@H](C)CC)NC(=O)[C@H](Cc2cn(OC)c3ccccc23)NC1=O
REMARK SMILES IDX 9 1 10 2 44 3 43 4 45 6 30 7 28 8 27 9 29 11 22 12 23 14
REMARK SMILES IDX 24 15 25 16 26 17 31 18 32 19 33 20 42 21 34 22 37 23 41 24
REMARK SMILES IDX 38 25 40 26 39 27 35 28 36 29 11 30 12 31 13 33 14 34 19 35
REMARK SMILES IDX 15 36 18 37 16 38 17 39 20 40 21 41 8 43 7 44 6 45 5 46 3 47
REMARK SMILES IDX 4 48 2 49 1 50
REMARK H PARENT 43 5 27 10 11 32
REMARK Flexibility Score: 80.00
ROOT
ATOM      1  C   UNL     1       5.434 -58.933 -25.955  1.00  0.00     0.035 C 
ENDROOT
BRANCH   1   2
ATOM      2  C   UNL     1       4.680 -59.753 -24.886  1.00  0.00     0.171 C 
BRANCH   2   3
ATOM      3  C   UNL     1       4.700 -59.065 -23.549  1.00  0.00     0.243 C 
ATOM      4  N   UNL     1       5.311 -59.702 -22.417  1.00  0.00    -0.342 N 
ATOM      5  H   UNL     1       6.101 -60.363 -22.593  1.00  0.00     0.164 HD
ATOM      6  O   UNL     1       4.143 -57.941 -23.419  1.00  0.00    -0.273 OA
BRANCH   4   7
ATOM      7  C   UNL     1       4.674 -59.745 -21.094  1.00  0.00     0.175 C 
BRANCH   7   8
ATOM      8  C   UNL     1       3.322 -60.410 -21.222  1.00  0.00     0.243 C 
ATOM      9  N   UNL     1       2.092 -59.768 -20.833  1.00  0.00    -0.342 N 
ATOM     10  H   UNL     1       2.127 -58.991 -20.141  1.00  0.00     0.164 HD
ATOM     11  O   UNL     1       3.295 -61.561 -21.726  1.00  0.00    -0.273 OA
BRANCH   9  12
ATOM     12  C   UNL     1       0.788 -60.007 -21.477  1.00  0.00     0.174 CG0
ATOM     13  G   UNL     1       0.843 -59.662 -22.960  1.00  0.00     0.000 G0
BRANCH  12  14
ATOM     14  C   UNL     1       0.150 -61.373 -21.056  1.00  0.00     0.018 C 
ATOM     15  C   UNL     1       0.743 -62.002 -19.783  1.00  0.00     0.010 C 
BRANCH  14  16
ATOM     16  C   UNL     1      -1.388 -61.223 -20.928  1.00  0.00     0.002 C 
ATOM     17  C   UNL     1      -1.873 -61.233 -19.478  1.00  0.00     0.004 C 
ENDBRANCH  14  16
ENDBRANCH  12  14
ENDBRANCH   9  12
ENDBRANCH   7   8
BRANCH   7  18
ATOM     18  C   UNL     1       4.656 -58.355 -20.427  1.00  0.00     0.073 C 
BRANCH  18  19
ATOM     19  C   UNL     1       6.050 -57.873 -20.146  1.00  0.00    -0.016 A 
ATOM     20  C   UNL     1       6.932 -58.403 -19.216  1.00  0.00     0.134 A 
ATOM     21  C   UNL     1       6.677 -56.760 -20.668  1.00  0.00     0.006 A 
ATOM     22  N   UNL     1       8.069 -57.673 -19.173  1.00  0.00    -0.191 N 
ATOM     23  C   UNL     1       7.915 -56.659 -20.068  1.00  0.00     0.087 A 
ATOM     24  C   UNL     1       6.227 -55.834 -21.610  1.00  0.00     0.011 A 
ATOM     25  C   UNL     1       8.784 -55.608 -20.406  1.00  0.00     0.030 A 
ATOM     26  C   UNL     1       7.082 -54.778 -21.956  1.00  0.00     0.001 A 
ATOM     27  C   UNL     1       8.355 -54.668 -21.359  1.00  0.00     0.002 A 
BRANCH  22  28
ATOM     28  O   UNL     1       9.113 -57.986 -18.314  1.00  0.00    -0.417 OA
ATOM     29  C   UNL     1       9.477 -57.229 -17.172  1.00  0.00     0.313 C 
ENDBRANCH  22  28
ENDBRANCH  18  19
ENDBRANCH   7  18
ENDBRANCH   4   7
ENDBRANCH   2   3
BRANCH   2  30
ATOM     30  N   UNL     1       3.284 -59.938 -25.300  1.00  0.00    -0.343 N 
ATOM     31  C   UNL     1       2.492 -61.068 -24.884  1.00  0.00     0.243 C 
ATOM     32  H   UNL     1       2.808 -59.128 -25.755  1.00  0.00     0.164 HD
ATOM     33  O   UNL     1       3.056 -62.066 -24.360  1.00  0.00    -0.273 OA
BRANCH  31  34
ATOM     34  C   UNL     1       0.985 -61.107 -25.082  1.00  0.00     0.174 C 
ATOM     35  N   UNL     1       0.208 -60.462 -23.996  1.00  0.00    -0.329 N 
ATOM     36  C   UNL     1       0.574 -60.526 -26.450  1.00  0.00     0.035 C 
ATOM     37  C   UNL     1      -1.254 -60.453 -24.134  1.00  0.00     0.120 C 
ATOM     38  C   UNL     1      -0.944 -60.607 -26.634  1.00  0.00     0.004 C 
ATOM     39  C   UNL     1      -1.663 -59.879 -25.494  1.00  0.00     0.022 C 
BRANCH  35  40
ATOM     40  C   UNL     1       0.818 -59.647 -22.975  1.00  0.00     0.246 CG0
ATOM     41  O   UNL     1       1.293 -58.529 -23.301  1.00  0.00    -0.272 OA
ATOM     42  G   UNL     1       0.802 -60.002 -21.494  1.00  0.00     0.000 G0
ENDBRANCH  35  40
ENDBRANCH  31  34
ENDBRANCH   2  30
ENDBRANCH   1   2
BRANCH   1  43
ATOM     43  C   UNL     1       6.083 -59.787 -27.062  1.00  0.00     0.003 C 
BRANCH  43  44
ATOM     44  C   UNL     1       5.071 -60.698 -27.777  1.00  0.00     0.001 C 
BRANCH  44  45
ATOM     45  C   UNL     1       5.182 -60.618 -29.308  1.00  0.00     0.008 C 
BRANCH  45  46
ATOM     46  C   UNL     1       3.826 -60.400 -29.994  1.00  0.00     0.075 C 
BRANCH  46  47
ATOM     47  C   UNL     1       3.700 -58.971 -30.460  1.00  0.00     0.132 C 
ATOM     48  O   UNL     1       4.696 -58.262 -30.490  1.00  0.00    -0.300 OA
BRANCH  47  49
ATOM     49  C   UNL     1       2.377 -58.407 -30.911  1.00  0.00     0.072 C 
ATOM     50  C   UNL     1       1.254 -59.428 -30.746  1.00  0.00     0.012 C 
ENDBRANCH  47  49
ENDBRANCH  46  47
ENDBRANCH  45  46
ENDBRANCH  44  45
ENDBRANCH  43  44
ENDBRANCH   1  43
TORSDOF 12
ENDMDL
MODEL 8
REMARK VINA RESULT:    -4.478      2.967      7.926
REMARK INTER + INTRA:         -10.281
REMARK INTER:                 -10.164
REMARK INTRA:                  -0.116
REMARK UNBOUND:                -0.829
REMARK SMILES CCC(=O)CCCCC[C@@H]1NC(=O)[C@@H]2CCCCN2C(=O)[C@@H]([C@@H](C)CC)NC(=O)[C@H](Cc2cn(OC)c3ccccc23)NC1=O
REMARK SMILES IDX 9 1 10 2 44 3 43 4 45 6 30 7 28 8 27 9 29 11 22 12 23 14
REMARK SMILES IDX 24 15 25 16 26 17 31 18 32 19 33 20 42 21 34 22 37 23 41 24
REMARK SMILES IDX 38 25 40 26 39 27 35 28 36 29 11 30 12 31 13 33 14 34 19 35
REMARK SMILES IDX 15 36 18 37 16 38 17 39 20 40 21 41 8 43 7 44 6 45 5 46 3 47
REMARK SMILES IDX 4 48 2 49 1 50
REMARK H PARENT 43 5 27 10 11 32
REMARK Flexibility Score: 80.00
ROOT
ATOM      1  C   UNL     1       2.652 -59.180 -23.292  1.00  0.00     0.035 C 
ENDROOT
BRANCH   1   2
ATOM      2  C   UNL     1       2.138 -58.559 -21.975  1.00  0.00     0.171 C 
BRANCH   2   3
ATOM      3  C   UNL     1       1.927 -59.608 -20.917  1.00  0.00     0.243 C 
ATOM      4  N   UNL     1       1.350 -59.252 -19.653  1.00  0.00    -0.342 N 
ATOM      5  H   UNL     1       0.684 -58.448 -19.625  1.00  0.00     0.164 HD
ATOM      6  O   UNL     1       2.296 -60.794 -21.135  1.00  0.00    -0.273 OA
BRANCH   4   7
ATOM      7  C   UNL     1       1.900 -59.719 -18.372  1.00  0.00     0.175 C 
BRANCH   7   8
ATOM      8  C   UNL     1       3.405 -59.796 -18.485  1.00  0.00     0.243 C 
ATOM      9  N   UNL     1       4.221 -58.676 -18.881  1.00  0.00    -0.342 N 
ATOM     10  H   UNL     1       3.785 -57.907 -19.432  1.00  0.00     0.164 HD
ATOM     11  O   UNL     1       3.949 -60.887 -18.178  1.00  0.00    -0.273 OA
BRANCH   9  12
ATOM     12  C   UNL     1       5.598 -58.441 -18.413  1.00  0.00     0.174 CG0
ATOM     13  G   UNL     1       6.498 -58.009 -19.563  1.00  0.00     0.000 G0
BRANCH  12  14
ATOM     14  C   UNL     1       5.649 -57.620 -17.081  1.00  0.00     0.018 C 
ATOM     15  C   UNL     1       4.298 -57.468 -16.360  1.00  0.00     0.010 C 
BRANCH  14  16
ATOM     16  C   UNL     1       6.715 -58.219 -16.128  1.00  0.00     0.002 C 
ATOM     17  C   UNL     1       6.793 -59.745 -16.200  1.00  0.00     0.004 C 
ENDBRANCH  14  16
ENDBRANCH  12  14
ENDBRANCH   9  12
ENDBRANCH   7   8
BRANCH   7  18
ATOM     18  C   UNL     1       1.214 -61.018 -17.901  1.00  0.00     0.073 C 
BRANCH  18  19
ATOM     19  C   UNL     1      -0.271 -60.830 -17.777  1.00  0.00    -0.016 A 
ATOM     20  C   UNL     1      -0.962 -60.461 -16.633  1.00  0.00     0.134 A 
ATOM     21  C   UNL     1      -1.234 -61.089 -18.732  1.00  0.00     0.006 A 
ATOM     22  N   UNL     1      -2.294 -60.465 -16.864  1.00  0.00    -0.191 N 
ATOM     23  C   UNL     1      -2.464 -60.852 -18.157  1.00  0.00     0.087 A 
ATOM     24  C   UNL     1      -1.097 -61.532 -20.048  1.00  0.00     0.011 A 
ATOM     25  C   UNL     1      -3.642 -61.038 -18.900  1.00  0.00     0.030 A 
ATOM     26  C   UNL     1      -2.264 -61.725 -20.803  1.00  0.00     0.001 A 
ATOM     27  C   UNL     1      -3.529 -61.475 -20.232  1.00  0.00     0.002 A 
BRANCH  22  28
ATOM     28  O   UNL     1      -3.213 -60.142 -15.876  1.00  0.00    -0.417 OA
ATOM     29  C   UNL     1      -4.152 -59.083 -15.956  1.00  0.00     0.313 C 
ENDBRANCH  22  28
ENDBRANCH  18  19
ENDBRANCH   7  18
ENDBRANCH   4   7
ENDBRANCH   2   3
BRANCH   2  30
ATOM     30  N   UNL     1       3.111 -57.578 -21.478  1.00  0.00    -0.343 N 
ATOM     31  C   UNL     1       4.526 -57.691 -21.727  1.00  0.00     0.243 C 
ATOM     32  H   UNL     1       2.736 -56.683 -21.096  1.00  0.00     0.164 HD
ATOM     33  O   UNL     1       4.999 -58.776 -22.161  1.00  0.00    -0.273 OA
BRANCH  31  34
ATOM     34  C   UNL     1       5.482 -56.540 -21.457  1.00  0.00     0.174 C 
ATOM     35  N   UNL     1       6.357 -56.736 -20.276  1.00  0.00    -0.329 N 
ATOM     36  C   UNL     1       6.330 -56.199 -22.698  1.00  0.00     0.035 C 
ATOM     37  C   UNL     1       7.314 -55.666 -19.967  1.00  0.00     0.120 C 
ATOM     38  C   UNL     1       7.259 -55.017 -22.406  1.00  0.00     0.004 C 
ATOM     39  C   UNL     1       8.155 -55.323 -21.202  1.00  0.00     0.022 C 
BRANCH  35  40
ATOM     40  C   UNL     1       6.480 -58.000 -19.594  1.00  0.00     0.246 CG0
ATOM     41  O   UNL     1       7.439 -58.757 -19.897  1.00  0.00    -0.272 OA
ATOM     42  G   UNL     1       5.593 -58.419 -18.428  1.00  0.00     0.000 G0
ENDBRANCH  35  40
ENDBRANCH  31  34
ENDBRANCH   2  30
ENDBRANCH   1   2
BRANCH   1  43
ATOM     43  C   UNL     1       1.552 -59.830 -24.153  1.00  0.00     0.003 C 
BRANCH  43  44
ATOM     44  C   UNL     1       1.673 -61.363 -24.210  1.00  0.00     0.001 C 
BRANCH  44  45
ATOM     45  C   UNL     1       2.626 -61.840 -25.317  1.00  0.00     0.008 C 
BRANCH  45  46
ATOM     46  C   UNL     1       3.504 -60.711 -25.876  1.00  0.00     0.075 C 
BRANCH  46  47
ATOM     47  C   UNL     1       3.328 -60.602 -27.370  1.00  0.00     0.132 C 
ATOM     48  O   UNL     1       2.285 -60.991 -27.879  1.00  0.00    -0.300 OA
BRANCH  47  49
ATOM     49  C   UNL     1       4.399 -60.003 -28.245  1.00  0.00     0.072 C 
ATOM     50  C   UNL     1       5.604 -59.556 -27.419  1.00  0.00     0.012 C 
ENDBRANCH  47  49
ENDBRANCH  46  47
ENDBRANCH  45  46
ENDBRANCH  44  45
ENDBRANCH  43  44
ENDBRANCH   1  43
TORSDOF 12
ENDMDL
MODEL 9
REMARK VINA RESULT:    -4.339      2.740      9.363
REMARK INTER + INTRA:          -9.988
REMARK INTER:                  -9.401
REMARK INTRA:                  -0.588
REMARK UNBOUND:                -0.829
REMARK SMILES CCC(=O)CCCCC[C@@H]1NC(=O)[C@@H]2CCCCN2C(=O)[C@@H]([C@@H](C)CC)NC(=O)[C@H](Cc2cn(OC)c3ccccc23)NC1=O
REMARK SMILES IDX 9 1 10 2 44 3 43 4 45 6 30 7 28 8 27 9 29 11 22 12 23 14
REMARK SMILES IDX 24 15 25 16 26 17 31 18 32 19 33 20 42 21 34 22 37 23 41 24
REMARK SMILES IDX 38 25 40 26 39 27 35 28 36 29 11 30 12 31 13 33 14 34 19 35
REMARK SMILES IDX 15 36 18 37 16 38 17 39 20 40 21 41 8 43 7 44 6 45 5 46 3 47
REMARK SMILES IDX 4 48 2 49 1 50
REMARK H PARENT 43 5 27 10 11 32
REMARK Flexibility Score: 80.00
ROOT
ATOM      1  C   UNL     1       0.767 -59.917 -17.961  1.00  0.00     0.035 C 
ENDROOT
BRANCH   1   2
ATOM      2  C   UNL     1       1.262 -60.696 -19.198  1.00  0.00     0.171 C 
BRANCH   2   3
ATOM      3  C   UNL     1       0.696 -60.127 -20.470  1.00  0.00     0.243 C 
ATOM      4  N   UNL     1       0.735 -60.892 -21.684  1.00  0.00    -0.342 N 
ATOM      5  H   UNL     1       0.710 -61.934 -21.609  1.00  0.00     0.164 HD
ATOM      6  O   UNL     1       0.222 -58.959 -20.472  1.00  0.00    -0.273 OA
BRANCH   4   7
ATOM      7  C   UNL     1       1.152 -60.316 -22.970  1.00  0.00     0.175 C 
BRANCH   7   8
ATOM      8  C   UNL     1       2.107 -59.173 -22.708  1.00  0.00     0.243 C 
ATOM      9  N   UNL     1       3.343 -59.333 -21.983  1.00  0.00    -0.342 N 
ATOM     10  H   UNL     1       3.442 -60.138 -21.329  1.00  0.00     0.164 HD
ATOM     11  O   UNL     1       1.803 -58.051 -23.184  1.00  0.00    -0.273 OA
BRANCH   9  12
ATOM     12  C   UNL     1       4.561 -58.542 -22.230  1.00  0.00     0.174 CG0
ATOM     13  G   UNL     1       5.121 -57.985 -20.927  1.00  0.00     0.000 G0
BRANCH  12  14
ATOM     14  C   UNL     1       5.547 -59.246 -23.221  1.00  0.00     0.018 C 
ATOM     15  C   UNL     1       5.117 -60.652 -23.674  1.00  0.00     0.010 C 
BRANCH  14  16
ATOM     16  C   UNL     1       5.813 -58.332 -24.445  1.00  0.00     0.002 C 
ATOM     17  C   UNL     1       5.930 -56.853 -24.073  1.00  0.00     0.004 C 
ENDBRANCH  14  16
ENDBRANCH  12  14
ENDBRANCH   9  12
ENDBRANCH   7   8
BRANCH   7  18
ATOM     18  C   UNL     1      -0.061 -59.962 -23.853  1.00  0.00     0.073 C 
BRANCH  18  19
ATOM     19  C   UNL     1       0.337 -59.849 -25.297  1.00  0.00    -0.016 A 
ATOM     20  C   UNL     1       1.085 -60.766 -26.019  1.00  0.00     0.134 A 
ATOM     21  C   UNL     1       0.135 -58.777 -26.143  1.00  0.00     0.006 A 
ATOM     22  N   UNL     1       1.321 -60.305 -27.267  1.00  0.00    -0.191 N 
ATOM     23  C   UNL     1       0.736 -59.079 -27.347  1.00  0.00     0.087 A 
ATOM     24  C   UNL     1      -0.519 -57.565 -25.918  1.00  0.00     0.011 A 
ATOM     25  C   UNL     1       0.695 -58.162 -28.410  1.00  0.00     0.030 A 
ATOM     26  C   UNL     1      -0.567 -56.638 -26.970  1.00  0.00     0.001 A 
ATOM     27  C   UNL     1       0.034 -56.937 -28.210  1.00  0.00     0.002 A 
BRANCH  22  28
ATOM     28  O   UNL     1       2.060 -61.029 -28.193  1.00  0.00    -0.417 OA
ATOM     29  C   UNL     1       3.449 -61.295 -28.091  1.00  0.00     0.313 C 
ENDBRANCH  22  28
ENDBRANCH  18  19
ENDBRANCH   7  18
ENDBRANCH   4   7
ENDBRANCH   2   3
BRANCH   2  30
ATOM     30  N   UNL     1       2.727 -60.637 -19.266  1.00  0.00    -0.343 N 
ATOM     31  C   UNL     1       3.470 -59.431 -19.001  1.00  0.00     0.243 C 
ATOM     32  H   UNL     1       3.241 -61.543 -19.326  1.00  0.00     0.164 HD
ATOM     33  O   UNL     1       2.868 -58.324 -18.954  1.00  0.00    -0.273 OA
BRANCH  31  34
ATOM     34  C   UNL     1       4.977 -59.446 -18.798  1.00  0.00     0.174 C 
ATOM     35  N   UNL     1       5.746 -58.791 -19.883  1.00  0.00    -0.329 N 
ATOM     36  C   UNL     1       5.374 -58.855 -17.431  1.00  0.00     0.035 C 
ATOM     37  C   UNL     1       7.208 -58.759 -19.742  1.00  0.00     0.120 C 
ATOM     38  C   UNL     1       6.894 -58.912 -17.242  1.00  0.00     0.004 C 
ATOM     39  C   UNL     1       7.604 -58.176 -18.381  1.00  0.00     0.022 C 
BRANCH  35  40
ATOM     40  C   UNL     1       5.127 -57.988 -20.908  1.00  0.00     0.246 CG0
ATOM     41  O   UNL     1       5.129 -56.737 -20.775  1.00  0.00    -0.272 OA
ATOM     42  G   UNL     1       4.587 -58.558 -22.213  1.00  0.00     0.000 G0
ENDBRANCH  35  40
ENDBRANCH  31  34
ENDBRANCH   2  30
ENDBRANCH   1   2
BRANCH   1  43
ATOM     43  C   UNL     1       0.279 -60.812 -16.805  1.00  0.00     0.003 C 
BRANCH  43  44
ATOM     44  C   UNL     1      -0.586 -61.988 -17.292  1.00  0.00     0.001 C 
BRANCH  44  45
ATOM     45  C   UNL     1      -2.070 -61.821 -16.928  1.00  0.00     0.008 C 
BRANCH  45  46
ATOM     46  C   UNL     1      -2.887 -61.157 -18.045  1.00  0.00     0.075 C 
BRANCH  46  47
ATOM     47  C   UNL     1      -3.885 -60.189 -17.459  1.00  0.00     0.132 C 
ATOM     48  O   UNL     1      -5.061 -60.516 -17.385  1.00  0.00    -0.300 OA
BRANCH  47  49
ATOM     49  C   UNL     1      -3.458 -58.840 -16.941  1.00  0.00     0.072 C 
ATOM     50  C   UNL     1      -2.108 -58.424 -17.521  1.00  0.00     0.012 C 
ENDBRANCH  47  49
ENDBRANCH  46  47
ENDBRANCH  45  46
ENDBRANCH  44  45
ENDBRANCH  43  44
ENDBRANCH   1  43
TORSDOF 12
ENDMDL
