MODEL 1
REMARK VINA RESULT:    -6.923      0.000      0.000
REMARK INTER + INTRA:          -8.403
REMARK INTER:                  -8.138
REMARK INTRA:                  -0.265
REMARK UNBOUND:                -0.265
REMARK SMILES O=c1cc(-c2ccc(O)c(O)c2)oc2cc(O)cc(O)c12
REMARK SMILES IDX 4 1 3 2 2 3 1 4 21 5 19 6 18 7 16 8 15 9 14 10 13 11 5 12
REMARK SMILES IDX 6 13 7 14 8 15 12 16 10 17 9 18 11 20 20 22 17 24
REMARK H PARENT 9 19 11 21 20 23 17 25
REMARK Flexibility Score: inf
ROOT
ATOM      1  C   UNL     1      12.623  58.823  75.895  1.00  0.00     0.138 A 
ATOM      2  C   UNL     1      13.324  60.032  76.006  1.00  0.00     0.100 A 
ATOM      3  C   UNL     1      14.522  60.073  76.720  1.00  0.00     0.197 A 
ATOM      4  O   UNL     1      15.160  61.158  76.749  1.00  0.00    -0.289 OA
ATOM      5  C   UNL     1      15.005  58.902  77.351  1.00  0.00     0.107 A 
ATOM      6  C   UNL     1      16.194  58.834  78.139  1.00  0.00     0.134 A 
ATOM      7  C   UNL     1      16.633  57.594  78.617  1.00  0.00     0.093 A 
ATOM      8  C   UNL     1      15.899  56.431  78.390  1.00  0.00     0.123 A 
ATOM      9  C   UNL     1      14.707  56.495  77.667  1.00  0.00     0.094 A 
ATOM     10  C   UNL     1      14.259  57.710  77.147  1.00  0.00     0.146 A 
ATOM     11  O   UNL     1      13.126  57.725  76.451  1.00  0.00    -0.456 OA
ENDROOT
BRANCH   1  12
ATOM     12  C   UNL     1      11.344  58.724  75.150  1.00  0.00     0.021 A 
ATOM     13  C   UNL     1      11.367  58.545  73.756  1.00  0.00     0.016 A 
ATOM     14  C   UNL     1      10.176  58.441  73.032  1.00  0.00     0.051 A 
ATOM     15  C   UNL     1       8.941  58.504  73.690  1.00  0.00     0.157 A 
ATOM     16  C   UNL     1      10.098  58.773  75.807  1.00  0.00     0.062 A 
ATOM     17  C   UNL     1       8.903  58.667  75.084  1.00  0.00     0.158 A 
BRANCH  15  18
ATOM     18  O   UNL     1       7.755  58.401  72.965  1.00  0.00    -0.504 OA
ATOM     19  H   UNL     1       7.355  59.199  72.486  1.00  0.00     0.293 HD
ENDBRANCH  15  18
BRANCH  17  20
ATOM     20  O   UNL     1       7.691  58.722  75.770  1.00  0.00    -0.504 OA
ATOM     21  H   UNL     1       7.244  57.891  76.140  1.00  0.00     0.293 HD
ENDBRANCH  17  20
ENDBRANCH   1  12
BRANCH   6  22
ATOM     22  O   UNL     1      16.957  59.949  78.497  1.00  0.00    -0.507 OA
ATOM     23  H   UNL     1      16.893  60.857  78.062  1.00  0.00     0.293 HD
ENDBRANCH   6  22
BRANCH   8  24
ATOM     24  O   UNL     1      16.360  55.217  78.895  1.00  0.00    -0.508 OA
ATOM     25  H   UNL     1      17.169  55.169  79.504  1.00  0.00     0.293 HD
ENDBRANCH   8  24
TORSDOF 5
ENDMDL
MODEL 2
REMARK VINA RESULT:    -6.575     17.977     18.249
REMARK INTER + INTRA:          -7.993
REMARK INTER:                  -7.684
REMARK INTRA:                  -0.309
REMARK UNBOUND:                -0.265
REMARK SMILES O=c1cc(-c2ccc(O)c(O)c2)oc2cc(O)cc(O)c12
REMARK SMILES IDX 4 1 3 2 2 3 1 4 21 5 19 6 18 7 16 8 15 9 14 10 13 11 5 12
REMARK SMILES IDX 6 13 7 14 8 15 12 16 10 17 9 18 11 20 20 22 17 24
REMARK H PARENT 9 19 11 21 20 23 17 25
REMARK Flexibility Score: inf
ROOT
ATOM      1  C   UNL     1       2.675  63.962  90.436  1.00  0.00     0.138 A 
ATOM      2  C   UNL     1       3.608  64.987  90.643  1.00  0.00     0.100 A 
ATOM      3  C   UNL     1       4.779  64.722  91.355  1.00  0.00     0.197 A 
ATOM      4  O   UNL     1       5.625  65.645  91.471  1.00  0.00    -0.289 OA
ATOM      5  C   UNL     1       5.000  63.429  91.888  1.00  0.00     0.107 A 
ATOM      6  C   UNL     1       6.137  63.055  92.665  1.00  0.00     0.134 A 
ATOM      7  C   UNL     1       6.304  61.716  93.040  1.00  0.00     0.093 A 
ATOM      8  C   UNL     1       5.349  60.752  92.721  1.00  0.00     0.123 A 
ATOM      9  C   UNL     1       4.207  61.118  92.007  1.00  0.00     0.094 A 
ATOM     10  C   UNL     1       4.027  62.438  91.589  1.00  0.00     0.146 A 
ATOM     11  O   UNL     1       2.933  62.743  90.899  1.00  0.00    -0.456 OA
ENDROOT
BRANCH   1  12
ATOM     12  C   UNL     1       1.414  64.189  89.687  1.00  0.00     0.021 A 
ATOM     13  C   UNL     1       0.867  65.482  89.628  1.00  0.00     0.016 A 
ATOM     14  C   UNL     1      -0.315  65.723  88.924  1.00  0.00     0.051 A 
ATOM     15  C   UNL     1      -0.967  64.679  88.257  1.00  0.00     0.157 A 
ATOM     16  C   UNL     1       0.760  63.145  89.002  1.00  0.00     0.062 A 
ATOM     17  C   UNL     1      -0.424  63.384  88.295  1.00  0.00     0.158 A 
BRANCH  15  18
ATOM     18  O   UNL     1      -2.147  64.922  87.556  1.00  0.00    -0.504 OA
ATOM     19  H   UNL     1      -2.922  64.270  87.579  1.00  0.00     0.293 HD
ENDBRANCH  15  18
BRANCH  17  20
ATOM     20  O   UNL     1      -1.042  62.324  87.632  1.00  0.00    -0.504 OA
ATOM     21  H   UNL     1      -0.512  61.624  87.126  1.00  0.00     0.293 HD
ENDBRANCH  17  20
ENDBRANCH   1  12
BRANCH   6  22
ATOM     22  O   UNL     1       7.109  63.955  93.112  1.00  0.00    -0.507 OA
ATOM     23  H   UNL     1       6.918  64.876  93.476  1.00  0.00     0.293 HD
ENDBRANCH   6  22
BRANCH   8  24
ATOM     24  O   UNL     1       5.542  59.433  93.124  1.00  0.00    -0.508 OA
ATOM     25  H   UNL     1       4.983  58.676  92.748  1.00  0.00     0.293 HD
ENDBRANCH   8  24
TORSDOF 5
ENDMDL
MODEL 3
REMARK VINA RESULT:    -6.533     16.294     17.470
REMARK INTER + INTRA:          -7.944
REMARK INTER:                  -7.653
REMARK INTRA:                  -0.291
REMARK UNBOUND:                -0.265
REMARK SMILES O=c1cc(-c2ccc(O)c(O)c2)oc2cc(O)cc(O)c12
REMARK SMILES IDX 4 1 3 2 2 3 1 4 21 5 19 6 18 7 16 8 15 9 14 10 13 11 5 12
REMARK SMILES IDX 6 13 7 14 8 15 12 16 10 17 9 18 11 20 20 22 17 24
REMARK H PARENT 9 19 11 21 20 23 17 25
REMARK Flexibility Score: inf
ROOT
ATOM      1  C   UNL     1       2.693  63.467  89.294  1.00  0.00     0.138 A 
ATOM      2  C   UNL     1       3.652  63.479  88.272  1.00  0.00     0.100 A 
ATOM      3  C   UNL     1       4.827  62.740  88.417  1.00  0.00     0.197 A 
ATOM      4  O   UNL     1       5.640  62.722  87.458  1.00  0.00    -0.289 OA
ATOM      5  C   UNL     1       5.054  62.009  89.608  1.00  0.00     0.107 A 
ATOM      6  C   UNL     1       6.232  61.252  89.884  1.00  0.00     0.134 A 
ATOM      7  C   UNL     1       6.295  60.475  91.047  1.00  0.00     0.093 A 
ATOM      8  C   UNL     1       5.252  60.474  91.971  1.00  0.00     0.123 A 
ATOM      9  C   UNL     1       4.117  61.252  91.737  1.00  0.00     0.094 A 
ATOM     10  C   UNL     1       4.009  62.011  90.570  1.00  0.00     0.146 A 
ATOM     11  O   UNL     1       2.906  62.727  90.378  1.00  0.00    -0.456 OA
ENDROOT
BRANCH   1  12
ATOM     12  C   UNL     1       1.427  64.235  89.191  1.00  0.00     0.021 A 
ATOM     13  C   UNL     1       0.745  64.605  90.363  1.00  0.00     0.016 A 
ATOM     14  C   UNL     1      -0.444  65.335  90.294  1.00  0.00     0.051 A 
ATOM     15  C   UNL     1      -0.968  65.717  89.053  1.00  0.00     0.157 A 
ATOM     16  C   UNL     1       0.902  64.635  87.946  1.00  0.00     0.062 A 
ATOM     17  C   UNL     1      -0.289  65.367  87.874  1.00  0.00     0.158 A 
BRANCH  15  18
ATOM     18  O   UNL     1      -2.155  66.444  88.986  1.00  0.00    -0.504 OA
ATOM     19  H   UNL     1      -2.386  67.147  89.678  1.00  0.00     0.293 HD
ENDBRANCH  15  18
BRANCH  17  20
ATOM     20  O   UNL     1      -0.778  65.743  86.623  1.00  0.00    -0.504 OA
ATOM     21  H   UNL     1      -0.316  66.441  86.052  1.00  0.00     0.293 HD
ENDBRANCH  17  20
ENDBRANCH   1  12
BRANCH   6  22
ATOM     22  O   UNL     1       7.368  61.250  89.069  1.00  0.00    -0.507 OA
ATOM     23  H   UNL     1       8.238  60.793  89.294  1.00  0.00     0.293 HD
ENDBRANCH   6  22
BRANCH   8  24
ATOM     24  O   UNL     1       5.356  59.699  93.125  1.00  0.00    -0.508 OA
ATOM     25  H   UNL     1       5.048  60.046  94.026  1.00  0.00     0.293 HD
ENDBRANCH   8  24
TORSDOF 5
ENDMDL
MODEL 4
REMARK VINA RESULT:    -6.489     16.572     17.878
REMARK INTER + INTRA:          -7.893
REMARK INTER:                  -7.575
REMARK INTRA:                  -0.318
REMARK UNBOUND:                -0.265
REMARK SMILES O=c1cc(-c2ccc(O)c(O)c2)oc2cc(O)cc(O)c12
REMARK SMILES IDX 4 1 3 2 2 3 1 4 21 5 19 6 18 7 16 8 15 9 14 10 13 11 5 12
REMARK SMILES IDX 6 13 7 14 8 15 12 16 10 17 9 18 11 20 20 22 17 24
REMARK H PARENT 9 19 11 21 20 23 17 25
REMARK Flexibility Score: inf
ROOT
ATOM      1  C   UNL     1       2.030  63.785  89.934  1.00  0.00     0.138 A 
ATOM      2  C   UNL     1       2.312  63.558  91.288  1.00  0.00     0.100 A 
ATOM      3  C   UNL     1       3.491  62.902  91.647  1.00  0.00     0.197 A 
ATOM      4  O   UNL     1       3.746  62.768  92.871  1.00  0.00    -0.289 OA
ATOM      5  C   UNL     1       4.376  62.447  90.641  1.00  0.00     0.107 A 
ATOM      6  C   UNL     1       5.587  61.731  90.888  1.00  0.00     0.134 A 
ATOM      7  C   UNL     1       6.441  61.433  89.819  1.00  0.00     0.093 A 
ATOM      8  C   UNL     1       6.102  61.769  88.509  1.00  0.00     0.123 A 
ATOM      9  C   UNL     1       4.895  62.421  88.251  1.00  0.00     0.094 A 
ATOM     10  C   UNL     1       4.038  62.763  89.298  1.00  0.00     0.146 A 
ATOM     11  O   UNL     1       2.905  63.396  89.011  1.00  0.00    -0.456 OA
ENDROOT
BRANCH   1  12
ATOM     12  C   UNL     1       0.791  64.476  89.496  1.00  0.00     0.021 A 
ATOM     13  C   UNL     1      -0.093  64.988  90.460  1.00  0.00     0.016 A 
ATOM     14  C   UNL     1      -1.262  65.648  90.074  1.00  0.00     0.051 A 
ATOM     15  C   UNL     1      -1.563  65.817  88.717  1.00  0.00     0.157 A 
ATOM     16  C   UNL     1       0.489  64.661  88.132  1.00  0.00     0.062 A 
ATOM     17  C   UNL     1      -0.681  65.324  87.742  1.00  0.00     0.158 A 
BRANCH  15  18
ATOM     18  O   UNL     1      -2.731  66.475  88.334  1.00  0.00    -0.504 OA
ATOM     19  H   UNL     1      -3.607  66.329  88.822  1.00  0.00     0.293 HD
ENDBRANCH  15  18
BRANCH  17  20
ATOM     20  O   UNL     1      -0.945  65.486  86.383  1.00  0.00    -0.504 OA
ATOM     21  H   UNL     1      -0.265  65.882  85.745  1.00  0.00     0.293 HD
ENDBRANCH  17  20
ENDBRANCH   1  12
BRANCH   6  22
ATOM     22  O   UNL     1       5.980  61.273  92.148  1.00  0.00    -0.507 OA
ATOM     23  H   UNL     1       5.956  61.821  92.995  1.00  0.00     0.293 HD
ENDBRANCH   6  22
BRANCH   8  24
ATOM     24  O   UNL     1       6.970  61.442  87.469  1.00  0.00    -0.508 OA
ATOM     25  H   UNL     1       6.708  61.574  86.499  1.00  0.00     0.293 HD
ENDBRANCH   8  24
TORSDOF 5
ENDMDL
MODEL 5
REMARK VINA RESULT:    -6.437      2.035      6.942
REMARK INTER + INTRA:          -7.831
REMARK INTER:                  -7.545
REMARK INTRA:                  -0.286
REMARK UNBOUND:                -0.265
REMARK SMILES O=c1cc(-c2ccc(O)c(O)c2)oc2cc(O)cc(O)c12
REMARK SMILES IDX 4 1 3 2 2 3 1 4 21 5 19 6 18 7 16 8 15 9 14 10 13 11 5 12
REMARK SMILES IDX 6 13 7 14 8 15 12 16 10 17 9 18 11 20 20 22 17 24
REMARK H PARENT 9 19 11 21 20 23 17 25
REMARK Flexibility Score: inf
ROOT
ATOM      1  C   UNL     1      12.113  58.462  75.972  1.00  0.00     0.138 A 
ATOM      2  C   UNL     1      11.835  58.662  74.613  1.00  0.00     0.100 A 
ATOM      3  C   UNL     1      10.636  59.269  74.235  1.00  0.00     0.197 A 
ATOM      4  O   UNL     1      10.443  59.492  73.012  1.00  0.00    -0.289 OA
ATOM      5  C   UNL     1       9.698  59.648  75.224  1.00  0.00     0.107 A 
ATOM      6  C   UNL     1       8.426  60.236  74.954  1.00  0.00     0.134 A 
ATOM      7  C   UNL     1       7.630  60.676  76.019  1.00  0.00     0.093 A 
ATOM      8  C   UNL     1       8.030  60.495  77.342  1.00  0.00     0.123 A 
ATOM      9  C   UNL     1       9.248  59.872  77.618  1.00  0.00     0.094 A 
ATOM     10  C   UNL     1      10.080  59.453  76.578  1.00  0.00     0.146 A 
ATOM     11  O   UNL     1      11.238  58.877  76.884  1.00  0.00    -0.456 OA
ENDROOT
BRANCH   1  12
ATOM     12  C   UNL     1      13.371  57.821  76.429  1.00  0.00     0.021 A 
ATOM     13  C   UNL     1      14.604  58.298  75.952  1.00  0.00     0.016 A 
ATOM     14  C   UNL     1      15.802  57.717  76.374  1.00  0.00     0.051 A 
ATOM     15  C   UNL     1      15.791  56.655  77.286  1.00  0.00     0.157 A 
ATOM     16  C   UNL     1      13.367  56.761  77.358  1.00  0.00     0.062 A 
ATOM     17  C   UNL     1      14.567  56.178  77.782  1.00  0.00     0.158 A 
BRANCH  15  18
ATOM     18  O   UNL     1      16.989  56.076  77.704  1.00  0.00    -0.504 OA
ATOM     19  H   UNL     1      17.765  55.946  77.066  1.00  0.00     0.293 HD
ENDBRANCH  15  18
BRANCH  17  20
ATOM     20  O   UNL     1      14.522  55.129  78.701  1.00  0.00    -0.504 OA
ATOM     21  H   UNL     1      13.647  54.726  79.015  1.00  0.00     0.293 HD
ENDBRANCH  17  20
ENDBRANCH   1  12
BRANCH   6  22
ATOM     22  O   UNL     1       7.891  60.387  73.671  1.00  0.00    -0.507 OA
ATOM     23  H   UNL     1       7.795  59.644  72.995  1.00  0.00     0.293 HD
ENDBRANCH   6  22
BRANCH   8  24
ATOM     24  O   UNL     1       7.205  60.932  78.376  1.00  0.00    -0.508 OA
ATOM     25  H   UNL     1       6.200  60.996  78.261  1.00  0.00     0.293 HD
ENDBRANCH   8  24
TORSDOF 5
ENDMDL
MODEL 6
REMARK VINA RESULT:    -6.437      1.335      2.917
REMARK INTER + INTRA:          -7.831
REMARK INTER:                  -7.567
REMARK INTRA:                  -0.264
REMARK UNBOUND:                -0.265
REMARK SMILES O=c1cc(-c2ccc(O)c(O)c2)oc2cc(O)cc(O)c12
REMARK SMILES IDX 4 1 3 2 2 3 1 4 21 5 19 6 18 7 16 8 15 9 14 10 13 11 5 12
REMARK SMILES IDX 6 13 7 14 8 15 12 16 10 17 9 18 11 20 20 22 17 24
REMARK H PARENT 9 19 11 21 20 23 17 25
REMARK Flexibility Score: inf
ROOT
ATOM      1  C   UNL     1      12.447  58.894  75.899  1.00  0.00     0.138 A 
ATOM      2  C   UNL     1      13.202  57.782  76.299  1.00  0.00     0.100 A 
ATOM      3  C   UNL     1      14.382  57.972  77.020  1.00  0.00     0.197 A 
ATOM      4  O   UNL     1      15.005  56.955  77.419  1.00  0.00    -0.289 OA
ATOM      5  C   UNL     1      14.822  59.285  77.316  1.00  0.00     0.107 A 
ATOM      6  C   UNL     1      16.029  59.601  78.009  1.00  0.00     0.134 A 
ATOM      7  C   UNL     1      16.302  60.932  78.346  1.00  0.00     0.093 A 
ATOM      8  C   UNL     1      15.446  61.963  77.963  1.00  0.00     0.123 A 
ATOM      9  C   UNL     1      14.290  61.671  77.238  1.00  0.00     0.094 A 
ATOM     10  C   UNL     1      13.971  60.350  76.916  1.00  0.00     0.146 A 
ATOM     11  O   UNL     1      12.854  60.114  76.237  1.00  0.00    -0.456 OA
ENDROOT
BRANCH   1  12
ATOM     12  C   UNL     1      11.186  58.749  75.130  1.00  0.00     0.021 A 
ATOM     13  C   UNL     1      11.244  58.491  73.749  1.00  0.00     0.016 A 
ATOM     14  C   UNL     1      10.071  58.344  73.004  1.00  0.00     0.051 A 
ATOM     15  C   UNL     1       8.820  58.442  73.626  1.00  0.00     0.157 A 
ATOM     16  C   UNL     1       9.924  58.833  75.752  1.00  0.00     0.062 A 
ATOM     17  C   UNL     1       8.748  58.684  75.008  1.00  0.00     0.158 A 
BRANCH  15  18
ATOM     18  O   UNL     1       7.652  58.296  72.880  1.00  0.00    -0.504 OA
ATOM     19  H   UNL     1       7.093  57.452  72.930  1.00  0.00     0.293 HD
ENDBRANCH  15  18
BRANCH  17  20
ATOM     20  O   UNL     1       7.519  58.775  75.660  1.00  0.00    -0.504 OA
ATOM     21  H   UNL     1       7.330  58.280  76.523  1.00  0.00     0.293 HD
ENDBRANCH  17  20
ENDBRANCH   1  12
BRANCH   6  22
ATOM     22  O   UNL     1      16.995  58.655  78.364  1.00  0.00    -0.507 OA
ATOM     23  H   UNL     1      17.385  58.548  79.288  1.00  0.00     0.293 HD
ENDBRANCH   6  22
BRANCH   8  24
ATOM     24  O   UNL     1      15.758  63.278  78.303  1.00  0.00    -0.508 OA
ATOM     25  H   UNL     1      16.273  63.499  79.148  1.00  0.00     0.293 HD
ENDBRANCH   8  24
TORSDOF 5
ENDMDL
MODEL 7
REMARK VINA RESULT:    -6.415     16.739     18.943
REMARK INTER + INTRA:          -7.805
REMARK INTER:                  -7.541
REMARK INTRA:                  -0.264
REMARK UNBOUND:                -0.265
REMARK SMILES O=c1cc(-c2ccc(O)c(O)c2)oc2cc(O)cc(O)c12
REMARK SMILES IDX 4 1 3 2 2 3 1 4 21 5 19 6 18 7 16 8 15 9 14 10 13 11 5 12
REMARK SMILES IDX 6 13 7 14 8 15 12 16 10 17 9 18 11 20 20 22 17 24
REMARK H PARENT 9 19 11 21 20 23 17 25
REMARK Flexibility Score: inf
ROOT
ATOM      1  C   UNL     1       3.163  63.693  90.150  1.00  0.00     0.138 A 
ATOM      2  C   UNL     1       3.736  64.966  90.019  1.00  0.00     0.100 A 
ATOM      3  C   UNL     1       3.037  65.972  89.351  1.00  0.00     0.197 A 
ATOM      4  O   UNL     1       3.550  67.120  89.305  1.00  0.00    -0.289 OA
ATOM      5  C   UNL     1       1.771  65.692  88.785  1.00  0.00     0.107 A 
ATOM      6  C   UNL     1       0.986  66.628  88.047  1.00  0.00     0.134 A 
ATOM      7  C   UNL     1      -0.304  66.272  87.634  1.00  0.00     0.093 A 
ATOM      8  C   UNL     1      -0.813  64.997  87.877  1.00  0.00     0.123 A 
ATOM      9  C   UNL     1      -0.033  64.056  88.551  1.00  0.00     0.094 A 
ATOM     10  C   UNL     1       1.244  64.392  89.006  1.00  0.00     0.146 A 
ATOM     11  O   UNL     1       1.949  63.471  89.656  1.00  0.00    -0.456 OA
ENDROOT
BRANCH   1  12
ATOM     12  C   UNL     1       3.863  62.586  90.849  1.00  0.00     0.021 A 
ATOM     13  C   UNL     1       3.703  62.434  92.237  1.00  0.00     0.016 A 
ATOM     14  C   UNL     1       4.344  61.395  92.916  1.00  0.00     0.051 A 
ATOM     15  C   UNL     1       5.149  60.485  92.220  1.00  0.00     0.157 A 
ATOM     16  C   UNL     1       4.663  61.658  90.152  1.00  0.00     0.062 A 
ATOM     17  C   UNL     1       5.306  60.617  90.831  1.00  0.00     0.158 A 
BRANCH  15  18
ATOM     18  O   UNL     1       5.789  59.451  92.902  1.00  0.00    -0.504 OA
ATOM     19  H   UNL     1       5.605  58.478  92.685  1.00  0.00     0.293 HD
ENDBRANCH  15  18
BRANCH  17  20
ATOM     20  O   UNL     1       6.091  59.720  90.107  1.00  0.00    -0.504 OA
ATOM     21  H   UNL     1       5.956  59.567  89.114  1.00  0.00     0.293 HD
ENDBRANCH  17  20
ENDBRANCH   1  12
BRANCH   6  22
ATOM     22  O   UNL     1       1.432  67.900  87.675  1.00  0.00    -0.507 OA
ATOM     23  H   UNL     1       2.112  68.444  88.184  1.00  0.00     0.293 HD
ENDBRANCH   6  22
BRANCH   8  24
ATOM     24  O   UNL     1      -2.095  64.674  87.437  1.00  0.00    -0.508 OA
ATOM     25  H   UNL     1      -2.486  65.083  86.597  1.00  0.00     0.293 HD
ENDBRANCH   8  24
TORSDOF 5
ENDMDL
MODEL 8
REMARK VINA RESULT:    -6.363      1.888      6.764
REMARK INTER + INTRA:          -7.745
REMARK INTER:                  -7.442
REMARK INTRA:                  -0.302
REMARK UNBOUND:                -0.265
REMARK SMILES O=c1cc(-c2ccc(O)c(O)c2)oc2cc(O)cc(O)c12
REMARK SMILES IDX 4 1 3 2 2 3 1 4 21 5 19 6 18 7 16 8 15 9 14 10 13 11 5 12
REMARK SMILES IDX 6 13 7 14 8 15 12 16 10 17 9 18 11 20 20 22 17 24
REMARK H PARENT 9 19 11 21 20 23 17 25
REMARK Flexibility Score: inf
ROOT
ATOM      1  C   UNL     1      12.667  58.841  75.733  1.00  0.00     0.138 A 
ATOM      2  C   UNL     1      12.826  60.231  75.650  1.00  0.00     0.100 A 
ATOM      3  C   UNL     1      11.869  60.997  74.983  1.00  0.00     0.197 A 
ATOM      4  O   UNL     1      12.006  62.247  74.980  1.00  0.00    -0.289 OA
ATOM      5  C   UNL     1      10.762  60.362  74.370  1.00  0.00     0.107 A 
ATOM      6  C   UNL     1       9.746  61.037  73.629  1.00  0.00     0.134 A 
ATOM      7  C   UNL     1       8.638  60.317  73.166  1.00  0.00     0.093 A 
ATOM      8  C   UNL     1       8.537  58.941  73.363  1.00  0.00     0.123 A 
ATOM      9  C   UNL     1       9.551  58.262  74.040  1.00  0.00     0.094 A 
ATOM     10  C   UNL     1      10.653  58.956  74.544  1.00  0.00     0.146 A 
ATOM     11  O   UNL     1      11.590  58.275  75.195  1.00  0.00    -0.456 OA
ENDROOT
BRANCH   1  12
ATOM     12  C   UNL     1      13.654  57.978  76.429  1.00  0.00     0.021 A 
ATOM     13  C   UNL     1      15.017  58.317  76.391  1.00  0.00     0.016 A 
ATOM     14  C   UNL     1      15.965  57.526  77.045  1.00  0.00     0.051 A 
ATOM     15  C   UNL     1      15.567  56.387  77.755  1.00  0.00     0.157 A 
ATOM     16  C   UNL     1      13.259  56.838  77.156  1.00  0.00     0.062 A 
ATOM     17  C   UNL     1      14.207  56.044  77.813  1.00  0.00     0.158 A 
BRANCH  15  18
ATOM     18  O   UNL     1      16.516  55.598  78.404  1.00  0.00    -0.504 OA
ATOM     19  H   UNL     1      16.734  54.661  78.086  1.00  0.00     0.293 HD
ENDBRANCH  15  18
BRANCH  17  20
ATOM     20  O   UNL     1      13.776  54.922  78.521  1.00  0.00    -0.504 OA
ATOM     21  H   UNL     1      13.973  54.801  79.507  1.00  0.00     0.293 HD
ENDBRANCH  17  20
ENDBRANCH   1  12
BRANCH   6  22
ATOM     22  O   UNL     1       9.791  62.395  73.301  1.00  0.00    -0.507 OA
ATOM     23  H   UNL     1       8.982  62.986  73.181  1.00  0.00     0.293 HD
ENDBRANCH   6  22
BRANCH   8  24
ATOM     24  O   UNL     1       7.427  58.256  72.875  1.00  0.00    -0.508 OA
ATOM     25  H   UNL     1       7.438  57.806  71.967  1.00  0.00     0.293 HD
ENDBRANCH   8  24
TORSDOF 5
ENDMDL
MODEL 9
REMARK VINA RESULT:    -6.018      4.639      6.978
REMARK INTER + INTRA:          -7.339
REMARK INTER:                  -7.023
REMARK INTRA:                  -0.316
REMARK UNBOUND:                -0.265
REMARK SMILES O=c1cc(-c2ccc(O)c(O)c2)oc2cc(O)cc(O)c12
REMARK SMILES IDX 4 1 3 2 2 3 1 4 21 5 19 6 18 7 16 8 15 9 14 10 13 11 5 12
REMARK SMILES IDX 6 13 7 14 8 15 12 16 10 17 9 18 11 20 20 22 17 24
REMARK H PARENT 9 19 11 21 20 23 17 25
REMARK Flexibility Score: inf
ROOT
ATOM      1  C   UNL     1       7.243  61.038  77.829  1.00  0.00     0.138 A 
ATOM      2  C   UNL     1       8.406  61.396  78.524  1.00  0.00     0.100 A 
ATOM      3  C   UNL     1       9.638  60.875  78.123  1.00  0.00     0.197 A 
ATOM      4  O   UNL     1      10.671  61.264  78.726  1.00  0.00    -0.289 OA
ATOM      5  C   UNL     1       9.697  59.967  77.039  1.00  0.00     0.107 A 
ATOM      6  C   UNL     1      10.891  59.342  76.568  1.00  0.00     0.134 A 
ATOM      7  C   UNL     1      10.845  58.551  75.413  1.00  0.00     0.093 A 
ATOM      8  C   UNL     1       9.643  58.314  74.749  1.00  0.00     0.123 A 
ATOM      9  C   UNL     1       8.461  58.877  75.232  1.00  0.00     0.094 A 
ATOM     10  C   UNL     1       8.479  59.698  76.361  1.00  0.00     0.146 A 
ATOM     11  O   UNL     1       7.334  60.226  76.780  1.00  0.00    -0.456 OA
ENDROOT
BRANCH   1  12
ATOM     12  C   UNL     1       5.907  61.561  78.214  1.00  0.00     0.021 A 
ATOM     13  C   UNL     1       5.817  62.619  79.134  1.00  0.00     0.016 A 
ATOM     14  C   UNL     1       4.573  63.133  79.506  1.00  0.00     0.051 A 
ATOM     15  C   UNL     1       3.397  62.606  78.958  1.00  0.00     0.157 A 
ATOM     16  C   UNL     1       4.721  61.044  77.656  1.00  0.00     0.062 A 
ATOM     17  C   UNL     1       3.473  61.558  78.026  1.00  0.00     0.158 A 
BRANCH  15  18
ATOM     18  O   UNL     1       2.157  63.121  79.333  1.00  0.00    -0.504 OA
ATOM     19  H   UNL     1       2.012  63.549  80.239  1.00  0.00     0.293 HD
ENDBRANCH  15  18
BRANCH  17  20
ATOM     20  O   UNL     1       2.322  61.019  77.453  1.00  0.00    -0.504 OA
ATOM     21  H   UNL     1       2.356  60.239  76.808  1.00  0.00     0.293 HD
ENDBRANCH  17  20
ENDBRANCH   1  12
BRANCH   6  22
ATOM     22  O   UNL     1      12.130  59.444  77.206  1.00  0.00    -0.507 OA
ATOM     23  H   UNL     1      12.924  59.954  76.848  1.00  0.00     0.293 HD
ENDBRANCH   6  22
BRANCH   8  24
ATOM     24  O   UNL     1       9.634  57.509  73.611  1.00  0.00    -0.508 OA
ATOM     25  H   UNL     1      10.444  56.960  73.344  1.00  0.00     0.293 HD
ENDBRANCH   8  24
TORSDOF 5
ENDMDL
