MODEL 1
REMARK VINA RESULT:    -4.750      0.000      0.000
REMARK INTER + INTRA:          -7.144
REMARK INTER:                  -6.972
REMARK INTRA:                  -0.172
REMARK UNBOUND:                -0.172
REMARK SMILES O=C([O-])CCCCCCCC(=O)[O-]
REMARK SMILES IDX 7 1 6 2 5 3 4 4 2 5 1 6 3 7 8 8 9 9 10 10 11 11 12 12 13 13
REMARK H PARENT
REMARK Flexibility Score: inf
ROOT
ATOM      1  C   UNL     1      11.465 -60.054 -20.508  1.00  0.00     0.000 C 
ENDROOT
BRANCH   1   2
ATOM      2  C   UNL     1      10.186 -59.312 -20.929  1.00  0.00     0.000 C 
BRANCH   2   3
ATOM      3  C   UNL     1      10.419 -58.355 -22.111  1.00  0.00     0.006 C 
BRANCH   3   4
ATOM      4  C   UNL     1       9.735 -56.997 -21.900  1.00  0.00     0.053 C 
BRANCH   4   5
ATOM      5  C   UNL     1       9.992 -56.060 -23.040  1.00  0.00     0.041 C 
ATOM      6  O   UNL     1      11.125 -55.529 -23.180  1.00  0.00    -0.550 OA
ATOM      7  O   UNL     1       8.972 -55.749 -23.930  1.00  0.00    -0.550 OA
ENDBRANCH   4   5
ENDBRANCH   3   4
ENDBRANCH   2   3
ENDBRANCH   1   2
BRANCH   1   8
ATOM      8  C   UNL     1      11.475 -60.420 -19.017  1.00  0.00     0.000 C 
BRANCH   8   9
ATOM      9  C   UNL     1      12.894 -60.778 -18.549  1.00  0.00     0.006 C 
BRANCH   9  10
ATOM     10  C   UNL     1      13.043 -60.690 -17.025  1.00  0.00     0.053 C 
BRANCH  10  11
ATOM     11  C   UNL     1      14.298 -59.972 -16.632  1.00  0.00     0.041 C 
ATOM     12  O   UNL     1      14.871 -59.202 -17.447  1.00  0.00    -0.550 OA
ATOM     13  O   UNL     1      14.818 -60.132 -15.354  1.00  0.00    -0.550 OA
ENDBRANCH  10  11
ENDBRANCH   9  10
ENDBRANCH   8   9
ENDBRANCH   1   8
TORSDOF 8
ENDMDL
MODEL 2
REMARK VINA RESULT:    -4.680     16.555     17.701
REMARK INTER + INTRA:          -7.041
REMARK INTER:                  -6.726
REMARK INTRA:                  -0.315
REMARK UNBOUND:                -0.172
REMARK SMILES O=C([O-])CCCCCCCC(=O)[O-]
REMARK SMILES IDX 7 1 6 2 5 3 4 4 2 5 1 6 3 7 8 8 9 9 10 10 11 11 12 12 13 13
REMARK H PARENT
REMARK Flexibility Score: inf
ROOT
ATOM      1  C   UNL     1      20.317 -49.578 -33.256  1.00  0.00     0.000 C 
ENDROOT
BRANCH   1   2
ATOM      2  C   UNL     1      19.954 -50.750 -32.330  1.00  0.00     0.000 C 
BRANCH   2   3
ATOM      3  C   UNL     1      21.037 -51.843 -32.305  1.00  0.00     0.006 C 
BRANCH   3   4
ATOM      4  C   UNL     1      21.247 -52.481 -33.685  1.00  0.00     0.053 C 
BRANCH   4   5
ATOM      5  C   UNL     1      20.753 -53.894 -33.728  1.00  0.00     0.041 C 
ATOM      6  O   UNL     1      21.536 -54.830 -34.040  1.00  0.00    -0.550 OA
ATOM      7  O   UNL     1      19.420 -54.175 -33.454  1.00  0.00    -0.550 OA
ENDBRANCH   4   5
ENDBRANCH   3   4
ENDBRANCH   2   3
ENDBRANCH   1   2
BRANCH   1   8
ATOM      8  C   UNL     1      19.874 -48.220 -32.695  1.00  0.00     0.000 C 
BRANCH   8   9
ATOM      9  C   UNL     1      19.079 -48.396 -31.393  1.00  0.00     0.006 C 
BRANCH   9  10
ATOM     10  C   UNL     1      18.941 -47.082 -30.613  1.00  0.00     0.053 C 
BRANCH  10  11
ATOM     11  C   UNL     1      17.635 -47.006 -29.882  1.00  0.00     0.041 C 
ATOM     12  O   UNL     1      16.936 -48.041 -29.722  1.00  0.00    -0.550 OA
ATOM     13  O   UNL     1      17.206 -45.797 -29.351  1.00  0.00    -0.550 OA
ENDBRANCH  10  11
ENDBRANCH   9  10
ENDBRANCH   8   9
ENDBRANCH   1   8
TORSDOF 8
ENDMDL
MODEL 3
REMARK VINA RESULT:    -4.666      0.132      7.244
REMARK INTER + INTRA:          -7.021
REMARK INTER:                  -6.850
REMARK INTRA:                  -0.170
REMARK UNBOUND:                -0.172
REMARK SMILES O=C([O-])CCCCCCCC(=O)[O-]
REMARK SMILES IDX 7 1 6 2 5 3 4 4 2 5 1 6 3 7 8 8 9 9 10 10 11 11 12 12 13 13
REMARK H PARENT
REMARK Flexibility Score: inf
ROOT
ATOM      1  C   UNL     1      11.448 -60.096 -20.523  1.00  0.00     0.000 C 
ENDROOT
BRANCH   1   2
ATOM      2  C   UNL     1      11.462 -60.438 -19.024  1.00  0.00     0.000 C 
BRANCH   2   3
ATOM      3  C   UNL     1      12.878 -60.727 -18.496  1.00  0.00     0.006 C 
BRANCH   3   4
ATOM      4  C   UNL     1      12.947 -60.677 -16.964  1.00  0.00     0.053 C 
BRANCH   4   5
ATOM      5  C   UNL     1      14.196 -60.004 -16.483  1.00  0.00     0.041 C 
ATOM      6  O   UNL     1      14.837 -59.237 -17.249  1.00  0.00    -0.550 OA
ATOM      7  O   UNL     1      14.669 -60.249 -15.200  1.00  0.00    -0.550 OA
ENDBRANCH   4   5
ENDBRANCH   3   4
ENDBRANCH   2   3
ENDBRANCH   1   2
BRANCH   1   8
ATOM      8  C   UNL     1      10.180 -59.340 -20.947  1.00  0.00     0.000 C 
BRANCH   8   9
ATOM      9  C   UNL     1      10.485 -58.352 -22.082  1.00  0.00     0.006 C 
BRANCH   9  10
ATOM     10  C   UNL     1       9.781 -57.003 -21.883  1.00  0.00     0.053 C 
BRANCH  10  11
ATOM     11  C   UNL     1      10.018 -56.078 -23.038  1.00  0.00     0.041 C 
ATOM     12  O   UNL     1       9.067 -55.751 -23.796  1.00  0.00    -0.550 OA
ATOM     13  O   UNL     1      11.286 -55.554 -23.259  1.00  0.00    -0.550 OA
ENDBRANCH  10  11
ENDBRANCH   9  10
ENDBRANCH   8   9
ENDBRANCH   1   8
TORSDOF 8
ENDMDL
MODEL 4
REMARK VINA RESULT:    -4.662     14.670     17.031
REMARK INTER + INTRA:          -7.015
REMARK INTER:                  -6.240
REMARK INTRA:                  -0.775
REMARK UNBOUND:                -0.172
REMARK SMILES O=C([O-])CCCCCCCC(=O)[O-]
REMARK SMILES IDX 7 1 6 2 5 3 4 4 2 5 1 6 3 7 8 8 9 9 10 10 11 11 12 12 13 13
REMARK H PARENT
REMARK Flexibility Score: inf
ROOT
ATOM      1  C   UNL     1      19.412 -43.191 -24.701  1.00  0.00     0.000 C 
ENDROOT
BRANCH   1   2
ATOM      2  C   UNL     1      19.115 -41.693 -24.531  1.00  0.00     0.000 C 
BRANCH   2   3
ATOM      3  C   UNL     1      17.647 -41.418 -24.163  1.00  0.00     0.006 C 
BRANCH   3   4
ATOM      4  C   UNL     1      17.393 -41.548 -22.656  1.00  0.00     0.053 C 
BRANCH   4   5
ATOM      5  C   UNL     1      15.936 -41.714 -22.347  1.00  0.00     0.041 C 
ATOM      6  O   UNL     1      15.517 -41.561 -21.170  1.00  0.00    -0.550 OA
ATOM      7  O   UNL     1      15.047 -42.068 -23.354  1.00  0.00    -0.550 OA
ENDBRANCH   4   5
ENDBRANCH   3   4
ENDBRANCH   2   3
ENDBRANCH   1   2
BRANCH   1   8
ATOM      8  C   UNL     1      18.253 -43.955 -25.357  1.00  0.00     0.000 C 
BRANCH   8   9
ATOM      9  C   UNL     1      17.993 -45.285 -24.634  1.00  0.00     0.006 C 
BRANCH   9  10
ATOM     10  C   UNL     1      16.899 -45.162 -23.565  1.00  0.00     0.053 C 
BRANCH  10  11
ATOM     11  C   UNL     1      17.406 -45.543 -22.208  1.00  0.00     0.041 C 
ATOM     12  O   UNL     1      16.961 -46.569 -21.629  1.00  0.00    -0.550 OA
ATOM     13  O   UNL     1      18.393 -44.781 -21.596  1.00  0.00    -0.550 OA
ENDBRANCH  10  11
ENDBRANCH   9  10
ENDBRANCH   8   9
ENDBRANCH   1   8
TORSDOF 8
ENDMDL
MODEL 5
REMARK VINA RESULT:    -4.610     14.356     17.266
REMARK INTER + INTRA:          -6.938
REMARK INTER:                  -6.281
REMARK INTRA:                  -0.657
REMARK UNBOUND:                -0.172
REMARK SMILES O=C([O-])CCCCCCCC(=O)[O-]
REMARK SMILES IDX 7 1 6 2 5 3 4 4 2 5 1 6 3 7 8 8 9 9 10 10 11 11 12 12 13 13
REMARK H PARENT
REMARK Flexibility Score: inf
ROOT
ATOM      1  C   UNL     1      19.074 -43.390 -24.087  1.00  0.00     0.000 C 
ENDROOT
BRANCH   1   2
ATOM      2  C   UNL     1      18.483 -44.264 -25.204  1.00  0.00     0.000 C 
BRANCH   2   3
ATOM      3  C   UNL     1      17.684 -45.461 -24.660  1.00  0.00     0.006 C 
BRANCH   3   4
ATOM      4  C   UNL     1      16.885 -45.099 -23.401  1.00  0.00     0.053 C 
BRANCH   4   5
ATOM      5  C   UNL     1      17.104 -46.088 -22.297  1.00  0.00     0.041 C 
ATOM      6  O   UNL     1      18.152 -46.037 -21.600  1.00  0.00    -0.550 OA
ATOM      7  O   UNL     1      16.166 -47.085 -22.058  1.00  0.00    -0.550 OA
ENDBRANCH   4   5
ENDBRANCH   3   4
ENDBRANCH   2   3
ENDBRANCH   1   2
BRANCH   1   8
ATOM      8  C   UNL     1      19.030 -41.892 -24.421  1.00  0.00     0.000 C 
BRANCH   8   9
ATOM      9  C   UNL     1      17.660 -41.291 -24.071  1.00  0.00     0.006 C 
BRANCH   9  10
ATOM     10  C   UNL     1      17.333 -41.419 -22.577  1.00  0.00     0.053 C 
BRANCH  10  11
ATOM     11  C   UNL     1      15.877 -41.691 -22.351  1.00  0.00     0.041 C 
ATOM     12  O   UNL     1      15.385 -41.588 -21.197  1.00  0.00    -0.550 OA
ATOM     13  O   UNL     1      15.059 -42.029 -23.421  1.00  0.00    -0.550 OA
ENDBRANCH  10  11
ENDBRANCH   9  10
ENDBRANCH   8   9
ENDBRANCH   1   8
TORSDOF 8
ENDMDL
MODEL 6
REMARK VINA RESULT:    -4.605     16.704     17.371
REMARK INTER + INTRA:          -6.931
REMARK INTER:                  -6.769
REMARK INTRA:                  -0.161
REMARK UNBOUND:                -0.172
REMARK SMILES O=C([O-])CCCCCCCC(=O)[O-]
REMARK SMILES IDX 7 1 6 2 5 3 4 4 2 5 1 6 3 7 8 8 9 9 10 10 11 11 12 12 13 13
REMARK H PARENT
REMARK Flexibility Score: inf
ROOT
ATOM      1  C   UNL     1      20.255 -49.163 -31.909  1.00  0.00     0.000 C 
ENDROOT
BRANCH   1   2
ATOM      2  C   UNL     1      18.861 -48.784 -31.383  1.00  0.00     0.000 C 
BRANCH   2   3
ATOM      3  C   UNL     1      18.844 -47.414 -30.684  1.00  0.00     0.006 C 
BRANCH   3   4
ATOM      4  C   UNL     1      17.563 -47.196 -29.868  1.00  0.00     0.053 C 
BRANCH   4   5
ATOM      5  C   UNL     1      17.394 -45.762 -29.467  1.00  0.00     0.041 C 
ATOM      6  O   UNL     1      17.186 -45.462 -28.262  1.00  0.00    -0.550 OA
ATOM      7  O   UNL     1      17.435 -44.761 -30.429  1.00  0.00    -0.550 OA
ENDBRANCH   4   5
ENDBRANCH   3   4
ENDBRANCH   2   3
ENDBRANCH   1   2
BRANCH   1   8
ATOM      8  C   UNL     1      20.201 -50.202 -33.037  1.00  0.00     0.000 C 
BRANCH   8   9
ATOM      9  C   UNL     1      20.631 -51.587 -32.529  1.00  0.00     0.006 C 
BRANCH   9  10
ATOM     10  C   UNL     1      21.235 -52.453 -33.643  1.00  0.00     0.053 C 
BRANCH  10  11
ATOM     11  C   UNL     1      20.650 -53.832 -33.650  1.00  0.00     0.041 C 
ATOM     12  O   UNL     1      19.455 -54.017 -33.300  1.00  0.00    -0.550 OA
ATOM     13  O   UNL     1      21.418 -54.910 -34.072  1.00  0.00    -0.550 OA
ENDBRANCH  10  11
ENDBRANCH   9  10
ENDBRANCH   8   9
ENDBRANCH   1   8
TORSDOF 8
ENDMDL
MODEL 7
REMARK VINA RESULT:    -4.587     13.841     16.224
REMARK INTER + INTRA:          -6.904
REMARK INTER:                  -6.328
REMARK INTRA:                  -0.576
REMARK UNBOUND:                -0.172
REMARK SMILES O=C([O-])CCCCCCCC(=O)[O-]
REMARK SMILES IDX 7 1 6 2 5 3 4 4 2 5 1 6 3 7 8 8 9 9 10 10 11 11 12 12 13 13
REMARK H PARENT
REMARK Flexibility Score: inf
ROOT
ATOM      1  C   UNL     1      18.149 -43.875 -25.328  1.00  0.00     0.000 C 
ENDROOT
BRANCH   1   2
ATOM      2  C   UNL     1      18.591 -42.844 -24.277  1.00  0.00     0.000 C 
BRANCH   2   3
ATOM      3  C   UNL     1      17.625 -41.652 -24.173  1.00  0.00     0.006 C 
BRANCH   3   4
ATOM      4  C   UNL     1      17.252 -41.333 -22.719  1.00  0.00     0.053 C 
BRANCH   4   5
ATOM      5  C   UNL     1      15.824 -41.670 -22.422  1.00  0.00     0.041 C 
ATOM      6  O   UNL     1      15.397 -41.633 -21.238  1.00  0.00    -0.550 OA
ATOM      7  O   UNL     1      14.971 -42.056 -23.449  1.00  0.00    -0.550 OA
ENDBRANCH   4   5
ENDBRANCH   3   4
ENDBRANCH   2   3
ENDBRANCH   1   2
BRANCH   1   8
ATOM      8  C   UNL     1      18.079 -45.302 -24.768  1.00  0.00     0.000 C 
BRANCH   8   9
ATOM      9  C   UNL     1      17.965 -45.286 -23.236  1.00  0.00     0.006 C 
BRANCH   9  10
ATOM     10  C   UNL     1      16.577 -45.725 -22.751  1.00  0.00     0.053 C 
BRANCH  10  11
ATOM     11  C   UNL     1      16.624 -47.062 -22.075  1.00  0.00     0.041 C 
ATOM     12  O   UNL     1      17.731 -47.586 -21.782  1.00  0.00    -0.550 OA
ATOM     13  O   UNL     1      15.444 -47.713 -21.741  1.00  0.00    -0.550 OA
ENDBRANCH  10  11
ENDBRANCH   9  10
ENDBRANCH   8   9
ENDBRANCH   1   8
TORSDOF 8
ENDMDL
MODEL 8
REMARK VINA RESULT:    -4.581     14.291     16.875
REMARK INTER + INTRA:          -6.896
REMARK INTER:                  -6.357
REMARK INTRA:                  -0.538
REMARK UNBOUND:                -0.172
REMARK SMILES O=C([O-])CCCCCCCC(=O)[O-]
REMARK SMILES IDX 7 1 6 2 5 3 4 4 2 5 1 6 3 7 8 8 9 9 10 10 11 11 12 12 13 13
REMARK H PARENT
REMARK Flexibility Score: inf
ROOT
ATOM      1  C   UNL     1      17.554 -42.293 -24.257  1.00  0.00     0.000 C 
ENDROOT
BRANCH   1   2
ATOM      2  C   UNL     1      18.057 -43.502 -23.452  1.00  0.00     0.000 C 
BRANCH   2   3
ATOM      3  C   UNL     1      17.379 -44.818 -23.874  1.00  0.00     0.006 C 
BRANCH   3   4
ATOM      4  C   UNL     1      16.350 -45.296 -22.842  1.00  0.00     0.053 C 
BRANCH   4   5
ATOM      5  C   UNL     1      16.814 -46.523 -22.119  1.00  0.00     0.041 C 
ATOM      6  O   UNL     1      18.000 -46.602 -21.702  1.00  0.00    -0.550 OA
ATOM      7  O   UNL     1      15.946 -47.591 -21.931  1.00  0.00    -0.550 OA
ENDBRANCH   4   5
ENDBRANCH   3   4
ENDBRANCH   2   3
ENDBRANCH   1   2
BRANCH   1   8
ATOM      8  C   UNL     1      16.342 -41.610 -23.606  1.00  0.00     0.000 C 
BRANCH   8   9
ATOM      9  C   UNL     1      16.681 -41.126 -22.189  1.00  0.00     0.006 C 
BRANCH   9  10
ATOM     10  C   UNL     1      15.701 -41.668 -21.139  1.00  0.00     0.053 C 
BRANCH  10  11
ATOM     11  C   UNL     1      16.328 -41.738 -19.780  1.00  0.00     0.041 C 
ATOM     12  O   UNL     1      15.605 -41.788 -18.750  1.00  0.00    -0.550 OA
ATOM     13  O   UNL     1      17.710 -41.779 -19.654  1.00  0.00    -0.550 OA
ENDBRANCH  10  11
ENDBRANCH   9  10
ENDBRANCH   8   9
ENDBRANCH   1   8
TORSDOF 8
ENDMDL
MODEL 9
REMARK VINA RESULT:    -4.379     14.188     16.536
REMARK INTER + INTRA:          -6.600
REMARK INTER:                  -5.942
REMARK INTRA:                  -0.658
REMARK UNBOUND:                -0.172
REMARK SMILES O=C([O-])CCCCCCCC(=O)[O-]
REMARK SMILES IDX 7 1 6 2 5 3 4 4 2 5 1 6 3 7 8 8 9 9 10 10 11 11 12 12 13 13
REMARK H PARENT
REMARK Flexibility Score: inf
ROOT
ATOM      1  C   UNL     1      15.803 -43.527 -23.081  1.00  0.00     0.000 C 
ENDROOT
BRANCH   1   2
ATOM      2  C   UNL     1      15.358 -42.070 -22.874  1.00  0.00     0.000 C 
BRANCH   2   3
ATOM      3  C   UNL     1      16.385 -41.245 -22.080  1.00  0.00     0.006 C 
BRANCH   3   4
ATOM      4  C   UNL     1      16.416 -41.631 -20.596  1.00  0.00     0.053 C 
BRANCH   4   5
ATOM      5  C   UNL     1      17.813 -41.668 -20.058  1.00  0.00     0.041 C 
ATOM      6  O   UNL     1      18.068 -41.187 -18.923  1.00  0.00    -0.550 OA
ATOM      7  O   UNL     1      18.840 -42.206 -20.824  1.00  0.00    -0.550 OA
ENDBRANCH   4   5
ENDBRANCH   3   4
ENDBRANCH   2   3
ENDBRANCH   1   2
BRANCH   1   8
ATOM      8  C   UNL     1      17.226 -43.638 -23.646  1.00  0.00     0.000 C 
BRANCH   8   9
ATOM      9  C   UNL     1      17.823 -45.025 -23.362  1.00  0.00     0.006 C 
BRANCH   9  10
ATOM     10  C   UNL     1      17.503 -45.516 -21.944  1.00  0.00     0.053 C 
BRANCH  10  11
ATOM     11  C   UNL     1      17.154 -46.973 -21.929  1.00  0.00     0.041 C 
ATOM     12  O   UNL     1      18.052 -47.840 -21.767  1.00  0.00    -0.550 OA
ATOM     13  O   UNL     1      15.830 -47.371 -22.062  1.00  0.00    -0.550 OA
ENDBRANCH  10  11
ENDBRANCH   9  10
ENDBRANCH   8   9
ENDBRANCH   1   8
TORSDOF 8
ENDMDL
