MODEL 1
REMARK VINA RESULT:    -4.897      0.000      0.000
REMARK INTER + INTRA:          -6.778
REMARK INTER:                  -6.328
REMARK INTRA:                  -0.449
REMARK UNBOUND:                -0.449
REMARK SMILES C=CC(=O)CCCCC
REMARK SMILES IDX 6 1 7 2 8 3 9 4 5 5 3 6 4 7 2 8 1 9
REMARK H PARENT
REMARK Flexibility Score: inf
ROOT
ATOM      1  C   UNL     1       1.890  30.910  32.945  1.00  0.00     0.008 C 
ENDROOT
BRANCH   1   2
ATOM      2  C   UNL     1       2.309  30.763  31.470  1.00  0.00     0.000 C 
BRANCH   2   3
ATOM      3  C   UNL     1       1.303  29.951  30.643  1.00  0.00    -0.003 C 
ATOM      4  C   UNL     1      -0.104  30.065  31.224  1.00  0.00     0.004 C 
ENDBRANCH   2   3
ENDBRANCH   1   2
BRANCH   1   5
ATOM      5  C   UNL     1       2.652  29.982  33.910  1.00  0.00     0.080 C 
BRANCH   5   6
ATOM      6  C   UNL     1       2.176  28.547  33.870  1.00  0.00     0.155 C 
ATOM      7  O   UNL     1       2.798  27.705  33.166  1.00  0.00    -0.295 OA
BRANCH   6   8
ATOM      8  C   UNL     1       1.034  28.068  34.676  1.00  0.00     0.039 C 
ATOM      9  C   UNL     1      -0.164  28.652  34.682  1.00  0.00     0.012 C 
ENDBRANCH   6   8
ENDBRANCH   5   6
ENDBRANCH   1   5
TORSDOF 5
ENDMDL
MODEL 2
REMARK VINA RESULT:    -4.741      1.829      3.068
REMARK INTER + INTRA:          -6.576
REMARK INTER:                  -6.085
REMARK INTRA:                  -0.491
REMARK UNBOUND:                -0.449
REMARK SMILES C=CC(=O)CCCCC
REMARK SMILES IDX 6 1 7 2 8 3 9 4 5 5 3 6 4 7 2 8 1 9
REMARK H PARENT
REMARK Flexibility Score: inf
ROOT
ATOM      1  C   UNL     1       0.751  30.192  33.873  1.00  0.00     0.008 C 
ENDROOT
BRANCH   1   2
ATOM      2  C   UNL     1       0.155  28.935  34.534  1.00  0.00     0.000 C 
BRANCH   2   3
ATOM      3  C   UNL     1      -0.217  27.847  33.517  1.00  0.00    -0.003 C 
ATOM      4  C   UNL     1      -0.635  28.462  32.184  1.00  0.00     0.004 C 
ENDBRANCH   2   3
ENDBRANCH   1   2
BRANCH   1   5
ATOM      5  C   UNL     1       2.287  30.174  33.760  1.00  0.00     0.080 C 
BRANCH   5   6
ATOM      6  C   UNL     1       2.788  29.641  32.436  1.00  0.00     0.155 C 
ATOM      7  O   UNL     1       2.857  30.412  31.441  1.00  0.00    -0.295 OA
BRANCH   6   8
ATOM      8  C   UNL     1       3.265  28.252  32.270  1.00  0.00     0.039 C 
ATOM      9  C   UNL     1       4.030  27.621  33.160  1.00  0.00     0.012 C 
ENDBRANCH   6   8
ENDBRANCH   5   6
ENDBRANCH   1   5
TORSDOF 5
ENDMDL
MODEL 3
REMARK VINA RESULT:    -4.698      1.258      3.236
REMARK INTER + INTRA:          -6.521
REMARK INTER:                  -5.933
REMARK INTRA:                  -0.588
REMARK UNBOUND:                -0.449
REMARK SMILES C=CC(=O)CCCCC
REMARK SMILES IDX 6 1 7 2 8 3 9 4 5 5 3 6 4 7 2 8 1 9
REMARK H PARENT
REMARK Flexibility Score: inf
ROOT
ATOM      1  C   UNL     1       1.668  30.634  33.511  1.00  0.00     0.008 C 
ENDROOT
BRANCH   1   2
ATOM      2  C   UNL     1       2.362  29.412  34.141  1.00  0.00     0.000 C 
BRANCH   2   3
ATOM      3  C   UNL     1       1.375  28.309  34.547  1.00  0.00    -0.003 C 
ATOM      4  C   UNL     1      -0.056  28.839  34.579  1.00  0.00     0.004 C 
ENDBRANCH   2   3
ENDBRANCH   1   2
BRANCH   1   5
ATOM      5  C   UNL     1       1.971  30.825  32.013  1.00  0.00     0.080 C 
BRANCH   5   6
ATOM      6  C   UNL     1       1.417  29.722  31.140  1.00  0.00     0.155 C 
ATOM      7  O   UNL     1       2.208  28.917  30.578  1.00  0.00    -0.295 OA
BRANCH   6   8
ATOM      8  C   UNL     1      -0.034  29.504  30.962  1.00  0.00     0.039 C 
ATOM      9  C   UNL     1      -0.602  28.298  30.923  1.00  0.00     0.012 C 
ENDBRANCH   6   8
ENDBRANCH   5   6
ENDBRANCH   1   5
TORSDOF 5
ENDMDL
MODEL 4
REMARK VINA RESULT:    -4.676      1.026      2.693
REMARK INTER + INTRA:          -6.493
REMARK INTER:                  -5.951
REMARK INTRA:                  -0.541
REMARK UNBOUND:                -0.449
REMARK SMILES C=CC(=O)CCCCC
REMARK SMILES IDX 6 1 7 2 8 3 9 4 5 5 3 6 4 7 2 8 1 9
REMARK H PARENT
REMARK Flexibility Score: inf
ROOT
ATOM      1  C   UNL     1      -0.270  28.517  34.131  1.00  0.00     0.008 C 
ENDROOT
BRANCH   1   2
ATOM      2  C   UNL     1      -0.549  27.851  32.770  1.00  0.00     0.000 C 
BRANCH   2   3
ATOM      3  C   UNL     1      -0.494  28.842  31.599  1.00  0.00    -0.003 C 
ATOM      4  C   UNL     1       0.603  28.461  30.609  1.00  0.00     0.004 C 
ENDBRANCH   2   3
ENDBRANCH   1   2
BRANCH   1   5
ATOM      5  C   UNL     1       1.086  28.133  34.751  1.00  0.00     0.080 C 
BRANCH   5   6
ATOM      6  C   UNL     1       2.275  28.649  33.971  1.00  0.00     0.155 C 
ATOM      7  O   UNL     1       2.956  27.848  33.275  1.00  0.00    -0.295 OA
BRANCH   6   8
ATOM      8  C   UNL     1       2.642  30.080  33.940  1.00  0.00     0.039 C 
ATOM      9  C   UNL     1       2.019  30.987  33.187  1.00  0.00     0.012 C 
ENDBRANCH   6   8
ENDBRANCH   5   6
ENDBRANCH   1   5
TORSDOF 5
ENDMDL
MODEL 5
REMARK VINA RESULT:    -4.628      1.803      3.631
REMARK INTER + INTRA:          -6.430
REMARK INTER:                  -5.856
REMARK INTRA:                  -0.574
REMARK UNBOUND:                -0.449
REMARK SMILES C=CC(=O)CCCCC
REMARK SMILES IDX 6 1 7 2 8 3 9 4 5 5 3 6 4 7 2 8 1 9
REMARK H PARENT
REMARK Flexibility Score: inf
ROOT
ATOM      1  C   UNL     1       1.677  30.726  33.431  1.00  0.00     0.008 C 
ENDROOT
BRANCH   1   2
ATOM      2  C   UNL     1       2.389  29.571  34.162  1.00  0.00     0.000 C 
BRANCH   2   3
ATOM      3  C   UNL     1       1.447  28.404  34.489  1.00  0.00    -0.003 C 
ATOM      4  C   UNL     1      -0.009  28.861  34.502  1.00  0.00     0.004 C 
ENDBRANCH   2   3
ENDBRANCH   1   2
BRANCH   1   5
ATOM      5  C   UNL     1       2.020  30.826  31.933  1.00  0.00     0.080 C 
BRANCH   5   6
ATOM      6  C   UNL     1       1.159  29.942  31.057  1.00  0.00     0.155 C 
ATOM      7  O   UNL     1      -0.014  30.304  30.771  1.00  0.00    -0.295 OA
BRANCH   6   8
ATOM      8  C   UNL     1       1.660  28.685  30.464  1.00  0.00     0.039 C 
ATOM      9  C   UNL     1       2.879  28.195  30.689  1.00  0.00     0.012 C 
ENDBRANCH   6   8
ENDBRANCH   5   6
ENDBRANCH   1   5
TORSDOF 5
ENDMDL
MODEL 6
REMARK VINA RESULT:    -4.613      1.687      3.580
REMARK INTER + INTRA:          -6.411
REMARK INTER:                  -5.970
REMARK INTRA:                  -0.441
REMARK UNBOUND:                -0.449
REMARK SMILES C=CC(=O)CCCCC
REMARK SMILES IDX 6 1 7 2 8 3 9 4 5 5 3 6 4 7 2 8 1 9
REMARK H PARENT
REMARK Flexibility Score: inf
ROOT
ATOM      1  C   UNL     1       1.356  28.344  34.550  1.00  0.00     0.008 C 
ENDROOT
BRANCH   1   2
ATOM      2  C   UNL     1       2.405  29.419  34.206  1.00  0.00     0.000 C 
BRANCH   2   3
ATOM      3  C   UNL     1       3.253  29.052  32.980  1.00  0.00    -0.003 C 
ATOM      4  C   UNL     1       3.938  27.701  33.171  1.00  0.00     0.004 C 
ENDBRANCH   2   3
ENDBRANCH   1   2
BRANCH   1   5
ATOM      5  C   UNL     1      -0.077  28.703  34.114  1.00  0.00     0.080 C 
BRANCH   5   6
ATOM      6  C   UNL     1      -0.339  28.459  32.644  1.00  0.00     0.155 C 
ATOM      7  O   UNL     1      -0.637  27.299  32.250  1.00  0.00    -0.295 OA
BRANCH   6   8
ATOM      8  C   UNL     1      -0.319  29.546  31.644  1.00  0.00     0.039 C 
ATOM      9  C   UNL     1       0.538  29.599  30.625  1.00  0.00     0.012 C 
ENDBRANCH   6   8
ENDBRANCH   5   6
ENDBRANCH   1   5
TORSDOF 5
ENDMDL
MODEL 7
REMARK VINA RESULT:    -4.526      1.754      2.897
REMARK INTER + INTRA:          -6.299
REMARK INTER:                  -5.938
REMARK INTRA:                  -0.361
REMARK UNBOUND:                -0.449
REMARK SMILES C=CC(=O)CCCCC
REMARK SMILES IDX 6 1 7 2 8 3 9 4 5 5 3 6 4 7 2 8 1 9
REMARK H PARENT
REMARK Flexibility Score: inf
ROOT
ATOM      1  C   UNL     1       1.447  30.324  32.299  1.00  0.00     0.008 C 
ENDROOT
BRANCH   1   2
ATOM      2  C   UNL     1       2.776  29.606  31.996  1.00  0.00     0.000 C 
BRANCH   2   3
ATOM      3  C   UNL     1       3.464  29.070  33.259  1.00  0.00    -0.003 C 
ATOM      4  C   UNL     1       3.920  27.627  33.065  1.00  0.00     0.004 C 
ENDBRANCH   2   3
ENDBRANCH   1   2
BRANCH   1   5
ATOM      5  C   UNL     1       0.196  29.544  31.852  1.00  0.00     0.080 C 
BRANCH   5   6
ATOM      6  C   UNL     1      -0.299  28.555  32.883  1.00  0.00     0.155 C 
ATOM      7  O   UNL     1      -0.893  27.508  32.506  1.00  0.00    -0.295 OA
BRANCH   6   8
ATOM      8  C   UNL     1      -0.062  28.733  34.330  1.00  0.00     0.039 C 
ATOM      9  C   UNL     1       0.803  28.001  35.034  1.00  0.00     0.012 C 
ENDBRANCH   6   8
ENDBRANCH   5   6
ENDBRANCH   1   5
TORSDOF 5
ENDMDL
MODEL 8
REMARK VINA RESULT:    -4.471      1.483      3.718
REMARK INTER + INTRA:          -6.228
REMARK INTER:                  -5.945
REMARK INTRA:                  -0.283
REMARK UNBOUND:                -0.449
REMARK SMILES C=CC(=O)CCCCC
REMARK SMILES IDX 6 1 7 2 8 3 9 4 5 5 3 6 4 7 2 8 1 9
REMARK H PARENT
REMARK Flexibility Score: inf
ROOT
ATOM      1  C   UNL     1       0.107  29.003  34.067  1.00  0.00     0.008 C 
ENDROOT
BRANCH   1   2
ATOM      2  C   UNL     1       1.539  28.642  34.508  1.00  0.00     0.000 C 
BRANCH   2   3
ATOM      3  C   UNL     1       2.604  29.545  33.872  1.00  0.00    -0.003 C 
ATOM      4  C   UNL     1       2.028  30.918  33.534  1.00  0.00     0.004 C 
ENDBRANCH   2   3
ENDBRANCH   1   2
BRANCH   1   5
ATOM      5  C   UNL     1      -0.421  28.153  32.896  1.00  0.00     0.080 C 
BRANCH   5   6
ATOM      6  C   UNL     1       0.092  28.600  31.546  1.00  0.00     0.155 C 
ATOM      7  O   UNL     1       0.717  27.783  30.816  1.00  0.00    -0.295 OA
BRANCH   6   8
ATOM      8  C   UNL     1      -0.162  29.954  31.010  1.00  0.00     0.039 C 
ATOM      9  C   UNL     1      -0.149  30.249  29.710  1.00  0.00     0.012 C 
ENDBRANCH   6   8
ENDBRANCH   5   6
ENDBRANCH   1   5
TORSDOF 5
ENDMDL
