MODEL 1
REMARK VINA RESULT:    -4.272      0.000      0.000
REMARK INTER + INTRA:          -5.045
REMARK INTER:                  -4.896
REMARK INTRA:                  -0.148
REMARK UNBOUND:                -0.148
REMARK SMILES CC=Cc1ccc(O)c(OC)c1
REMARK SMILES IDX 4 1 12 2 9 3 7 4 6 5 5 6 3 7 1 8 2 9 10 10 11 11 8 12
REMARK H PARENT 8 13
REMARK Flexibility Score: inf
ROOT
ATOM      1  C   UNL     1     166.117 167.971 168.549  1.00  0.00    -0.022 A 
ATOM      2  C   UNL     1     165.935 169.357 168.701  1.00  0.00     0.058 A 
ATOM      3  C   UNL     1     167.021 170.246 168.584  1.00  0.00     0.161 A 
ATOM      4  C   UNL     1     168.300 169.735 168.300  1.00  0.00     0.157 A 
ATOM      5  C   UNL     1     168.482 168.360 168.133  1.00  0.00     0.051 A 
ATOM      6  C   UNL     1     167.402 167.482 168.251  1.00  0.00     0.012 A 
ENDROOT
BRANCH   1   7
ATOM      7  C   UNL     1     164.935 167.082 168.673  1.00  0.00     0.003 C 
ATOM      8  C   UNL     1     163.234 165.773 169.883  1.00  0.00     0.035 C 
ATOM      9  C   UNL     1     164.439 166.658 169.841  1.00  0.00    -0.030 C 
ENDBRANCH   1   7
BRANCH   3  10
ATOM     10  O   UNL     1     166.867 171.633 168.741  1.00  0.00    -0.493 OA
ATOM     11  C   UNL     1     166.052 172.249 169.733  1.00  0.00     0.278 C 
ENDBRANCH   3  10
BRANCH   4  12
ATOM     12  O   UNL     1     169.404 170.579 168.177  1.00  0.00    -0.504 OA
ATOM     13  H   UNL     1     169.489 171.249 167.423  1.00  0.00     0.293 HD
ENDBRANCH   4  12
TORSDOF 3
ENDMDL
MODEL 2
REMARK VINA RESULT:    -4.255      3.153      5.159
REMARK INTER + INTRA:          -5.025
REMARK INTER:                  -4.877
REMARK INTRA:                  -0.148
REMARK UNBOUND:                -0.148
REMARK SMILES CC=Cc1ccc(O)c(OC)c1
REMARK SMILES IDX 4 1 12 2 9 3 7 4 6 5 5 6 3 7 1 8 2 9 10 10 11 11 8 12
REMARK H PARENT 8 13
REMARK Flexibility Score: inf
ROOT
ATOM      1  C   UNL     1     169.403 167.102 168.549  1.00  0.00    -0.022 A 
ATOM      2  C   UNL     1     168.147 167.706 168.363  1.00  0.00     0.058 A 
ATOM      3  C   UNL     1     166.982 166.927 168.223  1.00  0.00     0.161 A 
ATOM      4  C   UNL     1     167.082 165.526 168.282  1.00  0.00     0.157 A 
ATOM      5  C   UNL     1     168.325 164.922 168.482  1.00  0.00     0.051 A 
ATOM      6  C   UNL     1     169.478 165.698 168.619  1.00  0.00     0.012 A 
ENDROOT
BRANCH   1   7
ATOM      7  C   UNL     1     170.595 167.972 168.700  1.00  0.00     0.003 C 
ATOM      8  C   UNL     1     172.115 169.501 169.892  1.00  0.00     0.035 C 
ATOM      9  C   UNL     1     170.885 168.655 169.814  1.00  0.00    -0.030 C 
ENDBRANCH   1   7
BRANCH   3  10
ATOM     10  O   UNL     1     165.718 167.507 168.027  1.00  0.00    -0.493 OA
ATOM     11  C   UNL     1     165.387 168.853 168.351  1.00  0.00     0.278 C 
ENDBRANCH   3  10
BRANCH   4  12
ATOM     12  O   UNL     1     165.954 164.715 168.147  1.00  0.00    -0.504 OA
ATOM     13  H   UNL     1     165.924 163.934 167.505  1.00  0.00     0.293 HD
ENDBRANCH   4  12
TORSDOF 3
ENDMDL
MODEL 3
REMARK VINA RESULT:    -4.247      2.910      4.411
REMARK INTER + INTRA:          -5.016
REMARK INTER:                  -4.867
REMARK INTRA:                  -0.149
REMARK UNBOUND:                -0.148
REMARK SMILES CC=Cc1ccc(O)c(OC)c1
REMARK SMILES IDX 4 1 12 2 9 3 7 4 6 5 5 6 3 7 1 8 2 9 10 10 11 11 8 12
REMARK H PARENT 8 13
REMARK Flexibility Score: inf
ROOT
ATOM      1  C   UNL     1     168.066 169.479 168.509  1.00  0.00    -0.022 A 
ATOM      2  C   UNL     1     169.452 169.575 168.721  1.00  0.00     0.058 A 
ATOM      3  C   UNL     1     170.290 168.455 168.548  1.00  0.00     0.161 A 
ATOM      4  C   UNL     1     169.725 167.231 168.148  1.00  0.00     0.157 A 
ATOM      5  C   UNL     1     168.350 167.136 167.922  1.00  0.00     0.051 A 
ATOM      6  C   UNL     1     167.524 168.248 168.096  1.00  0.00     0.012 A 
ENDROOT
BRANCH   1   7
ATOM      7  C   UNL     1     167.233 170.693 168.697  1.00  0.00     0.003 C 
ATOM      8  C   UNL     1     165.730 172.211 169.924  1.00  0.00     0.035 C 
ATOM      9  C   UNL     1     166.535 170.956 169.807  1.00  0.00    -0.030 C 
ENDBRANCH   1   7
BRANCH   3  10
ATOM     10  O   UNL     1     171.676 168.524 168.762  1.00  0.00    -0.493 OA
ATOM     11  C   UNL     1     172.303 169.332 169.753  1.00  0.00     0.278 C 
ENDBRANCH   3  10
BRANCH   4  12
ATOM     12  O   UNL     1     170.518 166.097 167.966  1.00  0.00    -0.504 OA
ATOM     13  H   UNL     1     170.973 165.627 168.738  1.00  0.00     0.293 HD
ENDBRANCH   4  12
TORSDOF 3
ENDMDL
MODEL 4
REMARK VINA RESULT:    -4.228      1.102      2.881
REMARK INTER + INTRA:          -4.994
REMARK INTER:                  -4.845
REMARK INTRA:                  -0.149
REMARK UNBOUND:                -0.148
REMARK SMILES CC=Cc1ccc(O)c(OC)c1
REMARK SMILES IDX 4 1 12 2 9 3 7 4 6 5 5 6 3 7 1 8 2 9 10 10 11 11 8 12
REMARK H PARENT 8 13
REMARK Flexibility Score: inf
ROOT
ATOM      1  C   UNL     1     166.077 168.129 168.536  1.00  0.00    -0.022 A 
ATOM      2  C   UNL     1     167.342 167.557 168.314  1.00  0.00     0.058 A 
ATOM      3  C   UNL     1     168.489 168.365 168.184  1.00  0.00     0.161 A 
ATOM      4  C   UNL     1     168.361 169.761 168.291  1.00  0.00     0.157 A 
ATOM      5  C   UNL     1     167.109 170.332 168.527  1.00  0.00     0.051 A 
ATOM      6  C   UNL     1     165.975 169.528 168.654  1.00  0.00     0.012 A 
ENDROOT
BRANCH   1   7
ATOM      7  C   UNL     1     164.905 167.230 168.674  1.00  0.00     0.003 C 
ATOM      8  C   UNL     1     163.298 165.816 169.893  1.00  0.00     0.035 C 
ATOM      9  C   UNL     1     164.499 166.704 169.835  1.00  0.00    -0.030 C 
ENDBRANCH   1   7
BRANCH   3  10
ATOM     10  O   UNL     1     169.761 167.817 167.952  1.00  0.00    -0.493 OA
ATOM     11  C   UNL     1     170.109 166.455 168.175  1.00  0.00     0.278 C 
ENDBRANCH   3  10
BRANCH   4  12
ATOM     12  O   UNL     1     169.471 170.598 168.168  1.00  0.00    -0.504 OA
ATOM     13  H   UNL     1     169.542 171.476 168.666  1.00  0.00     0.293 HD
ENDBRANCH   4  12
TORSDOF 3
ENDMDL
MODEL 5
REMARK VINA RESULT:    -4.211      2.842      4.379
REMARK INTER + INTRA:          -4.975
REMARK INTER:                  -4.828
REMARK INTRA:                  -0.148
REMARK UNBOUND:                -0.148
REMARK SMILES CC=Cc1ccc(O)c(OC)c1
REMARK SMILES IDX 4 1 12 2 9 3 7 4 6 5 5 6 3 7 1 8 2 9 10 10 11 11 8 12
REMARK H PARENT 8 13
REMARK Flexibility Score: inf
ROOT
ATOM      1  C   UNL     1     167.431 165.969 168.406  1.00  0.00    -0.022 A 
ATOM      2  C   UNL     1     166.041 165.858 168.592  1.00  0.00     0.058 A 
ATOM      3  C   UNL     1     165.204 166.986 168.482  1.00  0.00     0.161 A 
ATOM      4  C   UNL     1     165.771 168.234 168.171  1.00  0.00     0.157 A 
ATOM      5  C   UNL     1     167.149 168.346 167.970  1.00  0.00     0.051 A 
ATOM      6  C   UNL     1     167.975 167.226 168.082  1.00  0.00     0.012 A 
ENDROOT
BRANCH   1   7
ATOM      7  C   UNL     1     168.263 164.747 168.525  1.00  0.00     0.003 C 
ATOM      8  C   UNL     1     169.543 163.016 169.723  1.00  0.00     0.035 C 
ATOM      9  C   UNL     1     168.721 164.264 169.685  1.00  0.00    -0.030 C 
ENDBRANCH   1   7
BRANCH   3  10
ATOM     10  O   UNL     1     163.815 166.902 168.673  1.00  0.00    -0.493 OA
ATOM     11  C   UNL     1     163.180 166.072 169.639  1.00  0.00     0.278 C 
ENDBRANCH   3  10
BRANCH   4  12
ATOM     12  O   UNL     1     164.979 169.377 168.054  1.00  0.00    -0.504 OA
ATOM     13  H   UNL     1     164.270 169.471 167.338  1.00  0.00     0.293 HD
ENDBRANCH   4  12
TORSDOF 3
ENDMDL
MODEL 6
REMARK VINA RESULT:    -4.175      2.815      4.490
REMARK INTER + INTRA:          -4.933
REMARK INTER:                  -4.785
REMARK INTRA:                  -0.149
REMARK UNBOUND:                -0.148
REMARK SMILES CC=Cc1ccc(O)c(OC)c1
REMARK SMILES IDX 4 1 12 2 9 3 7 4 6 5 5 6 3 7 1 8 2 9 10 10 11 11 8 12
REMARK H PARENT 8 13
REMARK Flexibility Score: inf
ROOT
ATOM      1  C   UNL     1     168.237 169.387 168.475  1.00  0.00    -0.022 A 
ATOM      2  C   UNL     1     167.631 168.139 168.251  1.00  0.00     0.058 A 
ATOM      3  C   UNL     1     168.408 166.972 168.110  1.00  0.00     0.161 A 
ATOM      4  C   UNL     1     169.807 167.063 168.206  1.00  0.00     0.157 A 
ATOM      5  C   UNL     1     170.412 168.299 168.445  1.00  0.00     0.051 A 
ATOM      6  C   UNL     1     169.638 169.453 168.583  1.00  0.00     0.012 A 
ENDROOT
BRANCH   1   7
ATOM      7  C   UNL     1     167.369 170.582 168.626  1.00  0.00     0.003 C 
ATOM      8  C   UNL     1     165.766 172.054 169.779  1.00  0.00     0.035 C 
ATOM      9  C   UNL     1     166.603 170.818 169.697  1.00  0.00    -0.030 C 
ENDBRANCH   1   7
BRANCH   3  10
ATOM     10  O   UNL     1     167.826 165.716 167.875  1.00  0.00    -0.493 OA
ATOM     11  C   UNL     1     166.498 165.357 168.243  1.00  0.00     0.278 C 
ENDBRANCH   3  10
BRANCH   4  12
ATOM     12  O   UNL     1     170.615 165.933 168.072  1.00  0.00    -0.504 OA
ATOM     13  H   UNL     1     170.473 165.253 167.336  1.00  0.00     0.293 HD
ENDBRANCH   4  12
TORSDOF 3
ENDMDL
MODEL 7
REMARK VINA RESULT:    -3.888      2.583      3.321
REMARK INTER + INTRA:          -4.604
REMARK INTER:                  -4.437
REMARK INTRA:                  -0.168
REMARK UNBOUND:                -0.148
REMARK SMILES CC=Cc1ccc(O)c(OC)c1
REMARK SMILES IDX 4 1 12 2 9 3 7 4 6 5 5 6 3 7 1 8 2 9 10 10 11 11 8 12
REMARK H PARENT 8 13
REMARK Flexibility Score: inf
ROOT
ATOM      1  C   UNL     1     169.087 166.503 168.859  1.00  0.00    -0.022 A 
ATOM      2  C   UNL     1     168.060 167.342 169.328  1.00  0.00     0.058 A 
ATOM      3  C   UNL     1     168.094 168.730 169.090  1.00  0.00     0.161 A 
ATOM      4  C   UNL     1     169.166 169.276 168.363  1.00  0.00     0.157 A 
ATOM      5  C   UNL     1     170.179 168.445 167.882  1.00  0.00     0.051 A 
ATOM      6  C   UNL     1     170.143 167.070 168.121  1.00  0.00     0.012 A 
ENDROOT
BRANCH   1   7
ATOM      7  C   UNL     1     168.996 165.048 169.132  1.00  0.00     0.003 C 
ATOM      8  C   UNL     1     168.463 162.700 168.608  1.00  0.00     0.035 C 
ATOM      9  C   UNL     1     168.508 164.154 168.264  1.00  0.00    -0.030 C 
ENDBRANCH   1   7
BRANCH   3  10
ATOM     10  O   UNL     1     167.085 169.588 169.556  1.00  0.00    -0.493 OA
ATOM     11  C   UNL     1     166.876 169.924 170.924  1.00  0.00     0.278 C 
ENDBRANCH   3  10
BRANCH   4  12
ATOM     12  O   UNL     1     169.239 170.645 168.104  1.00  0.00    -0.504 OA
ATOM     13  H   UNL     1     168.808 171.065 167.290  1.00  0.00     0.293 HD
ENDBRANCH   4  12
TORSDOF 3
ENDMDL
MODEL 8
REMARK VINA RESULT:    -3.374      2.373      3.828
REMARK INTER + INTRA:          -4.016
REMARK INTER:                  -3.865
REMARK INTRA:                  -0.151
REMARK UNBOUND:                -0.148
REMARK SMILES CC=Cc1ccc(O)c(OC)c1
REMARK SMILES IDX 4 1 12 2 9 3 7 4 6 5 5 6 3 7 1 8 2 9 10 10 11 11 8 12
REMARK H PARENT 8 13
REMARK Flexibility Score: inf
ROOT
ATOM      1  C   UNL     1     167.109 165.875 168.517  1.00  0.00    -0.022 A 
ATOM      2  C   UNL     1     167.763 167.094 168.268  1.00  0.00     0.058 A 
ATOM      3  C   UNL     1     167.033 168.292 168.133  1.00  0.00     0.161 A 
ATOM      4  C   UNL     1     165.633 168.261 168.260  1.00  0.00     0.157 A 
ATOM      5  C   UNL     1     164.982 167.054 168.523  1.00  0.00     0.051 A 
ATOM      6  C   UNL     1     165.709 165.870 168.655  1.00  0.00     0.012 A 
ENDROOT
BRANCH   1   7
ATOM      7  C   UNL     1     167.929 164.646 168.660  1.00  0.00     0.003 C 
ATOM      8  C   UNL     1     169.557 163.154 169.752  1.00  0.00     0.035 C 
ATOM      9  C   UNL     1     168.777 164.427 169.672  1.00  0.00    -0.030 C 
ENDBRANCH   1   7
BRANCH   3  10
ATOM     10  O   UNL     1     167.662 169.521 167.875  1.00  0.00    -0.493 OA
ATOM     11  C   UNL     1     168.921 169.914 168.411  1.00  0.00     0.278 C 
ENDBRANCH   3  10
BRANCH   4  12
ATOM     12  O   UNL     1     164.872 169.424 168.133  1.00  0.00    -0.504 OA
ATOM     13  H   UNL     1     163.914 169.480 168.456  1.00  0.00     0.293 HD
ENDBRANCH   4  12
TORSDOF 3
ENDMDL
