MODEL 1
REMARK VINA RESULT:    -4.777      0.000      0.000
REMARK INTER + INTRA:         -13.534
REMARK INTER:                 -10.920
REMARK INTRA:                  -2.614
REMARK UNBOUND:                -2.614
REMARK SMILES CCCCCCCCCCCCCCCCCCCCCCCC(=O)[O-]
REMARK SMILES IDX 13 1 14 2 15 3 16 4 17 5 18 6 19 7 20 8 21 9 22 10 23 11
REMARK SMILES IDX 24 12 25 13 26 14 12 15 11 16 10 17 9 18 8 19 7 20 6 21 5 22
REMARK SMILES IDX 4 23 3 24 2 25 1 26
REMARK H PARENT
REMARK Flexibility Score: inf
ROOT
ATOM      1  C   UNL     1      -8.181 -21.227 -15.071  1.00  0.00     0.000 C 
ENDROOT
BRANCH   1   2
ATOM      2  C   UNL     1      -7.665 -20.246 -14.009  1.00  0.00     0.000 C 
BRANCH   2   3
ATOM      3  C   UNL     1      -6.628 -19.255 -14.563  1.00  0.00     0.000 C 
BRANCH   3   4
ATOM      4  C   UNL     1      -6.731 -19.033 -16.087  1.00  0.00     0.000 C 
BRANCH   4   5
ATOM      5  C   UNL     1      -5.427 -19.390 -16.823  1.00  0.00     0.000 C 
BRANCH   5   6
ATOM      6  C   UNL     1      -4.590 -20.445 -16.069  1.00  0.00     0.000 C 
BRANCH   6   7
ATOM      7  C   UNL     1      -4.828 -21.892 -16.545  1.00  0.00     0.000 C 
BRANCH   7   8
ATOM      8  C   UNL     1      -3.969 -22.957 -15.844  1.00  0.00     0.000 C 
BRANCH   8   9
ATOM      9  C   UNL     1      -2.460 -22.700 -15.999  1.00  0.00     0.000 C 
BRANCH   9  10
ATOM     10  C   UNL     1      -1.685 -23.930 -16.504  1.00  0.00     0.006 C 
BRANCH  10  11
ATOM     11  C   UNL     1      -0.418 -24.247 -15.687  1.00  0.00     0.053 C 
BRANCH  11  12
ATOM     12  C   UNL     1       0.473 -23.053 -15.520  1.00  0.00     0.041 C 
ATOM     13  O   UNL     1       1.195 -22.666 -16.477  1.00  0.00    -0.550 OA
ATOM     14  O   UNL     1       0.546 -22.398 -14.297  1.00  0.00    -0.550 OA
ENDBRANCH  11  12
ENDBRANCH  10  11
ENDBRANCH   9  10
ENDBRANCH   8   9
ENDBRANCH   7   8
ENDBRANCH   6   7
ENDBRANCH   5   6
ENDBRANCH   4   5
ENDBRANCH   3   4
ENDBRANCH   2   3
ENDBRANCH   1   2
BRANCH   1  15
ATOM     15  C   UNL     1      -7.963 -22.682 -14.631  1.00  0.00     0.000 C 
BRANCH  15  16
ATOM     16  C   UNL     1      -8.351 -23.696 -15.719  1.00  0.00     0.000 C 
BRANCH  16  17
ATOM     17  C   UNL     1      -9.819 -24.142 -15.611  1.00  0.00     0.000 C 
BRANCH  17  18
ATOM     18  C   UNL     1     -10.194 -24.640 -14.204  1.00  0.00    -0.000 C 
BRANCH  18  19
ATOM     19  C   UNL     1     -10.608 -26.124 -14.116  1.00  0.00    -0.000 C 
BRANCH  19  20
ATOM     20  C   UNL     1      -9.468 -27.138 -14.317  1.00  0.00    -0.000 C 
BRANCH  20  21
ATOM     21  C   UNL     1      -9.751 -28.147 -15.440  1.00  0.00    -0.000 C 
BRANCH  21  22
ATOM     22  C   UNL     1     -10.483 -27.473 -16.611  1.00  0.00    -0.000 C 
BRANCH  22  23
ATOM     23  C   UNL     1      -9.662 -27.477 -17.913  1.00  0.00    -0.000 C 
BRANCH  23  24
ATOM     24  C   UNL     1     -10.080 -26.415 -18.946  1.00  0.00    -0.000 C 
BRANCH  24  25
ATOM     25  C   UNL     1      -9.028 -25.309 -19.122  1.00  0.00    -0.003 C 
ATOM     26  C   UNL     1      -7.646 -25.790 -18.686  1.00  0.00     0.004 C 
ENDBRANCH  24  25
ENDBRANCH  23  24
ENDBRANCH  22  23
ENDBRANCH  21  22
ENDBRANCH  20  21
ENDBRANCH  19  20
ENDBRANCH  18  19
ENDBRANCH  17  18
ENDBRANCH  16  17
ENDBRANCH  15  16
ENDBRANCH   1  15
TORSDOF 22
ENDMDL
MODEL 2
REMARK VINA RESULT:    -4.769      6.663     10.293
REMARK INTER + INTRA:         -13.517
REMARK INTER:                 -10.561
REMARK INTRA:                  -2.956
REMARK UNBOUND:                -2.614
REMARK SMILES CCCCCCCCCCCCCCCCCCCCCCCC(=O)[O-]
REMARK SMILES IDX 13 1 14 2 15 3 16 4 17 5 18 6 19 7 20 8 21 9 22 10 23 11
REMARK SMILES IDX 24 12 25 13 26 14 12 15 11 16 10 17 9 18 8 19 7 20 6 21 5 22
REMARK SMILES IDX 4 23 3 24 2 25 1 26
REMARK H PARENT
REMARK Flexibility Score: inf
ROOT
ATOM      1  C   UNL     1      -7.520 -15.704 -11.304  1.00  0.00     0.000 C 
ENDROOT
BRANCH   1   2
ATOM      2  C   UNL     1      -6.859 -16.823 -10.487  1.00  0.00     0.000 C 
BRANCH   2   3
ATOM      3  C   UNL     1      -7.720 -18.095 -10.407  1.00  0.00     0.000 C 
BRANCH   3   4
ATOM      4  C   UNL     1      -7.154 -19.171  -9.457  1.00  0.00     0.000 C 
BRANCH   4   5
ATOM      5  C   UNL     1      -5.666 -18.941  -9.129  1.00  0.00     0.000 C 
BRANCH   5   6
ATOM      6  C   UNL     1      -5.416 -18.737  -7.620  1.00  0.00     0.000 C 
BRANCH   6   7
ATOM      7  C   UNL     1      -5.416 -20.043  -6.801  1.00  0.00     0.000 C 
BRANCH   7   8
ATOM      8  C   UNL     1      -6.687 -20.291  -5.972  1.00  0.00     0.000 C 
BRANCH   8   9
ATOM      9  C   UNL     1      -7.469 -18.999  -5.682  1.00  0.00     0.000 C 
BRANCH   9  10
ATOM     10  C   UNL     1      -8.992 -19.214  -5.625  1.00  0.00     0.006 C 
BRANCH  10  11
ATOM     11  C   UNL     1      -9.746 -18.656  -6.847  1.00  0.00     0.053 C 
BRANCH  11  12
ATOM     12  C   UNL     1     -10.501 -19.717  -7.591  1.00  0.00     0.041 C 
ATOM     13  O   UNL     1     -10.613 -19.652  -8.844  1.00  0.00    -0.550 OA
ATOM     14  O   UNL     1     -11.123 -20.749  -6.899  1.00  0.00    -0.550 OA
ENDBRANCH  11  12
ENDBRANCH  10  11
ENDBRANCH   9  10
ENDBRANCH   8   9
ENDBRANCH   7   8
ENDBRANCH   6   7
ENDBRANCH   5   6
ENDBRANCH   4   5
ENDBRANCH   3   4
ENDBRANCH   2   3
ENDBRANCH   1   2
BRANCH   1  15
ATOM     15  C   UNL     1      -6.527 -15.091 -12.303  1.00  0.00     0.000 C 
BRANCH  15  16
ATOM     16  C   UNL     1      -5.980 -16.121 -13.306  1.00  0.00     0.000 C 
BRANCH  16  17
ATOM     17  C   UNL     1      -5.692 -15.503 -14.684  1.00  0.00     0.000 C 
BRANCH  17  18
ATOM     18  C   UNL     1      -6.756 -14.479 -15.120  1.00  0.00    -0.000 C 
BRANCH  18  19
ATOM     19  C   UNL     1      -7.353 -14.702 -16.525  1.00  0.00    -0.000 C 
BRANCH  19  20
ATOM     20  C   UNL     1      -7.804 -16.142 -16.827  1.00  0.00    -0.000 C 
BRANCH  20  21
ATOM     21  C   UNL     1      -6.784 -16.928 -17.666  1.00  0.00    -0.000 C 
BRANCH  21  22
ATOM     22  C   UNL     1      -6.434 -18.264 -16.994  1.00  0.00    -0.000 C 
BRANCH  22  23
ATOM     23  C   UNL     1      -7.361 -18.602 -15.812  1.00  0.00    -0.000 C 
BRANCH  23  24
ATOM     24  C   UNL     1      -7.137 -19.992 -15.191  1.00  0.00    -0.000 C 
BRANCH  24  25
ATOM     25  C   UNL     1      -7.192 -19.974 -13.655  1.00  0.00    -0.003 C 
ATOM     26  C   UNL     1      -5.796 -19.812 -13.058  1.00  0.00     0.004 C 
ENDBRANCH  24  25
ENDBRANCH  23  24
ENDBRANCH  22  23
ENDBRANCH  21  22
ENDBRANCH  20  21
ENDBRANCH  19  20
ENDBRANCH  18  19
ENDBRANCH  17  18
ENDBRANCH  16  17
ENDBRANCH  15  16
ENDBRANCH   1  15
TORSDOF 22
ENDMDL
MODEL 3
REMARK VINA RESULT:    -4.683      3.109      6.150
REMARK INTER + INTRA:         -13.320
REMARK INTER:                  -9.926
REMARK INTRA:                  -3.395
REMARK UNBOUND:                -2.614
REMARK SMILES CCCCCCCCCCCCCCCCCCCCCCCC(=O)[O-]
REMARK SMILES IDX 13 1 14 2 15 3 16 4 17 5 18 6 19 7 20 8 21 9 22 10 23 11
REMARK SMILES IDX 24 12 25 13 26 14 12 15 11 16 10 17 9 18 8 19 7 20 6 21 5 22
REMARK SMILES IDX 4 23 3 24 2 25 1 26
REMARK H PARENT
REMARK Flexibility Score: inf
ROOT
ATOM      1  C   UNL     1      -9.614 -27.029 -13.404  1.00  0.00     0.000 C 
ENDROOT
BRANCH   1   2
ATOM      2  C   UNL     1     -10.865 -26.221 -13.772  1.00  0.00     0.000 C 
BRANCH   2   3
ATOM      3  C   UNL     1     -10.766 -24.742 -13.363  1.00  0.00     0.000 C 
BRANCH   3   4
ATOM      4  C   UNL     1      -9.404 -24.357 -12.747  1.00  0.00     0.000 C 
BRANCH   4   5
ATOM      5  C   UNL     1      -9.337 -22.870 -12.352  1.00  0.00     0.000 C 
BRANCH   5   6
ATOM      6  C   UNL     1      -8.011 -22.204 -12.773  1.00  0.00     0.000 C 
BRANCH   6   7
ATOM      7  C   UNL     1      -8.154 -20.724 -13.183  1.00  0.00     0.000 C 
BRANCH   7   8
ATOM      8  C   UNL     1      -8.276 -20.476 -14.695  1.00  0.00     0.000 C 
BRANCH   8   9
ATOM      9  C   UNL     1      -6.933 -20.623 -15.431  1.00  0.00     0.000 C 
BRANCH   9  10
ATOM     10  C   UNL     1      -6.260 -19.272 -15.738  1.00  0.00     0.006 C 
BRANCH  10  11
ATOM     11  C   UNL     1      -7.218 -18.219 -16.326  1.00  0.00     0.053 C 
BRANCH  11  12
ATOM     12  C   UNL     1      -6.590 -17.421 -17.429  1.00  0.00     0.041 C 
ATOM     13  O   UNL     1      -5.352 -17.191 -17.416  1.00  0.00    -0.550 OA
ATOM     14  O   UNL     1      -7.377 -16.890 -18.445  1.00  0.00    -0.550 OA
ENDBRANCH  11  12
ENDBRANCH  10  11
ENDBRANCH   9  10
ENDBRANCH   8   9
ENDBRANCH   7   8
ENDBRANCH   6   7
ENDBRANCH   5   6
ENDBRANCH   4   5
ENDBRANCH   3   4
ENDBRANCH   2   3
ENDBRANCH   1   2
BRANCH   1  15
ATOM     15  C   UNL     1      -9.034 -27.740 -14.636  1.00  0.00     0.000 C 
BRANCH  15  16
ATOM     16  C   UNL     1     -10.049 -28.677 -15.313  1.00  0.00     0.000 C 
BRANCH  16  17
ATOM     17  C   UNL     1      -9.520 -29.259 -16.635  1.00  0.00     0.000 C 
BRANCH  17  18
ATOM     18  C   UNL     1     -10.398 -28.898 -17.846  1.00  0.00    -0.000 C 
BRANCH  18  19
ATOM     19  C   UNL     1      -9.739 -27.970 -18.889  1.00  0.00    -0.000 C 
BRANCH  19  20
ATOM     20  C   UNL     1     -10.004 -26.467 -18.692  1.00  0.00    -0.000 C 
BRANCH  20  21
ATOM     21  C   UNL     1      -8.966 -25.788 -17.784  1.00  0.00    -0.000 C 
BRANCH  21  22
ATOM     22  C   UNL     1      -9.634 -24.748 -16.871  1.00  0.00    -0.000 C 
BRANCH  22  23
ATOM     23  C   UNL     1      -8.619 -23.838 -16.155  1.00  0.00    -0.000 C 
BRANCH  23  24
ATOM     24  C   UNL     1      -7.346 -24.549 -15.663  1.00  0.00    -0.000 C 
BRANCH  24  25
ATOM     25  C   UNL     1      -6.066 -23.985 -16.300  1.00  0.00    -0.003 C 
ATOM     26  C   UNL     1      -4.966 -23.807 -15.257  1.00  0.00     0.004 C 
ENDBRANCH  24  25
ENDBRANCH  23  24
ENDBRANCH  22  23
ENDBRANCH  21  22
ENDBRANCH  20  21
ENDBRANCH  19  20
ENDBRANCH  18  19
ENDBRANCH  17  18
ENDBRANCH  16  17
ENDBRANCH  15  16
ENDBRANCH   1  15
TORSDOF 22
ENDMDL
MODEL 4
REMARK VINA RESULT:    -4.656     14.964     18.164
REMARK INTER + INTRA:         -13.259
REMARK INTER:                  -9.537
REMARK INTRA:                  -3.722
REMARK UNBOUND:                -2.614
REMARK SMILES CCCCCCCCCCCCCCCCCCCCCCCC(=O)[O-]
REMARK SMILES IDX 13 1 14 2 15 3 16 4 17 5 18 6 19 7 20 8 21 9 22 10 23 11
REMARK SMILES IDX 24 12 25 13 26 14 12 15 11 16 10 17 9 18 8 19 7 20 6 21 5 22
REMARK SMILES IDX 4 23 3 24 2 25 1 26
REMARK H PARENT
REMARK Flexibility Score: inf
ROOT
ATOM      1  C   UNL     1       3.821 -27.511  -2.207  1.00  0.00     0.000 C 
ENDROOT
BRANCH   1   2
ATOM      2  C   UNL     1       4.832 -27.225  -1.088  1.00  0.00     0.000 C 
BRANCH   2   3
ATOM      3  C   UNL     1       4.207 -26.497   0.114  1.00  0.00     0.000 C 
BRANCH   3   4
ATOM      4  C   UNL     1       4.869 -25.141   0.434  1.00  0.00     0.000 C 
BRANCH   4   5
ATOM      5  C   UNL     1       3.877 -23.967   0.350  1.00  0.00     0.000 C 
BRANCH   5   6
ATOM      6  C   UNL     1       2.818 -24.163  -0.755  1.00  0.00     0.000 C 
BRANCH   6   7
ATOM      7  C   UNL     1       2.600 -22.920  -1.643  1.00  0.00     0.000 C 
BRANCH   7   8
ATOM      8  C   UNL     1       3.205 -23.015  -3.053  1.00  0.00     0.000 C 
BRANCH   8   9
ATOM      9  C   UNL     1       4.425 -23.950  -3.116  1.00  0.00     0.000 C 
BRANCH   9  10
ATOM     10  C   UNL     1       4.732 -24.449  -4.540  1.00  0.00     0.006 C 
BRANCH  10  11
ATOM     11  C   UNL     1       3.914 -23.741  -5.637  1.00  0.00     0.053 C 
BRANCH  11  12
ATOM     12  C   UNL     1       3.238 -24.707  -6.564  1.00  0.00     0.041 C 
ATOM     13  O   UNL     1       3.026 -25.893  -6.196  1.00  0.00    -0.550 OA
ATOM     14  O   UNL     1       2.886 -24.313  -7.850  1.00  0.00    -0.550 OA
ENDBRANCH  11  12
ENDBRANCH  10  11
ENDBRANCH   9  10
ENDBRANCH   8   9
ENDBRANCH   7   8
ENDBRANCH   6   7
ENDBRANCH   5   6
ENDBRANCH   4   5
ENDBRANCH   3   4
ENDBRANCH   2   3
ENDBRANCH   1   2
BRANCH   1  15
ATOM     15  C   UNL     1       3.989 -28.937  -2.750  1.00  0.00     0.000 C 
BRANCH  15  16
ATOM     16  C   UNL     1       2.655 -29.695  -2.850  1.00  0.00     0.000 C 
BRANCH  16  17
ATOM     17  C   UNL     1       1.470 -28.872  -2.316  1.00  0.00     0.000 C 
BRANCH  17  18
ATOM     18  C   UNL     1       0.864 -29.456  -1.027  1.00  0.00    -0.000 C 
BRANCH  18  19
ATOM     19  C   UNL     1       1.650 -29.159   0.267  1.00  0.00    -0.000 C 
BRANCH  19  20
ATOM     20  C   UNL     1       2.413 -30.357   0.862  1.00  0.00    -0.000 C 
BRANCH  20  21
ATOM     21  C   UNL     1       3.916 -30.087   1.032  1.00  0.00    -0.000 C 
BRANCH  21  22
ATOM     22  C   UNL     1       4.735 -31.361   0.773  1.00  0.00    -0.000 C 
BRANCH  22  23
ATOM     23  C   UNL     1       4.537 -31.923  -0.646  1.00  0.00    -0.000 C 
BRANCH  23  24
ATOM     24  C   UNL     1       3.587 -33.130  -0.739  1.00  0.00    -0.000 C 
BRANCH  24  25
ATOM     25  C   UNL     1       2.699 -33.094  -1.992  1.00  0.00    -0.003 C 
ATOM     26  C   UNL     1       1.220 -33.078  -1.617  1.00  0.00     0.004 C 
ENDBRANCH  24  25
ENDBRANCH  23  24
ENDBRANCH  22  23
ENDBRANCH  21  22
ENDBRANCH  20  21
ENDBRANCH  19  20
ENDBRANCH  18  19
ENDBRANCH  17  18
ENDBRANCH  16  17
ENDBRANCH  15  16
ENDBRANCH   1  15
TORSDOF 22
ENDMDL
MODEL 5
REMARK VINA RESULT:    -4.653      3.774      6.801
REMARK INTER + INTRA:         -13.251
REMARK INTER:                  -9.715
REMARK INTRA:                  -3.536
REMARK UNBOUND:                -2.614
REMARK SMILES CCCCCCCCCCCCCCCCCCCCCCCC(=O)[O-]
REMARK SMILES IDX 13 1 14 2 15 3 16 4 17 5 18 6 19 7 20 8 21 9 22 10 23 11
REMARK SMILES IDX 24 12 25 13 26 14 12 15 11 16 10 17 9 18 8 19 7 20 6 21 5 22
REMARK SMILES IDX 4 23 3 24 2 25 1 26
REMARK H PARENT
REMARK Flexibility Score: inf
ROOT
ATOM      1  C   UNL     1      -0.882 -22.893 -12.221  1.00  0.00     0.000 C 
ENDROOT
BRANCH   1   2
ATOM      2  C   UNL     1       0.135 -23.982 -12.587  1.00  0.00     0.000 C 
BRANCH   2   3
ATOM      3  C   UNL     1      -0.325 -24.862 -13.761  1.00  0.00     0.000 C 
BRANCH   3   4
ATOM      4  C   UNL     1       0.411 -24.569 -15.085  1.00  0.00     0.000 C 
BRANCH   4   5
ATOM      5  C   UNL     1      -0.527 -24.001 -16.166  1.00  0.00     0.000 C 
BRANCH   5   6
ATOM      6  C   UNL     1      -0.110 -22.591 -16.633  1.00  0.00     0.000 C 
BRANCH   6   7
ATOM      7  C   UNL     1       0.808 -21.848 -15.641  1.00  0.00     0.000 C 
BRANCH   7   8
ATOM      8  C   UNL     1       0.160 -20.649 -14.929  1.00  0.00     0.000 C 
BRANCH   8   9
ATOM      9  C   UNL     1       1.112 -19.963 -13.935  1.00  0.00     0.000 C 
BRANCH   9  10
ATOM     10  C   UNL     1       2.512 -20.602 -13.898  1.00  0.00     0.006 C 
BRANCH  10  11
ATOM     11  C   UNL     1       2.834 -21.322 -12.575  1.00  0.00     0.053 C 
BRANCH  11  12
ATOM     12  C   UNL     1       4.142 -20.888 -11.986  1.00  0.00     0.041 C 
ATOM     13  O   UNL     1       5.181 -21.573 -12.181  1.00  0.00    -0.550 OA
ATOM     14  O   UNL     1       4.207 -19.756 -11.181  1.00  0.00    -0.550 OA
ENDBRANCH  11  12
ENDBRANCH  10  11
ENDBRANCH   9  10
ENDBRANCH   8   9
ENDBRANCH   7   8
ENDBRANCH   6   7
ENDBRANCH   5   6
ENDBRANCH   4   5
ENDBRANCH   3   4
ENDBRANCH   2   3
ENDBRANCH   1   2
BRANCH   1  15
ATOM     15  C   UNL     1      -2.260 -23.200 -12.824  1.00  0.00     0.000 C 
BRANCH  15  16
ATOM     16  C   UNL     1      -2.851 -22.007 -13.594  1.00  0.00     0.000 C 
BRANCH  16  17
ATOM     17  C   UNL     1      -3.688 -22.448 -14.808  1.00  0.00     0.000 C 
BRANCH  17  18
ATOM     18  C   UNL     1      -4.197 -23.896 -14.694  1.00  0.00    -0.000 C 
BRANCH  18  19
ATOM     19  C   UNL     1      -5.719 -24.049 -14.491  1.00  0.00    -0.000 C 
BRANCH  19  20
ATOM     20  C   UNL     1      -6.456 -22.768 -14.058  1.00  0.00    -0.000 C 
BRANCH  20  21
ATOM     21  C   UNL     1      -7.288 -22.142 -15.188  1.00  0.00    -0.000 C 
BRANCH  21  22
ATOM     22  C   UNL     1      -7.968 -20.848 -14.715  1.00  0.00    -0.000 C 
BRANCH  22  23
ATOM     23  C   UNL     1      -7.554 -19.616 -15.541  1.00  0.00    -0.000 C 
BRANCH  23  24
ATOM     24  C   UNL     1      -6.101 -19.636 -16.049  1.00  0.00    -0.000 C 
BRANCH  24  25
ATOM     25  C   UNL     1      -5.519 -18.227 -16.244  1.00  0.00    -0.003 C 
ATOM     26  C   UNL     1      -4.033 -18.194 -15.898  1.00  0.00     0.004 C 
ENDBRANCH  24  25
ENDBRANCH  23  24
ENDBRANCH  22  23
ENDBRANCH  21  22
ENDBRANCH  20  21
ENDBRANCH  19  20
ENDBRANCH  18  19
ENDBRANCH  17  18
ENDBRANCH  16  17
ENDBRANCH  15  16
ENDBRANCH   1  15
TORSDOF 22
ENDMDL
MODEL 6
REMARK VINA RESULT:    -4.628      4.098      7.196
REMARK INTER + INTRA:         -13.195
REMARK INTER:                  -9.702
REMARK INTRA:                  -3.493
REMARK UNBOUND:                -2.614
REMARK SMILES CCCCCCCCCCCCCCCCCCCCCCCC(=O)[O-]
REMARK SMILES IDX 13 1 14 2 15 3 16 4 17 5 18 6 19 7 20 8 21 9 22 10 23 11
REMARK SMILES IDX 24 12 25 13 26 14 12 15 11 16 10 17 9 18 8 19 7 20 6 21 5 22
REMARK SMILES IDX 4 23 3 24 2 25 1 26
REMARK H PARENT
REMARK Flexibility Score: inf
ROOT
ATOM      1  C   UNL     1       0.420 -23.974 -12.919  1.00  0.00     0.000 C 
ENDROOT
BRANCH   1   2
ATOM      2  C   UNL     1      -0.686 -23.619 -11.916  1.00  0.00     0.000 C 
BRANCH   2   3
ATOM      3  C   UNL     1      -2.085 -23.587 -12.554  1.00  0.00     0.000 C 
BRANCH   3   4
ATOM      4  C   UNL     1      -2.518 -22.186 -13.034  1.00  0.00     0.000 C 
BRANCH   4   5
ATOM      5  C   UNL     1      -1.708 -21.059 -12.366  1.00  0.00     0.000 C 
BRANCH   5   6
ATOM      6  C   UNL     1      -1.622 -19.791 -13.240  1.00  0.00     0.000 C 
BRANCH   6   7
ATOM      7  C   UNL     1      -0.194 -19.454 -13.718  1.00  0.00     0.000 C 
BRANCH   7   8
ATOM      8  C   UNL     1       0.428 -20.478 -14.681  1.00  0.00     0.000 C 
BRANCH   8   9
ATOM      9  C   UNL     1       1.870 -20.855 -14.297  1.00  0.00     0.000 C 
BRANCH   9  10
ATOM     10  C   UNL     1       2.254 -20.408 -12.874  1.00  0.00     0.006 C 
BRANCH  10  11
ATOM     11  C   UNL     1       3.739 -20.032 -12.720  1.00  0.00     0.053 C 
BRANCH  11  12
ATOM     12  C   UNL     1       4.347 -20.586 -11.466  1.00  0.00     0.041 C 
ATOM     13  O   UNL     1       4.465 -21.831 -11.318  1.00  0.00    -0.550 OA
ATOM     14  O   UNL     1       4.738 -19.733 -10.441  1.00  0.00    -0.550 OA
ENDBRANCH  11  12
ENDBRANCH  10  11
ENDBRANCH   9  10
ENDBRANCH   8   9
ENDBRANCH   7   8
ENDBRANCH   6   7
ENDBRANCH   5   6
ENDBRANCH   4   5
ENDBRANCH   3   4
ENDBRANCH   2   3
ENDBRANCH   1   2
BRANCH   1  15
ATOM     15  C   UNL     1      -0.158 -24.689 -14.149  1.00  0.00     0.000 C 
BRANCH  15  16
ATOM     16  C   UNL     1       0.285 -24.045 -15.473  1.00  0.00     0.000 C 
BRANCH  16  17
ATOM     17  C   UNL     1      -0.905 -23.669 -16.371  1.00  0.00     0.000 C 
BRANCH  17  18
ATOM     18  C   UNL     1      -2.170 -24.493 -16.071  1.00  0.00    -0.000 C 
BRANCH  18  19
ATOM     19  C   UNL     1      -3.119 -24.710 -17.268  1.00  0.00    -0.000 C 
BRANCH  19  20
ATOM     20  C   UNL     1      -4.489 -24.017 -17.155  1.00  0.00    -0.000 C 
BRANCH  20  21
ATOM     21  C   UNL     1      -4.580 -23.056 -15.960  1.00  0.00    -0.000 C 
BRANCH  21  22
ATOM     22  C   UNL     1      -4.615 -21.594 -16.433  1.00  0.00    -0.000 C 
BRANCH  22  23
ATOM     23  C   UNL     1      -4.506 -20.586 -15.275  1.00  0.00    -0.000 C 
BRANCH  23  24
ATOM     24  C   UNL     1      -5.616 -19.520 -15.237  1.00  0.00    -0.000 C 
BRANCH  24  25
ATOM     25  C   UNL     1      -6.998 -20.087 -15.600  1.00  0.00    -0.003 C 
ATOM     26  C   UNL     1      -7.790 -20.449 -14.346  1.00  0.00     0.004 C 
ENDBRANCH  24  25
ENDBRANCH  23  24
ENDBRANCH  22  23
ENDBRANCH  21  22
ENDBRANCH  20  21
ENDBRANCH  19  20
ENDBRANCH  18  19
ENDBRANCH  17  18
ENDBRANCH  16  17
ENDBRANCH  15  16
ENDBRANCH   1  15
TORSDOF 22
ENDMDL
MODEL 7
REMARK VINA RESULT:    -4.585      7.241     10.362
REMARK INTER + INTRA:         -13.095
REMARK INTER:                  -8.705
REMARK INTRA:                  -4.390
REMARK UNBOUND:                -2.614
REMARK SMILES CCCCCCCCCCCCCCCCCCCCCCCC(=O)[O-]
REMARK SMILES IDX 13 1 14 2 15 3 16 4 17 5 18 6 19 7 20 8 21 9 22 10 23 11
REMARK SMILES IDX 24 12 25 13 26 14 12 15 11 16 10 17 9 18 8 19 7 20 6 21 5 22
REMARK SMILES IDX 4 23 3 24 2 25 1 26
REMARK H PARENT
REMARK Flexibility Score: inf
ROOT
ATOM      1  C   UNL     1       3.832 -21.134 -11.929  1.00  0.00     0.000 C 
ENDROOT
BRANCH   1   2
ATOM      2  C   UNL     1       3.418 -20.083 -12.968  1.00  0.00     0.000 C 
BRANCH   2   3
ATOM      3  C   UNL     1       2.514 -20.656 -14.072  1.00  0.00     0.000 C 
BRANCH   3   4
ATOM      4  C   UNL     1       1.127 -19.983 -14.152  1.00  0.00     0.000 C 
BRANCH   4   5
ATOM      5  C   UNL     1       0.134 -20.784 -15.013  1.00  0.00     0.000 C 
BRANCH   5   6
ATOM      6  C   UNL     1       0.817 -21.914 -15.811  1.00  0.00     0.000 C 
BRANCH   6   7
ATOM      7  C   UNL     1      -0.076 -23.152 -16.036  1.00  0.00     0.000 C 
BRANCH   7   8
ATOM      8  C   UNL     1       0.385 -24.427 -15.312  1.00  0.00     0.000 C 
BRANCH   8   9
ATOM      9  C   UNL     1      -0.770 -25.167 -14.617  1.00  0.00     0.000 C 
BRANCH   9  10
ATOM     10  C   UNL     1      -0.297 -26.110 -13.495  1.00  0.00     0.006 C 
BRANCH  10  11
ATOM     11  C   UNL     1      -1.446 -26.816 -12.750  1.00  0.00     0.053 C 
BRANCH  11  12
ATOM     12  C   UNL     1      -1.011 -27.394 -11.437  1.00  0.00     0.041 C 
ATOM     13  O   UNL     1       0.057 -28.058 -11.362  1.00  0.00    -0.550 OA
ATOM     14  O   UNL     1      -1.807 -27.243 -10.307  1.00  0.00    -0.550 OA
ENDBRANCH  11  12
ENDBRANCH  10  11
ENDBRANCH   9  10
ENDBRANCH   8   9
ENDBRANCH   7   8
ENDBRANCH   6   7
ENDBRANCH   5   6
ENDBRANCH   4   5
ENDBRANCH   3   4
ENDBRANCH   2   3
ENDBRANCH   1   2
BRANCH   1  15
ATOM     15  C   UNL     1       3.749 -20.565 -10.505  1.00  0.00     0.000 C 
BRANCH  15  16
ATOM     16  C   UNL     1       2.717 -19.432 -10.377  1.00  0.00     0.000 C 
BRANCH  16  17
ATOM     17  C   UNL     1       1.489 -19.845  -9.548  1.00  0.00     0.000 C 
BRANCH  17  18
ATOM     18  C   UNL     1       1.862 -20.530  -8.221  1.00  0.00    -0.000 C 
BRANCH  18  19
ATOM     19  C   UNL     1       1.204 -21.905  -7.979  1.00  0.00    -0.000 C 
BRANCH  19  20
ATOM     20  C   UNL     1       2.093 -23.122  -8.289  1.00  0.00    -0.000 C 
BRANCH  20  21
ATOM     21  C   UNL     1       1.299 -24.433  -8.408  1.00  0.00    -0.000 C 
BRANCH  21  22
ATOM     22  C   UNL     1       0.793 -24.639  -9.844  1.00  0.00    -0.000 C 
BRANCH  22  23
ATOM     23  C   UNL     1       1.709 -23.997 -10.901  1.00  0.00    -0.000 C 
BRANCH  23  24
ATOM     24  C   UNL     1       0.977 -23.205 -11.998  1.00  0.00    -0.000 C 
BRANCH  24  25
ATOM     25  C   UNL     1      -0.146 -22.315 -11.442  1.00  0.00    -0.003 C 
ATOM     26  C   UNL     1      -1.447 -22.526 -12.213  1.00  0.00     0.004 C 
ENDBRANCH  24  25
ENDBRANCH  23  24
ENDBRANCH  22  23
ENDBRANCH  21  22
ENDBRANCH  20  21
ENDBRANCH  19  20
ENDBRANCH  18  19
ENDBRANCH  17  18
ENDBRANCH  16  17
ENDBRANCH  15  16
ENDBRANCH   1  15
TORSDOF 22
ENDMDL
MODEL 8
REMARK VINA RESULT:    -4.571      4.346      8.743
REMARK INTER + INTRA:         -13.064
REMARK INTER:                  -9.574
REMARK INTRA:                  -3.490
REMARK UNBOUND:                -2.614
REMARK SMILES CCCCCCCCCCCCCCCCCCCCCCCC(=O)[O-]
REMARK SMILES IDX 13 1 14 2 15 3 16 4 17 5 18 6 19 7 20 8 21 9 22 10 23 11
REMARK SMILES IDX 24 12 25 13 26 14 12 15 11 16 10 17 9 18 8 19 7 20 6 21 5 22
REMARK SMILES IDX 4 23 3 24 2 25 1 26
REMARK H PARENT
REMARK Flexibility Score: inf
ROOT
ATOM      1  C   UNL     1      -7.504 -17.683 -10.623  1.00  0.00     0.000 C 
ENDROOT
BRANCH   1   2
ATOM      2  C   UNL     1      -7.065 -18.763 -11.621  1.00  0.00     0.000 C 
BRANCH   2   3
ATOM      3  C   UNL     1      -7.569 -20.166 -11.247  1.00  0.00     0.000 C 
BRANCH   3   4
ATOM      4  C   UNL     1      -8.243 -20.917 -12.415  1.00  0.00     0.000 C 
BRANCH   4   5
ATOM      5  C   UNL     1      -7.930 -20.280 -13.782  1.00  0.00     0.000 C 
BRANCH   5   6
ATOM      6  C   UNL     1      -8.286 -21.206 -14.964  1.00  0.00     0.000 C 
BRANCH   6   7
ATOM      7  C   UNL     1      -7.185 -22.228 -15.314  1.00  0.00     0.000 C 
BRANCH   7   8
ATOM      8  C   UNL     1      -7.674 -23.673 -15.501  1.00  0.00     0.000 C 
BRANCH   8   9
ATOM      9  C   UNL     1      -9.199 -23.765 -15.687  1.00  0.00     0.000 C 
BRANCH   9  10
ATOM     10  C   UNL     1      -9.814 -25.015 -15.031  1.00  0.00     0.006 C 
BRANCH  10  11
ATOM     11  C   UNL     1     -10.714 -24.704 -13.822  1.00  0.00     0.053 C 
BRANCH  11  12
ATOM     12  C   UNL     1      -9.931 -24.473 -12.564  1.00  0.00     0.041 C 
ATOM     13  O   UNL     1     -10.310 -23.605 -11.734  1.00  0.00    -0.550 OA
ATOM     14  O   UNL     1      -8.756 -25.179 -12.331  1.00  0.00    -0.550 OA
ENDBRANCH  11  12
ENDBRANCH  10  11
ENDBRANCH   9  10
ENDBRANCH   8   9
ENDBRANCH   7   8
ENDBRANCH   6   7
ENDBRANCH   5   6
ENDBRANCH   4   5
ENDBRANCH   3   4
ENDBRANCH   2   3
ENDBRANCH   1   2
BRANCH   1  15
ATOM     15  C   UNL     1      -7.424 -16.284 -11.252  1.00  0.00     0.000 C 
BRANCH  15  16
ATOM     16  C   UNL     1      -6.709 -16.285 -12.613  1.00  0.00     0.000 C 
BRANCH  16  17
ATOM     17  C   UNL     1      -6.665 -14.888 -13.254  1.00  0.00     0.000 C 
BRANCH  17  18
ATOM     18  C   UNL     1      -6.007 -14.884 -14.646  1.00  0.00    -0.000 C 
BRANCH  18  19
ATOM     19  C   UNL     1      -6.969 -15.099 -15.833  1.00  0.00    -0.000 C 
BRANCH  19  20
ATOM     20  C   UNL     1      -6.582 -16.236 -16.796  1.00  0.00    -0.000 C 
BRANCH  20  21
ATOM     21  C   UNL     1      -7.172 -17.595 -16.390  1.00  0.00    -0.000 C 
BRANCH  21  22
ATOM     22  C   UNL     1      -6.188 -18.734 -16.697  1.00  0.00    -0.000 C 
BRANCH  22  23
ATOM     23  C   UNL     1      -4.789 -18.497 -16.099  1.00  0.00    -0.000 C 
BRANCH  23  24
ATOM     24  C   UNL     1      -4.702 -18.658 -14.571  1.00  0.00    -0.000 C 
BRANCH  24  25
ATOM     25  C   UNL     1      -3.553 -17.847 -13.952  1.00  0.00    -0.003 C 
ATOM     26  C   UNL     1      -2.975 -16.855 -14.958  1.00  0.00     0.004 C 
ENDBRANCH  24  25
ENDBRANCH  23  24
ENDBRANCH  22  23
ENDBRANCH  21  22
ENDBRANCH  20  21
ENDBRANCH  19  20
ENDBRANCH  18  19
ENDBRANCH  17  18
ENDBRANCH  16  17
ENDBRANCH  15  16
ENDBRANCH   1  15
TORSDOF 22
ENDMDL
MODEL 9
REMARK VINA RESULT:    -4.563     14.147     18.078
REMARK INTER + INTRA:         -13.045
REMARK INTER:                  -8.861
REMARK INTRA:                  -4.184
REMARK UNBOUND:                -2.614
REMARK SMILES CCCCCCCCCCCCCCCCCCCCCCCC(=O)[O-]
REMARK SMILES IDX 13 1 14 2 15 3 16 4 17 5 18 6 19 7 20 8 21 9 22 10 23 11
REMARK SMILES IDX 24 12 25 13 26 14 12 15 11 16 10 17 9 18 8 19 7 20 6 21 5 22
REMARK SMILES IDX 4 23 3 24 2 25 1 26
REMARK H PARENT
REMARK Flexibility Score: inf
ROOT
ATOM      1  C   UNL     1       3.639 -29.276  -3.389  1.00  0.00     0.000 C 
ENDROOT
BRANCH   1   2
ATOM      2  C   UNL     1       4.230 -30.081  -2.223  1.00  0.00     0.000 C 
BRANCH   2   3
ATOM      3  C   UNL     1       3.587 -31.470  -2.067  1.00  0.00     0.000 C 
BRANCH   3   4
ATOM      4  C   UNL     1       2.840 -31.663  -0.731  1.00  0.00     0.000 C 
BRANCH   4   5
ATOM      5  C   UNL     1       2.796 -30.374   0.110  1.00  0.00     0.000 C 
BRANCH   5   6
ATOM      6  C   UNL     1       1.356 -29.885   0.373  1.00  0.00     0.000 C 
BRANCH   6   7
ATOM      7  C   UNL     1       0.488 -29.779  -0.897  1.00  0.00     0.000 C 
BRANCH   7   8
ATOM      8  C   UNL     1      -0.594 -30.862  -1.038  1.00  0.00     0.000 C 
BRANCH   8   9
ATOM      9  C   UNL     1      -0.615 -31.502  -2.437  1.00  0.00     0.000 C 
BRANCH   9  10
ATOM     10  C   UNL     1       0.298 -30.783  -3.446  1.00  0.00     0.006 C 
BRANCH  10  11
ATOM     11  C   UNL     1      -0.448 -30.228  -4.675  1.00  0.00     0.053 C 
BRANCH  11  12
ATOM     12  C   UNL     1      -1.115 -28.914  -4.399  1.00  0.00     0.041 C 
ATOM     13  O   UNL     1      -0.519 -28.032  -3.725  1.00  0.00    -0.550 OA
ATOM     14  O   UNL     1      -2.411 -28.679  -4.843  1.00  0.00    -0.550 OA
ENDBRANCH  11  12
ENDBRANCH  10  11
ENDBRANCH   9  10
ENDBRANCH   8   9
ENDBRANCH   7   8
ENDBRANCH   6   7
ENDBRANCH   5   6
ENDBRANCH   4   5
ENDBRANCH   3   4
ENDBRANCH   2   3
ENDBRANCH   1   2
BRANCH   1  15
ATOM     15  C   UNL     1       3.754 -27.767  -3.131  1.00  0.00     0.000 C 
BRANCH  15  16
ATOM     16  C   UNL     1       2.671 -27.244  -2.172  1.00  0.00     0.000 C 
BRANCH  16  17
ATOM     17  C   UNL     1       3.244 -26.839  -0.803  1.00  0.00     0.000 C 
BRANCH  17  18
ATOM     18  C   UNL     1       4.477 -25.923  -0.914  1.00  0.00    -0.000 C 
BRANCH  18  19
ATOM     19  C   UNL     1       4.274 -24.476  -0.418  1.00  0.00    -0.000 C 
BRANCH  19  20
ATOM     20  C   UNL     1       3.200 -23.669  -1.170  1.00  0.00    -0.000 C 
BRANCH  20  21
ATOM     21  C   UNL     1       3.775 -22.834  -2.325  1.00  0.00    -0.000 C 
BRANCH  21  22
ATOM     22  C   UNL     1       3.320 -23.390  -3.683  1.00  0.00    -0.000 C 
BRANCH  22  23
ATOM     23  C   UNL     1       4.359 -24.325  -4.327  1.00  0.00    -0.000 C 
BRANCH  23  24
ATOM     24  C   UNL     1       3.872 -25.066  -5.585  1.00  0.00    -0.000 C 
BRANCH  24  25
ATOM     25  C   UNL     1       2.340 -25.148  -5.672  1.00  0.00    -0.003 C 
ATOM     26  C   UNL     1       1.881 -26.576  -5.955  1.00  0.00     0.004 C 
ENDBRANCH  24  25
ENDBRANCH  23  24
ENDBRANCH  22  23
ENDBRANCH  21  22
ENDBRANCH  20  21
ENDBRANCH  19  20
ENDBRANCH  18  19
ENDBRANCH  17  18
ENDBRANCH  16  17
ENDBRANCH  15  16
ENDBRANCH   1  15
TORSDOF 22
ENDMDL
