MODEL 1
REMARK VINA RESULT:    -4.082      0.000      0.000
REMARK INTER + INTRA:          -7.658
REMARK INTER:                  -6.946
REMARK INTRA:                  -0.712
REMARK UNBOUND:                -0.712
REMARK SMILES CCCCCCCCCCCCCC(=O)[O-]
REMARK SMILES IDX 8 1 9 2 10 3 11 4 12 5 13 6 14 7 15 8 16 9 7 10 6 11 5 12
REMARK SMILES IDX 4 13 3 14 2 15 1 16
REMARK H PARENT
REMARK Flexibility Score: inf
ROOT
ATOM      1  C   UNL     1     -31.672 -21.664 -33.874  1.00  0.00     0.000 C 
ENDROOT
BRANCH   1   2
ATOM      2  C   UNL     1     -30.467 -20.781 -34.246  1.00  0.00     0.000 C 
BRANCH   2   3
ATOM      3  C   UNL     1     -29.398 -20.750 -33.143  1.00  0.00     0.000 C 
BRANCH   3   4
ATOM      4  C   UNL     1     -28.969 -19.319 -32.772  1.00  0.00     0.000 C 
BRANCH   4   5
ATOM      5  C   UNL     1     -29.384 -18.930 -31.344  1.00  0.00     0.006 C 
BRANCH   5   6
ATOM      6  C   UNL     1     -30.908 -18.875 -31.168  1.00  0.00     0.053 C 
BRANCH   6   7
ATOM      7  C   UNL     1     -31.334 -19.761 -30.042  1.00  0.00     0.041 C 
ATOM      8  O   UNL     1     -32.205 -19.369 -29.221  1.00  0.00    -0.550 OA
ATOM      9  O   UNL     1     -30.806 -21.041 -29.924  1.00  0.00    -0.550 OA
ENDBRANCH   6   7
ENDBRANCH   5   6
ENDBRANCH   4   5
ENDBRANCH   3   4
ENDBRANCH   2   3
ENDBRANCH   1   2
BRANCH   1  10
ATOM     10  C   UNL     1     -32.449 -22.150 -35.109  1.00  0.00     0.000 C 
BRANCH  10  11
ATOM     11  C   UNL     1     -31.527 -22.743 -36.188  1.00  0.00    -0.000 C 
BRANCH  11  12
ATOM     12  C   UNL     1     -31.894 -22.283 -37.610  1.00  0.00    -0.000 C 
BRANCH  12  13
ATOM     13  C   UNL     1     -31.863 -23.386 -38.686  1.00  0.00    -0.000 C 
BRANCH  13  14
ATOM     14  C   UNL     1     -31.881 -24.805 -38.091  1.00  0.00    -0.000 C 
BRANCH  14  15
ATOM     15  C   UNL     1     -32.598 -25.815 -39.001  1.00  0.00    -0.003 C 
ATOM     16  C   UNL     1     -32.680 -27.213 -38.388  1.00  0.00     0.004 C 
ENDBRANCH  14  15
ENDBRANCH  13  14
ENDBRANCH  12  13
ENDBRANCH  11  12
ENDBRANCH  10  11
ENDBRANCH   1  10
TORSDOF 12
ENDMDL
MODEL 2
REMARK VINA RESULT:    -3.914      0.937      1.351
REMARK INTER + INTRA:          -7.371
REMARK INTER:                  -6.540
REMARK INTRA:                  -0.831
REMARK UNBOUND:                -0.712
REMARK SMILES CCCCCCCCCCCCCC(=O)[O-]
REMARK SMILES IDX 8 1 9 2 10 3 11 4 12 5 13 6 14 7 15 8 16 9 7 10 6 11 5 12
REMARK SMILES IDX 4 13 3 14 2 15 1 16
REMARK H PARENT
REMARK Flexibility Score: inf
ROOT
ATOM      1  C   UNL     1     -31.826 -21.540 -34.129  1.00  0.00     0.000 C 
ENDROOT
BRANCH   1   2
ATOM      2  C   UNL     1     -30.395 -20.979 -34.210  1.00  0.00     0.000 C 
BRANCH   2   3
ATOM      3  C   UNL     1     -29.654 -21.059 -32.866  1.00  0.00     0.000 C 
BRANCH   3   4
ATOM      4  C   UNL     1     -28.813 -19.803 -32.576  1.00  0.00     0.000 C 
BRANCH   4   5
ATOM      5  C   UNL     1     -29.475 -18.875 -31.545  1.00  0.00     0.006 C 
BRANCH   5   6
ATOM      6  C   UNL     1     -30.153 -19.648 -30.405  1.00  0.00     0.053 C 
BRANCH   6   7
ATOM      7  C   UNL     1     -31.616 -19.342 -30.366  1.00  0.00     0.041 C 
ATOM      8  O   UNL     1     -32.198 -19.167 -29.263  1.00  0.00    -0.550 OA
ATOM      9  O   UNL     1     -32.329 -19.202 -31.550  1.00  0.00    -0.550 OA
ENDBRANCH   6   7
ENDBRANCH   5   6
ENDBRANCH   4   5
ENDBRANCH   3   4
ENDBRANCH   2   3
ENDBRANCH   1   2
BRANCH   1  10
ATOM     10  C   UNL     1     -32.210 -22.354 -35.376  1.00  0.00     0.000 C 
BRANCH  10  11
ATOM     11  C   UNL     1     -33.506 -21.847 -36.032  1.00  0.00    -0.000 C 
BRANCH  11  12
ATOM     12  C   UNL     1     -33.426 -21.811 -37.569  1.00  0.00    -0.000 C 
BRANCH  12  13
ATOM     13  C   UNL     1     -32.023 -22.051 -38.159  1.00  0.00    -0.000 C 
BRANCH  13  14
ATOM     14  C   UNL     1     -31.916 -23.376 -38.933  1.00  0.00    -0.000 C 
BRANCH  14  15
ATOM     15  C   UNL     1     -31.548 -24.559 -38.023  1.00  0.00    -0.003 C 
ATOM     16  C   UNL     1     -32.314 -25.836 -38.370  1.00  0.00     0.004 C 
ENDBRANCH  14  15
ENDBRANCH  13  14
ENDBRANCH  12  13
ENDBRANCH  11  12
ENDBRANCH  10  11
ENDBRANCH   1  10
TORSDOF 12
ENDMDL
MODEL 3
REMARK VINA RESULT:    -3.888      3.379      7.856
REMARK INTER + INTRA:          -7.327
REMARK INTER:                  -6.267
REMARK INTRA:                  -1.060
REMARK UNBOUND:                -0.712
REMARK SMILES CCCCCCCCCCCCCC(=O)[O-]
REMARK SMILES IDX 8 1 9 2 10 3 11 4 12 5 13 6 14 7 15 8 16 9 7 10 6 11 5 12
REMARK SMILES IDX 4 13 3 14 2 15 1 16
REMARK H PARENT
REMARK Flexibility Score: inf
ROOT
ATOM      1  C   UNL     1     -31.159 -21.311 -33.748  1.00  0.00     0.000 C 
ENDROOT
BRANCH   1   2
ATOM      2  C   UNL     1     -31.542 -21.820 -35.150  1.00  0.00     0.000 C 
BRANCH   2   3
ATOM      3  C   UNL     1     -33.015 -21.550 -35.492  1.00  0.00     0.000 C 
BRANCH   3   4
ATOM      4  C   UNL     1     -33.277 -21.519 -37.008  1.00  0.00     0.000 C 
BRANCH   4   5
ATOM      5  C   UNL     1     -32.040 -21.916 -37.829  1.00  0.00     0.006 C 
BRANCH   5   6
ATOM      6  C   UNL     1     -32.344 -23.010 -38.862  1.00  0.00     0.053 C 
BRANCH   6   7
ATOM      7  C   UNL     1     -31.869 -24.340 -38.368  1.00  0.00     0.041 C 
ATOM      8  O   UNL     1     -31.214 -24.421 -37.296  1.00  0.00    -0.550 OA
ATOM      9  O   UNL     1     -32.192 -25.497 -39.066  1.00  0.00    -0.550 OA
ENDBRANCH   6   7
ENDBRANCH   5   6
ENDBRANCH   4   5
ENDBRANCH   3   4
ENDBRANCH   2   3
ENDBRANCH   1   2
BRANCH   1  10
ATOM     10  C   UNL     1     -29.721 -20.769 -33.691  1.00  0.00     0.000 C 
BRANCH  10  11
ATOM     11  C   UNL     1     -29.664 -19.299 -33.242  1.00  0.00    -0.000 C 
BRANCH  11  12
ATOM     12  C   UNL     1     -28.636 -19.053 -32.123  1.00  0.00    -0.000 C 
BRANCH  12  13
ATOM     13  C   UNL     1     -29.184 -19.176 -30.689  1.00  0.00    -0.000 C 
BRANCH  13  14
ATOM     14  C   UNL     1     -30.689 -18.875 -30.594  1.00  0.00    -0.000 C 
BRANCH  14  15
ATOM     15  C   UNL     1     -31.456 -19.952 -29.809  1.00  0.00    -0.003 C 
ATOM     16  C   UNL     1     -30.774 -21.319 -29.856  1.00  0.00     0.004 C 
ENDBRANCH  14  15
ENDBRANCH  13  14
ENDBRANCH  12  13
ENDBRANCH  11  12
ENDBRANCH  10  11
ENDBRANCH   1  10
TORSDOF 12
ENDMDL
MODEL 4
REMARK VINA RESULT:    -3.816      1.332      2.153
REMARK INTER + INTRA:          -7.204
REMARK INTER:                  -6.426
REMARK INTRA:                  -0.778
REMARK UNBOUND:                -0.712
REMARK SMILES CCCCCCCCCCCCCC(=O)[O-]
REMARK SMILES IDX 8 1 9 2 10 3 11 4 12 5 13 6 14 7 15 8 16 9 7 10 6 11 5 12
REMARK SMILES IDX 4 13 3 14 2 15 1 16
REMARK H PARENT
REMARK Flexibility Score: inf
ROOT
ATOM      1  C   UNL     1     -29.967 -20.839 -33.834  1.00  0.00     0.000 C 
ENDROOT
BRANCH   1   2
ATOM      2  C   UNL     1     -29.665 -19.393 -33.399  1.00  0.00     0.000 C 
BRANCH   2   3
ATOM      3  C   UNL     1     -28.581 -19.320 -32.313  1.00  0.00     0.000 C 
BRANCH   3   4
ATOM      4  C   UNL     1     -29.159 -19.028 -30.916  1.00  0.00     0.000 C 
BRANCH   4   5
ATOM      5  C   UNL     1     -30.694 -18.954 -30.916  1.00  0.00     0.006 C 
BRANCH   5   6
ATOM      6  C   UNL     1     -31.323 -19.764 -29.774  1.00  0.00     0.053 C 
BRANCH   6   7
ATOM      7  C   UNL     1     -30.784 -21.159 -29.766  1.00  0.00     0.041 C 
ATOM      8  O   UNL     1     -30.915 -21.896 -30.778  1.00  0.00    -0.550 OA
ATOM      9  O   UNL     1     -30.092 -21.631 -28.656  1.00  0.00    -0.550 OA
ENDBRANCH   6   7
ENDBRANCH   5   6
ENDBRANCH   4   5
ENDBRANCH   3   4
ENDBRANCH   2   3
ENDBRANCH   1   2
BRANCH   1  10
ATOM     10  C   UNL     1     -31.472 -21.154 -33.826  1.00  0.00     0.000 C 
BRANCH  10  11
ATOM     11  C   UNL     1     -31.891 -22.056 -35.000  1.00  0.00    -0.000 C 
BRANCH  11  12
ATOM     12  C   UNL     1     -33.157 -21.556 -35.718  1.00  0.00    -0.000 C 
BRANCH  12  13
ATOM     13  C   UNL     1     -33.385 -22.137 -37.127  1.00  0.00    -0.000 C 
BRANCH  13  14
ATOM     14  C   UNL     1     -32.137 -22.050 -38.021  1.00  0.00    -0.000 C 
BRANCH  14  15
ATOM     15  C   UNL     1     -31.901 -23.337 -38.828  1.00  0.00    -0.003 C 
ATOM     16  C   UNL     1     -31.657 -24.557 -37.941  1.00  0.00     0.004 C 
ENDBRANCH  14  15
ENDBRANCH  13  14
ENDBRANCH  12  13
ENDBRANCH  11  12
ENDBRANCH  10  11
ENDBRANCH   1  10
TORSDOF 12
ENDMDL
MODEL 5
REMARK VINA RESULT:    -3.695      3.463      7.758
REMARK INTER + INTRA:          -6.999
REMARK INTER:                  -5.927
REMARK INTRA:                  -1.072
REMARK UNBOUND:                -0.712
REMARK SMILES CCCCCCCCCCCCCC(=O)[O-]
REMARK SMILES IDX 8 1 9 2 10 3 11 4 12 5 13 6 14 7 15 8 16 9 7 10 6 11 5 12
REMARK SMILES IDX 4 13 3 14 2 15 1 16
REMARK H PARENT
REMARK Flexibility Score: inf
ROOT
ATOM      1  C   UNL     1     -31.320 -21.483 -33.915  1.00  0.00     0.000 C 
ENDROOT
BRANCH   1   2
ATOM      2  C   UNL     1     -31.665 -21.803 -35.380  1.00  0.00     0.000 C 
BRANCH   2   3
ATOM      3  C   UNL     1     -33.180 -21.859 -35.629  1.00  0.00     0.000 C 
BRANCH   3   4
ATOM      4  C   UNL     1     -33.530 -22.236 -37.080  1.00  0.00     0.000 C 
BRANCH   4   5
ATOM      5  C   UNL     1     -32.354 -22.019 -38.046  1.00  0.00     0.006 C 
BRANCH   5   6
ATOM      6  C   UNL     1     -32.269 -23.107 -39.125  1.00  0.00     0.053 C 
BRANCH   6   7
ATOM      7  C   UNL     1     -31.903 -24.421 -38.513  1.00  0.00     0.041 C 
ATOM      8  O   UNL     1     -32.293 -25.497 -39.040  1.00  0.00    -0.550 OA
ATOM      9  O   UNL     1     -31.090 -24.462 -37.387  1.00  0.00    -0.550 OA
ENDBRANCH   6   7
ENDBRANCH   5   6
ENDBRANCH   4   5
ENDBRANCH   3   4
ENDBRANCH   2   3
ENDBRANCH   1   2
BRANCH   1  10
ATOM     10  C   UNL     1     -29.973 -20.754 -33.773  1.00  0.00     0.000 C 
BRANCH  10  11
ATOM     11  C   UNL     1     -30.115 -19.386 -33.084  1.00  0.00    -0.000 C 
BRANCH  11  12
ATOM     12  C   UNL     1     -31.552 -19.095 -32.617  1.00  0.00    -0.000 C 
BRANCH  12  13
ATOM     13  C   UNL     1     -31.735 -18.969 -31.092  1.00  0.00    -0.000 C 
BRANCH  13  14
ATOM     14  C   UNL     1     -30.537 -19.516 -30.297  1.00  0.00    -0.000 C 
BRANCH  14  15
ATOM     15  C   UNL     1     -30.882 -20.800 -29.524  1.00  0.00    -0.003 C 
ATOM     16  C   UNL     1     -30.766 -22.059 -30.382  1.00  0.00     0.004 C 
ENDBRANCH  14  15
ENDBRANCH  13  14
ENDBRANCH  12  13
ENDBRANCH  11  12
ENDBRANCH  10  11
ENDBRANCH   1  10
TORSDOF 12
ENDMDL
MODEL 6
REMARK VINA RESULT:    -3.415      3.768      7.519
REMARK INTER + INTRA:          -6.523
REMARK INTER:                  -5.325
REMARK INTRA:                  -1.198
REMARK UNBOUND:                -0.712
REMARK SMILES CCCCCCCCCCCCCC(=O)[O-]
REMARK SMILES IDX 8 1 9 2 10 3 11 4 12 5 13 6 14 7 15 8 16 9 7 10 6 11 5 12
REMARK SMILES IDX 4 13 3 14 2 15 1 16
REMARK H PARENT
REMARK Flexibility Score: inf
ROOT
ATOM      1  C   UNL     1     -29.956 -20.784 -33.859  1.00  0.00     0.000 C 
ENDROOT
BRANCH   1   2
ATOM      2  C   UNL     1     -31.417 -21.129 -33.522  1.00  0.00     0.000 C 
BRANCH   2   3
ATOM      3  C   UNL     1     -32.294 -21.267 -34.776  1.00  0.00     0.000 C 
BRANCH   3   4
ATOM      4  C   UNL     1     -32.291 -22.695 -35.349  1.00  0.00     0.000 C 
BRANCH   4   5
ATOM      5  C   UNL     1     -31.270 -22.873 -36.484  1.00  0.00     0.006 C 
BRANCH   5   6
ATOM      6  C   UNL     1     -31.506 -21.900 -37.648  1.00  0.00     0.053 C 
BRANCH   6   7
ATOM      7  C   UNL     1     -32.696 -22.323 -38.448  1.00  0.00     0.041 C 
ATOM      8  O   UNL     1     -32.739 -23.472 -38.962  1.00  0.00    -0.550 OA
ATOM      9  O   UNL     1     -33.781 -21.466 -38.588  1.00  0.00    -0.550 OA
ENDBRANCH   6   7
ENDBRANCH   5   6
ENDBRANCH   4   5
ENDBRANCH   3   4
ENDBRANCH   2   3
ENDBRANCH   1   2
BRANCH   1  10
ATOM     10  C   UNL     1     -29.593 -19.335 -33.492  1.00  0.00     0.000 C 
BRANCH  10  11
ATOM     11  C   UNL     1     -28.467 -19.258 -32.447  1.00  0.00    -0.000 C 
BRANCH  11  12
ATOM     12  C   UNL     1     -28.991 -19.076 -31.012  1.00  0.00    -0.000 C 
BRANCH  12  13
ATOM     13  C   UNL     1     -30.514 -18.875 -30.889  1.00  0.00    -0.000 C 
BRANCH  13  14
ATOM     14  C   UNL     1     -31.196 -19.963 -30.043  1.00  0.00    -0.000 C 
BRANCH  14  15
ATOM     15  C   UNL     1     -30.319 -21.215 -29.877  1.00  0.00    -0.003 C 
ATOM     16  C   UNL     1     -30.990 -22.484 -30.402  1.00  0.00     0.004 C 
ENDBRANCH  14  15
ENDBRANCH  13  14
ENDBRANCH  12  13
ENDBRANCH  11  12
ENDBRANCH  10  11
ENDBRANCH   1  10
TORSDOF 12
ENDMDL
MODEL 7
REMARK VINA RESULT:    -3.161      1.629      2.412
REMARK INTER + INTRA:          -6.091
REMARK INTER:                  -5.358
REMARK INTRA:                  -0.733
REMARK UNBOUND:                -0.712
REMARK SMILES CCCCCCCCCCCCCC(=O)[O-]
REMARK SMILES IDX 8 1 9 2 10 3 11 4 12 5 13 6 14 7 15 8 16 9 7 10 6 11 5 12
REMARK SMILES IDX 4 13 3 14 2 15 1 16
REMARK H PARENT
REMARK Flexibility Score: inf
ROOT
ATOM      1  C   UNL     1     -30.493 -21.278 -32.617  1.00  0.00     0.000 C 
ENDROOT
BRANCH   1   2
ATOM      2  C   UNL     1     -29.268 -20.502 -33.135  1.00  0.00     0.000 C 
BRANCH   2   3
ATOM      3  C   UNL     1     -29.040 -19.186 -32.376  1.00  0.00     0.000 C 
BRANCH   3   4
ATOM      4  C   UNL     1     -28.470 -19.407 -30.964  1.00  0.00     0.000 C 
BRANCH   4   5
ATOM      5  C   UNL     1     -29.401 -18.875 -29.862  1.00  0.00     0.006 C 
BRANCH   5   6
ATOM      6  C   UNL     1     -30.876 -18.876 -30.285  1.00  0.00     0.053 C 
BRANCH   6   7
ATOM      7  C   UNL     1     -31.681 -19.738 -29.366  1.00  0.00     0.041 C 
ATOM      8  O   UNL     1     -32.658 -19.253 -28.736  1.00  0.00    -0.550 OA
ATOM      9  O   UNL     1     -31.385 -21.090 -29.242  1.00  0.00    -0.550 OA
ENDBRANCH   6   7
ENDBRANCH   5   6
ENDBRANCH   4   5
ENDBRANCH   3   4
ENDBRANCH   2   3
ENDBRANCH   1   2
BRANCH   1  10
ATOM     10  C   UNL     1     -31.822 -20.642 -33.056  1.00  0.00     0.000 C 
BRANCH  10  11
ATOM     11  C   UNL     1     -32.162 -20.946 -34.525  1.00  0.00    -0.000 C 
BRANCH  11  12
ATOM     12  C   UNL     1     -31.860 -22.402 -34.923  1.00  0.00    -0.000 C 
BRANCH  12  13
ATOM     13  C   UNL     1     -32.878 -23.046 -35.883  1.00  0.00    -0.000 C 
BRANCH  13  14
ATOM     14  C   UNL     1     -33.349 -22.087 -36.989  1.00  0.00    -0.000 C 
BRANCH  14  15
ATOM     15  C   UNL     1     -32.269 -21.844 -38.055  1.00  0.00    -0.003 C 
ATOM     16  C   UNL     1     -32.173 -22.979 -39.074  1.00  0.00     0.004 C 
ENDBRANCH  14  15
ENDBRANCH  13  14
ENDBRANCH  12  13
ENDBRANCH  11  12
ENDBRANCH  10  11
ENDBRANCH   1  10
TORSDOF 12
ENDMDL
MODEL 8
REMARK VINA RESULT:    -2.760      3.401      7.634
REMARK INTER + INTRA:          -5.408
REMARK INTER:                  -4.510
REMARK INTRA:                  -0.899
REMARK UNBOUND:                -0.712
REMARK SMILES CCCCCCCCCCCCCC(=O)[O-]
REMARK SMILES IDX 8 1 9 2 10 3 11 4 12 5 13 6 14 7 15 8 16 9 7 10 6 11 5 12
REMARK SMILES IDX 4 13 3 14 2 15 1 16
REMARK H PARENT
REMARK Flexibility Score: inf
ROOT
ATOM      1  C   UNL     1     -30.923 -20.503 -33.884  1.00  0.00     0.000 C 
ENDROOT
BRANCH   1   2
ATOM      2  C   UNL     1     -31.427 -21.948 -33.716  1.00  0.00     0.000 C 
BRANCH   2   3
ATOM      3  C   UNL     1     -32.637 -22.257 -34.611  1.00  0.00     0.000 C 
BRANCH   3   4
ATOM      4  C   UNL     1     -32.910 -21.149 -35.644  1.00  0.00     0.000 C 
BRANCH   4   5
ATOM      5  C   UNL     1     -33.551 -21.688 -36.933  1.00  0.00     0.006 C 
BRANCH   5   6
ATOM      6  C   UNL     1     -32.517 -22.266 -37.909  1.00  0.00     0.053 C 
BRANCH   6   7
ATOM      7  C   UNL     1     -32.085 -23.626 -37.466  1.00  0.00     0.041 C 
ATOM      8  O   UNL     1     -30.860 -23.903 -37.371  1.00  0.00    -0.550 OA
ATOM      9  O   UNL     1     -33.033 -24.577 -37.110  1.00  0.00    -0.550 OA
ENDBRANCH   6   7
ENDBRANCH   5   6
ENDBRANCH   4   5
ENDBRANCH   3   4
ENDBRANCH   2   3
ENDBRANCH   1   2
BRANCH   1  10
ATOM     10  C   UNL     1     -29.440 -20.349 -33.510  1.00  0.00     0.000 C 
BRANCH  10  11
ATOM     11  C   UNL     1     -29.144 -19.010 -32.814  1.00  0.00    -0.000 C 
BRANCH  11  12
ATOM     12  C   UNL     1     -28.524 -19.184 -31.416  1.00  0.00    -0.000 C 
BRANCH  12  13
ATOM     13  C   UNL     1     -29.467 -18.875 -30.237  1.00  0.00    -0.000 C 
BRANCH  13  14
ATOM     14  C   UNL     1     -30.384 -20.056 -29.877  1.00  0.00    -0.000 C 
BRANCH  14  15
ATOM     15  C   UNL     1     -31.864 -19.647 -29.798  1.00  0.00    -0.003 C 
ATOM     16  C   UNL     1     -32.338 -18.890 -31.039  1.00  0.00     0.004 C 
ENDBRANCH  14  15
ENDBRANCH  13  14
ENDBRANCH  12  13
ENDBRANCH  11  12
ENDBRANCH  10  11
ENDBRANCH   1  10
TORSDOF 12
ENDMDL
MODEL 9
REMARK VINA RESULT:    -2.031      3.754      7.973
REMARK INTER + INTRA:          -4.168
REMARK INTER:                  -3.540
REMARK INTRA:                  -0.628
REMARK UNBOUND:                -0.712
REMARK SMILES CCCCCCCCCCCCCC(=O)[O-]
REMARK SMILES IDX 8 1 9 2 10 3 11 4 12 5 13 6 14 7 15 8 16 9 7 10 6 11 5 12
REMARK SMILES IDX 4 13 3 14 2 15 1 16
REMARK H PARENT
REMARK Flexibility Score: inf
ROOT
ATOM      1  C   UNL     1     -29.855 -19.487 -33.199  1.00  0.00     0.000 C 
ENDROOT
BRANCH   1   2
ATOM      2  C   UNL     1     -30.027 -20.802 -33.980  1.00  0.00     0.000 C 
BRANCH   2   3
ATOM      3  C   UNL     1     -31.371 -21.487 -33.689  1.00  0.00     0.000 C 
BRANCH   3   4
ATOM      4  C   UNL     1     -32.221 -21.689 -34.956  1.00  0.00     0.000 C 
BRANCH   4   5
ATOM      5  C   UNL     1     -31.946 -23.037 -35.643  1.00  0.00     0.006 C 
BRANCH   5   6
ATOM      6  C   UNL     1     -32.883 -23.296 -36.830  1.00  0.00     0.053 C 
BRANCH   6   7
ATOM      7  C   UNL     1     -32.102 -23.748 -38.022  1.00  0.00     0.041 C 
ATOM      8  O   UNL     1     -31.667 -24.928 -38.086  1.00  0.00    -0.550 OA
ATOM      9  O   UNL     1     -31.895 -22.880 -39.088  1.00  0.00    -0.550 OA
ENDBRANCH   6   7
ENDBRANCH   5   6
ENDBRANCH   4   5
ENDBRANCH   3   4
ENDBRANCH   2   3
ENDBRANCH   1   2
BRANCH   1  10
ATOM     10  C   UNL     1     -31.198 -18.878 -32.766  1.00  0.00     0.000 C 
BRANCH  10  11
ATOM     11  C   UNL     1     -31.399 -18.919 -31.241  1.00  0.00    -0.000 C 
BRANCH  11  12
ATOM     12  C   UNL     1     -30.442 -19.897 -30.536  1.00  0.00    -0.000 C 
BRANCH  12  13
ATOM     13  C   UNL     1     -31.089 -20.783 -29.454  1.00  0.00    -0.000 C 
BRANCH  13  14
ATOM     14  C   UNL     1     -30.259 -22.037 -29.131  1.00  0.00    -0.000 C 
BRANCH  14  15
ATOM     15  C   UNL     1     -29.200 -21.776 -28.047  1.00  0.00    -0.003 C 
ATOM     16  C   UNL     1     -29.141 -22.885 -26.996  1.00  0.00     0.004 C 
ENDBRANCH  14  15
ENDBRANCH  13  14
ENDBRANCH  12  13
ENDBRANCH  11  12
ENDBRANCH  10  11
ENDBRANCH   1  10
TORSDOF 12
ENDMDL
