MODEL 1
REMARK VINA RESULT:    -3.379      0.000      0.000
REMARK INTER + INTRA:          -6.385
REMARK INTER:                  -6.144
REMARK INTRA:                  -0.240
REMARK UNBOUND:                -0.240
REMARK SMILES CCCCCCCCCCCCCC[C@H](C)C(=O)[O-]
REMARK SMILES IDX 9 1 10 2 11 3 12 4 13 5 14 6 15 7 16 8 17 9 18 10 19 11 8 12
REMARK SMILES IDX 7 13 6 14 5 15 4 16 3 17 2 18 1 19
REMARK H PARENT
REMARK Flexibility Score: inf
ROOT
ATOM      1  C   UNL     1      -9.101  16.208 -13.441  1.00  0.00     0.000 C 
ENDROOT
BRANCH   1   2
ATOM      2  C   UNL     1      -8.414  16.646 -14.754  1.00  0.00     0.000 C 
BRANCH   2   3
ATOM      3  C   UNL     1      -6.876  16.554 -14.708  1.00  0.00     0.000 C 
BRANCH   3   4
ATOM      4  C   UNL     1      -6.153  17.888 -14.440  1.00  0.00     0.000 C 
BRANCH   4   5
ATOM      5  C   UNL     1      -6.360  18.967 -15.520  1.00  0.00     0.001 C 
BRANCH   5   6
ATOM      6  C   UNL     1      -5.875  20.359 -15.079  1.00  0.00     0.009 C 
BRANCH   6   7
ATOM      7  C   UNL     1      -6.873  21.066 -14.137  1.00  0.00     0.032 C 
ATOM      8  C   UNL     1      -6.458  20.955 -12.664  1.00  0.00     0.014 C 
BRANCH   7   9
ATOM      9  C   UNL     1      -8.252  20.492 -14.319  1.00  0.00     0.044 C 
ATOM     10  O   UNL     1      -8.877  20.657 -15.403  1.00  0.00    -0.550 OA
ATOM     11  O   UNL     1      -8.837  19.756 -13.295  1.00  0.00    -0.550 OA
ENDBRANCH   7   9
ENDBRANCH   6   7
ENDBRANCH   5   6
ENDBRANCH   4   5
ENDBRANCH   3   4
ENDBRANCH   2   3
ENDBRANCH   1   2
BRANCH   1  12
ATOM     12  C   UNL     1      -8.099  16.007 -12.292  1.00  0.00     0.000 C 
BRANCH  12  13
ATOM     13  C   UNL     1      -7.859  14.524 -11.966  1.00  0.00    -0.000 C 
BRANCH  13  14
ATOM     14  C   UNL     1      -8.295  13.590 -13.106  1.00  0.00    -0.000 C 
BRANCH  14  15
ATOM     15  C   UNL     1      -7.190  12.582 -13.443  1.00  0.00    -0.000 C 
BRANCH  15  16
ATOM     16  C   UNL     1      -6.756  12.712 -14.912  1.00  0.00    -0.000 C 
BRANCH  16  17
ATOM     17  C   UNL     1      -7.872  12.334 -15.902  1.00  0.00    -0.000 C 
BRANCH  17  18
ATOM     18  C   UNL     1      -9.231  13.004 -15.633  1.00  0.00    -0.003 C 
ATOM     19  C   UNL     1     -10.418  12.148 -16.073  1.00  0.00     0.004 C 
ENDBRANCH  17  18
ENDBRANCH  16  17
ENDBRANCH  15  16
ENDBRANCH  14  15
ENDBRANCH  13  14
ENDBRANCH  12  13
ENDBRANCH   1  12
TORSDOF 14
ENDMDL
MODEL 2
REMARK VINA RESULT:    -3.314      2.818      6.753
REMARK INTER + INTRA:          -6.267
REMARK INTER:                  -4.667
REMARK INTRA:                  -1.600
REMARK UNBOUND:                -0.240
REMARK SMILES CCCCCCCCCCCCCC[C@H](C)C(=O)[O-]
REMARK SMILES IDX 9 1 10 2 11 3 12 4 13 5 14 6 15 7 16 8 17 9 18 10 19 11 8 12
REMARK SMILES IDX 7 13 6 14 5 15 4 16 3 17 2 18 1 19
REMARK H PARENT
REMARK Flexibility Score: inf
ROOT
ATOM      1  C   UNL     1      -9.270  15.929 -12.320  1.00  0.00     0.000 C 
ENDROOT
BRANCH   1   2
ATOM      2  C   UNL     1      -7.937  15.201 -12.038  1.00  0.00     0.000 C 
BRANCH   2   3
ATOM      3  C   UNL     1      -7.999  13.680 -12.276  1.00  0.00     0.000 C 
BRANCH   3   4
ATOM      4  C   UNL     1      -6.824  13.100 -13.086  1.00  0.00     0.000 C 
BRANCH   4   5
ATOM      5  C   UNL     1      -6.626  13.724 -14.480  1.00  0.00     0.001 C 
BRANCH   5   6
ATOM      6  C   UNL     1      -7.213  12.863 -15.612  1.00  0.00     0.009 C 
BRANCH   6   7
ATOM      7  C   UNL     1      -8.568  13.395 -16.124  1.00  0.00     0.032 C 
ATOM      8  C   UNL     1      -8.817  14.848 -15.701  1.00  0.00     0.014 C 
BRANCH   7   9
ATOM      9  C   UNL     1      -9.689  12.523 -15.625  1.00  0.00     0.044 C 
ATOM     10  O   UNL     1      -9.444  11.506 -14.921  1.00  0.00    -0.550 OA
ATOM     11  O   UNL     1     -11.007  12.851 -15.923  1.00  0.00    -0.550 OA
ENDBRANCH   7   9
ENDBRANCH   6   7
ENDBRANCH   5   6
ENDBRANCH   4   5
ENDBRANCH   3   4
ENDBRANCH   2   3
ENDBRANCH   1   2
BRANCH   1  12
ATOM     12  C   UNL     1      -9.060  17.386 -12.766  1.00  0.00     0.000 C 
BRANCH  12  13
ATOM     13  C   UNL     1      -7.881  17.545 -13.739  1.00  0.00    -0.000 C 
BRANCH  13  14
ATOM     14  C   UNL     1      -8.303  18.152 -15.086  1.00  0.00    -0.000 C 
BRANCH  14  15
ATOM     15  C   UNL     1      -7.083  18.650 -15.870  1.00  0.00    -0.000 C 
BRANCH  15  16
ATOM     16  C   UNL     1      -7.153  20.169 -16.091  1.00  0.00    -0.000 C 
BRANCH  16  17
ATOM     17  C   UNL     1      -6.405  20.967 -15.008  1.00  0.00    -0.000 C 
BRANCH  17  18
ATOM     18  C   UNL     1      -7.164  21.124 -13.679  1.00  0.00    -0.003 C 
ATOM     19  C   UNL     1      -6.268  20.946 -12.453  1.00  0.00     0.004 C 
ENDBRANCH  17  18
ENDBRANCH  16  17
ENDBRANCH  15  16
ENDBRANCH  14  15
ENDBRANCH  13  14
ENDBRANCH  12  13
ENDBRANCH   1  12
TORSDOF 14
ENDMDL
MODEL 3
REMARK VINA RESULT:    -3.149      1.234      1.594
REMARK INTER + INTRA:          -5.967
REMARK INTER:                  -4.554
REMARK INTRA:                  -1.412
REMARK UNBOUND:                -0.240
REMARK SMILES CCCCCCCCCCCCCC[C@H](C)C(=O)[O-]
REMARK SMILES IDX 9 1 10 2 11 3 12 4 13 5 14 6 15 7 16 8 17 9 18 10 19 11 8 12
REMARK SMILES IDX 7 13 6 14 5 15 4 16 3 17 2 18 1 19
REMARK H PARENT
REMARK Flexibility Score: inf
ROOT
ATOM      1  C   UNL     1      -8.590  16.581 -13.463  1.00  0.00     0.000 C 
ENDROOT
BRANCH   1   2
ATOM      2  C   UNL     1      -9.174  16.576 -14.893  1.00  0.00     0.000 C 
BRANCH   2   3
ATOM      3  C   UNL     1      -8.144  16.922 -15.986  1.00  0.00     0.000 C 
BRANCH   3   4
ATOM      4  C   UNL     1      -6.687  17.030 -15.496  1.00  0.00     0.000 C 
BRANCH   4   5
ATOM      5  C   UNL     1      -5.875  18.178 -16.125  1.00  0.00     0.001 C 
BRANCH   5   6
ATOM      6  C   UNL     1      -6.488  19.564 -15.856  1.00  0.00     0.009 C 
BRANCH   6   7
ATOM      7  C   UNL     1      -7.622  19.521 -14.811  1.00  0.00     0.032 C 
ATOM      8  C   UNL     1      -8.850  20.327 -15.254  1.00  0.00     0.014 C 
BRANCH   7   9
ATOM      9  C   UNL     1      -7.127  20.039 -13.488  1.00  0.00     0.044 C 
ATOM     10  O   UNL     1      -5.980  20.554 -13.390  1.00  0.00    -0.550 OA
ATOM     11  O   UNL     1      -7.946  19.971 -12.366  1.00  0.00    -0.550 OA
ENDBRANCH   7   9
ENDBRANCH   6   7
ENDBRANCH   5   6
ENDBRANCH   4   5
ENDBRANCH   3   4
ENDBRANCH   2   3
ENDBRANCH   1   2
BRANCH   1  12
ATOM     12  C   UNL     1      -9.208  15.490 -12.572  1.00  0.00     0.000 C 
BRANCH  12  13
ATOM     13  C   UNL     1      -8.149  14.592 -11.914  1.00  0.00    -0.000 C 
BRANCH  13  14
ATOM     14  C   UNL     1      -6.983  14.261 -12.859  1.00  0.00    -0.000 C 
BRANCH  14  15
ATOM     15  C   UNL     1      -7.329  13.072 -13.763  1.00  0.00    -0.000 C 
BRANCH  15  16
ATOM     16  C   UNL     1      -7.196  13.451 -15.246  1.00  0.00    -0.000 C 
BRANCH  16  17
ATOM     17  C   UNL     1      -8.368  12.939 -16.103  1.00  0.00    -0.000 C 
BRANCH  17  18
ATOM     18  C   UNL     1      -9.673  12.683 -15.328  1.00  0.00    -0.003 C 
ATOM     19  C   UNL     1     -10.594  11.679 -16.021  1.00  0.00     0.004 C 
ENDBRANCH  17  18
ENDBRANCH  16  17
ENDBRANCH  15  16
ENDBRANCH  14  15
ENDBRANCH  13  14
ENDBRANCH  12  13
ENDBRANCH   1  12
TORSDOF 14
ENDMDL
MODEL 4
REMARK VINA RESULT:    -2.869      2.840      6.353
REMARK INTER + INTRA:          -5.457
REMARK INTER:                  -4.887
REMARK INTRA:                  -0.570
REMARK UNBOUND:                -0.240
REMARK SMILES CCCCCCCCCCCCCC[C@H](C)C(=O)[O-]
REMARK SMILES IDX 9 1 10 2 11 3 12 4 13 5 14 6 15 7 16 8 17 9 18 10 19 11 8 12
REMARK SMILES IDX 7 13 6 14 5 15 4 16 3 17 2 18 1 19
REMARK H PARENT
REMARK Flexibility Score: inf
ROOT
ATOM      1  C   UNL     1      -9.392  16.921 -12.764  1.00  0.00     0.000 C 
ENDROOT
BRANCH   1   2
ATOM      2  C   UNL     1      -8.075  16.120 -12.866  1.00  0.00     0.000 C 
BRANCH   2   3
ATOM      3  C   UNL     1      -8.161  14.706 -12.259  1.00  0.00     0.000 C 
BRANCH   3   4
ATOM      4  C   UNL     1      -7.190  13.676 -12.868  1.00  0.00     0.000 C 
BRANCH   4   5
ATOM      5  C   UNL     1      -6.583  14.080 -14.225  1.00  0.00     0.001 C 
BRANCH   5   6
ATOM      6  C   UNL     1      -6.915  13.086 -15.351  1.00  0.00     0.009 C 
BRANCH   6   7
ATOM      7  C   UNL     1      -8.195  13.467 -16.124  1.00  0.00     0.032 C 
ATOM      8  C   UNL     1      -8.465  14.977 -16.089  1.00  0.00     0.014 C 
BRANCH   7   9
ATOM      9  C   UNL     1      -9.379  12.727 -15.562  1.00  0.00     0.044 C 
ATOM     10  O   UNL     1     -10.161  13.293 -14.750  1.00  0.00    -0.550 OA
ATOM     11  O   UNL     1      -9.628  11.418 -15.956  1.00  0.00    -0.550 OA
ENDBRANCH   7   9
ENDBRANCH   6   7
ENDBRANCH   5   6
ENDBRANCH   4   5
ENDBRANCH   3   4
ENDBRANCH   2   3
ENDBRANCH   1   2
BRANCH   1  12
ATOM     12  C   UNL     1      -9.148  18.428 -12.575  1.00  0.00     0.000 C 
BRANCH  12  13
ATOM     13  C   UNL     1      -7.710  18.844 -12.921  1.00  0.00    -0.000 C 
BRANCH  13  14
ATOM     14  C   UNL     1      -7.486  20.360 -12.795  1.00  0.00    -0.000 C 
BRANCH  14  15
ATOM     15  C   UNL     1      -6.189  20.783 -13.497  1.00  0.00    -0.000 C 
BRANCH  15  16
ATOM     16  C   UNL     1      -6.214  20.390 -14.982  1.00  0.00    -0.000 C 
BRANCH  16  17
ATOM     17  C   UNL     1      -7.544  19.743 -15.408  1.00  0.00    -0.000 C 
BRANCH  17  18
ATOM     18  C   UNL     1      -7.405  18.388 -16.124  1.00  0.00    -0.003 C 
ATOM     19  C   UNL     1      -6.070  17.697 -15.844  1.00  0.00     0.004 C 
ENDBRANCH  17  18
ENDBRANCH  16  17
ENDBRANCH  15  16
ENDBRANCH  14  15
ENDBRANCH  13  14
ENDBRANCH  12  13
ENDBRANCH   1  12
TORSDOF 14
ENDMDL
MODEL 5
REMARK VINA RESULT:    -2.510      2.817      6.581
REMARK INTER + INTRA:          -4.805
REMARK INTER:                  -5.051
REMARK INTRA:                   0.247
REMARK UNBOUND:                -0.240
REMARK SMILES CCCCCCCCCCCCCC[C@H](C)C(=O)[O-]
REMARK SMILES IDX 9 1 10 2 11 3 12 4 13 5 14 6 15 7 16 8 17 9 18 10 19 11 8 12
REMARK SMILES IDX 7 13 6 14 5 15 4 16 3 17 2 18 1 19
REMARK H PARENT
REMARK Flexibility Score: inf
ROOT
ATOM      1  C   UNL     1      -9.130  16.714 -13.186  1.00  0.00     0.000 C 
ENDROOT
BRANCH   1   2
ATOM      2  C   UNL     1      -7.686  16.176 -13.298  1.00  0.00     0.000 C 
BRANCH   2   3
ATOM      3  C   UNL     1      -6.815  16.946 -14.310  1.00  0.00     0.000 C 
BRANCH   3   4
ATOM      4  C   UNL     1      -6.068  16.064 -15.329  1.00  0.00     0.000 C 
BRANCH   4   5
ATOM      5  C   UNL     1      -6.960  15.091 -16.122  1.00  0.00     0.001 C 
BRANCH   5   6
ATOM      6  C   UNL     1      -6.528  13.622 -15.971  1.00  0.00     0.009 C 
BRANCH   6   7
ATOM      7  C   UNL     1      -7.428  12.834 -14.996  1.00  0.00     0.032 C 
ATOM      8  C   UNL     1      -8.743  13.568 -14.699  1.00  0.00     0.014 C 
BRANCH   7   9
ATOM      9  C   UNL     1      -6.693  12.571 -13.709  1.00  0.00     0.044 C 
ATOM     10  O   UNL     1      -5.888  11.605 -13.617  1.00  0.00    -0.550 OA
ATOM     11  O   UNL     1      -6.886  13.411 -12.618  1.00  0.00    -0.550 OA
ENDBRANCH   7   9
ENDBRANCH   6   7
ENDBRANCH   5   6
ENDBRANCH   4   5
ENDBRANCH   3   4
ENDBRANCH   2   3
ENDBRANCH   1   2
BRANCH   1  12
ATOM     12  C   UNL     1      -9.193  18.086 -12.494  1.00  0.00     0.000 C 
BRANCH  12  13
ATOM     13  C   UNL     1      -8.462  19.182 -13.284  1.00  0.00    -0.000 C 
BRANCH  13  14
ATOM     14  C   UNL     1      -8.049  20.372 -12.403  1.00  0.00    -0.000 C 
BRANCH  14  15
ATOM     15  C   UNL     1      -6.748  21.005 -12.911  1.00  0.00    -0.000 C 
BRANCH  15  16
ATOM     16  C   UNL     1      -6.178  20.214 -14.098  1.00  0.00    -0.000 C 
BRANCH  16  17
ATOM     17  C   UNL     1      -6.160  21.027 -15.406  1.00  0.00    -0.000 C 
BRANCH  17  18
ATOM     18  C   UNL     1      -7.517  21.125 -16.125  1.00  0.00    -0.003 C 
ATOM     19  C   UNL     1      -8.348  19.847 -16.014  1.00  0.00     0.004 C 
ENDBRANCH  17  18
ENDBRANCH  16  17
ENDBRANCH  15  16
ENDBRANCH  14  15
ENDBRANCH  13  14
ENDBRANCH  12  13
ENDBRANCH   1  12
TORSDOF 14
ENDMDL
MODEL 6
REMARK VINA RESULT:    -2.308      1.292      2.840
REMARK INTER + INTRA:          -4.438
REMARK INTER:                  -2.977
REMARK INTRA:                  -1.461
REMARK UNBOUND:                -0.240
REMARK SMILES CCCCCCCCCCCCCC[C@H](C)C(=O)[O-]
REMARK SMILES IDX 9 1 10 2 11 3 12 4 13 5 14 6 15 7 16 8 17 9 18 10 19 11 8 12
REMARK SMILES IDX 7 13 6 14 5 15 4 16 3 17 2 18 1 19
REMARK H PARENT
REMARK Flexibility Score: inf
ROOT
ATOM      1  C   UNL     1      -8.041  14.670 -15.912  1.00  0.00     0.000 C 
ENDROOT
BRANCH   1   2
ATOM      2  C   UNL     1      -6.777  15.553 -15.820  1.00  0.00     0.000 C 
BRANCH   2   3
ATOM      3  C   UNL     1      -7.077  17.064 -15.788  1.00  0.00     0.000 C 
BRANCH   3   4
ATOM      4  C   UNL     1      -5.875  17.974 -16.108  1.00  0.00     0.000 C 
BRANCH   4   5
ATOM      5  C   UNL     1      -5.990  19.413 -15.569  1.00  0.00     0.001 C 
BRANCH   5   6
ATOM      6  C   UNL     1      -6.017  19.478 -14.032  1.00  0.00     0.009 C 
BRANCH   6   7
ATOM      7  C   UNL     1      -7.178  20.339 -13.493  1.00  0.00     0.032 C 
ATOM      8  C   UNL     1      -6.807  21.063 -12.192  1.00  0.00     0.014 C 
BRANCH   7   9
ATOM      9  C   UNL     1      -8.395  19.484 -13.266  1.00  0.00     0.044 C 
ATOM     10  O   UNL     1      -9.145  19.169 -14.230  1.00  0.00    -0.550 OA
ATOM     11  O   UNL     1      -8.686  19.018 -11.989  1.00  0.00    -0.550 OA
ENDBRANCH   7   9
ENDBRANCH   6   7
ENDBRANCH   5   6
ENDBRANCH   4   5
ENDBRANCH   3   4
ENDBRANCH   2   3
ENDBRANCH   1   2
BRANCH   1  12
ATOM     12  C   UNL     1      -7.709  13.168 -15.917  1.00  0.00     0.000 C 
BRANCH  12  13
ATOM     13  C   UNL     1      -6.252  12.882 -15.520  1.00  0.00    -0.000 C 
BRANCH  13  14
ATOM     14  C   UNL     1      -6.137  12.181 -14.157  1.00  0.00    -0.000 C 
BRANCH  14  15
ATOM     15  C   UNL     1      -6.317  13.181 -13.009  1.00  0.00    -0.000 C 
BRANCH  15  16
ATOM     16  C   UNL     1      -7.787  13.249 -12.565  1.00  0.00    -0.000 C 
BRANCH  16  17
ATOM     17  C   UNL     1      -8.062  14.401 -11.580  1.00  0.00    -0.000 C 
BRANCH  17  18
ATOM     18  C   UNL     1      -8.198  15.789 -12.229  1.00  0.00    -0.003 C 
ATOM     19  C   UNL     1      -9.445  15.922 -13.104  1.00  0.00     0.004 C 
ENDBRANCH  17  18
ENDBRANCH  16  17
ENDBRANCH  15  16
ENDBRANCH  14  15
ENDBRANCH  13  14
ENDBRANCH  12  13
ENDBRANCH   1  12
TORSDOF 14
ENDMDL
MODEL 7
REMARK VINA RESULT:    -2.212      3.045      6.522
REMARK INTER + INTRA:          -4.264
REMARK INTER:                  -3.752
REMARK INTRA:                  -0.512
REMARK UNBOUND:                -0.240
REMARK SMILES CCCCCCCCCCCCCC[C@H](C)C(=O)[O-]
REMARK SMILES IDX 9 1 10 2 11 3 12 4 13 5 14 6 15 7 16 8 17 9 18 10 19 11 8 12
REMARK SMILES IDX 7 13 6 14 5 15 4 16 3 17 2 18 1 19
REMARK H PARENT
REMARK Flexibility Score: inf
ROOT
ATOM      1  C   UNL     1      -8.087  17.346 -16.053  1.00  0.00     0.000 C 
ENDROOT
BRANCH   1   2
ATOM      2  C   UNL     1      -6.649  16.910 -15.696  1.00  0.00     0.000 C 
BRANCH   2   3
ATOM      3  C   UNL     1      -6.343  15.439 -16.042  1.00  0.00     0.000 C 
BRANCH   3   4
ATOM      4  C   UNL     1      -6.408  14.463 -14.852  1.00  0.00     0.000 C 
BRANCH   4   5
ATOM      5  C   UNL     1      -6.350  12.971 -15.233  1.00  0.00     0.001 C 
BRANCH   5   6
ATOM      6  C   UNL     1      -7.594  12.501 -16.007  1.00  0.00     0.009 C 
BRANCH   6   7
ATOM      7  C   UNL     1      -8.893  13.172 -15.512  1.00  0.00     0.032 C 
ATOM      8  C   UNL     1      -8.842  13.497 -14.014  1.00  0.00     0.014 C 
BRANCH   7   9
ATOM      9  C   UNL     1     -10.075  12.287 -15.799  1.00  0.00     0.044 C 
ATOM     10  O   UNL     1     -11.233  12.776 -15.896  1.00  0.00    -0.550 OA
ATOM     11  O   UNL     1      -9.890  10.921 -15.979  1.00  0.00    -0.550 OA
ENDBRANCH   7   9
ENDBRANCH   6   7
ENDBRANCH   5   6
ENDBRANCH   4   5
ENDBRANCH   3   4
ENDBRANCH   2   3
ENDBRANCH   1   2
BRANCH   1  12
ATOM     12  C   UNL     1      -8.236  18.875 -16.121  1.00  0.00     0.000 C 
BRANCH  12  13
ATOM     13  C   UNL     1      -7.046  19.616 -15.492  1.00  0.00    -0.000 C 
BRANCH  13  14
ATOM     14  C   UNL     1      -7.483  20.766 -14.572  1.00  0.00    -0.000 C 
BRANCH  14  15
ATOM     15  C   UNL     1      -7.634  20.284 -13.124  1.00  0.00    -0.000 C 
BRANCH  15  16
ATOM     16  C   UNL     1      -8.618  19.107 -13.035  1.00  0.00    -0.000 C 
BRANCH  16  17
ATOM     17  C   UNL     1      -8.048  17.907 -12.257  1.00  0.00    -0.000 C 
BRANCH  17  18
ATOM     18  C   UNL     1      -8.769  16.571 -12.509  1.00  0.00    -0.003 C 
ATOM     19  C   UNL     1     -10.078  16.733 -13.283  1.00  0.00     0.004 C 
ENDBRANCH  17  18
ENDBRANCH  16  17
ENDBRANCH  15  16
ENDBRANCH  14  15
ENDBRANCH  13  14
ENDBRANCH  12  13
ENDBRANCH   1  12
TORSDOF 14
ENDMDL
