MODEL 1
REMARK VINA RESULT:    -3.622      0.000      0.000
REMARK INTER + INTRA:          -6.224
REMARK INTER:                  -5.528
REMARK INTRA:                  -0.695
REMARK UNBOUND:                -0.695
REMARK SMILES O=C([O-])CCCCCCCCC(=O)[O-]
REMARK SMILES IDX 7 1 6 2 5 3 4 4 2 5 1 6 3 7 8 8 9 9 10 10 11 11 12 12 13 13
REMARK SMILES IDX 14 14
REMARK H PARENT
REMARK Flexibility Score: inf
ROOT
ATOM      1  C   UNL     1      11.217  32.148  -9.975  1.00  0.00     0.000 C 
ENDROOT
BRANCH   1   2
ATOM      2  C   UNL     1      10.009  31.387 -10.545  1.00  0.00     0.000 C 
BRANCH   2   3
ATOM      3  C   UNL     1       9.818  30.006  -9.894  1.00  0.00     0.006 C 
BRANCH   3   4
ATOM      4  C   UNL     1      11.146  29.254  -9.733  1.00  0.00     0.053 C 
BRANCH   4   5
ATOM      5  C   UNL     1      11.331  28.742  -8.337  1.00  0.00     0.041 C 
ATOM      6  O   UNL     1      10.435  28.045  -7.794  1.00  0.00    -0.550 OA
ATOM      7  O   UNL     1      12.482  29.059  -7.626  1.00  0.00    -0.550 OA
ENDBRANCH   4   5
ENDBRANCH   3   4
ENDBRANCH   2   3
ENDBRANCH   1   2
BRANCH   1   8
ATOM      8  C   UNL     1      12.139  32.703 -11.072  1.00  0.00     0.000 C 
BRANCH   8   9
ATOM      9  C   UNL     1      13.608  32.666 -10.623  1.00  0.00     0.000 C 
BRANCH   9  10
ATOM     10  C   UNL     1      13.827  31.776  -9.389  1.00  0.00     0.006 C 
BRANCH  10  11
ATOM     11  C   UNL     1      14.892  32.336  -8.437  1.00  0.00     0.053 C 
BRANCH  11  12
ATOM     12  C   UNL     1      16.148  32.650  -9.187  1.00  0.00     0.041 C 
ATOM     13  O   UNL     1      16.571  33.835  -9.250  1.00  0.00    -0.550 OA
ATOM     14  O   UNL     1      16.827  31.642  -9.859  1.00  0.00    -0.550 OA
ENDBRANCH  11  12
ENDBRANCH  10  11
ENDBRANCH   9  10
ENDBRANCH   8   9
ENDBRANCH   1   8
TORSDOF 9
ENDMDL
MODEL 2
REMARK VINA RESULT:    -3.496      1.176      5.415
REMARK INTER + INTRA:          -6.031
REMARK INTER:                  -5.350
REMARK INTRA:                  -0.681
REMARK UNBOUND:                -0.695
REMARK SMILES O=C([O-])CCCCCCCCC(=O)[O-]
REMARK SMILES IDX 7 1 6 2 5 3 4 4 2 5 1 6 3 7 8 8 9 9 10 10 11 11 12 12 13 13
REMARK SMILES IDX 14 14
REMARK H PARENT
REMARK Flexibility Score: inf
ROOT
ATOM      1  C   UNL     1      11.304  32.213  -9.621  1.00  0.00     0.000 C 
ENDROOT
BRANCH   1   2
ATOM      2  C   UNL     1      12.525  31.610 -10.334  1.00  0.00     0.000 C 
BRANCH   2   3
ATOM      3  C   UNL     1      13.833  31.826  -9.555  1.00  0.00     0.006 C 
BRANCH   3   4
ATOM      4  C   UNL     1      14.705  32.923 -10.180  1.00  0.00     0.053 C 
BRANCH   4   5
ATOM      5  C   UNL     1      15.957  33.157  -9.392  1.00  0.00     0.041 C 
ATOM      6  O   UNL     1      16.345  32.305  -8.550  1.00  0.00    -0.550 OA
ATOM      7  O   UNL     1      16.680  34.331  -9.564  1.00  0.00    -0.550 OA
ENDBRANCH   4   5
ENDBRANCH   3   4
ENDBRANCH   2   3
ENDBRANCH   1   2
BRANCH   1   8
ATOM      8  C   UNL     1       9.994  31.493  -9.976  1.00  0.00     0.000 C 
BRANCH   8   9
ATOM      9  C   UNL     1       9.372  30.843  -8.731  1.00  0.00     0.000 C 
BRANCH   9  10
ATOM     10  C   UNL     1       9.319  29.309  -8.829  1.00  0.00     0.006 C 
BRANCH  10  11
ATOM     11  C   UNL     1      10.263  28.620  -7.834  1.00  0.00     0.053 C 
BRANCH  11  12
ATOM     12  C   UNL     1      11.670  28.655  -8.341  1.00  0.00     0.041 C 
ATOM     13  O   UNL     1      11.944  28.205  -9.485  1.00  0.00    -0.550 OA
ATOM     14  O   UNL     1      12.689  29.137  -7.530  1.00  0.00    -0.550 OA
ENDBRANCH  11  12
ENDBRANCH  10  11
ENDBRANCH   9  10
ENDBRANCH   8   9
ENDBRANCH   1   8
TORSDOF 9
ENDMDL
MODEL 3
REMARK VINA RESULT:    -3.056     12.565     14.700
REMARK INTER + INTRA:          -5.359
REMARK INTER:                  -5.004
REMARK INTRA:                  -0.355
REMARK UNBOUND:                -0.695
REMARK SMILES O=C([O-])CCCCCCCCC(=O)[O-]
REMARK SMILES IDX 7 1 6 2 5 3 4 4 2 5 1 6 3 7 8 8 9 9 10 10 11 11 12 12 13 13
REMARK SMILES IDX 14 14
REMARK H PARENT
REMARK Flexibility Score: inf
ROOT
ATOM      1  C   UNL     1      19.985  20.229 -10.882  1.00  0.00     0.000 C 
ENDROOT
BRANCH   1   2
ATOM      2  C   UNL     1      21.233  21.113 -11.044  1.00  0.00     0.000 C 
BRANCH   2   3
ATOM      3  C   UNL     1      22.327  20.787 -10.012  1.00  0.00     0.006 C 
BRANCH   3   4
ATOM      4  C   UNL     1      22.943  22.054  -9.403  1.00  0.00     0.053 C 
BRANCH   4   5
ATOM      5  C   UNL     1      23.802  22.785 -10.389  1.00  0.00     0.041 C 
ATOM      6  O   UNL     1      23.428  23.893 -10.856  1.00  0.00    -0.550 OA
ATOM      7  O   UNL     1      25.002  22.229 -10.814  1.00  0.00    -0.550 OA
ENDBRANCH   4   5
ENDBRANCH   3   4
ENDBRANCH   2   3
ENDBRANCH   1   2
BRANCH   1   8
ATOM      8  C   UNL     1      20.281  18.738 -11.105  1.00  0.00     0.000 C 
BRANCH   8   9
ATOM      9  C   UNL     1      18.982  17.919 -11.125  1.00  0.00     0.000 C 
BRANCH   9  10
ATOM     10  C   UNL     1      17.857  18.574 -10.307  1.00  0.00     0.006 C 
BRANCH  10  11
ATOM     11  C   UNL     1      16.694  17.614 -10.026  1.00  0.00     0.053 C 
BRANCH  11  12
ATOM     12  C   UNL     1      15.593  18.324  -9.305  1.00  0.00     0.041 C 
ATOM     13  O   UNL     1      14.724  17.670  -8.669  1.00  0.00    -0.550 OA
ATOM     14  O   UNL     1      15.495  19.708  -9.375  1.00  0.00    -0.550 OA
ENDBRANCH  11  12
ENDBRANCH  10  11
ENDBRANCH   9  10
ENDBRANCH   8   9
ENDBRANCH   1   8
TORSDOF 9
ENDMDL
MODEL 4
REMARK VINA RESULT:    -2.891     12.938     13.901
REMARK INTER + INTRA:          -5.107
REMARK INTER:                  -4.847
REMARK INTRA:                  -0.261
REMARK UNBOUND:                -0.695
REMARK SMILES O=C([O-])CCCCCCCCC(=O)[O-]
REMARK SMILES IDX 7 1 6 2 5 3 4 4 2 5 1 6 3 7 8 8 9 9 10 10 11 11 12 12 13 13
REMARK SMILES IDX 14 14
REMARK H PARENT
REMARK Flexibility Score: inf
ROOT
ATOM      1  C   UNL     1      20.586  19.298 -10.721  1.00  0.00     0.000 C 
ENDROOT
BRANCH   1   2
ATOM      2  C   UNL     1      20.277  17.843 -11.112  1.00  0.00     0.000 C 
BRANCH   2   3
ATOM      3  C   UNL     1      18.769  17.541 -11.124  1.00  0.00     0.006 C 
BRANCH   3   4
ATOM      4  C   UNL     1      17.924  18.800 -10.889  1.00  0.00     0.053 C 
BRANCH   4   5
ATOM      5  C   UNL     1      16.835  18.563  -9.889  1.00  0.00     0.041 C 
ATOM      6  O   UNL     1      16.429  19.504  -9.158  1.00  0.00    -0.550 OA
ATOM      7  O   UNL     1      16.289  17.294  -9.742  1.00  0.00    -0.550 OA
ENDBRANCH   4   5
ENDBRANCH   3   4
ENDBRANCH   2   3
ENDBRANCH   1   2
BRANCH   1   8
ATOM      8  C   UNL     1      22.077  19.644 -10.854  1.00  0.00     0.000 C 
BRANCH   8   9
ATOM      9  C   UNL     1      22.447  20.828  -9.949  1.00  0.00     0.000 C 
BRANCH   9  10
ATOM     10  C   UNL     1      22.704  22.121 -10.741  1.00  0.00     0.006 C 
BRANCH  10  11
ATOM     11  C   UNL     1      23.690  23.061 -10.035  1.00  0.00     0.053 C 
BRANCH  11  12
ATOM     12  C   UNL     1      25.056  22.927 -10.629  1.00  0.00     0.041 C 
ATOM     13  O   UNL     1      25.802  23.935 -10.740  1.00  0.00    -0.550 OA
ATOM     14  O   UNL     1      25.488  21.696 -11.106  1.00  0.00    -0.550 OA
ENDBRANCH  11  12
ENDBRANCH  10  11
ENDBRANCH   9  10
ENDBRANCH   8   9
ENDBRANCH   1   8
TORSDOF 9
ENDMDL
MODEL 5
REMARK VINA RESULT:    -2.875      1.582      6.215
REMARK INTER + INTRA:          -5.083
REMARK INTER:                  -4.797
REMARK INTRA:                  -0.286
REMARK UNBOUND:                -0.695
REMARK SMILES O=C([O-])CCCCCCCCC(=O)[O-]
REMARK SMILES IDX 7 1 6 2 5 3 4 4 2 5 1 6 3 7 8 8 9 9 10 10 11 11 12 12 13 13
REMARK SMILES IDX 14 14
REMARK H PARENT
REMARK Flexibility Score: inf
ROOT
ATOM      1  C   UNL     1      12.705  31.163  -9.627  1.00  0.00     0.000 C 
ENDROOT
BRANCH   1   2
ATOM      2  C   UNL     1      13.738  32.297  -9.513  1.00  0.00     0.000 C 
BRANCH   2   3
ATOM      3  C   UNL     1      14.593  32.194  -8.239  1.00  0.00     0.006 C 
BRANCH   3   4
ATOM      4  C   UNL     1      16.096  32.225  -8.546  1.00  0.00     0.053 C 
BRANCH   4   5
ATOM      5  C   UNL     1      16.400  33.047  -9.761  1.00  0.00     0.041 C 
ATOM      6  O   UNL     1      16.589  32.488 -10.873  1.00  0.00    -0.550 OA
ATOM      7  O   UNL     1      16.503  34.429  -9.659  1.00  0.00    -0.550 OA
ENDBRANCH   4   5
ENDBRANCH   3   4
ENDBRANCH   2   3
ENDBRANCH   1   2
BRANCH   1   8
ATOM      8  C   UNL     1      12.664  30.538 -11.031  1.00  0.00     0.000 C 
BRANCH   8   9
ATOM      9  C   UNL     1      11.556  29.479 -11.125  1.00  0.00     0.000 C 
BRANCH   9  10
ATOM     10  C   UNL     1      10.171  30.036 -10.756  1.00  0.00     0.006 C 
BRANCH  10  11
ATOM     11  C   UNL     1       9.261  28.980 -10.115  1.00  0.00     0.053 C 
BRANCH  11  12
ATOM     12  C   UNL     1       9.248  29.138  -8.627  1.00  0.00     0.041 C 
ATOM     13  O   UNL     1       8.911  28.174  -7.890  1.00  0.00    -0.550 OA
ATOM     14  O   UNL     1       9.561  30.364  -8.055  1.00  0.00    -0.550 OA
ENDBRANCH  11  12
ENDBRANCH  10  11
ENDBRANCH   9  10
ENDBRANCH   8   9
ENDBRANCH   1   8
TORSDOF 9
ENDMDL
MODEL 6
REMARK VINA RESULT:    -2.789     11.657     12.707
REMARK INTER + INTRA:          -4.952
REMARK INTER:                  -4.572
REMARK INTRA:                  -0.380
REMARK UNBOUND:                -0.695
REMARK SMILES O=C([O-])CCCCCCCCC(=O)[O-]
REMARK SMILES IDX 7 1 6 2 5 3 4 4 2 5 1 6 3 7 8 8 9 9 10 10 11 11 12 12 13 13
REMARK SMILES IDX 14 14
REMARK H PARENT
REMARK Flexibility Score: inf
ROOT
ATOM      1  C   UNL     1      19.592  19.854 -11.107  1.00  0.00     0.000 C 
ENDROOT
BRANCH   1   2
ATOM      2  C   UNL     1      18.668  18.624 -11.093  1.00  0.00     0.000 C 
BRANCH   2   3
ATOM      3  C   UNL     1      17.190  18.997 -10.884  1.00  0.00     0.006 C 
BRANCH   3   4
ATOM      4  C   UNL     1      16.372  17.825 -10.323  1.00  0.00     0.053 C 
BRANCH   4   5
ATOM      5  C   UNL     1      15.420  18.271  -9.256  1.00  0.00     0.041 C 
ATOM      6  O   UNL     1      15.157  19.493  -9.112  1.00  0.00    -0.550 OA
ATOM      7  O   UNL     1      14.845  17.338  -8.402  1.00  0.00    -0.550 OA
ENDBRANCH   4   5
ENDBRANCH   3   4
ENDBRANCH   2   3
ENDBRANCH   1   2
BRANCH   1   8
ATOM      8  C   UNL     1      18.814  21.179 -11.125  1.00  0.00     0.000 C 
BRANCH   8   9
ATOM      9  C   UNL     1      19.774  22.377 -11.069  1.00  0.00     0.000 C 
BRANCH   9  10
ATOM     10  C   UNL     1      21.251  21.955 -11.125  1.00  0.00     0.006 C 
BRANCH  10  11
ATOM     11  C   UNL     1      22.048  22.431  -9.903  1.00  0.00     0.053 C 
BRANCH  11  12
ATOM     12  C   UNL     1      23.469  22.705 -10.282  1.00  0.00     0.041 C 
ATOM     13  O   UNL     1      24.239  21.756 -10.588  1.00  0.00    -0.550 OA
ATOM     14  O   UNL     1      23.960  24.004 -10.248  1.00  0.00    -0.550 OA
ENDBRANCH  11  12
ENDBRANCH  10  11
ENDBRANCH   9  10
ENDBRANCH   8   9
ENDBRANCH   1   8
TORSDOF 9
ENDMDL
