MODEL 1
REMARK VINA RESULT:    -4.067      0.000      0.000
REMARK INTER + INTRA:          -6.918
REMARK INTER:                  -6.206
REMARK INTRA:                  -0.712
REMARK UNBOUND:                -0.712
REMARK SMILES O=C([O-])CCCCCCCCC(=O)[O-]
REMARK SMILES IDX 7 1 6 2 5 3 4 4 2 5 1 6 3 7 8 8 9 9 10 10 11 11 12 12 13 13
REMARK SMILES IDX 14 14
REMARK H PARENT
REMARK Flexibility Score: inf
ROOT
ATOM      1  C   UNL     1      17.490  30.734  54.605  1.00  0.00     0.000 C 
ENDROOT
BRANCH   1   2
ATOM      2  C   UNL     1      17.932  31.019  56.049  1.00  0.00     0.000 C 
BRANCH   2   3
ATOM      3  C   UNL     1      16.736  30.974  57.007  1.00  0.00     0.006 C 
BRANCH   3   4
ATOM      4  C   UNL     1      15.478  31.544  56.344  1.00  0.00     0.053 C 
BRANCH   4   5
ATOM      5  C   UNL     1      15.118  32.864  56.949  1.00  0.00     0.041 C 
ATOM      6  O   UNL     1      13.942  33.302  56.860  1.00  0.00    -0.550 OA
ATOM      7  O   UNL     1      16.072  33.588  57.653  1.00  0.00    -0.550 OA
ENDBRANCH   4   5
ENDBRANCH   3   4
ENDBRANCH   2   3
ENDBRANCH   1   2
BRANCH   1   8
ATOM      8  C   UNL     1      17.574  29.242  54.241  1.00  0.00     0.000 C 
BRANCH   8   9
ATOM      9  C   UNL     1      16.189  28.577  54.153  1.00  0.00     0.000 C 
BRANCH   9  10
ATOM     10  C   UNL     1      16.038  27.398  55.128  1.00  0.00     0.006 C 
BRANCH  10  11
ATOM     11  C   UNL     1      15.587  26.107  54.430  1.00  0.00     0.053 C 
BRANCH  11  12
ATOM     12  C   UNL     1      16.628  25.649  53.458  1.00  0.00     0.041 C 
ATOM     13  O   UNL     1      16.325  25.444  52.253  1.00  0.00    -0.550 OA
ATOM     14  O   UNL     1      17.946  25.499  53.869  1.00  0.00    -0.550 OA
ENDBRANCH  11  12
ENDBRANCH  10  11
ENDBRANCH   9  10
ENDBRANCH   8   9
ENDBRANCH   1   8
TORSDOF 9
ENDMDL
MODEL 2
REMARK VINA RESULT:    -4.008      1.740      7.171
REMARK INTER + INTRA:          -6.828
REMARK INTER:                  -6.478
REMARK INTRA:                  -0.350
REMARK UNBOUND:                -0.712
REMARK SMILES O=C([O-])CCCCCCCCC(=O)[O-]
REMARK SMILES IDX 7 1 6 2 5 3 4 4 2 5 1 6 3 7 8 8 9 9 10 10 11 11 12 12 13 13
REMARK SMILES IDX 14 14
REMARK H PARENT
REMARK Flexibility Score: inf
ROOT
ATOM      1  C   UNL     1      16.102  26.871  54.915  1.00  0.00     0.000 C 
ENDROOT
BRANCH   1   2
ATOM      2  C   UNL     1      16.922  25.979  53.971  1.00  0.00     0.000 C 
BRANCH   2   3
ATOM      3  C   UNL     1      16.015  24.998  53.219  1.00  0.00     0.006 C 
BRANCH   3   4
ATOM      4  C   UNL     1      15.857  25.409  51.752  1.00  0.00     0.053 C 
BRANCH   4   5
ATOM      5  C   UNL     1      14.417  25.647  51.426  1.00  0.00     0.041 C 
ATOM      6  O   UNL     1      13.614  26.002  52.328  1.00  0.00    -0.550 OA
ATOM      7  O   UNL     1      13.971  25.524  50.116  1.00  0.00    -0.550 OA
ENDBRANCH   4   5
ENDBRANCH   3   4
ENDBRANCH   2   3
ENDBRANCH   1   2
BRANCH   1   8
ATOM      8  C   UNL     1      16.267  28.369  54.608  1.00  0.00     0.000 C 
BRANCH   8   9
ATOM      9  C   UNL     1      15.760  29.266  55.751  1.00  0.00     0.000 C 
BRANCH   9  10
ATOM     10  C   UNL     1      16.385  30.670  55.722  1.00  0.00     0.006 C 
BRANCH  10  11
ATOM     11  C   UNL     1      16.553  31.273  57.123  1.00  0.00     0.053 C 
BRANCH  11  12
ATOM     12  C   UNL     1      15.677  32.475  57.282  1.00  0.00     0.041 C 
ATOM     13  O   UNL     1      16.168  33.573  57.655  1.00  0.00    -0.550 OA
ATOM     14  O   UNL     1      14.326  32.398  56.969  1.00  0.00    -0.550 OA
ENDBRANCH  11  12
ENDBRANCH  10  11
ENDBRANCH   9  10
ENDBRANCH   8   9
ENDBRANCH   1   8
TORSDOF 9
ENDMDL
MODEL 3
REMARK VINA RESULT:    -3.982      1.379      2.114
REMARK INTER + INTRA:          -6.790
REMARK INTER:                  -6.238
REMARK INTRA:                  -0.551
REMARK UNBOUND:                -0.712
REMARK SMILES O=C([O-])CCCCCCCCC(=O)[O-]
REMARK SMILES IDX 7 1 6 2 5 3 4 4 2 5 1 6 3 7 8 8 9 9 10 10 11 11 12 12 13 13
REMARK SMILES IDX 14 14
REMARK H PARENT
REMARK Flexibility Score: inf
ROOT
ATOM      1  C   UNL     1      16.907  28.764  54.380  1.00  0.00     0.000 C 
ENDROOT
BRANCH   1   2
ATOM      2  C   UNL     1      17.170  30.092  55.106  1.00  0.00     0.000 C 
BRANCH   2   3
ATOM      3  C   UNL     1      16.080  30.373  56.147  1.00  0.00     0.006 C 
BRANCH   3   4
ATOM      4  C   UNL     1      16.549  31.413  57.169  1.00  0.00     0.053 C 
BRANCH   4   5
ATOM      5  C   UNL     1      15.578  32.547  57.246  1.00  0.00     0.041 C 
ATOM      6  O   UNL     1      15.971  33.697  57.574  1.00  0.00    -0.550 OA
ATOM      7  O   UNL     1      14.245  32.345  56.909  1.00  0.00    -0.550 OA
ENDBRANCH   4   5
ENDBRANCH   3   4
ENDBRANCH   2   3
ENDBRANCH   1   2
BRANCH   1   8
ATOM      8  C   UNL     1      15.696  28.006  54.948  1.00  0.00     0.000 C 
BRANCH   8   9
ATOM      9  C   UNL     1      15.886  26.479  54.913  1.00  0.00     0.000 C 
BRANCH   9  10
ATOM     10  C   UNL     1      16.921  26.037  53.866  1.00  0.00     0.006 C 
BRANCH  10  11
ATOM     11  C   UNL     1      16.364  24.997  52.885  1.00  0.00     0.053 C 
BRANCH  11  12
ATOM     12  C   UNL     1      15.242  25.582  52.086  1.00  0.00     0.041 C 
ATOM     13  O   UNL     1      14.127  24.998  52.036  1.00  0.00    -0.550 OA
ATOM     14  O   UNL     1      15.409  26.800  51.439  1.00  0.00    -0.550 OA
ENDBRANCH  11  12
ENDBRANCH  10  11
ENDBRANCH   9  10
ENDBRANCH   8   9
ENDBRANCH   1   8
TORSDOF 9
ENDMDL
MODEL 4
REMARK VINA RESULT:    -3.967      2.583      7.029
REMARK INTER + INTRA:          -6.767
REMARK INTER:                  -6.362
REMARK INTRA:                  -0.404
REMARK UNBOUND:                -0.712
REMARK SMILES O=C([O-])CCCCCCCCC(=O)[O-]
REMARK SMILES IDX 7 1 6 2 5 3 4 4 2 5 1 6 3 7 8 8 9 9 10 10 11 11 12 12 13 13
REMARK SMILES IDX 14 14
REMARK H PARENT
REMARK Flexibility Score: inf
ROOT
ATOM      1  C   UNL     1      16.284  25.474  53.713  1.00  0.00     0.000 C 
ENDROOT
BRANCH   1   2
ATOM      2  C   UNL     1      15.510  24.171  53.460  1.00  0.00     0.000 C 
BRANCH   2   3
ATOM      3  C   UNL     1      15.196  24.000  51.970  1.00  0.00     0.006 C 
BRANCH   3   4
ATOM      4  C   UNL     1      13.686  24.042  51.717  1.00  0.00     0.053 C 
BRANCH   4   5
ATOM      5  C   UNL     1      13.230  25.449  51.493  1.00  0.00     0.041 C 
ATOM      6  O   UNL     1      13.912  26.230  50.779  1.00  0.00    -0.550 OA
ATOM      7  O   UNL     1      12.027  25.884  52.034  1.00  0.00    -0.550 OA
ENDBRANCH   4   5
ENDBRANCH   3   4
ENDBRANCH   2   3
ENDBRANCH   1   2
BRANCH   1   8
ATOM      8  C   UNL     1      15.370  26.634  54.141  1.00  0.00     0.000 C 
BRANCH   8   9
ATOM      9  C   UNL     1      15.973  27.471  55.282  1.00  0.00     0.000 C 
BRANCH   9  10
ATOM     10  C   UNL     1      15.998  28.975  54.962  1.00  0.00     0.006 C 
BRANCH  10  11
ATOM     11  C   UNL     1      15.956  29.850  56.223  1.00  0.00     0.053 C 
BRANCH  11  12
ATOM     12  C   UNL     1      17.029  30.891  56.170  1.00  0.00     0.041 C 
ATOM     13  O   UNL     1      16.974  31.897  56.926  1.00  0.00    -0.550 OA
ATOM     14  O   UNL     1      18.118  30.726  55.324  1.00  0.00    -0.550 OA
ENDBRANCH  11  12
ENDBRANCH  10  11
ENDBRANCH   9  10
ENDBRANCH   8   9
ENDBRANCH   1   8
TORSDOF 9
ENDMDL
MODEL 5
REMARK VINA RESULT:    -3.949      3.410      4.498
REMARK INTER + INTRA:          -6.739
REMARK INTER:                  -5.985
REMARK INTRA:                  -0.754
REMARK UNBOUND:                -0.712
REMARK SMILES O=C([O-])CCCCCCCCC(=O)[O-]
REMARK SMILES IDX 7 1 6 2 5 3 4 4 2 5 1 6 3 7 8 8 9 9 10 10 11 11 12 12 13 13
REMARK SMILES IDX 14 14
REMARK H PARENT
REMARK Flexibility Score: inf
ROOT
ATOM      1  C   UNL     1      16.958  29.613  54.463  1.00  0.00     0.000 C 
ENDROOT
BRANCH   1   2
ATOM      2  C   UNL     1      16.112  30.473  53.512  1.00  0.00     0.000 C 
BRANCH   2   3
ATOM      3  C   UNL     1      16.112  29.886  52.096  1.00  0.00     0.006 C 
BRANCH   3   4
ATOM      4  C   UNL     1      14.752  30.082  51.419  1.00  0.00     0.053 C 
BRANCH   4   5
ATOM      5  C   UNL     1      14.898  30.901  50.176  1.00  0.00     0.041 C 
ATOM      6  O   UNL     1      15.336  32.079  50.241  1.00  0.00    -0.550 OA
ATOM      7  O   UNL     1      14.597  30.345  48.939  1.00  0.00    -0.550 OA
ENDBRANCH   4   5
ENDBRANCH   3   4
ENDBRANCH   2   3
ENDBRANCH   1   2
BRANCH   1   8
ATOM      8  C   UNL     1      16.108  28.869  55.507  1.00  0.00     0.000 C 
BRANCH   8   9
ATOM      9  C   UNL     1      15.575  27.524  54.983  1.00  0.00     0.000 C 
BRANCH   9  10
ATOM     10  C   UNL     1      16.696  26.603  54.474  1.00  0.00     0.006 C 
BRANCH  10  11
ATOM     11  C   UNL     1      16.469  26.136  53.030  1.00  0.00     0.053 C 
BRANCH  11  12
ATOM     12  C   UNL     1      15.398  25.093  52.981  1.00  0.00     0.041 C 
ATOM     13  O   UNL     1      15.523  24.024  53.636  1.00  0.00    -0.550 OA
ATOM     14  O   UNL     1      14.237  25.322  52.255  1.00  0.00    -0.550 OA
ENDBRANCH  11  12
ENDBRANCH  10  11
ENDBRANCH   9  10
ENDBRANCH   8   9
ENDBRANCH   1   8
TORSDOF 9
ENDMDL
MODEL 6
REMARK VINA RESULT:    -3.945      3.414      6.265
REMARK INTER + INTRA:          -6.732
REMARK INTER:                  -5.834
REMARK INTRA:                  -0.898
REMARK UNBOUND:                -0.712
REMARK SMILES O=C([O-])CCCCCCCCC(=O)[O-]
REMARK SMILES IDX 7 1 6 2 5 3 4 4 2 5 1 6 3 7 8 8 9 9 10 10 11 11 12 12 13 13
REMARK SMILES IDX 14 14
REMARK H PARENT
REMARK Flexibility Score: inf
ROOT
ATOM      1  C   UNL     1      16.120  28.555  54.816  1.00  0.00     0.000 C 
ENDROOT
BRANCH   1   2
ATOM      2  C   UNL     1      15.821  27.072  55.085  1.00  0.00     0.000 C 
BRANCH   2   3
ATOM      3  C   UNL     1      16.621  26.171  54.137  1.00  0.00     0.006 C 
BRANCH   3   4
ATOM      4  C   UNL     1      15.740  25.057  53.563  1.00  0.00     0.053 C 
BRANCH   4   5
ATOM      5  C   UNL     1      15.046  25.524  52.323  1.00  0.00     0.041 C 
ATOM      6  O   UNL     1      13.879  25.991  52.387  1.00  0.00    -0.550 OA
ATOM      7  O   UNL     1      15.707  25.488  51.101  1.00  0.00    -0.550 OA
ENDBRANCH   4   5
ENDBRANCH   3   4
ENDBRANCH   2   3
ENDBRANCH   1   2
BRANCH   1   8
ATOM      8  C   UNL     1      17.244  28.757  53.785  1.00  0.00     0.000 C 
BRANCH   8   9
ATOM      9  C   UNL     1      16.842  29.718  52.654  1.00  0.00     0.000 C 
BRANCH   9  10
ATOM     10  C   UNL     1      16.101  29.006  51.510  1.00  0.00     0.006 C 
BRANCH  10  11
ATOM     11  C   UNL     1      14.624  29.413  51.418  1.00  0.00     0.053 C 
BRANCH  11  12
ATOM     12  C   UNL     1      14.475  30.657  50.600  1.00  0.00     0.041 C 
ATOM     13  O   UNL     1      14.288  31.768  51.163  1.00  0.00    -0.550 OA
ATOM     14  O   UNL     1      14.595  30.599  49.218  1.00  0.00    -0.550 OA
ENDBRANCH  11  12
ENDBRANCH  10  11
ENDBRANCH   9  10
ENDBRANCH   8   9
ENDBRANCH   1   8
TORSDOF 9
ENDMDL
MODEL 7
REMARK VINA RESULT:    -3.937      2.824      4.500
REMARK INTER + INTRA:          -6.719
REMARK INTER:                  -6.058
REMARK INTRA:                  -0.662
REMARK UNBOUND:                -0.712
REMARK SMILES O=C([O-])CCCCCCCCC(=O)[O-]
REMARK SMILES IDX 7 1 6 2 5 3 4 4 2 5 1 6 3 7 8 8 9 9 10 10 11 11 12 12 13 13
REMARK SMILES IDX 14 14
REMARK H PARENT
REMARK Flexibility Score: inf
ROOT
ATOM      1  C   UNL     1      16.369  25.607  53.665  1.00  0.00     0.000 C 
ENDROOT
BRANCH   1   2
ATOM      2  C   UNL     1      15.629  26.541  54.634  1.00  0.00     0.000 C 
BRANCH   2   3
ATOM      3  C   UNL     1      15.838  28.010  54.247  1.00  0.00     0.006 C 
BRANCH   3   4
ATOM      4  C   UNL     1      15.840  28.911  55.486  1.00  0.00     0.053 C 
BRANCH   4   5
ATOM      5  C   UNL     1      16.597  30.172  55.215  1.00  0.00     0.041 C 
ATOM      6  O   UNL     1      17.789  30.122  54.812  1.00  0.00    -0.550 OA
ATOM      7  O   UNL     1      15.971  31.404  55.360  1.00  0.00    -0.550 OA
ENDBRANCH   4   5
ENDBRANCH   3   4
ENDBRANCH   2   3
ENDBRANCH   1   2
BRANCH   1   8
ATOM      8  C   UNL     1      15.665  24.250  53.494  1.00  0.00     0.000 C 
BRANCH   8   9
ATOM      9  C   UNL     1      15.359  23.926  52.022  1.00  0.00     0.000 C 
BRANCH   9  10
ATOM     10  C   UNL     1      13.850  23.890  51.728  1.00  0.00     0.006 C 
BRANCH  10  11
ATOM     11  C   UNL     1      13.231  25.291  51.636  1.00  0.00     0.053 C 
BRANCH  11  12
ATOM     12  C   UNL     1      13.941  26.107  50.602  1.00  0.00     0.041 C 
ATOM     13  O   UNL     1      13.879  25.784  49.386  1.00  0.00    -0.550 OA
ATOM     14  O   UNL     1      14.628  27.256  50.973  1.00  0.00    -0.550 OA
ENDBRANCH  11  12
ENDBRANCH  10  11
ENDBRANCH   9  10
ENDBRANCH   8   9
ENDBRANCH   1   8
TORSDOF 9
ENDMDL
MODEL 8
REMARK VINA RESULT:    -3.927      3.818      6.561
REMARK INTER + INTRA:          -6.705
REMARK INTER:                  -5.789
REMARK INTRA:                  -0.916
REMARK UNBOUND:                -0.712
REMARK SMILES O=C([O-])CCCCCCCCC(=O)[O-]
REMARK SMILES IDX 7 1 6 2 5 3 4 4 2 5 1 6 3 7 8 8 9 9 10 10 11 11 12 12 13 13
REMARK SMILES IDX 14 14
REMARK H PARENT
REMARK Flexibility Score: inf
ROOT
ATOM      1  C   UNL     1      16.930  25.907  53.742  1.00  0.00     0.000 C 
ENDROOT
BRANCH   1   2
ATOM      2  C   UNL     1      16.591  25.074  52.496  1.00  0.00     0.000 C 
BRANCH   2   3
ATOM      3  C   UNL     1      15.372  24.179  52.751  1.00  0.00     0.006 C 
BRANCH   3   4
ATOM      4  C   UNL     1      14.543  24.001  51.474  1.00  0.00     0.053 C 
BRANCH   4   5
ATOM      5  C   UNL     1      13.855  25.280  51.114  1.00  0.00     0.041 C 
ATOM      6  O   UNL     1      13.949  25.743  49.948  1.00  0.00    -0.550 OA
ATOM      7  O   UNL     1      13.070  25.935  52.054  1.00  0.00    -0.550 OA
ENDBRANCH   4   5
ENDBRANCH   3   4
ENDBRANCH   2   3
ENDBRANCH   1   2
BRANCH   1   8
ATOM      8  C   UNL     1      15.687  26.267  54.572  1.00  0.00     0.000 C 
BRANCH   8   9
ATOM      9  C   UNL     1      15.721  27.715  55.090  1.00  0.00     0.000 C 
BRANCH   9  10
ATOM     10  C   UNL     1      16.725  28.592  54.323  1.00  0.00     0.006 C 
BRANCH  10  11
ATOM     11  C   UNL     1      16.039  29.612  53.405  1.00  0.00     0.053 C 
BRANCH  11  12
ATOM     12  C   UNL     1      15.805  29.020  52.051  1.00  0.00     0.041 C 
ATOM     13  O   UNL     1      16.775  28.592  51.370  1.00  0.00    -0.550 OA
ATOM     14  O   UNL     1      14.512  28.893  51.561  1.00  0.00    -0.550 OA
ENDBRANCH  11  12
ENDBRANCH  10  11
ENDBRANCH   9  10
ENDBRANCH   8   9
ENDBRANCH   1   8
TORSDOF 9
ENDMDL
MODEL 9
REMARK VINA RESULT:    -3.888      3.320      6.453
REMARK INTER + INTRA:          -6.646
REMARK INTER:                  -5.839
REMARK INTRA:                  -0.807
REMARK UNBOUND:                -0.712
REMARK SMILES O=C([O-])CCCCCCCCC(=O)[O-]
REMARK SMILES IDX 7 1 6 2 5 3 4 4 2 5 1 6 3 7 8 8 9 9 10 10 11 11 12 12 13 13
REMARK SMILES IDX 14 14
REMARK H PARENT
REMARK Flexibility Score: inf
ROOT
ATOM      1  C   UNL     1      14.275  24.117  51.560  1.00  0.00     0.000 C 
ENDROOT
BRANCH   1   2
ATOM      2  C   UNL     1      13.605  25.498  51.491  1.00  0.00     0.000 C 
BRANCH   2   3
ATOM      3  C   UNL     1      14.257  26.370  50.412  1.00  0.00     0.006 C 
BRANCH   3   4
ATOM      4  C   UNL     1      14.893  27.622  51.026  1.00  0.00     0.053 C 
BRANCH   4   5
ATOM      5  C   UNL     1      15.332  28.567  49.953  1.00  0.00     0.041 C 
ATOM      6  O   UNL     1      15.294  29.810  50.148  1.00  0.00    -0.550 OA
ATOM      7  O   UNL     1      15.829  28.073  48.754  1.00  0.00    -0.550 OA
ENDBRANCH   4   5
ENDBRANCH   3   4
ENDBRANCH   2   3
ENDBRANCH   1   2
BRANCH   1   8
ATOM      8  C   UNL     1      15.676  24.168  52.193  1.00  0.00     0.000 C 
BRANCH   8   9
ATOM      9  C   UNL     1      15.635  24.522  53.689  1.00  0.00     0.000 C 
BRANCH   9  10
ATOM     10  C   UNL     1      16.343  25.851  54.001  1.00  0.00     0.006 C 
BRANCH  10  11
ATOM     11  C   UNL     1      15.460  26.819  54.800  1.00  0.00     0.053 C 
BRANCH  11  12
ATOM     12  C   UNL     1      16.068  28.185  54.820  1.00  0.00     0.041 C 
ATOM     13  O   UNL     1      17.000  28.476  54.024  1.00  0.00    -0.550 OA
ATOM     14  O   UNL     1      15.573  29.155  55.681  1.00  0.00    -0.550 OA
ENDBRANCH  11  12
ENDBRANCH  10  11
ENDBRANCH   9  10
ENDBRANCH   8   9
ENDBRANCH   1   8
TORSDOF 9
ENDMDL
