MODEL 1
REMARK VINA RESULT:    -5.276      0.000      0.000
REMARK INTER + INTRA:          -8.134
REMARK INTER:                  -7.126
REMARK INTRA:                  -1.008
REMARK UNBOUND:                -1.008
REMARK SMILES O=c1c(-c2ccc(O)cc2)coc2c([C@@H]3O[C@H](CO)[C@@H](O)[C@@H](O)[C@@H]3O)c(O)ccc12
REMARK SMILES IDX 3 1 11 2 12 3 13 4 30 5 2 6 1 7 29 8 28 9 26 10 14 11 4 12
REMARK SMILES IDX 5 13 6 14 7 15 10 16 9 17 8 18 15 20 24 21 16 22 22 23 17 24
REMARK SMILES IDX 20 25 25 26 23 28 18 30 19 31 21 33 27 35
REMARK H PARENT 8 19 25 27 23 29 19 32 21 34 27 36
REMARK Flexibility Score: inf
ROOT
ATOM      1  C   UNL     1     165.486 171.915 160.591  1.00  0.00     0.065 A 
ATOM      2  C   UNL     1     166.654 171.497 159.941  1.00  0.00     0.208 A 
ATOM      3  O   UNL     1     167.851 171.832 160.407  1.00  0.00    -0.463 OA
ATOM      4  C   UNL     1     168.031 172.570 161.500  1.00  0.00     0.147 A 
ATOM      5  C   UNL     1     166.904 173.021 162.226  1.00  0.00     0.066 A 
ATOM      6  C   UNL     1     165.620 172.684 161.761  1.00  0.00     0.200 A 
ATOM      7  O   UNL     1     164.594 173.049 162.401  1.00  0.00    -0.288 OA
ATOM      8  C   UNL     1     167.088 173.776 163.393  1.00  0.00     0.020 A 
ATOM      9  C   UNL     1     168.372 174.055 163.850  1.00  0.00     0.047 A 
ATOM     10  C   UNL     1     169.498 173.605 163.156  1.00  0.00     0.125 A 
ATOM     11  C   UNL     1     169.344 172.895 161.934  1.00  0.00     0.069 A 
ENDROOT
BRANCH   1  12
ATOM     12  C   UNL     1     164.158 171.537 160.045  1.00  0.00    -0.011 A 
ATOM     13  C   UNL     1     163.568 172.300 159.023  1.00  0.00     0.013 A 
ATOM     14  C   UNL     1     162.313 171.952 158.513  1.00  0.00     0.047 A 
ATOM     15  C   UNL     1     161.631 170.840 159.024  1.00  0.00     0.115 A 
ATOM     16  C   UNL     1     163.463 170.427 160.556  1.00  0.00     0.013 A 
ATOM     17  C   UNL     1     162.208 170.081 160.045  1.00  0.00     0.047 A 
BRANCH  15  18
ATOM     18  O   UNL     1     160.380 170.483 158.523  1.00  0.00    -0.508 OA
ATOM     19  H   UNL     1     160.222 170.362 157.530  1.00  0.00     0.293 HD
ENDBRANCH  15  18
ENDBRANCH   1  12
BRANCH  11  20
ATOM     20  C   UNL     1     170.564 172.446 161.133  1.00  0.00     0.188 C 
ATOM     21  C   UNL     1     170.903 173.490 160.043  1.00  0.00     0.179 C 
ATOM     22  O   UNL     1     171.676 172.238 161.991  1.00  0.00    -0.362 OA
ATOM     23  C   UNL     1     172.125 173.015 159.231  1.00  0.00     0.177 C 
ATOM     24  C   UNL     1     172.765 171.661 161.287  1.00  0.00     0.176 C 
ATOM     25  C   UNL     1     173.272 172.631 160.188  1.00  0.00     0.177 C 
BRANCH  21  26
ATOM     26  O   UNL     1     171.180 174.732 160.640  1.00  0.00    -0.387 OA
ATOM     27  H   UNL     1     171.097 175.418 159.928  1.00  0.00     0.211 HD
ENDBRANCH  21  26
BRANCH  23  28
ATOM     28  O   UNL     1     171.772 171.910 158.437  1.00  0.00    -0.387 OA
ATOM     29  H   UNL     1     172.490 171.233 158.550  1.00  0.00     0.211 HD
ENDBRANCH  23  28
BRANCH  24  30
ATOM     30  C   UNL     1     173.882 171.352 162.293  1.00  0.00     0.191 C 
BRANCH  30  31
ATOM     31  O   UNL     1     174.894 170.595 161.686  1.00  0.00    -0.394 OA
ATOM     32  H   UNL     1     175.486 170.275 162.414  1.00  0.00     0.210 HD
ENDBRANCH  30  31
ENDBRANCH  24  30
BRANCH  25  33
ATOM     33  O   UNL     1     174.360 172.094 159.474  1.00  0.00    -0.388 OA
ATOM     34  H   UNL     1     174.532 172.681 158.692  1.00  0.00     0.211 HD
ENDBRANCH  25  33
ENDBRANCH  11  20
BRANCH  10  35
ATOM     35  O   UNL     1     170.746 173.873 163.726  1.00  0.00    -0.507 OA
ATOM     36  H   UNL     1     171.377 173.164 164.073  1.00  0.00     0.293 HD
ENDBRANCH  10  35
TORSDOF 9
ENDMDL
MODEL 2
REMARK VINA RESULT:    -5.151      2.476      3.948
REMARK INTER + INTRA:          -7.967
REMARK INTER:                  -6.836
REMARK INTRA:                  -1.131
REMARK UNBOUND:                -1.008
REMARK SMILES O=c1c(-c2ccc(O)cc2)coc2c([C@@H]3O[C@H](CO)[C@@H](O)[C@@H](O)[C@@H]3O)c(O)ccc12
REMARK SMILES IDX 3 1 11 2 12 3 13 4 30 5 2 6 1 7 29 8 28 9 26 10 14 11 4 12
REMARK SMILES IDX 5 13 6 14 7 15 10 16 9 17 8 18 15 20 24 21 16 22 22 23 17 24
REMARK SMILES IDX 20 25 25 26 23 28 18 30 19 31 21 33 27 35
REMARK H PARENT 8 19 25 27 23 29 19 32 21 34 27 36
REMARK Flexibility Score: inf
ROOT
ATOM      1  C   UNL     1     168.202 173.123 161.935  1.00  0.00     0.065 A 
ATOM      2  C   UNL     1     168.834 173.146 160.684  1.00  0.00     0.208 A 
ATOM      3  O   UNL     1     170.101 172.775 160.555  1.00  0.00    -0.463 OA
ATOM      4  C   UNL     1     170.851 172.360 161.573  1.00  0.00     0.147 A 
ATOM      5  C   UNL     1     170.286 172.291 162.868  1.00  0.00     0.066 A 
ATOM      6  C   UNL     1     168.944 172.677 163.043  1.00  0.00     0.200 A 
ATOM      7  O   UNL     1     168.402 172.602 164.181  1.00  0.00    -0.288 OA
ATOM      8  C   UNL     1     171.063 171.830 163.940  1.00  0.00     0.020 A 
ATOM      9  C   UNL     1     172.373 171.415 163.726  1.00  0.00     0.047 A 
ATOM     10  C   UNL     1     172.945 171.460 162.452  1.00  0.00     0.125 A 
ATOM     11  C   UNL     1     172.204 171.986 161.358  1.00  0.00     0.069 A 
ENDROOT
BRANCH   1  12
ATOM     12  C   UNL     1     166.786 173.553 162.058  1.00  0.00    -0.011 A 
ATOM     13  C   UNL     1     165.745 172.621 161.903  1.00  0.00     0.013 A 
ATOM     14  C   UNL     1     164.411 173.025 162.009  1.00  0.00     0.047 A 
ATOM     15  C   UNL     1     164.101 174.367 162.265  1.00  0.00     0.115 A 
ATOM     16  C   UNL     1     166.465 174.899 162.308  1.00  0.00     0.013 A 
ATOM     17  C   UNL     1     165.130 175.301 162.413  1.00  0.00     0.047 A 
BRANCH  15  18
ATOM     18  O   UNL     1     162.774 174.780 162.374  1.00  0.00    -0.508 OA
ATOM     19  H   UNL     1     162.010 174.116 162.362  1.00  0.00     0.293 HD
ENDBRANCH  15  18
ENDBRANCH   1  12
BRANCH  11  20
ATOM     20  C   UNL     1     172.833 172.096 159.971  1.00  0.00     0.188 C 
ATOM     21  C   UNL     1     173.689 173.380 159.871  1.00  0.00     0.179 C 
ATOM     22  O   UNL     1     173.618 170.948 159.685  1.00  0.00    -0.362 OA
ATOM     23  C   UNL     1     174.303 173.487 158.460  1.00  0.00     0.177 C 
ATOM     24  C   UNL     1     174.070 170.958 158.340  1.00  0.00     0.176 C 
ATOM     25  C   UNL     1     175.010 172.167 158.096  1.00  0.00     0.177 C 
BRANCH  21  26
ATOM     26  O   UNL     1     174.712 173.349 160.835  1.00  0.00    -0.387 OA
ATOM     27  H   UNL     1     174.532 172.567 161.419  1.00  0.00     0.211 HD
ENDBRANCH  21  26
BRANCH  23  28
ATOM     28  O   UNL     1     173.295 173.769 157.521  1.00  0.00    -0.387 OA
ATOM     29  H   UNL     1     173.736 174.218 156.752  1.00  0.00     0.211 HD
ENDBRANCH  23  28
BRANCH  24  30
ATOM     30  C   UNL     1     174.803 169.637 158.066  1.00  0.00     0.191 C 
BRANCH  30  31
ATOM     31  O   UNL     1     176.112 169.692 158.565  1.00  0.00    -0.394 OA
ATOM     32  H   UNL     1     176.211 170.574 159.008  1.00  0.00     0.210 HD
ENDBRANCH  30  31
ENDBRANCH  24  30
BRANCH  25  33
ATOM     33  O   UNL     1     175.485 172.204 156.771  1.00  0.00    -0.388 OA
ATOM     34  H   UNL     1     175.063 172.979 156.316  1.00  0.00     0.211 HD
ENDBRANCH  25  33
ENDBRANCH  11  20
BRANCH  10  35
ATOM     35  O   UNL     1     174.242 170.958 162.318  1.00  0.00    -0.507 OA
ATOM     36  H   UNL     1     174.530 170.037 162.617  1.00  0.00     0.293 HD
ENDBRANCH  10  35
TORSDOF 9
ENDMDL
MODEL 3
REMARK VINA RESULT:    -4.874      1.461      1.704
REMARK INTER + INTRA:          -7.591
REMARK INTER:                  -6.601
REMARK INTRA:                  -0.990
REMARK UNBOUND:                -1.008
REMARK SMILES O=c1c(-c2ccc(O)cc2)coc2c([C@@H]3O[C@H](CO)[C@@H](O)[C@@H](O)[C@@H]3O)c(O)ccc12
REMARK SMILES IDX 3 1 11 2 12 3 13 4 30 5 2 6 1 7 29 8 28 9 26 10 14 11 4 12
REMARK SMILES IDX 5 13 6 14 7 15 10 16 9 17 8 18 15 20 24 21 16 22 22 23 17 24
REMARK SMILES IDX 20 25 25 26 23 28 18 30 19 31 21 33 27 35
REMARK H PARENT 8 19 25 27 23 29 19 32 21 34 27 36
REMARK Flexibility Score: inf
ROOT
ATOM      1  C   UNL     1     165.863 170.833 159.430  1.00  0.00     0.065 A 
ATOM      2  C   UNL     1     167.165 170.796 158.911  1.00  0.00     0.208 A 
ATOM      3  O   UNL     1     168.193 171.249 159.617  1.00  0.00    -0.463 OA
ATOM      4  C   UNL     1     168.073 171.756 160.842  1.00  0.00     0.147 A 
ATOM      5  C   UNL     1     166.796 171.815 161.448  1.00  0.00     0.066 A 
ATOM      6  C   UNL     1     165.683 171.344 160.727  1.00  0.00     0.200 A 
ATOM      7  O   UNL     1     164.533 171.359 161.249  1.00  0.00    -0.288 OA
ATOM      8  C   UNL     1     166.668 172.325 162.748  1.00  0.00     0.020 A 
ATOM      9  C   UNL     1     167.794 172.742 163.449  1.00  0.00     0.047 A 
ATOM     10  C   UNL     1     169.066 172.677 162.875  1.00  0.00     0.125 A 
ATOM     11  C   UNL     1     169.220 172.229 161.535  1.00  0.00     0.069 A 
ENDROOT
BRANCH   1  12
ATOM     12  C   UNL     1     164.727 170.331 158.617  1.00  0.00    -0.011 A 
ATOM     13  C   UNL     1     164.664 168.976 158.246  1.00  0.00     0.013 A 
ATOM     14  C   UNL     1     163.599 168.502 157.472  1.00  0.00     0.047 A 
ATOM     15  C   UNL     1     162.589 169.379 157.055  1.00  0.00     0.115 A 
ATOM     16  C   UNL     1     163.712 171.204 158.187  1.00  0.00     0.013 A 
ATOM     17  C   UNL     1     162.649 170.728 157.413  1.00  0.00     0.047 A 
BRANCH  15  18
ATOM     18  O   UNL     1     161.523 168.917 156.284  1.00  0.00    -0.508 OA
ATOM     19  H   UNL     1     161.442 169.148 155.301  1.00  0.00     0.293 HD
ENDBRANCH  15  18
ENDBRANCH   1  12
BRANCH  11  20
ATOM     20  C   UNL     1     170.596 172.205 160.873  1.00  0.00     0.188 C 
ATOM     21  C   UNL     1     170.871 173.551 160.162  1.00  0.00     0.179 C 
ATOM     22  O   UNL     1     171.607 171.929 161.831  1.00  0.00    -0.362 OA
ATOM     23  C   UNL     1     172.255 173.507 159.483  1.00  0.00     0.177 C 
ATOM     24  C   UNL     1     172.867 171.738 161.205  1.00  0.00     0.176 C 
ATOM     25  C   UNL     1     173.320 173.042 160.496  1.00  0.00     0.177 C 
BRANCH  21  26
ATOM     26  O   UNL     1     170.830 174.602 161.095  1.00  0.00    -0.387 OA
ATOM     27  H   UNL     1     171.483 175.284 160.788  1.00  0.00     0.211 HD
ENDBRANCH  21  26
BRANCH  23  28
ATOM     28  O   UNL     1     172.221 172.631 158.384  1.00  0.00    -0.387 OA
ATOM     29  H   UNL     1     172.644 171.782 158.680  1.00  0.00     0.211 HD
ENDBRANCH  23  28
BRANCH  24  30
ATOM     30  C   UNL     1     173.882 171.325 162.279  1.00  0.00     0.191 C 
BRANCH  30  31
ATOM     31  O   UNL     1     174.970 170.661 161.695  1.00  0.00    -0.394 OA
ATOM     32  H   UNL     1     175.273 169.980 162.351  1.00  0.00     0.210 HD
ENDBRANCH  30  31
ENDBRANCH  24  30
BRANCH  25  33
ATOM     33  O   UNL     1     174.572 172.891 159.871  1.00  0.00    -0.388 OA
ATOM     34  H   UNL     1     174.413 172.714 158.907  1.00  0.00     0.211 HD
ENDBRANCH  25  33
ENDBRANCH  11  20
BRANCH  10  35
ATOM     35  O   UNL     1     170.147 173.052 163.678  1.00  0.00    -0.507 OA
ATOM     36  H   UNL     1     170.533 172.481 164.416  1.00  0.00     0.293 HD
ENDBRANCH  10  35
TORSDOF 9
ENDMDL
MODEL 4
REMARK VINA RESULT:    -4.792      3.665      8.854
REMARK INTER + INTRA:          -7.481
REMARK INTER:                  -6.599
REMARK INTRA:                  -0.882
REMARK UNBOUND:                -1.008
REMARK SMILES O=c1c(-c2ccc(O)cc2)coc2c([C@@H]3O[C@H](CO)[C@@H](O)[C@@H](O)[C@@H]3O)c(O)ccc12
REMARK SMILES IDX 3 1 11 2 12 3 13 4 30 5 2 6 1 7 29 8 28 9 26 10 14 11 4 12
REMARK SMILES IDX 5 13 6 14 7 15 10 16 9 17 8 18 15 20 24 21 16 22 22 23 17 24
REMARK SMILES IDX 20 25 25 26 23 28 18 30 19 31 21 33 27 35
REMARK H PARENT 8 19 25 27 23 29 19 32 21 34 27 36
REMARK Flexibility Score: inf
ROOT
ATOM      1  C   UNL     1     168.330 173.113 162.294  1.00  0.00     0.065 A 
ATOM      2  C   UNL     1     168.047 174.405 162.758  1.00  0.00     0.208 A 
ATOM      3  O   UNL     1     166.811 174.887 162.719  1.00  0.00    -0.463 OA
ATOM      4  C   UNL     1     165.771 174.201 162.252  1.00  0.00     0.147 A 
ATOM      5  C   UNL     1     165.966 172.882 161.778  1.00  0.00     0.066 A 
ATOM      6  C   UNL     1     167.264 172.338 161.804  1.00  0.00     0.200 A 
ATOM      7  O   UNL     1     167.467 171.155 161.413  1.00  0.00    -0.288 OA
ATOM      8  C   UNL     1     164.870 172.144 161.309  1.00  0.00     0.020 A 
ATOM      9  C   UNL     1     163.593 172.695 161.337  1.00  0.00     0.047 A 
ATOM     10  C   UNL     1     163.377 173.989 161.816  1.00  0.00     0.125 A 
ATOM     11  C   UNL     1     164.477 174.786 162.235  1.00  0.00     0.069 A 
ENDROOT
BRANCH   1  12
ATOM     12  C   UNL     1     169.722 172.599 162.337  1.00  0.00    -0.011 A 
ATOM     13  C   UNL     1     170.458 172.443 161.149  1.00  0.00     0.013 A 
ATOM     14  C   UNL     1     171.766 171.950 161.186  1.00  0.00     0.047 A 
ATOM     15  C   UNL     1     172.352 171.602 162.410  1.00  0.00     0.115 A 
ATOM     16  C   UNL     1     170.316 172.241 163.560  1.00  0.00     0.013 A 
ATOM     17  C   UNL     1     171.624 171.748 163.594  1.00  0.00     0.047 A 
BRANCH  15  18
ATOM     18  O   UNL     1     173.655 171.110 162.459  1.00  0.00    -0.508 OA
ATOM     19  H   UNL     1     174.400 171.630 162.907  1.00  0.00     0.293 HD
ENDBRANCH  15  18
ENDBRANCH   1  12
BRANCH  11  20
ATOM     20  C   UNL     1     164.265 176.223 162.707  1.00  0.00     0.188 C 
ATOM     21  C   UNL     1     164.192 177.180 161.494  1.00  0.00     0.179 C 
ATOM     22  O   UNL     1     163.088 176.322 163.495  1.00  0.00    -0.362 OA
ATOM     23  C   UNL     1     163.996 178.629 161.986  1.00  0.00     0.177 C 
ATOM     24  C   UNL     1     162.969 177.611 164.078  1.00  0.00     0.176 C 
ATOM     25  C   UNL     1     162.814 178.690 162.975  1.00  0.00     0.177 C 
BRANCH  21  26
ATOM     26  O   UNL     1     163.123 176.812 160.658  1.00  0.00    -0.387 OA
ATOM     27  H   UNL     1     163.490 176.181 159.985  1.00  0.00     0.211 HD
ENDBRANCH  21  26
BRANCH  23  28
ATOM     28  O   UNL     1     165.170 179.084 162.611  1.00  0.00    -0.387 OA
ATOM     29  H   UNL     1     164.980 179.127 163.585  1.00  0.00     0.211 HD
ENDBRANCH  23  28
BRANCH  24  30
ATOM     30  C   UNL     1     161.748 177.609 165.009  1.00  0.00     0.191 C 
BRANCH  30  31
ATOM     31  O   UNL     1     161.724 176.441 165.784  1.00  0.00    -0.394 OA
ATOM     32  H   UNL     1     160.811 176.371 166.166  1.00  0.00     0.210 HD
ENDBRANCH  30  31
ENDBRANCH  24  30
BRANCH  25  33
ATOM     33  O   UNL     1     162.685 179.982 163.519  1.00  0.00    -0.388 OA
ATOM     34  H   UNL     1     163.339 180.573 163.063  1.00  0.00     0.211 HD
ENDBRANCH  25  33
ENDBRANCH  11  20
BRANCH  10  35
ATOM     35  O   UNL     1     162.053 174.435 161.871  1.00  0.00    -0.507 OA
ATOM     36  H   UNL     1     161.738 175.330 161.524  1.00  0.00     0.293 HD
ENDBRANCH  10  35
TORSDOF 9
ENDMDL
MODEL 5
REMARK VINA RESULT:    -4.771      1.910      2.900
REMARK INTER + INTRA:          -7.452
REMARK INTER:                  -7.010
REMARK INTRA:                  -0.442
REMARK UNBOUND:                -1.008
REMARK SMILES O=c1c(-c2ccc(O)cc2)coc2c([C@@H]3O[C@H](CO)[C@@H](O)[C@@H](O)[C@@H]3O)c(O)ccc12
REMARK SMILES IDX 3 1 11 2 12 3 13 4 30 5 2 6 1 7 29 8 28 9 26 10 14 11 4 12
REMARK SMILES IDX 5 13 6 14 7 15 10 16 9 17 8 18 15 20 24 21 16 22 22 23 17 24
REMARK SMILES IDX 20 25 25 26 23 28 18 30 19 31 21 33 27 35
REMARK H PARENT 8 19 25 27 23 29 19 32 21 34 27 36
REMARK Flexibility Score: inf
ROOT
ATOM      1  C   UNL     1     165.068 171.723 160.260  1.00  0.00     0.065 A 
ATOM      2  C   UNL     1     166.328 171.300 160.704  1.00  0.00     0.208 A 
ATOM      3  O   UNL     1     167.230 172.176 161.128  1.00  0.00    -0.463 OA
ATOM      4  C   UNL     1     167.015 173.488 161.168  1.00  0.00     0.147 A 
ATOM      5  C   UNL     1     165.763 173.999 160.753  1.00  0.00     0.066 A 
ATOM      6  C   UNL     1     164.782 173.099 160.297  1.00  0.00     0.200 A 
ATOM      7  O   UNL     1     163.645 173.521 159.943  1.00  0.00    -0.288 OA
ATOM      8  C   UNL     1     165.521 175.379 160.818  1.00  0.00     0.020 A 
ATOM      9  C   UNL     1     166.496 176.237 161.314  1.00  0.00     0.047 A 
ATOM     10  C   UNL     1     167.733 175.751 161.745  1.00  0.00     0.125 A 
ATOM     11  C   UNL     1     168.033 174.366 161.629  1.00  0.00     0.069 A 
ENDROOT
BRANCH   1  12
ATOM     12  C   UNL     1     164.079 170.726 159.779  1.00  0.00    -0.011 A 
ATOM     13  C   UNL     1     164.277 170.063 158.555  1.00  0.00     0.013 A 
ATOM     14  C   UNL     1     163.342 169.130 158.095  1.00  0.00     0.047 A 
ATOM     15  C   UNL     1     162.195 168.854 158.850  1.00  0.00     0.115 A 
ATOM     16  C   UNL     1     162.921 170.447 160.527  1.00  0.00     0.013 A 
ATOM     17  C   UNL     1     161.987 169.515 160.064  1.00  0.00     0.047 A 
BRANCH  15  18
ATOM     18  O   UNL     1     161.257 167.926 158.402  1.00  0.00    -0.508 OA
ATOM     19  H   UNL     1     161.196 167.664 157.425  1.00  0.00     0.293 HD
ENDBRANCH  15  18
ENDBRANCH   1  12
BRANCH  11  20
ATOM     20  C   UNL     1     169.401 173.826 162.041  1.00  0.00     0.188 C 
ATOM     21  C   UNL     1     169.347 173.277 163.486  1.00  0.00     0.179 C 
ATOM     22  O   UNL     1     169.833 172.819 161.138  1.00  0.00    -0.362 OA
ATOM     23  C   UNL     1     170.738 172.752 163.894  1.00  0.00     0.177 C 
ATOM     24  C   UNL     1     171.170 172.428 161.409  1.00  0.00     0.176 C 
ATOM     25  C   UNL     1     171.269 171.785 162.818  1.00  0.00     0.177 C 
BRANCH  21  26
ATOM     26  O   UNL     1     168.402 172.239 163.568  1.00  0.00    -0.387 OA
ATOM     27  H   UNL     1     168.133 172.171 164.521  1.00  0.00     0.211 HD
ENDBRANCH  21  26
BRANCH  23  28
ATOM     28  O   UNL     1     171.627 173.829 164.055  1.00  0.00    -0.387 OA
ATOM     29  H   UNL     1     171.323 174.338 164.852  1.00  0.00     0.211 HD
ENDBRANCH  23  28
BRANCH  24  30
ATOM     30  C   UNL     1     171.611 171.432 160.327  1.00  0.00     0.191 C 
BRANCH  30  31
ATOM     31  O   UNL     1     173.010 171.347 160.282  1.00  0.00    -0.394 OA
ATOM     32  H   UNL     1     173.271 170.619 160.904  1.00  0.00     0.210 HD
ENDBRANCH  30  31
ENDBRANCH  24  30
BRANCH  25  33
ATOM     33  O   UNL     1     172.583 171.377 163.117  1.00  0.00    -0.388 OA
ATOM     34  H   UNL     1     172.534 170.490 163.561  1.00  0.00     0.211 HD
ENDBRANCH  25  33
ENDBRANCH  11  20
BRANCH  10  35
ATOM     35  O   UNL     1     168.625 176.676 162.294  1.00  0.00    -0.507 OA
ATOM     36  H   UNL     1     168.388 177.331 163.025  1.00  0.00     0.293 HD
ENDBRANCH  10  35
TORSDOF 9
ENDMDL
MODEL 6
REMARK VINA RESULT:    -4.688      2.791      5.026
REMARK INTER + INTRA:          -7.340
REMARK INTER:                  -6.282
REMARK INTRA:                  -1.058
REMARK UNBOUND:                -1.008
REMARK SMILES O=c1c(-c2ccc(O)cc2)coc2c([C@@H]3O[C@H](CO)[C@@H](O)[C@@H](O)[C@@H]3O)c(O)ccc12
REMARK SMILES IDX 3 1 11 2 12 3 13 4 30 5 2 6 1 7 29 8 28 9 26 10 14 11 4 12
REMARK SMILES IDX 5 13 6 14 7 15 10 16 9 17 8 18 15 20 24 21 16 22 22 23 17 24
REMARK SMILES IDX 20 25 25 26 23 28 18 30 19 31 21 33 27 35
REMARK H PARENT 8 19 25 27 23 29 19 32 21 34 27 36
REMARK Flexibility Score: inf
ROOT
ATOM      1  C   UNL     1     169.326 172.502 161.371  1.00  0.00     0.065 A 
ATOM      2  C   UNL     1     169.624 172.165 160.044  1.00  0.00     0.208 A 
ATOM      3  O   UNL     1     170.833 171.734 159.706  1.00  0.00    -0.463 OA
ATOM      4  C   UNL     1     171.829 171.589 160.576  1.00  0.00     0.147 A 
ATOM      5  C   UNL     1     171.608 171.892 161.941  1.00  0.00     0.066 A 
ATOM      6  C   UNL     1     170.339 172.352 162.335  1.00  0.00     0.200 A 
ATOM      7  O   UNL     1     170.102 172.606 163.549  1.00  0.00    -0.288 OA
ATOM      8  C   UNL     1     172.647 171.716 162.866  1.00  0.00     0.020 A 
ATOM      9  C   UNL     1     173.877 171.218 162.451  1.00  0.00     0.047 A 
ATOM     10  C   UNL     1     174.110 170.898 161.111  1.00  0.00     0.125 A 
ATOM     11  C   UNL     1     173.100 171.129 160.138  1.00  0.00     0.069 A 
ENDROOT
BRANCH   1  12
ATOM     12  C   UNL     1     167.970 172.993 161.725  1.00  0.00    -0.011 A 
ATOM     13  C   UNL     1     167.701 174.373 161.759  1.00  0.00     0.013 A 
ATOM     14  C   UNL     1     166.427 174.837 162.100  1.00  0.00     0.047 A 
ATOM     15  C   UNL     1     165.409 173.929 162.417  1.00  0.00     0.115 A 
ATOM     16  C   UNL     1     166.943 172.089 162.051  1.00  0.00     0.013 A 
ATOM     17  C   UNL     1     165.671 172.557 162.392  1.00  0.00     0.047 A 
BRANCH  15  18
ATOM     18  O   UNL     1     164.135 174.381 162.758  1.00  0.00    -0.508 OA
ATOM     19  H   UNL     1     163.392 174.439 162.072  1.00  0.00     0.293 HD
ENDBRANCH  15  18
ENDBRANCH   1  12
BRANCH  11  20
ATOM     20  C   UNL     1     173.357 170.839 158.661  1.00  0.00     0.188 C 
ATOM     21  C   UNL     1     174.104 172.023 158.005  1.00  0.00     0.179 C 
ATOM     22  O   UNL     1     174.095 169.635 158.510  1.00  0.00    -0.362 OA
ATOM     23  C   UNL     1     174.342 171.724 156.511  1.00  0.00     0.177 C 
ATOM     24  C   UNL     1     174.196 169.265 157.143  1.00  0.00     0.176 C 
ATOM     25  C   UNL     1     174.993 170.335 156.352  1.00  0.00     0.177 C 
BRANCH  21  26
ATOM     26  O   UNL     1     175.336 172.229 158.652  1.00  0.00    -0.387 OA
ATOM     27  H   UNL     1     175.934 172.671 157.995  1.00  0.00     0.211 HD
ENDBRANCH  21  26
BRANCH  23  28
ATOM     28  O   UNL     1     173.121 171.766 155.815  1.00  0.00    -0.387 OA
ATOM     29  H   UNL     1     172.787 170.831 155.763  1.00  0.00     0.211 HD
ENDBRANCH  23  28
BRANCH  24  30
ATOM     30  C   UNL     1     174.895 167.901 157.062  1.00  0.00     0.191 C 
BRANCH  30  31
ATOM     31  O   UNL     1     176.255 168.027 157.377  1.00  0.00    -0.394 OA
ATOM     32  H   UNL     1     176.759 167.835 156.543  1.00  0.00     0.210 HD
ENDBRANCH  30  31
ENDBRANCH  24  30
BRANCH  25  33
ATOM     33  O   UNL     1     175.120 169.996 154.991  1.00  0.00    -0.388 OA
ATOM     34  H   UNL     1     175.978 169.509 154.877  1.00  0.00     0.211 HD
ENDBRANCH  25  33
ENDBRANCH  11  20
BRANCH  10  35
ATOM     35  O   UNL     1     175.352 170.339 160.797  1.00  0.00    -0.507 OA
ATOM     36  H   UNL     1     175.670 169.437 161.122  1.00  0.00     0.293 HD
ENDBRANCH  10  35
TORSDOF 9
ENDMDL
MODEL 7
REMARK VINA RESULT:    -4.609      2.004      7.871
REMARK INTER + INTRA:          -7.233
REMARK INTER:                  -6.717
REMARK INTRA:                  -0.517
REMARK UNBOUND:                -1.008
REMARK SMILES O=c1c(-c2ccc(O)cc2)coc2c([C@@H]3O[C@H](CO)[C@@H](O)[C@@H](O)[C@@H]3O)c(O)ccc12
REMARK SMILES IDX 3 1 11 2 12 3 13 4 30 5 2 6 1 7 29 8 28 9 26 10 14 11 4 12
REMARK SMILES IDX 5 13 6 14 7 15 10 16 9 17 8 18 15 20 24 21 16 22 22 23 17 24
REMARK SMILES IDX 20 25 25 26 23 28 18 30 19 31 21 33 27 35
REMARK H PARENT 8 19 25 27 23 29 19 32 21 34 27 36
REMARK Flexibility Score: inf
ROOT
ATOM      1  C   UNL     1     171.133 172.389 161.503  1.00  0.00     0.065 A 
ATOM      2  C   UNL     1     170.320 171.912 160.466  1.00  0.00     0.208 A 
ATOM      3  O   UNL     1     168.997 171.934 160.572  1.00  0.00    -0.463 OA
ATOM      4  C   UNL     1     168.356 172.399 161.641  1.00  0.00     0.147 A 
ATOM      5  C   UNL     1     169.101 172.915 162.728  1.00  0.00     0.066 A 
ATOM      6  C   UNL     1     170.506 172.907 162.649  1.00  0.00     0.200 A 
ATOM      7  O   UNL     1     171.199 173.384 163.591  1.00  0.00    -0.288 OA
ATOM      8  C   UNL     1     168.430 173.431 163.846  1.00  0.00     0.020 A 
ATOM      9  C   UNL     1     167.040 173.463 163.874  1.00  0.00     0.047 A 
ATOM     10  C   UNL     1     166.286 172.974 162.804  1.00  0.00     0.125 A 
ATOM     11  C   UNL     1     166.936 172.384 161.686  1.00  0.00     0.069 A 
ENDROOT
BRANCH   1  12
ATOM     12  C   UNL     1     172.611 172.344 161.366  1.00  0.00    -0.011 A 
ATOM     13  C   UNL     1     173.271 173.239 160.505  1.00  0.00     0.013 A 
ATOM     14  C   UNL     1     174.661 173.193 160.367  1.00  0.00     0.047 A 
ATOM     15  C   UNL     1     175.408 172.249 161.084  1.00  0.00     0.115 A 
ATOM     16  C   UNL     1     173.368 171.396 162.076  1.00  0.00     0.013 A 
ATOM     17  C   UNL     1     174.759 171.352 161.936  1.00  0.00     0.047 A 
BRANCH  15  18
ATOM     18  O   UNL     1     176.795 172.195 160.954  1.00  0.00    -0.508 OA
ATOM     19  H   UNL     1     177.249 172.333 160.060  1.00  0.00     0.293 HD
ENDBRANCH  15  18
ENDBRANCH   1  12
BRANCH  11  20
ATOM     20  C   UNL     1     166.126 171.792 160.534  1.00  0.00     0.188 C 
ATOM     21  C   UNL     1     165.742 172.901 159.526  1.00  0.00     0.179 C 
ATOM     22  O   UNL     1     166.855 170.759 159.889  1.00  0.00    -0.362 OA
ATOM     23  C   UNL     1     164.910 172.293 158.378  1.00  0.00     0.177 C 
ATOM     24  C   UNL     1     166.053 170.089 158.929  1.00  0.00     0.176 C 
ATOM     25  C   UNL     1     165.638 171.065 157.797  1.00  0.00     0.177 C 
BRANCH  21  26
ATOM     26  O   UNL     1     166.904 173.499 159.007  1.00  0.00    -0.387 OA
ATOM     27  H   UNL     1     167.150 172.989 158.192  1.00  0.00     0.211 HD
ENDBRANCH  21  26
BRANCH  23  28
ATOM     28  O   UNL     1     163.641 171.919 158.854  1.00  0.00    -0.387 OA
ATOM     29  H   UNL     1     163.139 171.555 158.078  1.00  0.00     0.211 HD
ENDBRANCH  23  28
BRANCH  24  30
ATOM     30  C   UNL     1     166.859 168.912 158.362  1.00  0.00     0.191 C 
BRANCH  30  31
ATOM     31  O   UNL     1     166.002 167.966 157.781  1.00  0.00    -0.394 OA
ATOM     32  H   UNL     1     165.088 168.171 158.109  1.00  0.00     0.210 HD
ENDBRANCH  30  31
ENDBRANCH  24  30
BRANCH  25  33
ATOM     33  O   UNL     1     164.847 170.431 156.820  1.00  0.00    -0.388 OA
ATOM     34  H   UNL     1     163.902 170.688 156.979  1.00  0.00     0.211 HD
ENDBRANCH  25  33
ENDBRANCH  11  20
BRANCH  10  35
ATOM     35  O   UNL     1     164.897 173.111 162.889  1.00  0.00    -0.507 OA
ATOM     36  H   UNL     1     164.386 173.201 163.755  1.00  0.00     0.293 HD
ENDBRANCH  10  35
TORSDOF 9
ENDMDL
MODEL 8
REMARK VINA RESULT:    -4.608      2.537      8.102
REMARK INTER + INTRA:          -7.232
REMARK INTER:                  -6.087
REMARK INTRA:                  -1.144
REMARK UNBOUND:                -1.008
REMARK SMILES O=c1c(-c2ccc(O)cc2)coc2c([C@@H]3O[C@H](CO)[C@@H](O)[C@@H](O)[C@@H]3O)c(O)ccc12
REMARK SMILES IDX 3 1 11 2 12 3 13 4 30 5 2 6 1 7 29 8 28 9 26 10 14 11 4 12
REMARK SMILES IDX 5 13 6 14 7 15 10 16 9 17 8 18 15 20 24 21 16 22 22 23 17 24
REMARK SMILES IDX 20 25 25 26 23 28 18 30 19 31 21 33 27 35
REMARK H PARENT 8 19 25 27 23 29 19 32 21 34 27 36
REMARK Flexibility Score: inf
ROOT
ATOM      1  C   UNL     1     172.081 171.134 159.506  1.00  0.00     0.065 A 
ATOM      2  C   UNL     1     170.761 171.366 159.095  1.00  0.00     0.208 A 
ATOM      3  O   UNL     1     169.855 171.831 159.945  1.00  0.00    -0.463 OA
ATOM      4  C   UNL     1     170.120 172.110 161.219  1.00  0.00     0.147 A 
ATOM      5  C   UNL     1     171.433 171.921 161.712  1.00  0.00     0.066 A 
ATOM      6  C   UNL     1     172.420 171.429 160.839  1.00  0.00     0.200 A 
ATOM      7  O   UNL     1     173.606 171.273 161.241  1.00  0.00    -0.288 OA
ATOM      8  C   UNL     1     171.724 172.238 163.046  1.00  0.00     0.020 A 
ATOM      9  C   UNL     1     170.736 172.764 163.872  1.00  0.00     0.047 A 
ATOM     10  C   UNL     1     169.438 172.973 163.400  1.00  0.00     0.125 A 
ATOM     11  C   UNL     1     169.095 172.599 162.072  1.00  0.00     0.069 A 
ENDROOT
BRANCH   1  12
ATOM     12  C   UNL     1     173.075 170.603 158.540  1.00  0.00    -0.011 A 
ATOM     13  C   UNL     1     173.977 171.472 157.899  1.00  0.00     0.013 A 
ATOM     14  C   UNL     1     174.908 170.975 156.982  1.00  0.00     0.047 A 
ATOM     15  C   UNL     1     174.946 169.606 156.690  1.00  0.00     0.115 A 
ATOM     16  C   UNL     1     173.117 169.231 158.235  1.00  0.00     0.013 A 
ATOM     17  C   UNL     1     174.049 168.737 157.318  1.00  0.00     0.047 A 
BRANCH  15  18
ATOM     18  O   UNL     1     175.871 169.100 155.778  1.00  0.00    -0.508 OA
ATOM     19  H   UNL     1     175.782 169.271 154.784  1.00  0.00     0.293 HD
ENDBRANCH  15  18
ENDBRANCH   1  12
BRANCH  11  20
ATOM     20  C   UNL     1     167.667 172.768 161.558  1.00  0.00     0.188 C 
ATOM     21  C   UNL     1     166.814 171.533 161.932  1.00  0.00     0.179 C 
ATOM     22  O   UNL     1     167.086 173.954 162.078  1.00  0.00    -0.362 OA
ATOM     23  C   UNL     1     165.380 171.709 161.391  1.00  0.00     0.177 C 
ATOM     24  C   UNL     1     165.825 174.212 161.479  1.00  0.00     0.176 C 
ATOM     25  C   UNL     1     164.822 173.080 161.825  1.00  0.00     0.177 C 
BRANCH  21  26
ATOM     26  O   UNL     1     166.781 171.379 163.329  1.00  0.00    -0.387 OA
ATOM     27  H   UNL     1     167.564 170.822 163.575  1.00  0.00     0.211 HD
ENDBRANCH  21  26
BRANCH  23  28
ATOM     28  O   UNL     1     165.383 171.612 159.989  1.00  0.00    -0.387 OA
ATOM     29  H   UNL     1     165.441 172.539 159.637  1.00  0.00     0.211 HD
ENDBRANCH  23  28
BRANCH  24  30
ATOM     30  C   UNL     1     165.312 175.564 161.992  1.00  0.00     0.191 C 
BRANCH  30  31
ATOM     31  O   UNL     1     164.423 175.378 163.060  1.00  0.00    -0.394 OA
ATOM     32  H   UNL     1     164.905 175.655 163.883  1.00  0.00     0.210 HD
ENDBRANCH  30  31
ENDBRANCH  24  30
BRANCH  25  33
ATOM     33  O   UNL     1     163.556 173.307 161.253  1.00  0.00    -0.388 OA
ATOM     34  H   UNL     1     162.980 173.730 161.942  1.00  0.00     0.211 HD
ENDBRANCH  25  33
ENDBRANCH  11  20
BRANCH  10  35
ATOM     35  O   UNL     1     168.530 173.570 164.279  1.00  0.00    -0.507 OA
ATOM     36  H   UNL     1     168.201 173.144 165.134  1.00  0.00     0.293 HD
ENDBRANCH  10  35
TORSDOF 9
ENDMDL
MODEL 9
REMARK VINA RESULT:    -4.554      2.332      3.772
REMARK INTER + INTRA:          -7.160
REMARK INTER:                  -6.017
REMARK INTRA:                  -1.143
REMARK UNBOUND:                -1.008
REMARK SMILES O=c1c(-c2ccc(O)cc2)coc2c([C@@H]3O[C@H](CO)[C@@H](O)[C@@H](O)[C@@H]3O)c(O)ccc12
REMARK SMILES IDX 3 1 11 2 12 3 13 4 30 5 2 6 1 7 29 8 28 9 26 10 14 11 4 12
REMARK SMILES IDX 5 13 6 14 7 15 10 16 9 17 8 18 15 20 24 21 16 22 22 23 17 24
REMARK SMILES IDX 20 25 25 26 23 28 18 30 19 31 21 33 27 35
REMARK H PARENT 8 19 25 27 23 29 19 32 21 34 27 36
REMARK Flexibility Score: inf
ROOT
ATOM      1  C   UNL     1     162.854 170.965 160.286  1.00  0.00     0.065 A 
ATOM      2  C   UNL     1     164.232 170.726 160.203  1.00  0.00     0.208 A 
ATOM      3  O   UNL     1     165.108 171.654 160.566  1.00  0.00    -0.463 OA
ATOM      4  C   UNL     1     164.757 172.852 161.028  1.00  0.00     0.147 A 
ATOM      5  C   UNL     1     163.385 173.170 161.160  1.00  0.00     0.066 A 
ATOM      6  C   UNL     1     162.428 172.210 160.784  1.00  0.00     0.200 A 
ATOM      7  O   UNL     1     161.196 172.454 160.913  1.00  0.00    -0.288 OA
ATOM      8  C   UNL     1     163.010 174.421 161.670  1.00  0.00     0.020 A 
ATOM      9  C   UNL     1     163.980 175.332 162.073  1.00  0.00     0.047 A 
ATOM     10  C   UNL     1     165.340 175.031 161.966  1.00  0.00     0.125 A 
ATOM     11  C   UNL     1     165.753 173.798 161.390  1.00  0.00     0.069 A 
ENDROOT
BRANCH   1  12
ATOM     12  C   UNL     1     161.892 169.916 159.865  1.00  0.00    -0.011 A 
ATOM     13  C   UNL     1     161.389 168.997 160.802  1.00  0.00     0.013 A 
ATOM     14  C   UNL     1     160.490 168.001 160.406  1.00  0.00     0.047 A 
ATOM     15  C   UNL     1     160.089 167.909 159.067  1.00  0.00     0.115 A 
ATOM     16  C   UNL     1     161.489 169.811 158.521  1.00  0.00     0.013 A 
ATOM     17  C   UNL     1     160.591 168.814 158.128  1.00  0.00     0.047 A 
BRANCH  15  18
ATOM     18  O   UNL     1     159.193 166.921 158.661  1.00  0.00    -0.508 OA
ATOM     19  H   UNL     1     159.340 166.391 157.810  1.00  0.00     0.293 HD
ENDBRANCH  15  18
ENDBRANCH   1  12
BRANCH  11  20
ATOM     20  C   UNL     1     167.236 173.477 161.213  1.00  0.00     0.188 C 
ATOM     21  C   UNL     1     167.763 174.090 159.895  1.00  0.00     0.179 C 
ATOM     22  O   UNL     1     167.985 173.951 162.322  1.00  0.00    -0.362 OA
ATOM     23  C   UNL     1     169.255 173.743 159.721  1.00  0.00     0.177 C 
ATOM     24  C   UNL     1     169.334 173.513 162.253  1.00  0.00     0.176 C 
ATOM     25  C   UNL     1     170.031 174.110 161.002  1.00  0.00     0.177 C 
BRANCH  21  26
ATOM     26  O   UNL     1     167.598 175.487 159.918  1.00  0.00    -0.387 OA
ATOM     27  H   UNL     1     168.409 175.878 159.502  1.00  0.00     0.211 HD
ENDBRANCH  21  26
BRANCH  23  28
ATOM     28  O   UNL     1     169.398 172.371 159.448  1.00  0.00    -0.387 OA
ATOM     29  H   UNL     1     169.256 172.256 158.472  1.00  0.00     0.211 HD
ENDBRANCH  23  28
BRANCH  24  30
ATOM     30  C   UNL     1     170.052 173.955 163.535  1.00  0.00     0.191 C 
BRANCH  30  31
ATOM     31  O   UNL     1     171.317 173.356 163.619  1.00  0.00    -0.394 OA
ATOM     32  H   UNL     1     171.465 172.881 162.760  1.00  0.00     0.210 HD
ENDBRANCH  30  31
ENDBRANCH  24  30
BRANCH  25  33
ATOM     33  O   UNL     1     171.375 173.703 160.906  1.00  0.00    -0.388 OA
ATOM     34  H   UNL     1     171.914 174.490 160.632  1.00  0.00     0.211 HD
ENDBRANCH  25  33
ENDBRANCH  11  20
BRANCH  10  35
ATOM     35  O   UNL     1     166.243 175.977 162.459  1.00  0.00    -0.507 OA
ATOM     36  H   UNL     1     166.928 176.459 161.895  1.00  0.00     0.293 HD
ENDBRANCH  10  35
TORSDOF 9
ENDMDL
