MODEL 1
REMARK VINA RESULT:    -5.548      0.000      0.000
REMARK INTER + INTRA:          -6.416
REMARK INTER:                  -6.197
REMARK INTRA:                  -0.220
REMARK UNBOUND:                -0.220
REMARK SMILES CC(C)c1ccc(C(=O)[O-])cc1
REMARK SMILES IDX 7 1 6 2 11 3 5 4 12 5 4 6 8 7 9 8 10 9 2 10 1 11 3 12
REMARK H PARENT
REMARK Flexibility Score: inf
ROOT
ATOM      1  C   UNL     1      10.697 -18.596  -8.138  1.00  0.00    -0.003 A 
ATOM      2  C   UNL     1       9.395 -19.115  -8.043  1.00  0.00     0.010 A 
ATOM      3  C   UNL     1      11.153 -18.122  -9.378  1.00  0.00     0.010 A 
ATOM      4  C   UNL     1       8.564 -19.157  -9.168  1.00  0.00     0.004 A 
ATOM      5  C   UNL     1      10.324 -18.164 -10.502  1.00  0.00     0.004 A 
ATOM      6  C   UNL     1       9.019 -18.683 -10.409  1.00  0.00    -0.045 A 
ENDROOT
BRANCH   1   7
ATOM      7  C   UNL     1      11.579 -18.550  -6.950  1.00  0.00     0.071 C 
ATOM      8  O   UNL     1      12.833 -18.553  -7.081  1.00  0.00    -0.545 OA
ATOM      9  O   UNL     1      11.036 -18.503  -5.671  1.00  0.00    -0.545 OA
ENDBRANCH   1   7
BRANCH   6  10
ATOM     10  C   UNL     1       8.107 -18.735 -11.621  1.00  0.00     0.013 C 
ATOM     11  C   UNL     1       7.041 -19.827 -11.464  1.00  0.00     0.012 C 
ATOM     12  C   UNL     1       8.913 -18.933 -12.911  1.00  0.00     0.012 C 
ENDBRANCH   6  10
TORSDOF 2
ENDMDL
MODEL 2
REMARK VINA RESULT:    -5.529      2.992      5.159
REMARK INTER + INTRA:          -6.395
REMARK INTER:                  -6.181
REMARK INTRA:                  -0.214
REMARK UNBOUND:                -0.220
REMARK SMILES CC(C)c1ccc(C(=O)[O-])cc1
REMARK SMILES IDX 7 1 6 2 11 3 5 4 12 5 4 6 8 7 9 8 10 9 2 10 1 11 3 12
REMARK H PARENT
REMARK Flexibility Score: inf
ROOT
ATOM      1  C   UNL     1       9.442 -18.704 -10.603  1.00  0.00    -0.003 A 
ATOM      2  C   UNL     1      10.707 -18.098 -10.677  1.00  0.00     0.010 A 
ATOM      3  C   UNL     1       8.969 -19.142  -9.355  1.00  0.00     0.010 A 
ATOM      4  C   UNL     1      11.484 -17.934  -9.526  1.00  0.00     0.004 A 
ATOM      5  C   UNL     1       9.745 -18.978  -8.204  1.00  0.00     0.004 A 
ATOM      6  C   UNL     1      11.012 -18.372  -8.278  1.00  0.00    -0.045 A 
ENDROOT
BRANCH   1   7
ATOM      7  C   UNL     1       8.616 -18.880 -11.819  1.00  0.00     0.071 C 
ATOM      8  O   UNL     1       9.071 -19.498 -12.818  1.00  0.00    -0.545 OA
ATOM      9  O   UNL     1       7.328 -18.362 -11.876  1.00  0.00    -0.545 OA
ENDBRANCH   1   7
BRANCH   6  10
ATOM     10  C   UNL     1      11.866 -18.187  -7.036  1.00  0.00     0.013 C 
ATOM     11  C   UNL     1      11.072 -18.515  -5.766  1.00  0.00     0.012 C 
ATOM     12  C   UNL     1      12.449 -16.770  -6.972  1.00  0.00     0.012 C 
ENDBRANCH   6  10
TORSDOF 2
ENDMDL
MODEL 3
REMARK VINA RESULT:    -5.501      3.074      4.919
REMARK INTER + INTRA:          -6.364
REMARK INTER:                  -6.145
REMARK INTRA:                  -0.219
REMARK UNBOUND:                -0.220
REMARK SMILES CC(C)c1ccc(C(=O)[O-])cc1
REMARK SMILES IDX 7 1 6 2 11 3 5 4 12 5 4 6 8 7 9 8 10 9 2 10 1 11 3 12
REMARK H PARENT
REMARK Flexibility Score: inf
ROOT
ATOM      1  C   UNL     1      10.322 -18.142 -11.089  1.00  0.00    -0.003 A 
ATOM      2  C   UNL     1      11.487 -17.926 -10.333  1.00  0.00     0.010 A 
ATOM      3  C   UNL     1       9.221 -18.765 -10.479  1.00  0.00     0.010 A 
ATOM      4  C   UNL     1      11.549 -18.326  -8.995  1.00  0.00     0.004 A 
ATOM      5  C   UNL     1       9.283 -19.165  -9.141  1.00  0.00     0.004 A 
ATOM      6  C   UNL     1      10.449 -18.950  -8.384  1.00  0.00    -0.045 A 
ENDROOT
BRANCH   1   7
ATOM      7  C   UNL     1      10.252 -17.721 -12.506  1.00  0.00     0.071 C 
ATOM      8  O   UNL     1      11.226 -17.132 -13.048  1.00  0.00    -0.545 OA
ATOM      9  O   UNL     1       9.110 -17.967 -13.258  1.00  0.00    -0.545 OA
ENDBRANCH   1   7
BRANCH   6  10
ATOM     10  C   UNL     1      10.530 -19.378  -6.930  1.00  0.00     0.013 C 
ATOM     11  C   UNL     1       9.199 -19.972  -6.454  1.00  0.00     0.012 C 
ATOM     12  C   UNL     1      10.966 -18.213  -6.034  1.00  0.00     0.012 C 
ENDBRANCH   6  10
TORSDOF 2
ENDMDL
MODEL 4
REMARK VINA RESULT:    -5.263      3.199      5.095
REMARK INTER + INTRA:          -6.098
REMARK INTER:                  -5.888
REMARK INTRA:                  -0.209
REMARK UNBOUND:                -0.220
REMARK SMILES CC(C)c1ccc(C(=O)[O-])cc1
REMARK SMILES IDX 7 1 6 2 11 3 5 4 12 5 4 6 8 7 9 8 10 9 2 10 1 11 3 12
REMARK H PARENT
REMARK Flexibility Score: inf
ROOT
ATOM      1  C   UNL     1       9.936 -18.360 -11.209  1.00  0.00    -0.003 A 
ATOM      2  C   UNL     1       8.976 -18.738 -10.255  1.00  0.00     0.010 A 
ATOM      3  C   UNL     1      11.187 -17.898 -10.770  1.00  0.00     0.010 A 
ATOM      4  C   UNL     1       9.262 -18.654  -8.889  1.00  0.00     0.004 A 
ATOM      5  C   UNL     1      11.474 -17.814  -9.405  1.00  0.00     0.004 A 
ATOM      6  C   UNL     1      10.513 -18.191  -8.449  1.00  0.00    -0.045 A 
ENDROOT
BRANCH   1   7
ATOM      7  C   UNL     1       9.637 -18.448 -12.656  1.00  0.00     0.071 C 
ATOM      8  O   UNL     1       8.629 -19.084 -13.065  1.00  0.00    -0.545 OA
ATOM      9  O   UNL     1      10.466 -17.829 -13.585  1.00  0.00    -0.545 OA
ENDBRANCH   1   7
BRANCH   6  10
ATOM     10  C   UNL     1      10.810 -18.106  -6.962  1.00  0.00     0.013 C 
ATOM     11  C   UNL     1      11.546 -16.805  -6.621  1.00  0.00     0.012 C 
ATOM     12  C   UNL     1      11.602 -19.329  -6.486  1.00  0.00     0.012 C 
ENDBRANCH   6  10
TORSDOF 2
ENDMDL
MODEL 5
REMARK VINA RESULT:    -5.228      9.750     11.297
REMARK INTER + INTRA:          -6.059
REMARK INTER:                  -5.851
REMARK INTRA:                  -0.208
REMARK UNBOUND:                -0.220
REMARK SMILES CC(C)c1ccc(C(=O)[O-])cc1
REMARK SMILES IDX 7 1 6 2 11 3 5 4 12 5 4 6 8 7 9 8 10 9 2 10 1 11 3 12
REMARK H PARENT
REMARK Flexibility Score: inf
ROOT
ATOM      1  C   UNL     1      18.268 -10.307  -6.106  1.00  0.00    -0.003 A 
ATOM      2  C   UNL     1      17.895 -10.038  -7.434  1.00  0.00     0.010 A 
ATOM      3  C   UNL     1      17.328 -10.889  -5.241  1.00  0.00     0.010 A 
ATOM      4  C   UNL     1      16.608 -10.344  -7.887  1.00  0.00     0.004 A 
ATOM      5  C   UNL     1      16.041 -11.195  -5.692  1.00  0.00     0.004 A 
ATOM      6  C   UNL     1      15.667 -10.925  -7.021  1.00  0.00    -0.045 A 
ENDROOT
BRANCH   1   7
ATOM      7  C   UNL     1      19.629  -9.985  -5.624  1.00  0.00     0.071 C 
ATOM      8  O   UNL     1      20.124  -8.842  -5.817  1.00  0.00    -0.545 OA
ATOM      9  O   UNL     1      20.383 -10.940  -4.952  1.00  0.00    -0.545 OA
ENDBRANCH   1   7
BRANCH   6  10
ATOM     10  C   UNL     1      14.273 -11.252  -7.525  1.00  0.00     0.013 C 
ATOM     11  C   UNL     1      14.153 -12.735  -7.895  1.00  0.00     0.012 C 
ATOM     12  C   UNL     1      13.889 -10.356  -8.709  1.00  0.00     0.012 C 
ENDBRANCH   6  10
TORSDOF 2
ENDMDL
MODEL 6
REMARK VINA RESULT:    -4.954      9.904     12.304
REMARK INTER + INTRA:          -5.753
REMARK INTER:                  -5.550
REMARK INTRA:                  -0.203
REMARK UNBOUND:                -0.220
REMARK SMILES CC(C)c1ccc(C(=O)[O-])cc1
REMARK SMILES IDX 7 1 6 2 11 3 5 4 12 5 4 6 8 7 9 8 10 9 2 10 1 11 3 12
REMARK H PARENT
REMARK Flexibility Score: inf
ROOT
ATOM      1  C   UNL     1      15.857 -10.850  -6.995  1.00  0.00    -0.003 A 
ATOM      2  C   UNL     1      16.939 -10.218  -7.632  1.00  0.00     0.010 A 
ATOM      3  C   UNL     1      15.997 -11.257  -5.659  1.00  0.00     0.010 A 
ATOM      4  C   UNL     1      18.137  -9.998  -6.944  1.00  0.00     0.004 A 
ATOM      5  C   UNL     1      17.194 -11.037  -4.971  1.00  0.00     0.004 A 
ATOM      6  C   UNL     1      18.278 -10.405  -5.607  1.00  0.00    -0.045 A 
ENDROOT
BRANCH   1   7
ATOM      7  C   UNL     1      14.588 -11.085  -7.719  1.00  0.00     0.071 C 
ATOM      8  O   UNL     1      14.062 -10.168  -8.405  1.00  0.00    -0.545 OA
ATOM      9  O   UNL     1      13.958 -12.322  -7.652  1.00  0.00    -0.545 OA
ENDBRANCH   1   7
BRANCH   6  10
ATOM     10  C   UNL     1      19.584 -10.159  -4.873  1.00  0.00     0.013 C 
ATOM     11  C   UNL     1      20.279 -11.481  -4.526  1.00  0.00     0.012 C 
ATOM     12  C   UNL     1      19.361  -9.307  -3.619  1.00  0.00     0.012 C 
ENDBRANCH   6  10
TORSDOF 2
ENDMDL
MODEL 7
REMARK VINA RESULT:    -4.635      9.775     11.334
REMARK INTER + INTRA:          -5.396
REMARK INTER:                  -5.189
REMARK INTRA:                  -0.207
REMARK UNBOUND:                -0.220
REMARK SMILES CC(C)c1ccc(C(=O)[O-])cc1
REMARK SMILES IDX 7 1 6 2 11 3 5 4 12 5 4 6 8 7 9 8 10 9 2 10 1 11 3 12
REMARK H PARENT
REMARK Flexibility Score: inf
ROOT
ATOM      1  C   UNL     1      17.831 -10.055  -5.544  1.00  0.00    -0.003 A 
ATOM      2  C   UNL     1      17.946  -9.770  -6.915  1.00  0.00     0.010 A 
ATOM      3  C   UNL     1      16.733 -10.807  -5.095  1.00  0.00     0.010 A 
ATOM      4  C   UNL     1      16.983 -10.229  -7.819  1.00  0.00     0.004 A 
ATOM      5  C   UNL     1      15.770 -11.266  -5.998  1.00  0.00     0.004 A 
ATOM      6  C   UNL     1      15.885 -10.981  -7.371  1.00  0.00    -0.045 A 
ENDROOT
BRANCH   1   7
ATOM      7  C   UNL     1      18.848  -9.571  -4.584  1.00  0.00     0.071 C 
ATOM      8  O   UNL     1      18.502  -9.080  -3.476  1.00  0.00    -0.545 OA
ATOM      9  O   UNL     1      20.201  -9.651  -4.892  1.00  0.00    -0.545 OA
ENDBRANCH   1   7
BRANCH   6  10
ATOM     10  C   UNL     1      14.846 -11.473  -8.363  1.00  0.00     0.013 C 
ATOM     11  C   UNL     1      13.848 -10.363  -8.712  1.00  0.00     0.012 C 
ATOM     12  C   UNL     1      14.125 -12.719  -7.836  1.00  0.00     0.012 C 
ENDBRANCH   6  10
TORSDOF 2
ENDMDL
MODEL 8
REMARK VINA RESULT:    -4.606     11.068     12.732
REMARK INTER + INTRA:          -5.364
REMARK INTER:                  -5.144
REMARK INTRA:                  -0.220
REMARK UNBOUND:                -0.220
REMARK SMILES CC(C)c1ccc(C(=O)[O-])cc1
REMARK SMILES IDX 7 1 6 2 11 3 5 4 12 5 4 6 8 7 9 8 10 9 2 10 1 11 3 12
REMARK H PARENT
REMARK Flexibility Score: inf
ROOT
ATOM      1  C   UNL     1      19.898 -12.078  -3.466  1.00  0.00    -0.003 A 
ATOM      2  C   UNL     1      18.521 -12.356  -3.480  1.00  0.00     0.010 A 
ATOM      3  C   UNL     1      20.412 -11.135  -4.370  1.00  0.00     0.010 A 
ATOM      4  C   UNL     1      17.674 -11.702  -4.381  1.00  0.00     0.004 A 
ATOM      5  C   UNL     1      19.566 -10.480  -5.270  1.00  0.00     0.004 A 
ATOM      6  C   UNL     1      18.187 -10.758  -5.286  1.00  0.00    -0.045 A 
ENDROOT
BRANCH   1   7
ATOM      7  C   UNL     1      20.797 -12.769  -2.514  1.00  0.00     0.071 C 
ATOM      8  O   UNL     1      20.400 -13.779  -1.875  1.00  0.00    -0.545 OA
ATOM      9  O   UNL     1      22.093 -12.310  -2.312  1.00  0.00    -0.545 OA
ENDBRANCH   1   7
BRANCH   6  10
ATOM     10  C   UNL     1      17.257 -10.055  -6.258  1.00  0.00     0.013 C 
ATOM     11  C   UNL     1      15.880 -10.730  -6.290  1.00  0.00     0.012 C 
ATOM     12  C   UNL     1      17.871  -9.989  -7.661  1.00  0.00     0.012 C 
ENDBRANCH   6  10
TORSDOF 2
ENDMDL
MODEL 9
REMARK VINA RESULT:    -4.521     11.431     13.200
REMARK INTER + INTRA:          -5.270
REMARK INTER:                  -5.054
REMARK INTRA:                  -0.215
REMARK UNBOUND:                -0.220
REMARK SMILES CC(C)c1ccc(C(=O)[O-])cc1
REMARK SMILES IDX 7 1 6 2 11 3 5 4 12 5 4 6 8 7 9 8 10 9 2 10 1 11 3 12
REMARK H PARENT
REMARK Flexibility Score: inf
ROOT
ATOM      1  C   UNL     1      18.490  -9.278  -6.850  1.00  0.00    -0.003 A 
ATOM      2  C   UNL     1      19.596  -9.671  -6.077  1.00  0.00     0.010 A 
ATOM      3  C   UNL     1      17.240  -9.866  -6.598  1.00  0.00     0.010 A 
ATOM      4  C   UNL     1      19.453 -10.632  -5.071  1.00  0.00     0.004 A 
ATOM      5  C   UNL     1      17.097 -10.826  -5.593  1.00  0.00     0.004 A 
ATOM      6  C   UNL     1      18.203 -11.220  -4.818  1.00  0.00    -0.045 A 
ENDROOT
BRANCH   1   7
ATOM      7  C   UNL     1      18.637  -8.261  -7.916  1.00  0.00     0.071 C 
ATOM      8  O   UNL     1      18.158  -8.462  -9.064  1.00  0.00    -0.545 OA
ATOM      9  O   UNL     1      19.308  -7.071  -7.664  1.00  0.00    -0.545 OA
ENDBRANCH   1   7
BRANCH   6  10
ATOM     10  C   UNL     1      18.063 -12.262  -3.723  1.00  0.00     0.013 C 
ATOM     11  C   UNL     1      19.261 -13.219  -3.714  1.00  0.00     0.012 C 
ATOM     12  C   UNL     1      16.744 -13.032  -3.859  1.00  0.00     0.012 C 
ENDBRANCH   6  10
TORSDOF 2
ENDMDL
