MODEL 1
REMARK VINA RESULT:    -4.225      0.000      0.000
REMARK INTER + INTRA:          -5.296
REMARK INTER:                  -5.214
REMARK INTRA:                  -0.082
REMARK UNBOUND:                -0.082
REMARK SMILES [NH3+][C@H](Cc1ccc(O)cc1)C(=O)[O-]
REMARK SMILES IDX 3 1 2 2 1 3 11 7 12 8 13 9 4 10 5 11 10 12 6 13 9 14 7 15
REMARK SMILES IDX 8 16
REMARK H PARENT 1 4 1 5 1 6 8 17
REMARK Flexibility Score: inf
ROOT
ATOM      1  C   UNL     1     -23.569  -5.454  -4.484  1.00  0.00     0.107 C 
ENDROOT
BRANCH   1   2
ATOM      2  C   UNL     1     -24.218  -6.733  -5.055  1.00  0.00     0.232 C 
BRANCH   2   3
ATOM      3  N   UNL     1     -23.204  -7.715  -5.465  1.00  0.00    -0.350 N 
ATOM      4  H   UNL     1     -22.852  -7.505  -6.428  1.00  0.00     0.345 HD
ATOM      5  H   UNL     1     -23.613  -8.678  -5.452  1.00  0.00     0.345 HD
ATOM      6  H   UNL     1     -22.402  -7.700  -4.795  1.00  0.00     0.345 HD
ENDBRANCH   2   3
BRANCH   2   7
ATOM      7  C   UNL     1     -25.144  -7.336  -4.031  1.00  0.00     0.099 C 
ATOM      8  O   UNL     1     -26.384  -7.391  -4.246  1.00  0.00    -0.544 OA
ATOM      9  O   UNL     1     -24.630  -7.856  -2.851  1.00  0.00    -0.544 OA
ENDBRANCH   2   7
ENDBRANCH   1   2
BRANCH   1  10
ATOM     10  C   UNL     1     -23.548  -4.336  -5.495  1.00  0.00    -0.041 A 
ATOM     11  C   UNL     1     -23.834  -3.020  -5.097  1.00  0.00     0.008 A 
ATOM     12  C   UNL     1     -23.279  -4.603  -6.847  1.00  0.00     0.008 A 
ATOM     13  C   UNL     1     -23.838  -1.985  -6.037  1.00  0.00     0.046 A 
ATOM     14  C   UNL     1     -23.283  -3.565  -7.785  1.00  0.00     0.046 A 
ATOM     15  C   UNL     1     -23.562  -2.253  -7.381  1.00  0.00     0.115 A 
BRANCH  15  16
ATOM     16  O   UNL     1     -23.570  -1.211  -8.306  1.00  0.00    -0.508 OA
ATOM     17  H   UNL     1     -24.272  -1.156  -9.035  1.00  0.00     0.293 HD
ENDBRANCH  15  16
ENDBRANCH   1  10
TORSDOF 5
ENDMDL
MODEL 2
REMARK VINA RESULT:    -4.188     15.456     16.480
REMARK INTER + INTRA:          -5.249
REMARK INTER:                  -5.059
REMARK INTRA:                  -0.191
REMARK UNBOUND:                -0.082
REMARK SMILES [NH3+][C@H](Cc1ccc(O)cc1)C(=O)[O-]
REMARK SMILES IDX 3 1 2 2 1 3 11 7 12 8 13 9 4 10 5 11 10 12 6 13 9 14 7 15
REMARK SMILES IDX 8 16
REMARK H PARENT 1 4 1 5 1 6 8 17
REMARK Flexibility Score: inf
ROOT
ATOM      1  C   UNL     1     -23.307   5.504   5.238  1.00  0.00     0.107 C 
ENDROOT
BRANCH   1   2
ATOM      2  C   UNL     1     -23.656   4.911   6.619  1.00  0.00     0.232 C 
BRANCH   2   3
ATOM      3  N   UNL     1     -24.633   3.818   6.506  1.00  0.00    -0.350 N 
ATOM      4  H   UNL     1     -25.564   4.183   6.197  1.00  0.00     0.345 HD
ATOM      5  H   UNL     1     -24.741   3.338   7.429  1.00  0.00     0.345 HD
ATOM      6  H   UNL     1     -24.295   3.110   5.815  1.00  0.00     0.345 HD
ENDBRANCH   2   3
BRANCH   2   7
ATOM      7  C   UNL     1     -22.403   4.422   7.297  1.00  0.00     0.099 C 
ATOM      8  O   UNL     1     -21.651   3.590   6.724  1.00  0.00    -0.544 OA
ATOM      9  O   UNL     1     -22.059   4.906   8.552  1.00  0.00    -0.544 OA
ENDBRANCH   2   7
ENDBRANCH   1   2
BRANCH   1  10
ATOM     10  C   UNL     1     -23.714   6.951   5.129  1.00  0.00    -0.041 A 
ATOM     11  C   UNL     1     -23.608   7.801   6.242  1.00  0.00     0.008 A 
ATOM     12  C   UNL     1     -24.237   7.456   3.927  1.00  0.00     0.008 A 
ATOM     13  C   UNL     1     -24.006   9.138   6.150  1.00  0.00     0.046 A 
ATOM     14  C   UNL     1     -24.635   8.794   3.837  1.00  0.00     0.046 A 
ATOM     15  C   UNL     1     -24.520   9.638   4.949  1.00  0.00     0.115 A 
BRANCH  15  16
ATOM     16  O   UNL     1     -24.914  10.972   4.872  1.00  0.00    -0.508 OA
ATOM     17  H   UNL     1     -24.814  11.504   4.015  1.00  0.00     0.293 HD
ENDBRANCH  15  16
ENDBRANCH   1  10
TORSDOF 5
ENDMDL
MODEL 3
REMARK VINA RESULT:    -4.182      3.551      6.341
REMARK INTER + INTRA:          -5.242
REMARK INTER:                  -5.010
REMARK INTRA:                  -0.232
REMARK UNBOUND:                -0.082
REMARK SMILES [NH3+][C@H](Cc1ccc(O)cc1)C(=O)[O-]
REMARK SMILES IDX 3 1 2 2 1 3 11 7 12 8 13 9 4 10 5 11 10 12 6 13 9 14 7 15
REMARK SMILES IDX 8 16
REMARK H PARENT 1 4 1 5 1 6 8 17
REMARK Flexibility Score: inf
ROOT
ATOM      1  C   UNL     1     -24.271  -0.265  -6.295  1.00  0.00     0.107 C 
ENDROOT
BRANCH   1   2
ATOM      2  C   UNL     1     -23.528   0.441  -7.449  1.00  0.00     0.232 C 
BRANCH   2   3
ATOM      3  N   UNL     1     -24.252   1.635  -7.908  1.00  0.00    -0.350 N 
ATOM      4  H   UNL     1     -24.490   2.257  -7.100  1.00  0.00     0.345 HD
ATOM      5  H   UNL     1     -25.132   1.353  -8.396  1.00  0.00     0.345 HD
ATOM      6  H   UNL     1     -23.664   2.167  -8.590  1.00  0.00     0.345 HD
ENDBRANCH   2   3
BRANCH   2   7
ATOM      7  C   UNL     1     -22.136   0.812  -7.008  1.00  0.00     0.099 C 
ATOM      8  O   UNL     1     -21.959   1.708  -6.141  1.00  0.00    -0.544 OA
ATOM      9  O   UNL     1     -21.039   0.150  -7.543  1.00  0.00    -0.544 OA
ENDBRANCH   2   7
ENDBRANCH   1   2
BRANCH   1  10
ATOM     10  C   UNL     1     -23.998  -1.746  -6.273  1.00  0.00    -0.041 A 
ATOM     11  C   UNL     1     -23.998  -2.447  -5.055  1.00  0.00     0.008 A 
ATOM     12  C   UNL     1     -23.706  -2.435  -7.462  1.00  0.00     0.008 A 
ATOM     13  C   UNL     1     -23.722  -3.817  -5.030  1.00  0.00     0.046 A 
ATOM     14  C   UNL     1     -23.430  -3.806  -7.433  1.00  0.00     0.046 A 
ATOM     15  C   UNL     1     -23.438  -4.500  -6.217  1.00  0.00     0.115 A 
BRANCH  15  16
ATOM     16  O   UNL     1     -23.165  -5.866  -6.176  1.00  0.00    -0.508 OA
ATOM     17  H   UNL     1     -23.300  -6.457  -6.988  1.00  0.00     0.293 HD
ENDBRANCH  15  16
ENDBRANCH   1  10
TORSDOF 5
ENDMDL
MODEL 4
REMARK VINA RESULT:    -4.182     17.663     19.148
REMARK INTER + INTRA:          -5.242
REMARK INTER:                  -5.066
REMARK INTRA:                  -0.176
REMARK UNBOUND:                -0.082
REMARK SMILES [NH3+][C@H](Cc1ccc(O)cc1)C(=O)[O-]
REMARK SMILES IDX 3 1 2 2 1 3 11 7 12 8 13 9 4 10 5 11 10 12 6 13 9 14 7 15
REMARK SMILES IDX 8 16
REMARK H PARENT 1 4 1 5 1 6 8 17
REMARK Flexibility Score: inf
ROOT
ATOM      1  C   UNL     1     -26.646   9.593   3.881  1.00  0.00     0.107 C 
ENDROOT
BRANCH   1   2
ATOM      2  C   UNL     1     -25.615  10.738   3.962  1.00  0.00     0.232 C 
BRANCH   2   3
ATOM      3  N   UNL     1     -24.833  10.673   5.205  1.00  0.00    -0.350 N 
ATOM      4  H   UNL     1     -25.161  11.395   5.889  1.00  0.00     0.345 HD
ATOM      5  H   UNL     1     -23.820  10.831   4.999  1.00  0.00     0.345 HD
ATOM      6  H   UNL     1     -24.927   9.724   5.635  1.00  0.00     0.345 HD
ENDBRANCH   2   3
BRANCH   2   7
ATOM      7  C   UNL     1     -24.700  10.687   2.767  1.00  0.00     0.099 C 
ATOM      8  O   UNL     1     -24.271   9.583   2.338  1.00  0.00    -0.544 OA
ATOM      9  O   UNL     1     -24.340  11.861   2.117  1.00  0.00    -0.544 OA
ENDBRANCH   2   7
ENDBRANCH   1   2
BRANCH   1  10
ATOM     10  C   UNL     1     -28.043  10.072   4.182  1.00  0.00    -0.041 A 
ATOM     11  C   UNL     1     -28.579  11.169   3.487  1.00  0.00     0.008 A 
ATOM     12  C   UNL     1     -28.808   9.453   5.184  1.00  0.00     0.008 A 
ATOM     13  C   UNL     1     -29.866  11.629   3.781  1.00  0.00     0.046 A 
ATOM     14  C   UNL     1     -30.095   9.916   5.476  1.00  0.00     0.046 A 
ATOM     15  C   UNL     1     -30.627  11.005   4.774  1.00  0.00     0.115 A 
BRANCH  15  16
ATOM     16  O   UNL     1     -31.908  11.476   5.057  1.00  0.00    -0.508 OA
ATOM     17  H   UNL     1     -32.080  12.108   5.830  1.00  0.00     0.293 HD
ENDBRANCH  15  16
ENDBRANCH   1  10
TORSDOF 5
ENDMDL
MODEL 5
REMARK VINA RESULT:    -4.148     15.638     17.232
REMARK INTER + INTRA:          -5.201
REMARK INTER:                  -5.065
REMARK INTRA:                  -0.136
REMARK UNBOUND:                -0.082
REMARK SMILES [NH3+][C@H](Cc1ccc(O)cc1)C(=O)[O-]
REMARK SMILES IDX 3 1 2 2 1 3 11 7 12 8 13 9 4 10 5 11 10 12 6 13 9 14 7 15
REMARK SMILES IDX 8 16
REMARK H PARENT 1 4 1 5 1 6 8 17
REMARK Flexibility Score: inf
ROOT
ATOM      1  C   UNL     1     -23.503   7.093   4.884  1.00  0.00     0.107 C 
ENDROOT
BRANCH   1   2
ATOM      2  C   UNL     1     -24.152   8.418   5.337  1.00  0.00     0.232 C 
BRANCH   2   3
ATOM      3  N   UNL     1     -23.140   9.449   5.608  1.00  0.00    -0.350 N 
ATOM      4  H   UNL     1     -22.231   9.012   5.891  1.00  0.00     0.345 HD
ATOM      5  H   UNL     1     -23.470  10.081   6.372  1.00  0.00     0.345 HD
ATOM      6  H   UNL     1     -22.989  10.032   4.753  1.00  0.00     0.345 HD
ENDBRANCH   2   3
BRANCH   2   7
ATOM      7  C   UNL     1     -25.118   8.899   4.287  1.00  0.00     0.099 C 
ATOM      8  O   UNL     1     -25.723   8.074   3.551  1.00  0.00    -0.544 OA
ATOM      9  O   UNL     1     -25.364  10.257   4.140  1.00  0.00    -0.544 OA
ENDBRANCH   2   7
ENDBRANCH   1   2
BRANCH   1  10
ATOM     10  C   UNL     1     -23.518   6.056   5.978  1.00  0.00    -0.041 A 
ATOM     11  C   UNL     1     -23.244   6.426   7.305  1.00  0.00     0.008 A 
ATOM     12  C   UNL     1     -23.768   4.707   5.678  1.00  0.00     0.008 A 
ATOM     13  C   UNL     1     -23.235   5.462   8.318  1.00  0.00     0.046 A 
ATOM     14  C   UNL     1     -23.758   3.745   6.693  1.00  0.00     0.046 A 
ATOM     15  C   UNL     1     -23.491   4.121   8.016  1.00  0.00     0.115 A 
BRANCH  15  16
ATOM     16  O   UNL     1     -23.477   3.172   9.036  1.00  0.00    -0.508 OA
ATOM     17  H   UNL     1     -24.249   2.528   9.169  1.00  0.00     0.293 HD
ENDBRANCH  15  16
ENDBRANCH   1  10
TORSDOF 5
ENDMDL
MODEL 6
REMARK VINA RESULT:    -4.146     13.815     14.997
REMARK INTER + INTRA:          -5.198
REMARK INTER:                  -4.988
REMARK INTRA:                  -0.210
REMARK UNBOUND:                -0.082
REMARK SMILES [NH3+][C@H](Cc1ccc(O)cc1)C(=O)[O-]
REMARK SMILES IDX 3 1 2 2 1 3 11 7 12 8 13 9 4 10 5 11 10 12 6 13 9 14 7 15
REMARK SMILES IDX 8 16
REMARK H PARENT 1 4 1 5 1 6 8 17
REMARK Flexibility Score: inf
ROOT
ATOM      1  C   UNL     1     -24.376  -1.227   7.210  1.00  0.00     0.107 C 
ENDROOT
BRANCH   1   2
ATOM      2  C   UNL     1     -24.696   0.087   7.953  1.00  0.00     0.232 C 
BRANCH   2   3
ATOM      3  N   UNL     1     -23.615   0.462   8.876  1.00  0.00    -0.350 N 
ATOM      4  H   UNL     1     -22.865  -0.268   8.885  1.00  0.00     0.345 HD
ATOM      5  H   UNL     1     -23.995   0.576   9.843  1.00  0.00     0.345 HD
ATOM      6  H   UNL     1     -23.201   1.378   8.585  1.00  0.00     0.345 HD
ENDBRANCH   2   3
BRANCH   2   7
ATOM      7  C   UNL     1     -24.937   1.191   6.957  1.00  0.00     0.099 C 
ATOM      8  O   UNL     1     -25.794   1.051   6.045  1.00  0.00    -0.544 OA
ATOM      9  O   UNL     1     -24.228   2.381   7.054  1.00  0.00    -0.544 OA
ENDBRANCH   2   7
ENDBRANCH   1   2
BRANCH   1  10
ATOM     10  C   UNL     1     -25.160  -2.390   7.761  1.00  0.00    -0.041 A 
ATOM     11  C   UNL     1     -24.496  -3.444   8.412  1.00  0.00     0.008 A 
ATOM     12  C   UNL     1     -26.554  -2.451   7.600  1.00  0.00     0.008 A 
ATOM     13  C   UNL     1     -25.219  -4.534   8.904  1.00  0.00     0.046 A 
ATOM     14  C   UNL     1     -27.274  -3.543   8.093  1.00  0.00     0.046 A 
ATOM     15  C   UNL     1     -26.607  -4.588   8.747  1.00  0.00     0.115 A 
BRANCH  15  16
ATOM     16  O   UNL     1     -27.314  -5.682   9.242  1.00  0.00    -0.508 OA
ATOM     17  H   UNL     1     -27.053  -6.632   9.004  1.00  0.00     0.293 HD
ENDBRANCH  15  16
ENDBRANCH   1  10
TORSDOF 5
ENDMDL
MODEL 7
REMARK VINA RESULT:    -4.099     15.342     16.295
REMARK INTER + INTRA:          -5.140
REMARK INTER:                  -4.951
REMARK INTRA:                  -0.189
REMARK UNBOUND:                -0.082
REMARK SMILES [NH3+][C@H](Cc1ccc(O)cc1)C(=O)[O-]
REMARK SMILES IDX 3 1 2 2 1 3 11 7 12 8 13 9 4 10 5 11 10 12 6 13 9 14 7 15
REMARK SMILES IDX 8 16
REMARK H PARENT 1 4 1 5 1 6 8 17
REMARK Flexibility Score: inf
ROOT
ATOM      1  C   UNL     1     -23.352   4.003   7.233  1.00  0.00     0.107 C 
ENDROOT
BRANCH   1   2
ATOM      2  C   UNL     1     -22.295   4.104   8.353  1.00  0.00     0.232 C 
BRANCH   2   3
ATOM      3  N   UNL     1     -22.910   4.023   9.685  1.00  0.00    -0.350 N 
ATOM      4  H   UNL     1     -22.178   3.920  10.427  1.00  0.00     0.345 HD
ATOM      5  H   UNL     1     -23.561   3.206   9.729  1.00  0.00     0.345 HD
ATOM      6  H   UNL     1     -23.469   4.887   9.872  1.00  0.00     0.345 HD
ENDBRANCH   2   3
BRANCH   2   7
ATOM      7  C   UNL     1     -21.268   3.015   8.186  1.00  0.00     0.099 C 
ATOM      8  O   UNL     1     -20.919   2.310   9.170  1.00  0.00    -0.544 OA
ATOM      9  O   UNL     1     -20.715   2.768   6.936  1.00  0.00    -0.544 OA
ENDBRANCH   2   7
ENDBRANCH   1   2
BRANCH   1  10
ATOM     10  C   UNL     1     -23.500   5.301   6.482  1.00  0.00    -0.041 A 
ATOM     11  C   UNL     1     -23.694   5.293   5.091  1.00  0.00     0.008 A 
ATOM     12  C   UNL     1     -23.411   6.529   7.156  1.00  0.00     0.008 A 
ATOM     13  C   UNL     1     -23.809   6.496   4.388  1.00  0.00     0.046 A 
ATOM     14  C   UNL     1     -23.526   7.732   6.451  1.00  0.00     0.046 A 
ATOM     15  C   UNL     1     -23.726   7.717   5.065  1.00  0.00     0.115 A 
BRANCH  15  16
ATOM     16  O   UNL     1     -23.841   8.909   4.350  1.00  0.00    -0.508 OA
ATOM     17  H   UNL     1     -23.026   9.383   3.980  1.00  0.00     0.293 HD
ENDBRANCH  15  16
ENDBRANCH   1  10
TORSDOF 5
ENDMDL
MODEL 8
REMARK VINA RESULT:    -4.076     17.154     18.245
REMARK INTER + INTRA:          -5.112
REMARK INTER:                  -4.865
REMARK INTRA:                  -0.247
REMARK UNBOUND:                -0.082
REMARK SMILES [NH3+][C@H](Cc1ccc(O)cc1)C(=O)[O-]
REMARK SMILES IDX 3 1 2 2 1 3 11 7 12 8 13 9 4 10 5 11 10 12 6 13 9 14 7 15
REMARK SMILES IDX 8 16
REMARK H PARENT 1 4 1 5 1 6 8 17
REMARK Flexibility Score: inf
ROOT
ATOM      1  C   UNL     1     -27.337  10.329   2.640  1.00  0.00     0.107 C 
ENDROOT
BRANCH   1   2
ATOM      2  C   UNL     1     -28.458  10.948   3.502  1.00  0.00     0.232 C 
BRANCH   2   3
ATOM      3  N   UNL     1     -29.313  11.844   2.712  1.00  0.00    -0.350 N 
ATOM      4  H   UNL     1     -30.171  12.108   3.251  1.00  0.00     0.345 HD
ATOM      5  H   UNL     1     -29.596  11.376   1.822  1.00  0.00     0.345 HD
ATOM      6  H   UNL     1     -28.784  12.712   2.463  1.00  0.00     0.345 HD
ENDBRANCH   2   3
BRANCH   2   7
ATOM      7  C   UNL     1     -29.284   9.854   4.126  1.00  0.00     0.099 C 
ATOM      8  O   UNL     1     -29.852   8.992   3.405  1.00  0.00    -0.544 OA
ATOM      9  O   UNL     1     -29.406   9.779   5.508  1.00  0.00    -0.544 OA
ENDBRANCH   2   7
ENDBRANCH   1   2
BRANCH   1  10
ATOM     10  C   UNL     1     -26.154   9.909   3.474  1.00  0.00    -0.041 A 
ATOM     11  C   UNL     1     -25.386  10.873   4.147  1.00  0.00     0.008 A 
ATOM     12  C   UNL     1     -25.784   8.556   3.556  1.00  0.00     0.008 A 
ATOM     13  C   UNL     1     -24.274  10.488   4.902  1.00  0.00     0.046 A 
ATOM     14  C   UNL     1     -24.671   8.174   4.312  1.00  0.00     0.046 A 
ATOM     15  C   UNL     1     -23.914   9.140   4.987  1.00  0.00     0.115 A 
BRANCH  15  16
ATOM     16  O   UNL     1     -22.802   8.771   5.743  1.00  0.00    -0.508 OA
ATOM     17  H   UNL     1     -22.414   9.387   6.448  1.00  0.00     0.293 HD
ENDBRANCH  15  16
ENDBRANCH   1  10
TORSDOF 5
ENDMDL
MODEL 9
REMARK VINA RESULT:    -4.064     12.595     13.152
REMARK INTER + INTRA:          -5.096
REMARK INTER:                  -4.918
REMARK INTRA:                  -0.178
REMARK UNBOUND:                -0.082
REMARK SMILES [NH3+][C@H](Cc1ccc(O)cc1)C(=O)[O-]
REMARK SMILES IDX 3 1 2 2 1 3 11 7 12 8 13 9 4 10 5 11 10 12 6 13 9 14 7 15
REMARK SMILES IDX 8 16
REMARK H PARENT 1 4 1 5 1 6 8 17
REMARK Flexibility Score: inf
ROOT
ATOM      1  C   UNL     1     -28.144  -3.229   7.842  1.00  0.00     0.107 C 
ENDROOT
BRANCH   1   2
ATOM      2  C   UNL     1     -27.028  -4.223   8.226  1.00  0.00     0.232 C 
BRANCH   2   3
ATOM      3  N   UNL     1     -27.285  -4.844   9.533  1.00  0.00    -0.350 N 
ATOM      4  H   UNL     1     -28.313  -4.951   9.698  1.00  0.00     0.345 HD
ATOM      5  H   UNL     1     -26.874  -4.257  10.294  1.00  0.00     0.345 HD
ATOM      6  H   UNL     1     -26.831  -5.785   9.575  1.00  0.00     0.345 HD
ENDBRANCH   2   3
BRANCH   2   7
ATOM      7  C   UNL     1     -26.899  -5.281   7.162  1.00  0.00     0.099 C 
ATOM      8  O   UNL     1     -26.379  -5.006   6.048  1.00  0.00    -0.544 OA
ATOM      9  O   UNL     1     -27.335  -6.575   7.414  1.00  0.00    -0.544 OA
ENDBRANCH   2   7
ENDBRANCH   1   2
BRANCH   1  10
ATOM     10  C   UNL     1     -27.618  -2.083   7.016  1.00  0.00    -0.041 A 
ATOM     11  C   UNL     1     -26.322  -1.589   7.240  1.00  0.00     0.008 A 
ATOM     12  C   UNL     1     -28.427  -1.476   6.042  1.00  0.00     0.008 A 
ATOM     13  C   UNL     1     -25.839  -0.512   6.491  1.00  0.00     0.046 A 
ATOM     14  C   UNL     1     -27.941  -0.398   5.295  1.00  0.00     0.046 A 
ATOM     15  C   UNL     1     -26.646   0.086   5.517  1.00  0.00     0.115 A 
BRANCH  15  16
ATOM     16  O   UNL     1     -26.151   1.160   4.779  1.00  0.00    -0.508 OA
ATOM     17  H   UNL     1     -26.567   1.429   3.895  1.00  0.00     0.293 HD
ENDBRANCH  15  16
ENDBRANCH   1  10
TORSDOF 5
ENDMDL
