MODEL 1
REMARK VINA RESULT:    -6.100      0.000      0.000
REMARK INTER + INTRA:          -6.749
REMARK INTER:                  -6.456
REMARK INTRA:                  -0.293
REMARK UNBOUND:                -0.293
REMARK SMILES CC1=CC[C@@H]2[C@H]3[C@@H](C(C)C)CC[C@]2(C)[C@@H]13
REMARK SMILES IDX 1 1 2 2 3 3 4 4 5 5 6 6 15 7 13 8 12 9 11 10 7 11 14 12 8 13
REMARK SMILES IDX 9 14 10 15
REMARK H PARENT
REMARK Flexibility Score: inf
ROOT
ATOM      1  C   UNL     1     100.377 104.875 129.245  1.00  0.00     0.039 C 
ATOM      2  C   UNL     1     101.530 104.893 128.286  1.00  0.00    -0.073 C 
ATOM      3  C   UNL     1     101.329 104.872 126.942  1.00  0.00    -0.027 C 
ATOM      4  C   UNL     1     102.545 104.917 126.011  1.00  0.00     0.031 C 
ATOM      5  C   UNL     1     103.869 104.950 126.842  1.00  0.00     0.003 C 
ATOM      6  C   UNL     1     103.751 103.867 127.938  1.00  0.00     0.004 C 
ATOM      7  C   UNL     1     102.982 104.920 128.773  1.00  0.00     0.024 C 
ATOM      8  C   UNL     1     103.790 105.984 127.991  1.00  0.00    -0.022 C 
ATOM      9  C   UNL     1     105.206 106.159 128.609  1.00  0.00     0.008 C 
ATOM     10  C   UNL     1     105.783 104.836 129.179  1.00  0.00     0.005 C 
ATOM     11  C   UNL     1     105.140 103.542 128.571  1.00  0.00    -0.005 C 
ATOM     12  C   UNL     1     103.139 107.358 127.709  1.00  0.00     0.012 C 
ENDROOT
BRANCH  11  13
ATOM     13  C   UNL     1     106.120 102.810 127.595  1.00  0.00    -0.014 C 
ATOM     14  C   UNL     1     107.482 102.559 128.267  1.00  0.00     0.007 C 
ATOM     15  C   UNL     1     105.569 101.464 127.088  1.00  0.00     0.007 C 
ENDBRANCH  11  13
TORSDOF 1
ENDMDL
MODEL 2
REMARK VINA RESULT:    -6.090      2.813      5.258
REMARK INTER + INTRA:          -6.739
REMARK INTER:                  -6.444
REMARK INTRA:                  -0.294
REMARK UNBOUND:                -0.293
REMARK SMILES CC1=CC[C@@H]2[C@H]3[C@@H](C(C)C)CC[C@]2(C)[C@@H]13
REMARK SMILES IDX 1 1 2 2 3 3 4 4 5 5 6 6 15 7 13 8 12 9 11 10 7 11 14 12 8 13
REMARK SMILES IDX 9 14 10 15
REMARK H PARENT
REMARK Flexibility Score: inf
ROOT
ATOM      1  C   UNL     1     104.859 112.026 129.209  1.00  0.00     0.039 C 
ATOM      2  C   UNL     1     104.875 110.868 128.256  1.00  0.00    -0.073 C 
ATOM      3  C   UNL     1     104.859 111.061 126.912  1.00  0.00    -0.027 C 
ATOM      4  C   UNL     1     104.902 109.840 125.987  1.00  0.00     0.031 C 
ATOM      5  C   UNL     1     104.927 108.520 126.826  1.00  0.00     0.003 C 
ATOM      6  C   UNL     1     103.841 108.649 127.918  1.00  0.00     0.004 C 
ATOM      7  C   UNL     1     104.895 109.418 128.752  1.00  0.00     0.024 C 
ATOM      8  C   UNL     1     105.958 108.601 127.978  1.00  0.00    -0.022 C 
ATOM      9  C   UNL     1     106.125 107.188 128.604  1.00  0.00     0.008 C 
ATOM     10  C   UNL     1     104.798 106.620 129.173  1.00  0.00     0.005 C 
ATOM     11  C   UNL     1     103.509 107.264 128.558  1.00  0.00    -0.005 C 
ATOM     12  C   UNL     1     107.336 109.245 127.696  1.00  0.00     0.012 C 
ENDROOT
BRANCH  11  13
ATOM     13  C   UNL     1     102.775 106.282 127.585  1.00  0.00    -0.014 C 
ATOM     14  C   UNL     1     102.461 104.947 128.283  1.00  0.00     0.007 C 
ATOM     15  C   UNL     1     101.464 106.861 127.023  1.00  0.00     0.007 C 
ENDBRANCH  11  13
TORSDOF 1
ENDMDL
MODEL 3
REMARK VINA RESULT:    -6.079      2.866      5.328
REMARK INTER + INTRA:          -6.728
REMARK INTER:                  -6.439
REMARK INTRA:                  -0.288
REMARK UNBOUND:                -0.293
REMARK SMILES CC1=CC[C@@H]2[C@H]3[C@@H](C(C)C)CC[C@]2(C)[C@@H]13
REMARK SMILES IDX 1 1 2 2 3 3 4 4 5 5 6 6 15 7 13 8 12 9 11 10 7 11 14 12 8 13
REMARK SMILES IDX 9 14 10 15
REMARK H PARENT
REMARK Flexibility Score: inf
ROOT
ATOM      1  C   UNL     1     107.541 100.359 129.209  1.00  0.00     0.039 C 
ATOM      2  C   UNL     1     107.570 101.539 128.284  1.00  0.00    -0.073 C 
ATOM      3  C   UNL     1     107.657 101.377 126.938  1.00  0.00    -0.027 C 
ATOM      4  C   UNL     1     107.657 102.619 126.041  1.00  0.00     0.031 C 
ATOM      5  C   UNL     1     107.582 103.919 126.908  1.00  0.00     0.003 C 
ATOM      6  C   UNL     1     108.610 103.768 128.052  1.00  0.00     0.004 C 
ATOM      7  C   UNL     1     107.518 102.976 128.811  1.00  0.00     0.024 C 
ATOM      8  C   UNL     1     106.493 103.807 128.002  1.00  0.00    -0.022 C 
ATOM      9  C   UNL     1     106.287 105.205 128.651  1.00  0.00     0.008 C 
ATOM     10  C   UNL     1     107.580 105.764 129.302  1.00  0.00     0.005 C 
ATOM     11  C   UNL     1     108.903 105.138 128.740  1.00  0.00    -0.005 C 
ATOM     12  C   UNL     1     105.135 103.166 127.634  1.00  0.00     0.012 C 
ENDROOT
BRANCH  11  13
ATOM     13  C   UNL     1     109.682 106.145 127.830  1.00  0.00    -0.014 C 
ATOM     14  C   UNL     1     109.654 107.564 128.427  1.00  0.00     0.007 C 
ATOM     15  C   UNL     1     111.150 105.739 127.603  1.00  0.00     0.007 C 
ENDBRANCH  11  13
TORSDOF 1
ENDMDL
MODEL 4
REMARK VINA RESULT:    -6.053      4.561      7.553
REMARK INTER + INTRA:          -6.700
REMARK INTER:                  -6.411
REMARK INTRA:                  -0.289
REMARK UNBOUND:                -0.293
REMARK SMILES CC1=CC[C@@H]2[C@H]3[C@@H](C(C)C)CC[C@]2(C)[C@@H]13
REMARK SMILES IDX 1 1 2 2 3 3 4 4 5 5 6 6 15 7 13 8 12 9 11 10 7 11 14 12 8 13
REMARK SMILES IDX 9 14 10 15
REMARK H PARENT
REMARK Flexibility Score: inf
ROOT
ATOM      1  C   UNL     1     112.222 107.532 129.196  1.00  0.00     0.039 C 
ATOM      2  C   UNL     1     111.059 107.526 128.249  1.00  0.00    -0.073 C 
ATOM      3  C   UNL     1     111.245 107.558 126.904  1.00  0.00    -0.027 C 
ATOM      4  C   UNL     1     110.019 107.524 125.984  1.00  0.00     0.031 C 
ATOM      5  C   UNL     1     108.704 107.486 126.830  1.00  0.00     0.003 C 
ATOM      6  C   UNL     1     108.837 108.559 127.934  1.00  0.00     0.004 C 
ATOM      7  C   UNL     1     109.612 107.496 128.751  1.00  0.00     0.024 C 
ATOM      8  C   UNL     1     108.793 106.442 127.968  1.00  0.00    -0.022 C 
ATOM      9  C   UNL     1     107.384 106.264 128.600  1.00  0.00     0.008 C 
ATOM     10  C   UNL     1     106.815 107.583 129.188  1.00  0.00     0.005 C 
ATOM     11  C   UNL     1     107.454 108.881 128.585  1.00  0.00    -0.005 C 
ATOM     12  C   UNL     1     109.438 105.069 127.667  1.00  0.00     0.012 C 
ENDROOT
BRANCH  11  13
ATOM     13  C   UNL     1     106.466 109.624 127.626  1.00  0.00    -0.014 C 
ATOM     14  C   UNL     1     105.039 109.634 128.204  1.00  0.00     0.007 C 
ATOM     15  C   UNL     1     106.887 111.077 127.338  1.00  0.00     0.007 C 
ENDBRANCH  11  13
TORSDOF 1
ENDMDL
MODEL 5
REMARK VINA RESULT:    -6.030      1.084      4.646
REMARK INTER + INTRA:          -6.676
REMARK INTER:                  -6.388
REMARK INTRA:                  -0.288
REMARK UNBOUND:                -0.293
REMARK SMILES CC1=CC[C@@H]2[C@H]3[C@@H](C(C)C)CC[C@]2(C)[C@@H]13
REMARK SMILES IDX 1 1 2 2 3 3 4 4 5 5 6 6 15 7 13 8 12 9 11 10 7 11 14 12 8 13
REMARK SMILES IDX 9 14 10 15
REMARK H PARENT
REMARK Flexibility Score: inf
ROOT
ATOM      1  C   UNL     1     105.933 101.124 125.522  1.00  0.00     0.039 C 
ATOM      2  C   UNL     1     105.619 101.807 126.820  1.00  0.00    -0.073 C 
ATOM      3  C   UNL     1     105.504 101.104 127.977  1.00  0.00    -0.027 C 
ATOM      4  C   UNL     1     105.208 101.859 129.277  1.00  0.00     0.031 C 
ATOM      5  C   UNL     1     105.056 103.390 128.996  1.00  0.00     0.003 C 
ATOM      6  C   UNL     1     104.135 103.542 127.764  1.00  0.00     0.004 C 
ATOM      7  C   UNL     1     105.401 103.321 126.901  1.00  0.00     0.024 C 
ATOM      8  C   UNL     1     106.194 103.915 128.089  1.00  0.00    -0.022 C 
ATOM      9  C   UNL     1     106.140 105.469 128.061  1.00  0.00     0.008 C 
ATOM     10  C   UNL     1     104.792 106.015 127.522  1.00  0.00     0.005 C 
ATOM     11  C   UNL     1     103.601 105.003 127.629  1.00  0.00    -0.005 C 
ATOM     12  C   UNL     1     107.636 103.420 128.347  1.00  0.00     0.012 C 
ENDROOT
BRANCH  11  13
ATOM     13  C   UNL     1     102.590 105.409 128.752  1.00  0.00    -0.014 C 
ATOM     14  C   UNL     1     102.564 106.936 128.944  1.00  0.00     0.007 C 
ATOM     15  C   UNL     1     101.155 104.927 128.473  1.00  0.00     0.007 C 
ENDBRANCH  11  13
TORSDOF 1
ENDMDL
MODEL 6
REMARK VINA RESULT:    -5.960      2.523      5.022
REMARK INTER + INTRA:          -6.601
REMARK INTER:                  -6.314
REMARK INTRA:                  -0.288
REMARK UNBOUND:                -0.293
REMARK SMILES CC1=CC[C@@H]2[C@H]3[C@@H](C(C)C)CC[C@]2(C)[C@@H]13
REMARK SMILES IDX 1 1 2 2 3 3 4 4 5 5 6 6 15 7 13 8 12 9 11 10 7 11 14 12 8 13
REMARK SMILES IDX 9 14 10 15
REMARK H PARENT
REMARK Flexibility Score: inf
ROOT
ATOM      1  C   UNL     1     101.471 106.724 125.658  1.00  0.00     0.039 C 
ATOM      2  C   UNL     1     102.119 107.062 126.967  1.00  0.00    -0.073 C 
ATOM      3  C   UNL     1     101.399 107.111 128.118  1.00  0.00    -0.027 C 
ATOM      4  C   UNL     1     102.121 107.438 129.430  1.00  0.00     0.031 C 
ATOM      5  C   UNL     1     103.640 107.699 129.167  1.00  0.00     0.003 C 
ATOM      6  C   UNL     1     103.740 108.647 127.951  1.00  0.00     0.004 C 
ATOM      7  C   UNL     1     103.614 107.382 127.066  1.00  0.00     0.024 C 
ATOM      8  C   UNL     1     104.250 106.613 128.249  1.00  0.00    -0.022 C 
ATOM      9  C   UNL     1     105.796 106.773 128.238  1.00  0.00     0.008 C 
ATOM     10  C   UNL     1     106.255 108.163 127.724  1.00  0.00     0.005 C 
ATOM     11  C   UNL     1     105.162 109.281 127.838  1.00  0.00    -0.005 C 
ATOM     12  C   UNL     1     103.851 105.136 128.480  1.00  0.00     0.012 C 
ENDROOT
BRANCH  11  13
ATOM     13  C   UNL     1     105.488 110.299 128.981  1.00  0.00    -0.014 C 
ATOM     14  C   UNL     1     107.009 110.460 129.158  1.00  0.00     0.007 C 
ATOM     15  C   UNL     1     104.874 111.690 128.740  1.00  0.00     0.007 C 
ENDBRANCH  11  13
TORSDOF 1
ENDMDL
MODEL 7
REMARK VINA RESULT:    -5.948      4.336      6.369
REMARK INTER + INTRA:          -6.589
REMARK INTER:                  -6.301
REMARK INTRA:                  -0.288
REMARK UNBOUND:                -0.293
REMARK SMILES CC1=CC[C@@H]2[C@H]3[C@@H](C(C)C)CC[C@]2(C)[C@@H]13
REMARK SMILES IDX 1 1 2 2 3 3 4 4 5 5 6 6 15 7 13 8 12 9 11 10 7 11 14 12 8 13
REMARK SMILES IDX 9 14 10 15
REMARK H PARENT
REMARK Flexibility Score: inf
ROOT
ATOM      1  C   UNL     1     106.749 111.179 125.663  1.00  0.00     0.039 C 
ATOM      2  C   UNL     1     107.073 110.474 126.947  1.00  0.00    -0.073 C 
ATOM      3  C   UNL     1     107.149 111.150 128.122  1.00  0.00    -0.027 C 
ATOM      4  C   UNL     1     107.459 110.371 129.406  1.00  0.00     0.031 C 
ATOM      5  C   UNL     1     107.671 108.855 129.087  1.00  0.00     0.003 C 
ATOM      6  C   UNL     1     108.610 108.770 127.862  1.00  0.00     0.004 C 
ATOM      7  C   UNL     1     107.346 108.967 126.990  1.00  0.00     0.024 C 
ATOM      8  C   UNL     1     106.562 108.313 128.153  1.00  0.00    -0.022 C 
ATOM      9  C   UNL     1     106.673 106.764 128.085  1.00  0.00     0.008 C 
ATOM     10  C   UNL     1     108.047 106.281 127.547  1.00  0.00     0.005 C 
ATOM     11  C   UNL     1     109.198 107.333 127.695  1.00  0.00    -0.005 C 
ATOM     12  C   UNL     1     105.100 108.749 128.406  1.00  0.00     0.012 C 
ENDROOT
BRANCH  11  13
ATOM     13  C   UNL     1     110.211 106.934 128.819  1.00  0.00    -0.014 C 
ATOM     14  C   UNL     1     110.298 105.404 128.965  1.00  0.00     0.007 C 
ATOM     15  C   UNL     1     111.629 107.483 128.575  1.00  0.00     0.007 C 
ENDBRANCH  11  13
TORSDOF 1
ENDMDL
MODEL 8
REMARK VINA RESULT:    -5.927      3.261      6.180
REMARK INTER + INTRA:          -6.567
REMARK INTER:                  -6.279
REMARK INTRA:                  -0.288
REMARK UNBOUND:                -0.293
REMARK SMILES CC1=CC[C@@H]2[C@H]3[C@@H](C(C)C)CC[C@]2(C)[C@@H]13
REMARK SMILES IDX 1 1 2 2 3 3 4 4 5 5 6 6 15 7 13 8 12 9 11 10 7 11 14 12 8 13
REMARK SMILES IDX 9 14 10 15
REMARK H PARENT
REMARK Flexibility Score: inf
ROOT
ATOM      1  C   UNL     1     111.224 105.956 125.519  1.00  0.00     0.039 C 
ATOM      2  C   UNL     1     110.570 105.605 126.822  1.00  0.00    -0.073 C 
ATOM      3  C   UNL     1     111.301 105.433 127.954  1.00  0.00    -0.027 C 
ATOM      4  C   UNL     1     110.575 105.100 129.261  1.00  0.00     0.031 C 
ATOM      5  C   UNL     1     109.034 104.985 129.016  1.00  0.00     0.003 C 
ATOM      6  C   UNL     1     108.834 104.115 127.754  1.00  0.00     0.004 C 
ATOM      7  C   UNL     1     109.055 105.409 126.934  1.00  0.00     0.024 C 
ATOM      8  C   UNL     1     108.506 106.166 128.168  1.00  0.00    -0.022 C 
ATOM      9  C   UNL     1     106.952 106.140 128.180  1.00  0.00     0.008 C 
ATOM     10  C   UNL     1     106.367 104.823 127.604  1.00  0.00     0.005 C 
ATOM     11  C   UNL     1     107.361 103.611 127.638  1.00  0.00    -0.005 C 
ATOM     12  C   UNL     1     109.035 107.589 128.467  1.00  0.00     0.012 C 
ENDROOT
BRANCH  11  13
ATOM     13  C   UNL     1     106.965 102.565 128.733  1.00  0.00    -0.014 C 
ATOM     14  C   UNL     1     105.435 102.433 128.842  1.00  0.00     0.007 C 
ATOM     15  C   UNL     1     107.559 101.169 128.472  1.00  0.00     0.007 C 
ENDBRANCH  11  13
TORSDOF 1
ENDMDL
MODEL 9
REMARK VINA RESULT:    -5.821      5.340      6.889
REMARK INTER + INTRA:          -6.454
REMARK INTER:                  -6.166
REMARK INTRA:                  -0.288
REMARK UNBOUND:                -0.293
REMARK SMILES CC1=CC[C@@H]2[C@H]3[C@@H](C(C)C)CC[C@]2(C)[C@@H]13
REMARK SMILES IDX 1 1 2 2 3 3 4 4 5 5 6 6 15 7 13 8 12 9 11 10 7 11 14 12 8 13
REMARK SMILES IDX 9 14 10 15
REMARK H PARENT
REMARK Flexibility Score: inf
ROOT
ATOM      1  C   UNL     1     107.350 103.715 124.678  1.00  0.00     0.039 C 
ATOM      2  C   UNL     1     108.558 104.578 124.892  1.00  0.00    -0.073 C 
ATOM      3  C   UNL     1     109.610 104.543 124.034  1.00  0.00    -0.027 C 
ATOM      4  C   UNL     1     110.806 105.467 124.291  1.00  0.00     0.031 C 
ATOM      5  C   UNL     1     110.581 106.303 125.593  1.00  0.00     0.003 C 
ATOM      6  C   UNL     1     110.084 105.328 126.685  1.00  0.00     0.004 C 
ATOM      7  C   UNL     1     108.668 105.525 126.092  1.00  0.00     0.024 C 
ATOM      8  C   UNL     1     109.161 106.918 125.632  1.00  0.00    -0.022 C 
ATOM      9  C   UNL     1     109.087 107.938 126.803  1.00  0.00     0.008 C 
ATOM     10  C   UNL     1     109.380 107.294 128.184  1.00  0.00     0.005 C 
ATOM     11  C   UNL     1     110.199 105.960 128.108  1.00  0.00    -0.005 C 
ATOM     12  C   UNL     1     108.580 107.525 124.334  1.00  0.00     0.012 C 
ENDROOT
BRANCH  11  13
ATOM     13  C   UNL     1     111.674 106.154 128.593  1.00  0.00    -0.014 C 
ATOM     14  C   UNL     1     111.852 107.516 129.286  1.00  0.00     0.007 C 
ATOM     15  C   UNL     1     112.139 105.049 129.559  1.00  0.00     0.007 C 
ENDBRANCH  11  13
TORSDOF 1
ENDMDL
