MODEL 1
REMARK VINA RESULT:    -3.874      0.000      0.000
REMARK INTER + INTRA:          -5.423
REMARK INTER:                  -5.006
REMARK INTRA:                  -0.417
REMARK UNBOUND:                -0.417
REMARK SMILES CO[C@]1(CO)O[C@H](CO)[C@@H](O)[C@H]1O
REMARK SMILES IDX 3 1 12 2 10 3 7 4 6 5 2 6 1 7 4 8 5 9 13 11 11 13 8 15 9 16
REMARK H PARENT 5 10 13 12 11 14 9 17
REMARK Flexibility Score: inf
ROOT
ATOM      1  C   UNL     1       5.584  40.135  24.090  1.00  0.00     0.221 C 
ATOM      2  C   UNL     1       5.187  41.450  23.359  1.00  0.00     0.207 C 
ATOM      3  C   UNL     1       6.387  41.733  22.474  1.00  0.00     0.180 C 
ATOM      4  C   UNL     1       7.062  40.373  22.364  1.00  0.00     0.179 C 
ATOM      5  O   UNL     1       6.801  39.649  23.544  1.00  0.00    -0.337 OA
ENDROOT
BRANCH   1   6
ATOM      6  O   UNL     1       5.709  40.376  25.491  1.00  0.00    -0.349 OA
ATOM      7  C   UNL     1       4.913  41.455  25.941  1.00  0.00     0.198 C 
ENDBRANCH   1   6
BRANCH   1   8
ATOM      8  C   UNL     1       4.527  39.021  23.941  1.00  0.00     0.224 C 
BRANCH   8   9
ATOM      9  O   UNL     1       4.424  38.602  22.606  1.00  0.00    -0.391 OA
ATOM     10  H   UNL     1       4.493  39.423  22.054  1.00  0.00     0.210 HD
ENDBRANCH   8   9
ENDBRANCH   1   8
BRANCH   2  11
ATOM     11  O   UNL     1       4.015  41.300  22.591  1.00  0.00    -0.385 OA
ATOM     12  H   UNL     1       4.296  41.255  21.641  1.00  0.00     0.211 HD
ENDBRANCH   2  11
BRANCH   3  13
ATOM     13  O   UNL     1       6.022  42.208  21.203  1.00  0.00    -0.387 OA
ATOM     14  H   UNL     1       5.069  41.959  21.073  1.00  0.00     0.211 HD
ENDBRANCH   3  13
BRANCH   4  15
ATOM     15  C   UNL     1       8.576  40.505  22.158  1.00  0.00     0.191 C 
BRANCH  15  16
ATOM     16  O   UNL     1       8.856  40.995  20.875  1.00  0.00    -0.394 OA
ATOM     17  H   UNL     1       9.663  40.511  20.556  1.00  0.00     0.210 HD
ENDBRANCH  15  16
ENDBRANCH   4  15
TORSDOF 7
ENDMDL
MODEL 2
REMARK VINA RESULT:    -3.830     12.934     14.938
REMARK INTER + INTRA:          -5.366
REMARK INTER:                  -5.146
REMARK INTRA:                  -0.221
REMARK UNBOUND:                -0.417
REMARK SMILES CO[C@]1(CO)O[C@H](CO)[C@@H](O)[C@H]1O
REMARK SMILES IDX 3 1 12 2 10 3 7 4 6 5 2 6 1 7 4 8 5 9 13 11 11 13 8 15 9 16
REMARK H PARENT 5 10 13 12 11 14 9 17
REMARK Flexibility Score: inf
ROOT
ATOM      1  C   UNL     1       7.099  45.557  36.239  1.00  0.00     0.221 C 
ATOM      2  C   UNL     1       6.025  45.620  35.114  1.00  0.00     0.207 C 
ATOM      3  C   UNL     1       4.790  46.124  35.838  1.00  0.00     0.180 C 
ATOM      4  C   UNL     1       5.366  46.784  37.083  1.00  0.00     0.179 C 
ATOM      5  O   UNL     1       6.563  46.124  37.425  1.00  0.00    -0.337 OA
ENDROOT
BRANCH   1   6
ATOM      6  O   UNL     1       7.500  44.204  36.452  1.00  0.00    -0.349 OA
ATOM      7  C   UNL     1       7.048  43.678  37.684  1.00  0.00     0.198 C 
ENDBRANCH   1   6
BRANCH   1   8
ATOM      8  C   UNL     1       8.385  46.334  35.889  1.00  0.00     0.224 C 
BRANCH   8   9
ATOM      9  O   UNL     1       8.235  47.702  36.163  1.00  0.00    -0.391 OA
ATOM     10  H   UNL     1       7.779  48.092  35.373  1.00  0.00     0.210 HD
ENDBRANCH   8   9
ENDBRANCH   1   8
BRANCH   2  11
ATOM     11  O   UNL     1       6.395  46.496  34.074  1.00  0.00    -0.385 OA
ATOM     12  H   UNL     1       5.687  47.189  34.014  1.00  0.00     0.211 HD
ENDBRANCH   2  11
BRANCH   3  13
ATOM     13  O   UNL     1       4.058  47.052  35.080  1.00  0.00    -0.387 OA
ATOM     14  H   UNL     1       3.185  47.164  35.540  1.00  0.00     0.211 HD
ENDBRANCH   3  13
BRANCH   4  15
ATOM     15  C   UNL     1       4.386  46.729  38.261  1.00  0.00     0.191 C 
BRANCH  15  16
ATOM     16  O   UNL     1       5.083  46.620  39.473  1.00  0.00    -0.394 OA
ATOM     17  H   UNL     1       4.921  47.465  39.970  1.00  0.00     0.210 HD
ENDBRANCH  15  16
ENDBRANCH   4  15
TORSDOF 7
ENDMDL
MODEL 3
REMARK VINA RESULT:    -3.789      2.114      3.875
REMARK INTER + INTRA:          -5.314
REMARK INTER:                  -4.962
REMARK INTRA:                  -0.352
REMARK UNBOUND:                -0.417
REMARK SMILES CO[C@]1(CO)O[C@H](CO)[C@@H](O)[C@H]1O
REMARK SMILES IDX 3 1 12 2 10 3 7 4 6 5 2 6 1 7 4 8 5 9 13 11 11 13 8 15 9 16
REMARK H PARENT 5 10 13 12 11 14 9 17
REMARK Flexibility Score: inf
ROOT
ATOM      1  C   UNL     1       8.300  40.573  23.362  1.00  0.00     0.221 C 
ATOM      2  C   UNL     1       7.460  40.554  22.052  1.00  0.00     0.207 C 
ATOM      3  C   UNL     1       6.278  41.446  22.382  1.00  0.00     0.180 C 
ATOM      4  C   UNL     1       6.788  42.277  23.551  1.00  0.00     0.179 C 
ATOM      5  O   UNL     1       7.731  41.510  24.264  1.00  0.00    -0.337 OA
ENDROOT
BRANCH   1   6
ATOM      6  O   UNL     1       8.339  39.267  23.934  1.00  0.00    -0.349 OA
ATOM      7  C   UNL     1       7.981  39.249  25.302  1.00  0.00     0.198 C 
ENDBRANCH   1   6
BRANCH   1   8
ATOM      8  C   UNL     1       9.770  40.982  23.129  1.00  0.00     0.224 C 
BRANCH   8   9
ATOM      9  O   UNL     1      10.415  40.071  22.279  1.00  0.00    -0.391 OA
ATOM     10  H   UNL     1      11.264  39.827  22.731  1.00  0.00     0.210 HD
ENDBRANCH   8   9
ENDBRANCH   1   8
BRANCH   2  11
ATOM     11  O   UNL     1       8.181  41.055  20.950  1.00  0.00    -0.385 OA
ATOM     12  H   UNL     1       8.496  40.271  20.430  1.00  0.00     0.211 HD
ENDBRANCH   2  11
BRANCH   3  13
ATOM     13  O   UNL     1       5.909  42.275  21.310  1.00  0.00    -0.387 OA
ATOM     14  H   UNL     1       6.248  43.183  21.527  1.00  0.00     0.211 HD
ENDBRANCH   3  13
BRANCH   4  15
ATOM     15  C   UNL     1       5.650  42.704  24.485  1.00  0.00     0.191 C 
BRANCH  15  16
ATOM     16  O   UNL     1       6.040  43.803  25.262  1.00  0.00    -0.394 OA
ATOM     17  H   UNL     1       5.219  44.335  25.434  1.00  0.00     0.210 HD
ENDBRANCH  15  16
ENDBRANCH   4  15
TORSDOF 7
ENDMDL
MODEL 4
REMARK VINA RESULT:    -3.767     19.966     21.134
REMARK INTER + INTRA:          -5.285
REMARK INTER:                  -4.685
REMARK INTRA:                  -0.600
REMARK UNBOUND:                -0.417
REMARK SMILES CO[C@]1(CO)O[C@H](CO)[C@@H](O)[C@H]1O
REMARK SMILES IDX 3 1 12 2 10 3 7 4 6 5 2 6 1 7 4 8 5 9 13 11 11 13 8 15 9 16
REMARK H PARENT 5 10 13 12 11 14 9 17
REMARK Flexibility Score: inf
ROOT
ATOM      1  C   UNL     1      17.776  47.795  38.972  1.00  0.00     0.221 C 
ATOM      2  C   UNL     1      16.876  46.773  39.726  1.00  0.00     0.207 C 
ATOM      3  C   UNL     1      17.438  45.431  39.296  1.00  0.00     0.180 C 
ATOM      4  C   UNL     1      18.842  45.779  38.823  1.00  0.00     0.179 C 
ATOM      5  O   UNL     1      18.830  47.098  38.326  1.00  0.00    -0.337 OA
ENDROOT
BRANCH   1   6
ATOM      6  O   UNL     1      16.994  48.531  38.033  1.00  0.00    -0.349 OA
ATOM      7  C   UNL     1      17.666  48.758  36.810  1.00  0.00     0.198 C 
ENDBRANCH   1   6
BRANCH   1   8
ATOM      8  C   UNL     1      18.413  48.842  39.911  1.00  0.00     0.224 C 
BRANCH   8   9
ATOM      9  O   UNL     1      17.438  49.698  40.444  1.00  0.00    -0.391 OA
ATOM     10  H   UNL     1      17.796  50.619  40.343  1.00  0.00     0.210 HD
ENDBRANCH   8   9
ENDBRANCH   1   8
BRANCH   2  11
ATOM     11  O   UNL     1      16.950  46.929  41.124  1.00  0.00    -0.385 OA
ATOM     12  H   UNL     1      17.176  46.039  41.502  1.00  0.00     0.211 HD
ENDBRANCH   2  11
BRANCH   3  13
ATOM     13  O   UNL     1      17.487  44.502  40.349  1.00  0.00    -0.387 OA
ATOM     14  H   UNL     1      16.605  44.547  40.803  1.00  0.00     0.211 HD
ENDBRANCH   3  13
BRANCH   4  15
ATOM     15  C   UNL     1      19.331  44.817  37.735  1.00  0.00     0.191 C 
BRANCH  15  16
ATOM     16  O   UNL     1      19.016  43.494  38.072  1.00  0.00    -0.394 OA
ATOM     17  H   UNL     1      18.081  43.339  37.772  1.00  0.00     0.210 HD
ENDBRANCH  15  16
ENDBRANCH   4  15
TORSDOF 7
ENDMDL
MODEL 5
REMARK VINA RESULT:    -3.732     18.100     19.533
REMARK INTER + INTRA:          -5.239
REMARK INTER:                  -5.217
REMARK INTRA:                  -0.023
REMARK UNBOUND:                -0.417
REMARK SMILES CO[C@]1(CO)O[C@H](CO)[C@@H](O)[C@H]1O
REMARK SMILES IDX 3 1 12 2 10 3 7 4 6 5 2 6 1 7 4 8 5 9 13 11 11 13 8 15 9 16
REMARK H PARENT 5 10 13 12 11 14 9 17
REMARK Flexibility Score: inf
ROOT
ATOM      1  C   UNL     1      21.241  39.928  35.997  1.00  0.00     0.221 C 
ATOM      2  C   UNL     1      20.623  41.350  35.860  1.00  0.00     0.207 C 
ATOM      3  C   UNL     1      19.148  41.069  35.636  1.00  0.00     0.180 C 
ATOM      4  C   UNL     1      18.979  39.658  36.181  1.00  0.00     0.179 C 
ATOM      5  O   UNL     1      20.196  38.967  36.015  1.00  0.00    -0.337 OA
ENDROOT
BRANCH   1   6
ATOM      6  O   UNL     1      22.144  39.685  34.920  1.00  0.00    -0.349 OA
ATOM      7  C   UNL     1      21.604  40.017  33.657  1.00  0.00     0.198 C 
ENDBRANCH   1   6
BRANCH   1   8
ATOM      8  C   UNL     1      22.061  39.750  37.292  1.00  0.00     0.224 C 
BRANCH   8   9
ATOM      9  O   UNL     1      21.219  39.627  38.407  1.00  0.00    -0.391 OA
ATOM     10  H   UNL     1      20.292  39.684  38.059  1.00  0.00     0.210 HD
ENDBRANCH   8   9
ENDBRANCH   1   8
BRANCH   2  11
ATOM     11  O   UNL     1      20.820  42.129  37.017  1.00  0.00    -0.385 OA
ATOM     12  H   UNL     1      21.739  41.940  37.341  1.00  0.00     0.211 HD
ENDBRANCH   2  11
BRANCH   3  13
ATOM     13  O   UNL     1      18.315  41.968  36.323  1.00  0.00    -0.387 OA
ATOM     14  H   UNL     1      18.655  42.878  36.117  1.00  0.00     0.211 HD
ENDBRANCH   3  13
BRANCH   4  15
ATOM     15  C   UNL     1      17.851  38.904  35.467  1.00  0.00     0.191 C 
BRANCH  15  16
ATOM     16  O   UNL     1      17.794  37.574  35.907  1.00  0.00    -0.394 OA
ATOM     17  H   UNL     1      18.558  37.102  35.482  1.00  0.00     0.210 HD
ENDBRANCH  15  16
ENDBRANCH   4  15
TORSDOF 7
ENDMDL
MODEL 6
REMARK VINA RESULT:    -3.678      1.374      1.724
REMARK INTER + INTRA:          -5.169
REMARK INTER:                  -4.716
REMARK INTRA:                  -0.453
REMARK UNBOUND:                -0.417
REMARK SMILES CO[C@]1(CO)O[C@H](CO)[C@@H](O)[C@H]1O
REMARK SMILES IDX 3 1 12 2 10 3 7 4 6 5 2 6 1 7 4 8 5 9 13 11 11 13 8 15 9 16
REMARK H PARENT 5 10 13 12 11 14 9 17
REMARK Flexibility Score: inf
ROOT
ATOM      1  C   UNL     1       5.904  41.078  23.953  1.00  0.00     0.221 C 
ATOM      2  C   UNL     1       6.546  41.893  22.792  1.00  0.00     0.207 C 
ATOM      3  C   UNL     1       7.858  41.171  22.544  1.00  0.00     0.180 C 
ATOM      4  C   UNL     1       7.614  39.794  23.144  1.00  0.00     0.179 C 
ATOM      5  O   UNL     1       6.697  39.928  24.206  1.00  0.00    -0.337 OA
ENDROOT
BRANCH   1   6
ATOM      6  O   UNL     1       5.795  41.894  25.117  1.00  0.00    -0.349 OA
ATOM      7  C   UNL     1       4.942  43.008  24.937  1.00  0.00     0.198 C 
ENDBRANCH   1   6
BRANCH   1   8
ATOM      8  C   UNL     1       4.473  40.598  23.631  1.00  0.00     0.224 C 
BRANCH   8   9
ATOM      9  O   UNL     1       4.495  39.530  22.722  1.00  0.00    -0.391 OA
ATOM     10  H   UNL     1       4.556  39.938  21.819  1.00  0.00     0.210 HD
ENDBRANCH   8   9
ENDBRANCH   1   8
BRANCH   2  11
ATOM     11  O   UNL     1       5.743  41.896  21.635  1.00  0.00    -0.385 OA
ATOM     12  H   UNL     1       5.616  40.948  21.369  1.00  0.00     0.211 HD
ENDBRANCH   2  11
BRANCH   3  13
ATOM     13  O   UNL     1       8.168  41.067  21.177  1.00  0.00    -0.387 OA
ATOM     14  H   UNL     1       7.805  40.193  20.874  1.00  0.00     0.211 HD
ENDBRANCH   3  13
BRANCH   4  15
ATOM     15  C   UNL     1       8.912  39.158  23.655  1.00  0.00     0.191 C 
BRANCH  15  16
ATOM     16  O   UNL     1      10.001  39.575  22.877  1.00  0.00    -0.394 OA
ATOM     17  H   UNL     1      10.716  38.896  23.002  1.00  0.00     0.210 HD
ENDBRANCH  15  16
ENDBRANCH   4  15
TORSDOF 7
ENDMDL
MODEL 7
REMARK VINA RESULT:    -3.675     19.449     20.793
REMARK INTER + INTRA:          -5.165
REMARK INTER:                  -4.721
REMARK INTRA:                  -0.444
REMARK UNBOUND:                -0.417
REMARK SMILES CO[C@]1(CO)O[C@H](CO)[C@@H](O)[C@H]1O
REMARK SMILES IDX 3 1 12 2 10 3 7 4 6 5 2 6 1 7 4 8 5 9 13 11 11 13 8 15 9 16
REMARK H PARENT 5 10 13 12 11 14 9 17
REMARK Flexibility Score: inf
ROOT
ATOM      1  C   UNL     1      17.294  46.628  38.702  1.00  0.00     0.221 C 
ATOM      2  C   UNL     1      17.598  47.559  39.911  1.00  0.00     0.207 C 
ATOM      3  C   UNL     1      16.883  48.847  39.547  1.00  0.00     0.180 C 
ATOM      4  C   UNL     1      15.854  48.394  38.521  1.00  0.00     0.179 C 
ATOM      5  O   UNL     1      16.370  47.274  37.839  1.00  0.00    -0.337 OA
ENDROOT
BRANCH   1   6
ATOM      6  O   UNL     1      18.504  46.312  38.015  1.00  0.00    -0.349 OA
ATOM      7  C   UNL     1      19.634  46.973  38.551  1.00  0.00     0.198 C 
ENDBRANCH   1   6
BRANCH   1   8
ATOM      8  C   UNL     1      16.677  45.278  39.122  1.00  0.00     0.224 C 
BRANCH   8   9
ATOM      9  O   UNL     1      17.564  44.549  39.929  1.00  0.00    -0.391 OA
ATOM     10  H   UNL     1      18.256  45.194  40.228  1.00  0.00     0.210 HD
ENDBRANCH   8   9
ENDBRANCH   1   8
BRANCH   2  11
ATOM     11  O   UNL     1      17.110  47.034  41.123  1.00  0.00    -0.385 OA
ATOM     12  H   UNL     1      17.878  46.990  41.750  1.00  0.00     0.211 HD
ENDBRANCH   2  11
BRANCH   3  13
ATOM     13  O   UNL     1      16.251  49.446  40.650  1.00  0.00    -0.387 OA
ATOM     14  H   UNL     1      15.561  50.058  40.280  1.00  0.00     0.211 HD
ENDBRANCH   3  13
BRANCH   4  15
ATOM     15  C   UNL     1      15.521  49.505  37.520  1.00  0.00     0.191 C 
BRANCH  15  16
ATOM     16  O   UNL     1      14.616  50.416  38.082  1.00  0.00    -0.394 OA
ATOM     17  H   UNL     1      14.292  50.991  37.339  1.00  0.00     0.210 HD
ENDBRANCH  15  16
ENDBRANCH   4  15
TORSDOF 7
ENDMDL
MODEL 8
REMARK VINA RESULT:    -3.669     19.677     21.214
REMARK INTER + INTRA:          -5.159
REMARK INTER:                  -4.640
REMARK INTRA:                  -0.518
REMARK UNBOUND:                -0.417
REMARK SMILES CO[C@]1(CO)O[C@H](CO)[C@@H](O)[C@H]1O
REMARK SMILES IDX 3 1 12 2 10 3 7 4 6 5 2 6 1 7 4 8 5 9 13 11 11 13 8 15 9 16
REMARK H PARENT 5 10 13 12 11 14 9 17
REMARK Flexibility Score: inf
ROOT
ATOM      1  C   UNL     1      16.746  48.368  39.129  1.00  0.00     0.221 C 
ATOM      2  C   UNL     1      17.585  47.921  40.362  1.00  0.00     0.207 C 
ATOM      3  C   UNL     1      16.995  46.568  40.713  1.00  0.00     0.180 C 
ATOM      4  C   UNL     1      16.313  46.143  39.420  1.00  0.00     0.179 C 
ATOM      5  O   UNL     1      15.896  47.302  38.735  1.00  0.00    -0.337 OA
ENDROOT
BRANCH   1   6
ATOM      6  O   UNL     1      15.992  49.535  39.451  1.00  0.00    -0.349 OA
ATOM      7  C   UNL     1      15.074  49.898  38.439  1.00  0.00     0.198 C 
ENDBRANCH   1   6
BRANCH   1   8
ATOM      8  C   UNL     1      17.619  48.744  37.913  1.00  0.00     0.224 C 
BRANCH   8   9
ATOM      9  O   UNL     1      18.473  49.814  38.220  1.00  0.00    -0.391 OA
ATOM     10  H   UNL     1      17.925  50.465  38.731  1.00  0.00     0.210 HD
ENDBRANCH   8   9
ENDBRANCH   1   8
BRANCH   2  11
ATOM     11  O   UNL     1      18.957  47.814  40.062  1.00  0.00    -0.385 OA
ATOM     12  H   UNL     1      19.125  46.868  39.815  1.00  0.00     0.211 HD
ENDBRANCH   2  11
BRANCH   3  13
ATOM     13  O   UNL     1      17.973  45.631  41.086  1.00  0.00    -0.387 OA
ATOM     14  H   UNL     1      17.859  45.481  42.062  1.00  0.00     0.211 HD
ENDBRANCH   3  13
BRANCH   4  15
ATOM     15  C   UNL     1      15.107  45.233  39.685  1.00  0.00     0.191 C 
BRANCH  15  16
ATOM     16  O   UNL     1      14.989  44.963  41.056  1.00  0.00    -0.394 OA
ATOM     17  H   UNL     1      14.408  44.161  41.138  1.00  0.00     0.210 HD
ENDBRANCH  15  16
ENDBRANCH   4  15
TORSDOF 7
ENDMDL
MODEL 9
REMARK VINA RESULT:    -3.636     17.966     19.217
REMARK INTER + INTRA:          -5.115
REMARK INTER:                  -4.934
REMARK INTRA:                  -0.181
REMARK UNBOUND:                -0.417
REMARK SMILES CO[C@]1(CO)O[C@H](CO)[C@@H](O)[C@H]1O
REMARK SMILES IDX 3 1 12 2 10 3 7 4 6 5 2 6 1 7 4 8 5 9 13 11 11 13 8 15 9 16
REMARK H PARENT 5 10 13 12 11 14 9 17
REMARK Flexibility Score: inf
ROOT
ATOM      1  C   UNL     1      19.292  40.949  35.587  1.00  0.00     0.221 C 
ATOM      2  C   UNL     1      20.351  40.888  34.448  1.00  0.00     0.207 C 
ATOM      3  C   UNL     1      21.571  40.305  35.137  1.00  0.00     0.180 C 
ATOM      4  C   UNL     1      20.981  39.618  36.360  1.00  0.00     0.179 C 
ATOM      5  O   UNL     1      19.815  40.312  36.742  1.00  0.00    -0.337 OA
ENDROOT
BRANCH   1   6
ATOM      6  O   UNL     1      18.949  42.307  35.860  1.00  0.00    -0.349 OA
ATOM      7  C   UNL     1      19.368  42.739  37.139  1.00  0.00     0.198 C 
ENDBRANCH   1   6
BRANCH   1   8
ATOM      8  C   UNL     1      17.972  40.240  35.219  1.00  0.00     0.224 C 
BRANCH   8   9
ATOM      9  O   UNL     1      17.565  39.374  36.245  1.00  0.00    -0.391 OA
ATOM     10  H   UNL     1      17.138  38.598  35.796  1.00  0.00     0.210 HD
ENDBRANCH   8   9
ENDBRANCH   1   8
BRANCH   2  11
ATOM     11  O   UNL     1      19.936  40.072  33.378  1.00  0.00    -0.385 OA
ATOM     12  H   UNL     1      19.050  40.410  33.083  1.00  0.00     0.211 HD
ENDBRANCH   2  11
BRANCH   3  13
ATOM     13  O   UNL     1      22.257  39.380  34.333  1.00  0.00    -0.387 OA
ATOM     14  H   UNL     1      22.839  38.855  34.943  1.00  0.00     0.211 HD
ENDBRANCH   3  13
BRANCH   4  15
ATOM     15  C   UNL     1      21.973  39.584  37.529  1.00  0.00     0.191 C 
BRANCH  15  16
ATOM     16  O   UNL     1      21.289  39.549  38.752  1.00  0.00    -0.394 OA
ATOM     17  H   UNL     1      21.115  38.592  38.952  1.00  0.00     0.210 HD
ENDBRANCH  15  16
ENDBRANCH   4  15
TORSDOF 7
ENDMDL
